data_PCOD9038927
_publ_section_title
;
Structure prediction by ZEFSAII (Michael W. Deem and Ramdas Pophale) SiO2 
 PCOD9038927
Probable space group: P -1
;
_chemical_formula_sum "Si O2"
_cell_formula_units_Z 16
_cell_length_a 10.081770
_cell_length_b 15.251712
_cell_length_c 5.463632
_cell_angle_alpha 112.531919
_cell_angle_beta 118.041559
_cell_angle_gamma 81.287105
_cell_volume 684.463931
_symmetry_space_group_name_H-M "P -1"
_symmetry_group_IT_number 2
_symmetry_cell_setting 'triclinic'
loop_
_space_group_symop_operation_xyz
x,y,z
-x,-y,-z
loop_
_atom_site_type_symbol
_atom_site_label
_atom_site_fract_x
_atom_site_fract_y
_atom_site_fract_z
Si Si1 0.172382 0.707298 0.916793
Si Si2 0.737968 0.857261 0.691893
Si Si3 0.608918 0.117178 0.650023
Si Si4 0.732043 0.034027 0.183227
Si Si5 0.987801 0.838030 0.534128
Si Si6 0.458153 0.610213 0.059148
Si Si7 0.577336 0.604054 0.660727
Si Si8 0.128599 0.310320 0.110158
O O1 0.090343 0.765625 0.698126
O O2 0.037629 0.666839 0.924486
O O3 0.285836 0.789135 0.210023
O O4 0.284233 0.624568 0.862811
O O5 0.566891 0.862118 0.462032
O O6 0.869772 0.892344 0.658374
O O7 0.787873 0.750924 0.677434
O O8 0.748280 0.924377 0.011640
O O9 0.638034 0.052294 0.366923
O O10 0.661314 0.075295 0.912074
O O11 0.894003 0.088580 0.410255
O O12 0.895526 0.766623 0.204632
O O13 0.500679 0.649625 0.406475
O O14 0.500000 0.500000 0.000000
O O15 0.545255 0.652501 0.944347
O O16 0.500000 0.500000 0.500000
O O17 0.755389 0.606046 0.774024
#
# Coordination Sequence:
#
# PCOD9038927 Si02
#       8
#     2   2   2   2   2   2   2   2
#     4  10  23  42  64  97 135 173 217 274 323 399
#     4  11  25  39  65  95 131 179 228 278 322 387
#     4  11  24  41  64  95 130 178 228 272 329 377
#     4  11  24  44  62  93 137 177 225 279 327 380
#     4  10  24  41  62  97 132 181 222 268 332 388
#     4  10  23  45  73 101 129 167 214 270 334 393
#     4  10  24  45  70  98 131 165 216 272 328 397
#     4  11  24  41  67  96 132 176 224 267 334 395
#
# _framework density 23.375957
#
# number of rings (size 3 to 8) (size 9 to 14) (size 15 to 20)
#    0.000    1.500    1.250    1.875   10.500    1.500 
#    0.000    5.000    0.000    0.000    0.000    0.000 
#    0.000    0.000    0.000    0.000    0.000    0.000 
#
# Total GULP energy -89360.399094 kJ/mol
# GULP energy per Si atom -5585.024943 kJ/mol
# Density = 2.332275 g / cm^3
# Si number density = 23.375957 Si / 1000 Ang^3
#
#
#
# Elastic Constant Matrix: (Units=GPa)
#
#
# Indices 1 2 3 4 5 6 
#
# 1 172.7280 57.4066 38.6360 -8.2587 20.9512 -9.1922
# 2 57.4066 69.3986 19.6929 -3.0167 9.4158 -18.8691
# 3 38.6360 19.6929 87.3144 -17.9348 -1.7362 6.7486
# 4 -8.2587 -3.0167 -17.9348 23.4536 12.0992 7.9525
# 5 20.9512 9.4158 -1.7362 12.0992 49.6197 4.5750
# 6 -9.1922 -18.8691 6.7486 7.9525 4.5750 36.4213
#
#
#
# Elastic Compliance Matrix: (Units=1/GPa)
#
#
# Indices 1 2 3 4 5 6 
#
# 1 0.008827 -0.006508 -0.001838 0.002842 -0.003155 -0.001028
# 2 -0.006508 0.025079 -0.005340 -0.007006 -0.001789 0.014094
# 3 -0.001838 -0.005340 0.017413 0.015555 -0.000491 -0.009792
# 4 0.002842 -0.007006 0.015555 0.068411 -0.014261 -0.018940
# 5 -0.003155 -0.001789 -0.000491 -0.014261 0.025443 -0.001714
# 6 -0.001028 0.014094 -0.009792 -0.018940 -0.001714 0.040664
#
#
# Mechanical properties :
#
#
# Convention : Reuss Voigt Hill
#
# Bulk Modulus (GPa) = 41.76063 62.32355 52.04209
# Shear Modulus (GPa) = 22.60483 36.14598 29.37540
#
# Velocity S-wave (km/s) = 3.11306 3.93655 3.54877
# Velocity P-wave (km/s) = 5.55203 6.88340 6.25325
#
# Compressibility (1/GPa) = 0.02394600
#
# Stress axis : x y z
#
# Youngs Moduli (GPa) = 113.28292 39.87401 57.42987
#
# Poissons Ratio (x) = 0.25952 0.10554
# Poissons Ratio (y) = 0.73730 0.30669
# Poissons Ratio (z) = 0.20819 0.21294
#
# Static dielectric constant tensor:
#      x y z
#    x 1.917800 0.012780 -0.038190 
#    y 0.012780 1.762110 -0.033850 
#    z -0.038190 -0.033850 1.935830 
# 
# From -- ./inp_files/48509.got.cif
#   From: 2010.05.17/outbox.cif.g08.bks.cpg/sg2_25_cif.got.tgz:48509.got - 2010.06.03 11:33:40.
