data_PCOD9038568
_publ_section_title
;
Structure prediction by ZEFSAII (Michael W. Deem and Ramdas Pophale) SiO2 
 PCOD9038568
Probable space group: P -1
;
_chemical_formula_sum "Si O2"
_cell_formula_units_Z 14
_cell_length_a 18.382239
_cell_length_b 11.624593
_cell_length_c 8.076683
_cell_angle_alpha 42.937823
_cell_angle_beta 55.794377
_cell_angle_gamma 33.927869
_cell_volume 651.529859
_symmetry_space_group_name_H-M "P -1"
_symmetry_group_IT_number 2
_symmetry_cell_setting 'triclinic'
loop_
_space_group_symop_operation_xyz
x,y,z
-x,-y,-z
loop_
_atom_site_type_symbol
_atom_site_label
_atom_site_fract_x
_atom_site_fract_y
_atom_site_fract_z
Si Si1 0.294875 0.715626 0.620649
Si Si2 0.564652 0.282794 0.282916
Si Si3 0.044698 0.093912 0.744444
Si Si4 0.069265 0.082109 0.278148
Si Si5 0.858384 0.529871 0.266880
Si Si6 0.837162 0.870097 0.184012
Si Si7 0.590169 0.747742 0.261478
O O1 0.400029 0.670585 0.638931
O O2 0.356990 0.473216 0.697173
O O3 0.185685 0.829804 0.776324
O O4 0.194902 0.947688 0.374938
O O5 0.481636 0.242615 0.501462
O O6 0.698705 0.042105 0.271657
O O7 0.500000 0.500000 0.000000
O O8 0.065266 0.232914 0.680390
O O9 0.939168 0.289470 0.535766
O O10 0.000000 0.000000 0.000000
O O11 0.951612 0.384541 0.138251
O O12 0.134095 0.003306 0.097651
O O13 0.000000 0.000000 0.500000
O O14 0.850282 0.707878 0.200482
O O15 0.715469 0.670312 0.251152
O O16 0.500000 0.000000 0.000000
#
# Coordination Sequence:
#
# PCOD9038568 Si02
#       7
#     2   2   2   2   2   2   2
#     4  10  23  43  70  94 132 181 236 276 333 412
#     4  11  27  46  71  96 138 189 235 281 333 409
#     4  10  23  41  71 102 131 173 225 290 345 402
#     4  11  21  43  73 102 130 179 231 284 342 416
#     4  11  25  42  68 102 140 175 222 288 353 408
#     4  11  24  43  68 104 140 172 225 288 357 397
#     4  12  28  46  68 102 140 187 234 276 340 414
#
# _framework density 21.487888000000002
#
# number of rings (size 3 to 8) (size 9 to 14) (size 15 to 20)
#    0.000    1.143    1.429    3.857    8.000    1.714 
#    2.571    0.000    0.000    0.000    0.000    0.000 
#    0.000    0.000    0.000    0.000    0.000    0.000 
#
# Total GULP energy -77990.850762 kJ/mol
# GULP energy per Si atom -5570.775054 kJ/mol
# Density = 2.143898 g / cm^3
# Si number density = 21.487888 Si / 1000 Ang^3
#
#
#
# Elastic Constant Matrix: (Units=GPa)
#
#
# Indices 1 2 3 4 5 6 
#
# 1 154.2496 73.5131 41.2591 0.0780 8.3694 -7.5678
# 2 73.5131 107.1237 56.3519 8.7367 -16.0445 5.0754
# 3 41.2591 56.3519 77.8882 15.4493 -5.1580 -16.6275
# 4 0.0780 8.7367 15.4493 32.0296 0.1191 5.7166
# 5 8.3694 -16.0445 -5.1580 0.1191 28.9316 -11.4798
# 6 -7.5678 5.0754 -16.6275 5.7166 -11.4798 43.5532
#
#
#
# Elastic Compliance Matrix: (Units=1/GPa)
#
#
# Indices 1 2 3 4 5 6 
#
# 1 0.011373 -0.008996 -0.000528 0.002659 -0.008267 0.000295
# 2 -0.008996 0.024951 -0.014386 0.001408 0.010992 -0.007250
# 3 -0.000528 -0.014386 0.029743 -0.013231 0.003747 0.015664
# 4 0.002659 0.001408 -0.013231 0.039348 -0.007197 -0.011815
# 5 -0.008267 0.010992 0.003747 -0.007197 0.048708 0.012496
# 6 0.000295 -0.007250 0.015664 -0.011815 0.012496 0.034681
#
#
# Mechanical properties :
#
#
# Convention : Reuss Voigt Hill
#
# Bulk Modulus (GPa) = 54.80089 75.72329 65.26209
# Shear Modulus (GPa) = 20.60092 32.11203 26.35648
#
# Velocity S-wave (km/s) = 3.09968 3.86997 3.50605
# Velocity P-wave (km/s) = 6.19429 7.43542 6.84305
#
# Compressibility (1/GPa) = 0.01824788
#
# Stress axis : x y z
#
# Youngs Moduli (GPa) = 87.92441 40.07798 33.62125
#
# Poissons Ratio (x) = 0.36056 0.01775
# Poissons Ratio (y) = 0.79100 0.48367
# Poissons Ratio (z) = 0.04641 0.57656
#
# Static dielectric constant tensor:
#      x y z
#    x 1.847810 0.047950 -0.003790 
#    y 0.047950 1.841230 0.026560 
#    z -0.003790 0.026560 1.842260 
# 
# From -- ./inp_files/278926.got.cif
#   From: 2010.05.17/outbox.cif.g08.bks.cpg/sg2_140_cif.got.tgz:278926.got - 2010.06.03 11:33:40.
