data_PCOD9038310
_publ_section_title
;
Structure prediction by ZEFSAII (Michael W. Deem and Ramdas Pophale) SiO2 
 PCOD9038310
Probable space group: P -1
;
_chemical_formula_sum "Si O2"
_cell_formula_units_Z 14
_cell_length_a 11.788714
_cell_length_b 14.204765
_cell_length_c 10.590196
_cell_angle_alpha 148.720013
_cell_angle_beta 129.776372
_cell_angle_gamma 38.329028
_cell_volume 568.455813
_symmetry_space_group_name_H-M "P -1"
_symmetry_group_IT_number 2
_symmetry_cell_setting 'triclinic'
loop_
_space_group_symop_operation_xyz
x,y,z
-x,-y,-z
loop_
_atom_site_type_symbol
_atom_site_label
_atom_site_fract_x
_atom_site_fract_y
_atom_site_fract_z
Si Si1 0.569530 0.718001 0.677554
Si Si2 0.605436 0.026708 0.909274
Si Si3 0.423977 0.486685 0.202625
Si Si4 0.160816 0.685176 0.028468
Si Si5 0.050526 0.843534 0.477991
Si Si6 0.005005 0.208498 0.209735
Si Si7 0.980503 0.457679 0.733018
O O1 0.419668 0.853716 0.836261
O O2 0.578088 0.509945 0.391407
O O3 0.760788 0.642496 0.787873
O O4 0.531291 0.881932 0.722640
O O5 0.492251 0.231814 0.966218
O O6 0.812394 0.871598 0.830354
O O7 0.260191 0.639817 0.362657
O O8 0.345343 0.594935 0.133249
O O9 0.162653 0.626931 0.817279
O O10 0.078426 0.577929 0.927772
O O11 0.023620 0.958517 0.245658
O O12 0.963875 0.714156 0.308630
O O13 0.000000 0.000000 0.500000
O O14 0.009609 0.323341 0.470870
O O15 0.000000 0.000000 0.000000
#
# Coordination Sequence:
#
# PCOD9038310 Si02
#       7
#     2   2   2   2   2   2   2
#     4  11  24  41  73 100 139 178 234 287 344 403
#     4  11  24  44  69 105 137 181 233 287 341 414
#     4  11  24  41  69 100 141 172 223 293 352 389
#     4  11  25  44  67 104 138 182 232 282 342 416
#     4  10  23  41  68 103 138 173 230 287 342 402
#     4  12  24  45  75  99 139 187 237 279 337 419
#     4  12  24  44  75  99 136 191 232 281 340 416
#
# _framework density 24.628122999999999
#
# number of rings (size 3 to 8) (size 9 to 14) (size 15 to 20)
#    0.000    0.857    4.286    2.571    2.000    4.571 
#    0.000    3.571    0.000    0.000    0.000    0.000 
#    0.000    0.000    0.000    0.000    0.000    0.000 
#
# Total GULP energy -78258.710125 kJ/mol
# GULP energy per Si atom -5589.907866 kJ/mol
# Density = 2.457207 g / cm^3
# Si number density = 24.628123 Si / 1000 Ang^3
#
#
#
# Elastic Constant Matrix: (Units=GPa)
#
#
# Indices 1 2 3 4 5 6 
#
# 1 89.8353 9.0378 17.4452 2.3090 -3.7623 22.9276
# 2 9.0378 75.1863 7.6723 4.0020 3.7081 20.4067
# 3 17.4452 7.6723 70.4950 13.7970 12.3009 8.2657
# 4 2.3090 4.0020 13.7970 34.9967 7.3879 4.8702
# 5 -3.7623 3.7081 12.3009 7.3879 45.9179 9.7612
# 6 22.9276 20.4067 8.2657 4.8702 9.7612 36.9066
#
#
#
# Elastic Compliance Matrix: (Units=1/GPa)
#
#
# Indices 1 2 3 4 5 6 
#
# 1 0.014350 0.001069 -0.003353 0.000795 0.003966 -0.009908
# 2 0.001069 0.015797 -0.000998 -0.000415 0.001149 -0.009424
# 3 -0.003353 -0.000998 0.016824 -0.005554 -0.003944 0.000643
# 4 0.000795 -0.000415 -0.005554 0.031729 -0.003006 -0.002412
# 5 0.003966 0.001149 -0.003944 -0.003006 0.025363 -0.008528
# 6 -0.009908 -0.009424 0.000643 -0.002412 -0.008528 0.040891
#
#
# Mechanical properties :
#
#
# Convention : Reuss Voigt Hill
#
# Bulk Modulus (GPa) = 24.74956 33.75859 29.25407
# Shear Modulus (GPa) = 30.30544 36.98834 33.64689
#
# Velocity S-wave (km/s) = 3.51168 3.87961 3.70022
# Velocity P-wave (km/s) = 5.14915 5.81425 5.49178
#
# Compressibility (1/GPa) = 0.04040476
#
# Stress axis : x y z
#
# Youngs Moduli (GPa) = 69.68876 63.30343 59.44014
#
# Poissons Ratio (x) = -0.06764 0.19931
# Poissons Ratio (y) = -0.07447 0.05933
# Poissons Ratio (z) = 0.23368 0.06318
#
# Static dielectric constant tensor:
#      x y z
#    x 1.974300 0.018810 -0.028670 
#    y 0.018810 1.981330 0.024650 
#    z -0.028670 0.024650 1.971140 
# 
# From -- ./inp_files/433545.got.cif
#   From: 2010.05.17/outbox.cif.g08.bks.cpg/sg2_217_cif.got.tgz:433545.got - 2010.06.03 11:33:40.
