data_PCOD9038802
_publ_section_title
;
Structure prediction by ZEFSAII (Michael W. Deem and Ramdas Pophale) SiO2 
 PCOD9038802
Probable space group: P -1
;
_chemical_formula_sum "Si O2"
_cell_formula_units_Z 16
_cell_length_a 5.835643
_cell_length_b 22.537890
_cell_length_c 5.682791
_cell_angle_alpha 119.986076
_cell_angle_beta 73.380438
_cell_angle_gamma 98.254400
_cell_volume 620.329693
_symmetry_space_group_name_H-M "P -1"
_symmetry_group_IT_number 2
_symmetry_cell_setting 'triclinic'
loop_
_space_group_symop_operation_xyz
x,y,z
-x,-y,-z
loop_
_atom_site_type_symbol
_atom_site_label
_atom_site_fract_x
_atom_site_fract_y
_atom_site_fract_z
Si Si1 0.095606 0.404562 0.877372
Si Si2 0.696765 0.229935 0.691382
Si Si3 0.783113 0.510989 0.394212
Si Si4 0.470855 0.116082 0.217660
Si Si5 0.471115 0.653156 0.324846
Si Si6 0.717303 0.004530 0.647885
Si Si7 0.925104 0.301253 0.128297
Si Si8 0.204782 0.232965 0.288855
O O1 0.013304 0.346159 0.972956
O O2 0.167679 0.416289 0.603449
O O3 0.370780 0.413310 0.906396
O O4 0.868352 0.453937 0.067981
O O5 0.548809 0.168570 0.503923
O O6 0.591635 0.303637 0.798576
O O7 0.754615 0.239037 0.964328
O O8 0.949147 0.225356 0.474519
O O9 0.500000 0.500000 0.500000
O O10 0.000000 0.500000 0.500000
O O11 0.327146 0.056795 0.275592
O O12 0.330383 0.161356 0.157890
O O13 0.676076 0.075948 0.938522
O O14 0.650730 0.705269 0.510725
O O15 0.237740 0.653681 0.557957
O O16 0.500000 0.000000 0.500000
O O17 0.000000 0.000000 0.500000
O O18 0.140540 0.260752 0.106729
#
# Coordination Sequence:
#
# PCOD9038802 Si02
#       8
#     2   2   2   2   2   2   2   2
#     4  11  25  45  75 104 144 192 244 309 363 442
#     4  10  23  43  69 105 147 192 234 301 371 444
#     4  11  28  51  75 107 143 197 255 309 364 430
#     4  10  26  49  73 104 154 186 251 307 364 447
#     4  10  23  42  63 102 145 184 236 292 366 444
#     4  11  28  50  80 109 141 203 254 310 370 428
#     4  11  24  41  70 106 148 187 240 295 381 447
#     4  10  23  43  65 106 145 187 232 298 368 448
#
# _framework density 25.792735
#
# number of rings (size 3 to 8) (size 9 to 14) (size 15 to 20)
#    0.000    1.500    1.250    0.750    7.000    9.000 
#    0.000    0.000    0.000    0.000    0.000    0.000 
#    0.000    0.000    0.000    0.000    0.000    0.000 
#
# Total GULP energy -89217.093071 kJ/mol
# GULP energy per Si atom -5576.068317 kJ/mol
# Density = 2.573403 g / cm^3
# Si number density = 25.792735 Si / 1000 Ang^3
#
#
#
# Elastic Constant Matrix: (Units=GPa)
#
#
# Indices 1 2 3 4 5 6 
#
# 1 178.9350 65.0865 58.3605 -7.3658 -25.1745 -23.7850
# 2 65.0865 150.8675 30.8134 -8.5936 -29.0557 -29.7306
# 3 58.3605 30.8134 82.8892 -2.9332 -41.1946 1.5153
# 4 -7.3658 -8.5936 -2.9332 28.9668 1.9270 -3.1068
# 5 -25.1745 -29.0557 -41.1946 1.9270 63.7953 -2.9544
# 6 -23.7850 -29.7306 1.5153 -3.1068 -2.9544 31.8959
#
#
#
# Elastic Compliance Matrix: (Units=1/GPa)
#
#
# Indices 1 2 3 4 5 6 
#
# 1 0.008837 -0.001553 -0.006184 0.001819 -0.001013 0.005519
# 2 -0.001553 0.010165 -0.000854 0.003251 0.003785 0.009025
# 3 -0.006184 -0.000854 0.022509 -0.000900 0.011478 -0.005502
# 4 0.001819 0.003251 -0.000900 0.036666 0.000884 0.008083
# 5 -0.001013 0.003785 0.011478 0.000884 0.024597 0.004592
# 6 0.005519 0.009025 -0.005502 0.008083 0.004592 0.045354
#
#
# Mechanical properties :
#
#
# Convention : Reuss Voigt Hill
#
# Bulk Modulus (GPa) = 41.10494 80.13471 60.61982
# Shear Modulus (GPa) = 28.83164 42.16034 35.49599
#
# Velocity S-wave (km/s) = 3.34701 4.04738 3.71374
# Velocity P-wave (km/s) = 5.55948 7.27859 6.47633
#
# Compressibility (1/GPa) = 0.02432798
#
# Stress axis : x y z
#
# Youngs Moduli (GPa) = 113.16657 98.37221 44.42654
#
# Poissons Ratio (x) = 0.15277 0.27475
# Poissons Ratio (y) = 0.17575 0.03795
# Poissons Ratio (z) = 0.69985 0.08404
#
# Static dielectric constant tensor:
#      x y z
#    x 2.149930 -0.016250 -0.011780 
#    y -0.016250 2.065610 0.094100 
#    z -0.011780 0.094100 2.266260 
# 
# From -- ./inp_files/13545.got.cif
#   From: 2010.05.17/outbox.cif.g08.bks.cpg/sg2_7_cif.got.tgz:13545.got - 2010.06.03 11:33:40.
