data_PCOD9038559
_publ_section_title
;
Structure prediction by ZEFSAII (Michael W. Deem and Ramdas Pophale) SiO2 
 PCOD9038559
Probable space group: P -1
;
_chemical_formula_sum "Si O2"
_cell_formula_units_Z 12
_cell_length_a 14.103335
_cell_length_b 9.817481
_cell_length_c 10.282763
_cell_angle_alpha 149.932074
_cell_angle_beta 136.295494
_cell_angle_gamma 59.624368
_cell_volume 462.329053
_symmetry_space_group_name_H-M "P -1"
_symmetry_group_IT_number 2
_symmetry_cell_setting 'triclinic'
loop_
_space_group_symop_operation_xyz
x,y,z
-x,-y,-z
loop_
_atom_site_type_symbol
_atom_site_label
_atom_site_fract_x
_atom_site_fract_y
_atom_site_fract_z
Si Si1 0.867198 0.239949 0.210792
Si Si2 0.159026 0.560213 0.057768
Si Si3 0.300739 0.394984 0.533713
Si Si4 0.448159 0.774526 0.650310
Si Si5 0.900773 0.789124 0.048795
Si Si6 0.439358 0.747342 0.334173
O O1 0.754731 0.395274 0.264948
O O2 0.000000 0.500000 0.500000
O O3 0.921560 0.112293 0.287981
O O4 0.792831 0.947150 0.810289
O O5 0.281197 0.748835 0.436714
O O6 0.265709 0.593692 0.065817
O O7 0.029327 0.687988 0.033923
O O8 0.113845 0.268207 0.859061
O O9 0.472312 0.467969 0.783770
O O10 0.245240 0.396609 0.331385
O O11 0.500000 0.500000 0.500000
O O12 0.508788 0.870581 0.645280
O O13 0.500000 0.000000 0.000000
O O14 0.500000 0.000000 0.500000
#
# Coordination Sequence:
#
# PCOD9038559 Si02
#       6
#     2   2   2   2   2   2
#     4  10  23  41  70  99 142 193 244 295 370 445
#     4   9  21  45  69 111 145 193 246 315 364 444
#     4  10  23  43  71 102 144 191 245 297 378 436
#     4  10  23  46  73 104 143 197 242 298 368 447
#     4   9  21  43  72 103 142 192 253 301 367 442
#     4  10  24  43  73 112 156 189 252 310 380 436
#
# _framework density 25.955539000000002
#
# number of rings (size 3 to 8) (size 9 to 14) (size 15 to 20)
#    2.000    0.333    0.000    1.500    2.333    2.667 
#    3.000    5.833    0.000    0.000    0.000    0.000 
#    0.000    0.000    0.000    0.000    0.000    0.000 
#
# Total GULP energy -66942.900582 kJ/mol
# GULP energy per Si atom -5578.575048 kJ/mol
# Density = 2.589646 g / cm^3
# Si number density = 25.955539 Si / 1000 Ang^3
#
#
#
# Elastic Constant Matrix: (Units=GPa)
#
#
# Indices 1 2 3 4 5 6 
#
# 1 174.3004 102.8658 27.5523 25.1449 27.4686 -8.2841
# 2 102.8658 155.0799 28.8921 19.2555 1.7662 -13.1574
# 3 27.5523 28.8921 91.6430 20.0649 -2.2158 -2.4613
# 4 25.1449 19.2555 20.0649 46.2936 -4.8306 3.2592
# 5 27.4686 1.7662 -2.2158 -4.8306 39.8558 -8.4881
# 6 -8.2841 -13.1574 -2.4613 3.2592 -8.4881 63.9435
#
#
#
# Elastic Compliance Matrix: (Units=1/GPa)
#
#
# Indices 1 2 3 4 5 6 
#
# 1 0.012132 -0.007397 -0.000660 -0.004075 -0.008762 -0.000931
# 2 -0.007397 0.011706 -0.001311 0.000090 0.004955 0.002053
# 3 -0.000660 -0.001311 0.012536 -0.004482 0.000764 0.000457
# 4 -0.004075 0.000090 -0.004482 0.026383 0.005476 -0.001300
# 5 -0.008762 0.004955 0.000764 0.005476 0.032456 0.003943
# 6 -0.000931 0.002053 0.000457 -0.001300 0.003943 0.016548
#
#
# Mechanical properties :
#
#
# Convention : Reuss Voigt Hill
#
# Bulk Modulus (GPa) = 56.70021 82.18265 69.44143
# Shear Modulus (GPa) = 36.66342 47.46610 42.06476
#
# Velocity S-wave (km/s) = 3.76246 4.28102 4.03009
# Velocity P-wave (km/s) = 6.38494 7.49452 6.96187
#
# Compressibility (1/GPa) = 0.01763662
#
# Stress axis : x y z
#
# Youngs Moduli (GPa) = 82.42870 85.42705 79.77192
#
# Poissons Ratio (x) = 0.63193 0.05263
# Poissons Ratio (y) = 0.60975 0.10460
# Poissons Ratio (z) = 0.05439 0.11201
#
# Static dielectric constant tensor:
#      x y z
#    x 2.119210 0.092310 -0.017170 
#    y 0.092310 2.136420 -0.050930 
#    z -0.017170 -0.050930 2.155300 
# 
# From -- ./inp_files/449525.got.cif
#   From: 2010.05.17/outbox.cif.g08.bks.cpg/sg2_225_cif.got.tgz:449525.got - 2010.06.03 11:33:40.
