data_PCOD9038267
_publ_section_title
;
Structure prediction by ZEFSAII (Michael W. Deem and Ramdas Pophale) SiO2 
 PCOD9038267
Probable space group: P -1
;
_chemical_formula_sum "Si O2"
_cell_formula_units_Z 16
_cell_length_a 6.862780
_cell_length_b 12.276481
_cell_length_c 10.072097
_cell_angle_alpha 110.159234
_cell_angle_beta 104.091852
_cell_angle_gamma 104.095693
_cell_volume 720.927824
_symmetry_space_group_name_H-M "P -1"
_symmetry_group_IT_number 2
_symmetry_cell_setting 'triclinic'
loop_
_space_group_symop_operation_xyz
x,y,z
-x,-y,-z
loop_
_atom_site_type_symbol
_atom_site_label
_atom_site_fract_x
_atom_site_fract_y
_atom_site_fract_z
Si Si1 0.275141 0.911265 0.489887
Si Si2 0.180749 0.151585 0.224576
Si Si3 0.201131 0.661025 0.961606
Si Si4 0.759161 0.480681 0.834019
Si Si5 0.353540 0.296410 0.050387
Si Si6 0.815832 0.889626 0.291952
Si Si7 0.464007 0.257134 0.566368
Si Si8 0.726055 0.063772 0.989771
O O1 0.336380 0.788259 0.458367
O O2 0.500000 0.000000 0.500000
O O3 0.062248 0.900813 0.364998
O O4 0.227207 0.981787 0.640356
O O5 0.274634 0.250911 0.164498
O O6 0.285148 0.211436 0.403871
O O7 0.252804 0.035888 0.153025
O O8 0.393050 0.655274 0.901611
O O9 0.233616 0.805738 0.022119
O O10 0.979463 0.560177 0.832101
O O11 0.217926 0.617725 0.096842
O O12 0.714687 0.589071 0.953144
O O13 0.570436 0.403537 0.672845
O O14 0.256945 0.180001 0.887376
O O15 0.661925 0.804386 0.345533
O O16 0.924826 0.098851 0.140434
O O17 0.500000 0.000000 0.000000
#
# Coordination Sequence:
#
# PCOD9038267 Si02
#       8
#     2   2   2   2   2   2   2   2
#     4   9  22  40  63  97 137 176 229 292 353 404
#     4  11  27  43  69 105 141 184 228 293 352 417
#     4  11  24  44  73 104 130 187 237 293 339 407
#     4  11  26  44  72 102 142 183 239 288 343 413
#     4  12  24  45  70 102 135 181 238 287 340 413
#     4  10  23  41  67  98 132 181 237 293 344 404
#     4  11  25  43  64 100 143 186 220 288 354 418
#     4  11  24  47  73 101 141 183 239 286 351 422
#
# _framework density 22.193622000000001
#
# number of rings (size 3 to 8) (size 9 to 14) (size 15 to 20)
#    0.000    1.250    3.750    0.375    5.250    8.500 
#    0.000    0.625    0.000    0.000    0.000    0.000 
#    0.000    0.000    0.000    0.000    0.000    0.000 
#
# Total GULP energy -89434.484851 kJ/mol
# GULP energy per Si atom -5589.655303 kJ/mol
# Density = 2.214311 g / cm^3
# Si number density = 22.193622 Si / 1000 Ang^3
#
#
#
# Elastic Constant Matrix: (Units=GPa)
#
#
# Indices 1 2 3 4 5 6 
#
# 1 131.2575 36.9526 3.0391 4.9237 6.3908 19.2042
# 2 36.9526 123.3459 18.9398 -0.3173 -2.0365 11.5315
# 3 3.0391 18.9398 61.2008 4.9939 6.4051 9.7873
# 4 4.9237 -0.3173 4.9939 23.3933 6.9413 2.6478
# 5 6.3908 -2.0365 6.4051 6.9413 15.1918 9.4930
# 6 19.2042 11.5315 9.7873 2.6478 9.4930 42.3978
#
#
#
# Elastic Compliance Matrix: (Units=1/GPa)
#
#
# Indices 1 2 3 4 5 6 
#
# 1 0.008920 -0.002606 0.001172 -0.001179 -0.002154 -0.003046
# 2 -0.002606 0.009604 -0.003062 0.000130 0.004736 -0.001793
# 3 0.001172 -0.003062 0.018439 -0.002112 -0.006190 -0.002437
# 4 -0.001179 0.000130 -0.002112 0.050040 -0.023397 0.003100
# 5 -0.002154 0.004736 -0.006190 -0.023397 0.091915 -0.018003
# 6 -0.003046 -0.001793 -0.002437 0.003100 -0.018003 0.029853
#
#
# Mechanical properties :
#
#
# Convention : Reuss Voigt Hill
#
# Bulk Modulus (GPa) = 35.75105 48.18523 41.96814
# Shear Modulus (GPa) = 22.01794 33.32144 27.66969
#
# Velocity S-wave (km/s) = 3.15315 3.87899 3.53475
# Velocity P-wave (km/s) = 5.42219 6.46688 5.96744
#
# Compressibility (1/GPa) = 0.02797121
#
# Stress axis : x y z
#
# Youngs Moduli (GPa) = 112.10820 104.11837 54.23280
#
# Poissons Ratio (x) = 0.27134 -0.06358
# Poissons Ratio (y) = 0.29216 0.16608
# Poissons Ratio (z) = -0.13143 0.31885
#
# Static dielectric constant tensor:
#      x y z
#    x 1.880170 -0.048220 0.021510 
#    y -0.048220 1.862000 -0.004590 
#    z 0.021510 -0.004590 1.812270 
# 
# From -- ./inp_files/188673.got.cif
#   From: 2010.05.17/outbox.cif.g08.bks.cpg/sg2_95_cif.got.tgz:188673.got - 2010.06.03 11:33:40.
