data_PCOD9038436
_publ_section_title
;
Structure prediction by ZEFSAII (Michael W. Deem and Ramdas Pophale) SiO2 
 PCOD9038436
Probable space group: P -1
;
_chemical_formula_sum "Si O2"
_cell_formula_units_Z 16
_cell_length_a 8.396231
_cell_length_b 13.526090
_cell_length_c 19.048151
_cell_angle_alpha 29.684902
_cell_angle_beta 43.453291
_cell_angle_gamma 48.963741
_cell_volume 734.680517
_symmetry_space_group_name_H-M "P -1"
_symmetry_group_IT_number 2
_symmetry_cell_setting 'triclinic'
loop_
_space_group_symop_operation_xyz
x,y,z
-x,-y,-z
loop_
_atom_site_type_symbol
_atom_site_label
_atom_site_fract_x
_atom_site_fract_y
_atom_site_fract_z
Si Si1 0.136645 0.176320 0.533350
Si Si2 0.210093 0.032269 0.861150
Si Si3 0.513460 0.907270 0.645063
Si Si4 0.464659 0.288937 0.854479
Si Si5 0.273338 0.522278 0.894983
Si Si6 0.959901 0.398676 0.650704
Si Si7 0.501826 0.288642 0.091341
Si Si8 0.623187 0.088055 0.798297
O O1 0.259964 0.084144 0.481206
O O2 0.103537 0.416455 0.391197
O O3 0.880396 0.118923 0.670153
O O4 0.327926 0.098368 0.578648
O O5 0.448730 0.048256 0.816576
O O6 0.161619 0.238137 0.707884
O O7 0.248852 0.829057 0.929075
O O8 0.000000 0.000000 0.000000
O O9 0.370005 0.725688 0.769513
O O10 0.595336 0.855173 0.729767
O O11 0.351721 0.478838 0.816184
O O12 0.734554 0.274816 0.797765
O O13 0.490083 0.268460 0.775289
O O14 0.351730 0.098985 0.040698
O O15 0.383793 0.347561 0.018835
O O16 0.000000 0.500000 0.000000
O O17 0.000000 0.500000 0.500000
O O18 0.500000 0.500000 0.000000
#
# Coordination Sequence:
#
# PCOD9038436 Si02
#       8
#     2   2   2   2   2   2   2   2
#     4  11  23  43  68  96 140 175 231 277 346 408
#     4  12  25  44  72 100 141 183 229 287 346 407
#     4  10  23  41  69  93 135 186 218 277 351 405
#     4  11  22  42  66 101 133 174 229 280 343 403
#     4  11  21  40  67  99 134 173 227 283 334 413
#     4  12  23  43  71  98 138 182 227 281 345 415
#     4  10  23  42  66 102 132 174 231 277 337 412
#     4  11  24  41  69  99 134 175 230 286 337 411
#
# _framework density 21.778175000000001
#
# number of rings (size 3 to 8) (size 9 to 14) (size 15 to 20)
#    0.000    1.000    5.000    1.500    1.750    2.500 
#    0.000    0.625    0.000    0.000    0.000    0.000 
#    0.000    0.000    0.000    0.000    0.000    0.000 
#
# Total GULP energy -89244.716274 kJ/mol
# GULP energy per Si atom -5577.794767 kJ/mol
# Density = 2.172861 g / cm^3
# Si number density = 21.778175 Si / 1000 Ang^3
#
#
#
# Elastic Constant Matrix: (Units=GPa)
#
#
# Indices 1 2 3 4 5 6 
#
# 1 28.7815 35.2071 27.5430 -2.0643 -1.2589 -7.0447
# 2 35.2071 144.1106 40.1763 -4.8431 7.9975 -3.0953
# 3 27.5430 40.1763 95.3611 11.9023 5.6317 -14.3431
# 4 -2.0643 -4.8431 11.9023 45.3922 -6.6724 4.3988
# 5 -1.2589 7.9975 5.6317 -6.6724 39.0992 -3.1731
# 6 -7.0447 -3.0953 -14.3431 4.3988 -3.1731 26.8621
#
#
#
# Elastic Compliance Matrix: (Units=1/GPa)
#
#
# Indices 1 2 3 4 5 6 
#
# 1 0.065846 -0.012346 -0.013724 0.005663 0.008284 0.008569
# 2 -0.012346 0.010398 -0.001242 0.000815 -0.002460 -0.003127
# 3 -0.013724 -0.001242 0.016821 -0.006206 -0.003193 0.005878
# 4 0.005663 0.000815 -0.006206 0.025219 0.004783 -0.005299
# 5 0.008284 -0.002460 -0.003193 0.004783 0.027840 0.002690
# 6 0.008569 -0.003127 0.005878 -0.005299 0.002690 0.043438
#
#
# Mechanical properties :
#
#
# Convention : Reuss Voigt Hill
#
# Bulk Modulus (GPa) = 26.01329 52.67845 39.34587
# Shear Modulus (GPa) = 19.45528 33.29249 26.37389
#
# Velocity S-wave (km/s) = 2.99212 3.91411 3.48375
# Velocity P-wave (km/s) = 4.88954 6.68343 5.85559
#
# Compressibility (1/GPa) = 0.03844189
#
# Stress axis : x y z
#
# Youngs Moduli (GPa) = 15.18694 96.17030 59.45008
#
# Poissons Ratio (x) = 1.18730 0.81590
# Poissons Ratio (y) = 0.18750 0.07382
# Poissons Ratio (z) = 0.20843 0.11942
#
# Static dielectric constant tensor:
#      x y z
#    x 1.829090 0.086800 0.032290 
#    y 0.086800 1.879660 -0.036750 
#    z 0.032290 -0.036750 1.845350 
# 
# From -- ./inp_files/272117.got.cif
#   From: 2010.05.17/outbox.cif.g08.bks.cpg/sg2_137_cif.got.tgz:272117.got - 2010.06.03 11:33:40.
