data_PCOD9038022
_publ_section_title
;
Structure prediction by ZEFSAII (Michael W. Deem and Ramdas Pophale) SiO2 
 PCOD9038022
Probable space group: P -1
;
_chemical_formula_sum "Si O2"
_cell_formula_units_Z 14
_cell_length_a 10.733468
_cell_length_b 13.946838
_cell_length_c 10.936389
_cell_angle_alpha 135.962977
_cell_angle_beta 141.169457
_cell_angle_gamma 69.973060
_cell_volume 618.313901
_symmetry_space_group_name_H-M "P -1"
_symmetry_group_IT_number 2
_symmetry_cell_setting 'triclinic'
loop_
_space_group_symop_operation_xyz
x,y,z
-x,-y,-z
loop_
_atom_site_type_symbol
_atom_site_label
_atom_site_fract_x
_atom_site_fract_y
_atom_site_fract_z
Si Si1 0.385492 0.874382 0.692130
Si Si2 0.155940 0.020786 0.967014
Si Si3 0.602075 0.690667 0.427397
Si Si4 0.735339 0.457301 0.735190
Si Si5 0.955227 0.663937 0.539730
Si Si6 0.978554 0.783395 0.121398
Si Si7 0.191485 0.664700 0.963104
O O1 0.355208 0.705910 0.557456
O O2 0.154288 0.847698 0.428208
O O3 0.581303 0.938769 0.798096
O O4 0.500000 0.000000 0.000000
O O5 0.089466 0.091455 0.865229
O O6 0.182719 0.144495 0.207761
O O7 0.006100 0.831621 0.678454
O O8 0.425396 0.594982 0.314908
O O9 0.713191 0.595462 0.363463
O O10 0.454773 0.726527 0.251547
O O11 0.000000 0.500000 0.000000
O O12 0.761505 0.614619 0.838550
O O13 0.934618 0.529090 0.308222
O O14 0.140826 0.698835 0.819298
O O15 0.095085 0.735965 0.056360
#
# Coordination Sequence:
#
# PCOD9038022 Si02
#       7
#     2   2   2   2   2   2   2
#     4  10  23  41  65  98 129 164 216 266 319 378
#     4  11  24  42  64  96 131 167 214 265 319 377
#     4  11  21  41  66  96 124 168 219 262 314 385
#     4   9  19  39  67  92 122 166 208 263 315 382
#     4  11  26  41  63  99 130 170 215 270 305 382
#     4  11  22  43  68  94 126 176 206 259 331 378
#     4  11  23  43  65  92 131 171 219 253 324 372
#
# _framework density 22.642222
#
# number of rings (size 3 to 8) (size 9 to 14) (size 15 to 20)
#    0.000    1.429    5.714    0.857    2.000    4.571 
#    0.000    1.429    0.000    0.000    0.000    0.000 
#    0.000    0.000    0.000    0.000    0.000    0.000 
#
# Total GULP energy -78138.104045 kJ/mol
# GULP energy per Si atom -5581.293146 kJ/mol
# Density = 2.259069 g / cm^3
# Si number density = 22.642222 Si / 1000 Ang^3
#
#
#
# Elastic Constant Matrix: (Units=GPa)
#
#
# Indices 1 2 3 4 5 6 
#
# 1 30.9552 10.6001 19.3837 7.4951 3.1069 -6.4323
# 2 10.6001 154.3788 63.7525 7.8005 1.3656 4.4260
# 3 19.3837 63.7525 123.3332 5.8274 -18.1533 5.9924
# 4 7.4951 7.8005 5.8274 45.4219 1.6274 4.1459
# 5 3.1069 1.3656 -18.1533 1.6274 32.9316 -2.9081
# 6 -6.4323 4.4260 5.9924 4.1459 -2.9081 17.0915
#
#
#
# Elastic Compliance Matrix: (Units=1/GPa)
#
#
# Indices 1 2 3 4 5 6 
#
# 1 0.044591 0.000488 -0.008903 -0.007924 -0.006932 0.020519
# 2 0.000488 0.008546 -0.004885 -0.000749 -0.003115 -0.000665
# 3 -0.008903 -0.004885 0.013432 0.000817 0.007908 -0.005648
# 4 -0.007924 -0.000749 0.000817 0.024203 -0.000769 -0.009076
# 5 -0.006932 -0.003115 0.007908 -0.000769 0.035695 0.001685
# 6 0.020519 -0.000665 -0.005648 -0.009076 0.001685 0.070872
#
#
# Mechanical properties :
#
#
# Convention : Reuss Voigt Hill
#
# Bulk Modulus (GPa) = 25.01940 55.12663 40.07301
# Shear Modulus (GPa) = 21.07376 33.41773 27.24574
#
# Velocity S-wave (km/s) = 3.05409 3.84592 3.47265
# Velocity P-wave (km/s) = 4.84877 6.64237 5.81514
#
# Compressibility (1/GPa) = 0.03996899
#
# Stress axis : x y z
#
# Youngs Moduli (GPa) = 22.42617 117.01627 74.44732
#
# Poissons Ratio (x) = -0.05716 0.66284
# Poissons Ratio (y) = -0.01095 0.36368
# Poissons Ratio (z) = 0.19967 0.57163
#
# Static dielectric constant tensor:
#      x y z
#    x 2.039620 -0.021160 -0.105720 
#    y -0.021160 1.881720 0.039550 
#    z -0.105720 0.039550 1.938390 
# 
# From -- ./inp_files/378418.got.cif
#   From: 2010.05.17/outbox.cif.g08.bks.cpg/sg2_190_cif.got.tgz:378418.got - 2010.06.03 11:33:40.
