data_PCOD9038653
_publ_section_title
;
Structure prediction by ZEFSAII (Michael W. Deem and Ramdas Pophale) SiO2 
 PCOD9038653
Probable space group: P -1
;
_chemical_formula_sum "Si O2"
_cell_formula_units_Z 14
_cell_length_a 10.235984
_cell_length_b 8.480471
_cell_length_c 13.647976
_cell_angle_alpha 30.297854
_cell_angle_beta 96.118130
_cell_angle_gamma 99.927942
_cell_volume 586.603438
_symmetry_space_group_name_H-M "P -1"
_symmetry_group_IT_number 2
_symmetry_cell_setting 'triclinic'
loop_
_space_group_symop_operation_xyz
x,y,z
-x,-y,-z
loop_
_atom_site_type_symbol
_atom_site_label
_atom_site_fract_x
_atom_site_fract_y
_atom_site_fract_z
Si Si1 0.374421 0.193244 0.890042
Si Si2 0.193050 0.060802 0.595880
Si Si3 0.470982 0.625889 0.825066
Si Si4 0.154129 0.802712 0.945342
Si Si5 0.545134 0.654384 0.523190
Si Si6 0.235960 0.145747 0.340695
Si Si7 0.043311 0.853068 0.349003
O O1 0.369023 0.349901 0.912074
O O2 0.429396 0.501582 0.666088
O O3 0.247515 0.006670 0.923823
O O4 0.500000 0.000000 0.000000
O O5 0.300716 0.387393 0.429262
O O6 0.954687 0.875637 0.427503
O O7 0.213183 0.873878 0.800593
O O8 0.203012 0.954448 0.541369
O O9 0.609625 0.697134 0.737443
O O10 0.435007 0.971128 0.656233
O O11 0.500000 0.500000 0.000000
O O12 0.010771 0.912734 0.859353
O O13 0.155064 0.440861 0.166230
O O14 0.500000 0.500000 0.500000
O O15 0.193317 0.941403 0.349862
O O16 0.000000 0.500000 0.500000
#
# Coordination Sequence:
#
# PCOD9038653 Si02
#       7
#     2   2   2   2   2   2   2
#     4  12  22  43  66  99 141 176 225 281 347 416
#     4  10  23  41  72  95 134 180 231 276 347 395
#     4  12  27  40  67 105 138 179 232 281 347 425
#     4  10  23  43  70  98 138 180 225 284 339 406
#     4  12  22  40  66  96 136 180 221 287 350 398
#     4  12  23  46  70  98 138 185 230 278 348 409
#     4  10  25  45  70 100 137 181 237 286 334 406
#
# _framework density 23.866208
#
# number of rings (size 3 to 8) (size 9 to 14) (size 15 to 20)
#    0.857    0.000    4.286    3.000    4.000    0.000 
#    0.000    0.714    0.000    0.000    0.000    0.000 
#    0.000    0.000    0.000    0.000    0.000    0.000 
#
# Total GULP energy -78051.130447 kJ/mol
# GULP energy per Si atom -5575.080746 kJ/mol
# Density = 2.381189 g / cm^3
# Si number density = 23.866208 Si / 1000 Ang^3
#
#
#
# Elastic Constant Matrix: (Units=GPa)
#
#
# Indices 1 2 3 4 5 6 
#
# 1 40.2412 19.2802 -0.9073 3.4894 2.1885 16.5004
# 2 19.2802 187.7350 54.6209 3.6002 6.7625 34.6503
# 3 -0.9073 54.6209 79.6217 2.7428 11.8060 -2.8842
# 4 3.4894 3.6002 2.7428 42.2078 0.3144 -5.5822
# 5 2.1885 6.7625 11.8060 0.3144 31.0275 4.4601
# 6 16.5004 34.6503 -2.8842 -5.5822 4.4601 43.6884
#
#
#
# Elastic Compliance Matrix: (Units=1/GPa)
#
#
# Indices 1 2 3 4 5 6 
#
# 1 0.030294 -0.001364 0.001128 -0.003873 -0.000690 -0.010710
# 2 -0.001364 0.008575 -0.006361 -0.001147 0.001669 -0.007023
# 3 0.001128 -0.006361 0.018133 0.000180 -0.006530 0.006505
# 4 -0.003873 -0.001147 0.000180 0.024846 -0.000605 0.005620
# 5 -0.000690 0.001669 -0.006530 -0.000605 0.035147 -0.005159
# 6 -0.010710 -0.007023 0.006505 0.005620 -0.005159 0.034179
#
#
# Mechanical properties :
#
#
# Convention : Reuss Voigt Hill
#
# Bulk Modulus (GPa) = 22.82539 50.39839 36.61189
# Shear Modulus (GPa) = 27.93766 39.02502 33.48134
#
# Velocity S-wave (km/s) = 3.42511 4.04810 3.74956
# Velocity P-wave (km/s) = 5.02260 6.55838 5.84118
#
# Compressibility (1/GPa) = 0.04381086
#
# Stress axis : x y z
#
# Youngs Moduli (GPa) = 33.01020 116.61186 55.14691
#
# Poissons Ratio (x) = 0.15901 -0.06223
# Poissons Ratio (y) = 0.04501 0.35077
# Poissons Ratio (z) = -0.03725 0.74173
#
# Static dielectric constant tensor:
#      x y z
#    x 2.313000 -0.028070 0.201750 
#    y -0.028070 1.748360 0.109620 
#    z 0.201750 0.109620 2.001950 
# 
# From -- ./inp_files/282443.got.cif
#   From: 2010.05.17/outbox.cif.g08.bks.cpg/sg2_142_cif.got.tgz:282443.got - 2010.06.03 11:33:40.
