data_PCOD9038373
_publ_section_title
;
Structure prediction by ZEFSAII (Michael W. Deem and Ramdas Pophale) SiO2 
 PCOD9038373
Probable space group: P -1
;
_chemical_formula_sum "Si O2"
_cell_formula_units_Z 16
_cell_length_a 11.750806
_cell_length_b 11.444494
_cell_length_c 8.992930
_cell_angle_alpha 121.223816
_cell_angle_beta 127.536833
_cell_angle_gamma 89.433241
_cell_volume 731.872756
_symmetry_space_group_name_H-M "P -1"
_symmetry_group_IT_number 2
_symmetry_cell_setting 'triclinic'
loop_
_space_group_symop_operation_xyz
x,y,z
-x,-y,-z
loop_
_atom_site_type_symbol
_atom_site_label
_atom_site_fract_x
_atom_site_fract_y
_atom_site_fract_z
Si Si1 0.492398 0.764096 0.423724
Si Si2 0.300669 0.953148 0.017002
Si Si3 0.496661 0.212964 0.897151
Si Si4 0.231751 0.541458 0.272766
Si Si5 0.998628 0.328715 0.732174
Si Si6 0.021644 0.345582 0.420655
Si Si7 0.648411 0.533464 0.392716
Si Si8 0.824441 0.991958 0.353024
O O1 0.471820 0.797102 0.258411
O O2 0.328092 0.681758 0.331466
O O3 0.558293 0.637557 0.388125
O O4 0.613222 0.915684 0.706680
O O5 0.420419 0.881134 0.017973
O O6 0.141039 0.805074 0.847286
O O7 0.247908 0.021550 0.878897
O O8 0.308637 0.134486 0.734149
O O9 0.573635 0.386917 0.128621
O O10 0.089678 0.563379 0.255959
O O11 0.346151 0.528233 0.479298
O O12 0.145383 0.390932 0.003725
O O13 0.054965 0.327462 0.608576
O O14 0.862751 0.160792 0.550377
O O15 0.169132 0.366337 0.449829
O O16 0.000000 0.500000 0.500000
O O17 0.000000 0.000000 0.500000
#
# Coordination Sequence:
#
# PCOD9038373 Si02
#       8
#     2   2   2   2   2   2   2   2
#     4  12  28  41  68 105 139 174 226 288 342 393
#     4  11  25  46  72  97 139 181 228 279 334 414
#     4  12  25  47  71  97 137 188 230 274 335 415
#     4  11  23  42  67  97 138 177 226 273 344 399
#     4  10  23  41  68  98 130 179 226 280 326 417
#     4  11  21  44  71 100 130 180 231 270 340 406
#     4  12  25  42  71  99 139 180 223 285 338 404
#     4  11  26  43  70  99 137 176 230 278 344 397
#
# _framework density 21.861726000000001
#
# number of rings (size 3 to 8) (size 9 to 14) (size 15 to 20)
#    0.000    0.750    2.500    4.500    7.000    1.500 
#    0.000    0.000    0.000    0.000    0.000    0.000 
#    0.000    0.000    0.000    0.000    0.000    0.000 
#
# Total GULP energy -89536.841887 kJ/mol
# GULP energy per Si atom -5596.052618 kJ/mol
# Density = 2.181197 g / cm^3
# Si number density = 21.861726 Si / 1000 Ang^3
#
#
#
# Elastic Constant Matrix: (Units=GPa)
#
#
# Indices 1 2 3 4 5 6 
#
# 1 89.6478 16.7324 15.8670 -6.1532 10.7928 10.1035
# 2 16.7324 54.6771 19.6424 -5.5528 -5.9475 1.8201
# 3 15.8670 19.6424 139.9514 19.8269 -17.7955 14.5107
# 4 -6.1532 -5.5528 19.8269 30.6831 -7.3962 6.0327
# 5 10.7928 -5.9475 -17.7955 -7.3962 25.1455 10.0644
# 6 10.1035 1.8201 14.5107 6.0327 10.0644 47.0389
#
#
#
# Elastic Compliance Matrix: (Units=1/GPa)
#
#
# Indices 1 2 3 4 5 6 
#
# 1 0.013332 -0.003948 -0.002049 0.001659 -0.007329 -0.000723
# 2 -0.003948 0.022022 -0.002431 0.007064 0.008011 -0.001874
# 3 -0.002049 -0.002431 0.009633 -0.004712 0.007076 -0.003347
# 4 0.001659 0.007064 -0.004712 0.041768 0.012822 -0.007276
# 5 -0.007329 0.008011 0.007076 0.012822 0.059729 -0.015342
# 6 -0.000723 -0.001874 -0.003347 -0.007276 -0.015342 0.026735
#
#
# Mechanical properties :
#
#
# Convention : Reuss Voigt Hill
#
# Bulk Modulus (GPa) = 35.54941 43.19555 39.37248
# Shear Modulus (GPa) = 25.06848 36.04245 30.55547
#
# Velocity S-wave (km/s) = 3.38995 4.06477 3.74260
# Velocity P-wave (km/s) = 5.62304 6.46771 6.06011
#
# Compressibility (1/GPa) = 0.02812986
#
# Stress axis : x y z
#
# Youngs Moduli (GPa) = 75.00650 45.40917 103.80793
#
# Poissons Ratio (x) = 0.17929 0.21274
# Poissons Ratio (y) = 0.29616 0.25236
# Poissons Ratio (z) = 0.15371 0.11039
#
# Static dielectric constant tensor:
#      x y z
#    x 1.784690 -0.015980 0.000430 
#    y -0.015980 1.861670 -0.013160 
#    z 0.000430 -0.013160 1.780880 
# 
# From -- ./inp_files/263214.got.cif
#   From: 2010.05.17/outbox.cif.g08.bks.cpg/sg2_132_cif.got.tgz:263214.got - 2010.06.03 11:33:40.
