data_PCOD9038888
_publ_section_title
;
Structure prediction by ZEFSAII (Michael W. Deem and Ramdas Pophale) SiO2 
 PCOD9038888
Probable space group: P -1
;
_chemical_formula_sum "Si O2"
_cell_formula_units_Z 14
_cell_length_a 22.337145
_cell_length_b 16.200251
_cell_length_c 6.213872
_cell_angle_alpha 61.386067
_cell_angle_beta 128.804190
_cell_angle_gamma 158.606342
_cell_volume 594.372781
_symmetry_space_group_name_H-M "P -1"
_symmetry_group_IT_number 2
_symmetry_cell_setting 'triclinic'
loop_
_space_group_symop_operation_xyz
x,y,z
-x,-y,-z
loop_
_atom_site_type_symbol
_atom_site_label
_atom_site_fract_x
_atom_site_fract_y
_atom_site_fract_z
Si Si1 0.010887 0.673998 0.471126
Si Si2 0.750009 0.603211 0.393284
Si Si3 0.738035 0.254267 0.716720
Si Si4 0.691379 0.871051 0.137699
Si Si5 0.265705 0.594661 0.167758
Si Si6 0.725232 0.065494 0.648591
Si Si7 0.117101 0.107669 0.347109
O O1 0.139618 0.765339 0.465288
O O2 0.864201 0.449267 0.573371
O O3 0.173040 0.917742 0.657019
O O4 0.859686 0.566322 0.124685
O O5 0.793284 0.542878 0.602826
O O6 0.757326 0.661373 0.571447
O O7 0.545684 0.382377 0.080676
O O8 0.927396 0.857172 0.365915
O O9 0.784328 0.357176 0.918529
O O10 0.771014 0.183620 0.811384
O O11 0.500000 0.000000 0.500000
O O12 0.735767 0.814155 0.374529
O O13 0.740740 0.975574 0.884177
O O14 0.499409 0.838572 0.360684
O O15 0.000000 0.000000 0.000000
#
# Coordination Sequence:
#
# PCOD9038888 Si02
#       7
#     2   2   2   2   2   2   2
#     4  12  23  38  66  95 127 170 220 265 316 378
#     4  10  23  43  65  92 129 167 208 261 320 380
#     4  10  23  42  64  93 132 173 216 267 320 375
#     4  11  25  42  63  94 132 167 209 265 322 381
#     4  10  23  43  65  92 129 171 217 267 320 379
#     4  10  24  42  64  93 129 172 217 267 321 378
#     4  11  23  41  68  96 124 164 211 261 319 383
#
# _framework density 23.55424
#
# number of rings (size 3 to 8) (size 9 to 14) (size 15 to 20)
#    0.000    1.429    0.000    4.286    0.000   14.286 
#    0.000    0.000    0.000    0.000    0.000    0.000 
#    0.000    0.000    0.000    0.000    0.000    0.000 
#
# Total GULP energy -78086.321581 kJ/mol
# GULP energy per Si atom -5577.594399 kJ/mol
# Density = 2.350063 g / cm^3
# Si number density = 23.554240 Si / 1000 Ang^3
#
#
#
# Elastic Constant Matrix: (Units=GPa)
#
#
# Indices 1 2 3 4 5 6 
#
# 1 116.0688 99.9017 84.2408 -10.0104 -19.1400 -1.8947
# 2 99.9017 198.5450 112.3967 -5.6724 -32.7093 8.4123
# 3 84.2408 112.3967 207.6602 15.0332 -18.7465 1.2696
# 4 -10.0104 -5.6724 15.0332 49.0538 1.4281 -0.8488
# 5 -19.1400 -32.7093 -18.7465 1.4281 41.1999 3.7445
# 6 -1.8947 8.4123 1.2696 -0.8488 3.7445 36.8752
#
#
#
# Elastic Compliance Matrix: (Units=1/GPa)
#
#
# Indices 1 2 3 4 5 6 
#
# 1 0.017506 -0.006500 -0.003810 0.004007 0.000871 0.002517
# 2 -0.006500 0.010806 -0.002826 0.000603 0.004538 -0.003149
# 3 -0.003810 -0.002826 0.008132 -0.003589 -0.000199 0.000107
# 4 0.004007 0.000603 -0.003589 0.022389 -0.000135 0.000721
# 5 0.000871 0.004538 -0.000199 -0.000135 0.028547 -0.003886
# 6 0.002517 -0.003149 0.000107 0.000721 -0.003886 0.028374
#
#
# Mechanical properties :
#
#
# Convention : Reuss Voigt Hill
#
# Bulk Modulus (GPa) = 98.32555 123.92803 111.12679
# Shear Modulus (GPa) = 34.38383 40.47475 37.42929
#
# Velocity S-wave (km/s) = 3.82484 4.14981 3.99064
# Velocity P-wave (km/s) = 7.83204 8.69996 8.27738
#
# Compressibility (1/GPa) = 0.01017030
#
# Stress axis : x y z
#
# Youngs Moduli (GPa) = 57.12317 92.54402 122.96855
#
# Poissons Ratio (x) = 0.60157 0.46853
# Poissons Ratio (y) = 0.37132 0.34755
# Poissons Ratio (z) = 0.21765 0.26156
#
# Static dielectric constant tensor:
#      x y z
#    x 2.277310 -0.029950 -0.044770 
#    y -0.029950 1.898150 -0.004230 
#    z -0.044770 -0.004230 1.894800 
# 
# From -- ./inp_files/124667.got.cif
#   From: 2010.05.17/outbox.cif.g08.bks.cpg/sg2_63_cif.got.tgz:124667.got - 2010.06.03 11:33:40.
