data_PCOD9038652
_publ_section_title
;
Structure prediction by ZEFSAII (Michael W. Deem and Ramdas Pophale) SiO2 
 PCOD9038652
Probable space group: P -1
;
_chemical_formula_sum "Si O2"
_cell_formula_units_Z 14
_cell_length_a 7.330635
_cell_length_b 16.934403
_cell_length_c 19.382353
_cell_angle_alpha 160.129881
_cell_angle_beta 119.509431
_cell_angle_gamma 52.580000
_cell_volume 621.140113
_symmetry_space_group_name_H-M "P -1"
_symmetry_group_IT_number 2
_symmetry_cell_setting 'triclinic'
loop_
_space_group_symop_operation_xyz
x,y,z
-x,-y,-z
loop_
_atom_site_type_symbol
_atom_site_label
_atom_site_fract_x
_atom_site_fract_y
_atom_site_fract_z
Si Si1 0.144513 0.738250 0.460897
Si Si2 0.291960 0.196382 0.071991
Si Si3 0.304195 0.184499 0.828918
Si Si4 0.986912 0.734339 0.790238
Si Si5 0.218743 0.196342 0.328608
Si Si6 0.764437 0.247511 0.356883
Si Si7 0.057410 0.243933 0.700355
O O1 0.338275 0.422016 0.233095
O O2 0.112964 0.749441 0.546085
O O3 0.948161 0.749191 0.378525
O O4 0.212441 0.968818 0.648872
O O5 0.070267 0.298258 0.168544
O O6 0.500000 0.000000 0.000000
O O7 0.254610 0.018553 0.863486
O O8 0.281782 0.201596 0.754950
O O9 0.567010 0.057478 0.805639
O O10 0.145108 0.473159 0.072372
O O11 0.776364 0.780662 0.734026
O O12 0.204248 0.456134 0.575683
O O13 0.000000 0.000000 0.000000
O O14 0.962522 0.214548 0.311116
O O15 0.500000 0.500000 0.500000
O O16 0.000000 0.000000 0.500000
#
# Coordination Sequence:
#
# PCOD9038652 Si02
#       7
#     2   2   2   2   2   2   2
#     4  11  23  39  65  92 131 166 212 263 322 382
#     4  12  24  38  62  91 130 178 215 252 314 384
#     4  10  23  41  72  95 125 162 217 275 326 383
#     4  11  24  39  57  89 137 173 213 258 309 382
#     4  11  25  40  60  95 129 169 216 264 319 376
#     4  12  24  41  58  90 134 174 214 258 312 384
#     4   9  21  45  68  98 121 162 216 271 331 390
#
# _framework density 22.539196
#
# number of rings (size 3 to 8) (size 9 to 14) (size 15 to 20)
#    0.000    1.143    4.286    0.857   10.000    1.143 
#    0.000    0.714    0.000    8.571    0.000    0.000 
#    0.000    0.000    0.000    0.000    0.000    0.000 
#
# Total GULP energy -77955.695706 kJ/mol
# GULP energy per Si atom -5568.263979 kJ/mol
# Density = 2.248790 g / cm^3
# Si number density = 22.539196 Si / 1000 Ang^3
#
#
#
# Elastic Constant Matrix: (Units=GPa)
#
#
# Indices 1 2 3 4 5 6 
#
# 1 50.2786 5.9629 23.8313 -2.5890 6.3719 -2.0637
# 2 5.9629 141.5521 20.4488 -15.9523 -24.6089 7.5143
# 3 23.8313 20.4488 173.5588 -8.0827 24.2570 -5.3803
# 4 -2.5890 -15.9523 -8.0827 45.9297 2.8310 -8.4416
# 5 6.3719 -24.6089 24.2570 2.8310 30.5908 0.3528
# 6 -2.0637 7.5143 -5.3803 -8.4416 0.3528 23.4971
#
#
#
# Elastic Compliance Matrix: (Units=1/GPa)
#
#
# Indices 1 2 3 4 5 6 
#
# 1 0.021716 -0.001298 -0.002152 0.001057 -0.003985 0.002269
# 2 -0.001298 0.009478 -0.002306 0.001626 0.009610 -0.003233
# 3 -0.002152 -0.002306 0.007539 0.001401 -0.007548 0.002891
# 4 0.001057 0.001626 0.001401 0.024387 -0.002380 0.008691
# 5 -0.003985 0.009610 -0.007548 -0.002380 0.047533 -0.006720
# 6 0.002269 -0.003233 0.002891 0.008691 -0.006720 0.047677
#
#
# Mechanical properties :
#
#
# Convention : Reuss Voigt Hill
#
# Bulk Modulus (GPa) = 36.73802 51.76394 44.25098
# Shear Modulus (GPa) = 27.94601 41.01330 34.47965
#
# Velocity S-wave (km/s) = 3.52502 4.27036 3.91546
# Velocity P-wave (km/s) = 5.73609 6.87973 6.33377
#
# Compressibility (1/GPa) = 0.02721976
#
# Stress axis : x y z
#
# Youngs Moduli (GPa) = 46.04930 105.50704 132.64787
#
# Poissons Ratio (x) = 0.13694 0.28551
# Poissons Ratio (y) = 0.05977 0.30591
# Poissons Ratio (z) = 0.09912 0.24332
#
# Static dielectric constant tensor:
#      x y z
#    x 1.894920 0.017870 -0.015100 
#    y 0.017870 1.916790 -0.063160 
#    z -0.015100 -0.063160 2.102890 
# 
# From -- ./inp_files/591081.got.cif
#   From: 2010.05.17/outbox.cif.g08.bks.cpg/sg2_296_cif.got.tgz:591081.got - 2010.06.03 11:33:40.
