data_PCOD9038210
_publ_section_title
;
Structure prediction by ZEFSAII (Michael W. Deem and Ramdas Pophale) SiO2 
 PCOD9038210
Probable space group: P -1
;
_chemical_formula_sum "Si O2"
_cell_formula_units_Z 16
_cell_length_a 9.489570
_cell_length_b 12.050389
_cell_length_c 15.375404
_cell_angle_alpha 128.689128
_cell_angle_beta 111.576384
_cell_angle_gamma 110.458952
_cell_volume 768.707027
_symmetry_space_group_name_H-M "P -1"
_symmetry_group_IT_number 2
_symmetry_cell_setting 'triclinic'
loop_
_space_group_symop_operation_xyz
x,y,z
-x,-y,-z
loop_
_atom_site_type_symbol
_atom_site_label
_atom_site_fract_x
_atom_site_fract_y
_atom_site_fract_z
Si Si1 0.109282 0.679072 0.686803
Si Si2 0.285294 0.220127 0.135386
Si Si3 0.396663 0.152941 0.943062
Si Si4 0.236710 0.006459 0.510241
Si Si5 0.263514 0.221819 0.787851
Si Si6 0.410649 0.592251 0.539945
Si Si7 0.358892 0.614435 0.350071
Si Si8 0.055002 0.489636 0.761059
O O1 0.130749 0.597087 0.734868
O O2 0.000000 0.500000 0.500000
O O3 0.889491 0.629289 0.629725
O O4 0.344825 0.947477 0.844417
O O5 0.456513 0.269312 0.271541
O O6 0.352326 0.438578 0.250416
O O7 0.341442 0.191311 0.040502
O O8 0.000000 0.000000 0.000000
O O9 0.224989 0.092745 0.799747
O O10 0.681380 0.375019 0.080117
O O11 0.991970 0.887358 0.347621
O O12 0.150645 0.788853 0.418932
O O13 0.312080 0.162000 0.684634
O O14 0.460747 0.177376 0.576101
O O15 0.500000 0.500000 0.000000
O O16 0.500000 0.500000 0.500000
O O17 0.456576 0.712276 0.519717
O O18 0.081755 0.476295 0.211668
#
# Coordination Sequence:
#
# PCOD9038210 Si02
#       8
#     2   2   2   2   2   2   2   2
#     4  11  23  39  64  92 128 175 216 267 336 394
#     4  11  23  39  64 101 130 170 220 276 329 390
#     4  12  24  41  69  96 136 169 224 277 329 398
#     4  11  24  43  71  94 136 176 227 276 324 397
#     4  11  24  43  68 102 128 175 230 277 327 387
#     4   9  20  38  59  90 126 166 214 258 322 388
#     4  10  23  41  67  92 134 177 216 269 337 391
#     4  11  23  43  63  98 134 174 216 271 337 393
#
# _framework density 20.814171000000002
#
# number of rings (size 3 to 8) (size 9 to 14) (size 15 to 20)
#    0.000    1.250    1.250    5.250    7.000    1.000 
#    0.000    0.625    0.000    0.000    0.000    0.000 
#    0.000    0.000    0.000    0.000    0.000    0.000 
#
# Total GULP energy -89314.087996 kJ/mol
# GULP energy per Si atom -5582.130500 kJ/mol
# Density = 2.076680 g / cm^3
# Si number density = 20.814171 Si / 1000 Ang^3
#
#
#
# Elastic Constant Matrix: (Units=GPa)
#
#
# Indices 1 2 3 4 5 6 
#
# 1 78.3428 22.0823 22.2660 -7.2771 -2.0902 2.8970
# 2 22.0823 126.2143 45.5849 2.4210 -6.3848 2.6580
# 3 22.2660 45.5849 88.7411 -2.2755 -8.3039 4.7241
# 4 -7.2771 2.4210 -2.2755 45.5859 -3.8016 0.5918
# 5 -2.0902 -6.3848 -8.3039 -3.8016 26.5713 0.5529
# 6 2.8970 2.6580 4.7241 0.5918 0.5529 35.3013
#
#
#
# Elastic Compliance Matrix: (Units=1/GPa)
#
#
# Indices 1 2 3 4 5 6 
#
# 1 0.014194 -0.001541 -0.002649 0.002246 0.000255 -0.000736
# 2 -0.001541 0.009934 -0.004679 -0.000952 0.000667 0.000010
# 3 -0.002649 -0.004679 0.014759 0.000868 0.003435 -0.001474
# 4 0.002246 -0.000952 0.000868 0.022688 0.003479 -0.000664
# 5 0.000255 0.000667 0.003435 0.003479 0.039411 -0.001206
# 6 -0.000736 0.000010 -0.001474 -0.000664 -0.001206 0.028614
#
#
# Mechanical properties :
#
#
# Convention : Reuss Voigt Hill
#
# Bulk Modulus (GPa) = 47.28330 52.57384 49.92857
# Shear Modulus (GPa) = 32.38556 35.04936 33.71746
#
# Velocity S-wave (km/s) = 3.94882 4.10801 4.02920
# Velocity P-wave (km/s) = 6.59978 6.91480 6.75913
#
# Compressibility (1/GPa) = 0.02114911
#
# Stress axis : x y z
#
# Youngs Moduli (GPa) = 70.44998 100.66049 67.75524
#
# Poissons Ratio (x) = 0.15515 0.17949
# Poissons Ratio (y) = 0.10859 0.31702
# Poissons Ratio (z) = 0.18663 0.47098
#
# Static dielectric constant tensor:
#      x y z
#    x 1.694790 -0.046980 -0.041180 
#    y -0.046980 1.725570 -0.046900 
#    z -0.041180 -0.046900 1.737880 
# 
# From -- ./inp_files/307950.got.cif
#   From: 2010.05.17/outbox.cif.g08.bks.cpg/sg2_154_cif.got.tgz:307950.got - 2010.06.03 11:33:40.
