data_PCOD9038497
_publ_section_title
;
Structure prediction by ZEFSAII (Michael W. Deem and Ramdas Pophale) SiO2 
 PCOD9038497
Probable space group: P -1
;
_chemical_formula_sum "Si O2"
_cell_formula_units_Z 16
_cell_length_a 19.324264
_cell_length_b 11.331609
_cell_length_c 11.165232
_cell_angle_alpha 45.140399
_cell_angle_beta 147.316523
_cell_angle_gamma 148.031613
_cell_volume 698.684938
_symmetry_space_group_name_H-M "P -1"
_symmetry_group_IT_number 2
_symmetry_cell_setting 'triclinic'
loop_
_space_group_symop_operation_xyz
x,y,z
-x,-y,-z
loop_
_atom_site_type_symbol
_atom_site_label
_atom_site_fract_x
_atom_site_fract_y
_atom_site_fract_z
Si Si1 0.615669 0.493526 0.310418
Si Si2 0.067604 0.715137 0.281569
Si Si3 0.277991 0.980988 0.168272
Si Si4 0.098946 0.114914 0.688642
Si Si5 0.875336 0.208969 0.411309
Si Si6 0.410412 0.266975 0.689239
Si Si7 0.752265 0.590610 0.813136
Si Si8 0.191580 0.596922 0.194257
O O1 0.707618 0.649708 0.217771
O O2 0.585055 0.618413 0.267429
O O3 0.764650 0.503462 0.572250
O O4 0.448596 0.235902 0.246812
O O5 0.211324 0.851409 0.290631
O O6 0.135230 0.785052 0.464856
O O7 0.960089 0.449518 0.311211
O O8 0.930393 0.742322 0.034872
O O9 0.307058 0.856654 0.206612
O O10 0.126345 0.966796 0.904840
O O11 0.996079 0.161119 0.580875
O O12 0.000000 0.000000 0.500000
O O13 0.688850 0.990763 0.250347
O O14 0.598727 0.412141 0.806382
O O15 0.302817 0.286968 0.421823
O O16 0.770277 0.463066 0.830286
O O17 0.000000 0.500000 0.000000
#
# Coordination Sequence:
#
# PCOD9038497 Si02
#       8
#     2   2   2   2   2   2   2   2
#     4  11  25  45  69 106 142 180 233 293 350 410
#     4  11  26  45  70 102 139 184 235 282 355 413
#     4  12  26  44  73 104 139 186 234 292 347 417
#     4  12  25  45  72 103 142 184 234 290 351 419
#     4  11  26  46  69 101 142 184 228 296 343 414
#     4  10  23  44  69 102 137 182 232 288 348 408
#     4  10  23  41  70 102 136 183 235 282 343 421
#     4  11  22  42  69 104 139 185 233 281 348 419
#
# _framework density 22.900165999999999
#
# number of rings (size 3 to 8) (size 9 to 14) (size 15 to 20)
#    0.000    1.000    2.500    3.000    8.750    1.500 
#    2.250    0.000    0.000    0.000    0.000    0.000 
#    0.000    0.000    0.000    0.000    0.000    0.000 
#
# Total GULP energy -89550.937728 kJ/mol
# GULP energy per Si atom -5596.933608 kJ/mol
# Density = 2.284804 g / cm^3
# Si number density = 22.900166 Si / 1000 Ang^3
#
#
#
# Elastic Constant Matrix: (Units=GPa)
#
#
# Indices 1 2 3 4 5 6 
#
# 1 72.0028 37.5008 16.0739 -10.6711 11.5875 17.8631
# 2 37.5008 153.0618 -2.0470 8.5583 -7.6701 5.4903
# 3 16.0739 -2.0470 56.0638 -6.0893 -1.8948 -1.0735
# 4 -10.6711 8.5583 -6.0893 28.1672 6.3593 6.1910
# 5 11.5875 -7.6701 -1.8948 6.3593 31.0120 0.0219
# 6 17.8631 5.4903 -1.0735 6.1910 0.0219 38.7055
#
#
#
# Elastic Compliance Matrix: (Units=1/GPa)
#
#
# Indices 1 2 3 4 5 6 
#
# 1 0.030110 -0.008929 -0.007697 0.020052 -0.018030 -0.016040
# 2 -0.008929 0.009447 0.002331 -0.008368 0.007528 0.004180
# 3 -0.007697 0.002331 0.020237 -0.001239 0.004940 0.003978
# 4 0.020052 -0.008368 -0.001239 0.053699 -0.020637 -0.016679
# 5 -0.018030 0.007528 0.004940 -0.020637 0.045371 0.010665
# 6 -0.016040 0.004180 0.003978 -0.016679 0.010665 0.035418
#
#
# Mechanical properties :
#
#
# Convention : Reuss Voigt Hill
#
# Bulk Modulus (GPa) = 32.04839 42.68708 37.36773
# Shear Modulus (GPa) = 21.43384 34.88366 28.15875
#
# Velocity S-wave (km/s) = 3.06268 3.90717 3.51041
# Velocity P-wave (km/s) = 5.15091 6.24785 5.72571
#
# Compressibility (1/GPa) = 0.03120281
#
# Stress axis : x y z
#
# Youngs Moduli (GPa) = 33.21134 105.84887 49.41351
#
# Poissons Ratio (x) = 0.94517 0.38035
# Poissons Ratio (y) = 0.29656 -0.11517
# Poissons Ratio (z) = 0.25564 -0.24670
#
# Static dielectric constant tensor:
#      x y z
#    x 1.797840 0.004500 -0.026400 
#    y 0.004500 1.888220 0.019670 
#    z -0.026400 0.019670 1.900700 
# 
# From -- ./inp_files/471152.got.cif
#   From: 2010.05.17/outbox.cif.g08.bks.cpg/sg2_236_cif.got.tgz:471152.got - 2010.06.03 11:33:40.
