data_PCOD9038874
_publ_section_title
;
Structure prediction by ZEFSAII (Michael W. Deem and Ramdas Pophale) SiO2 
 PCOD9038874
Probable space group: P -1
;
_chemical_formula_sum "Si O2"
_cell_formula_units_Z 16
_cell_length_a 16.445893
_cell_length_b 8.695114
_cell_length_c 10.904320
_cell_angle_alpha 113.500577
_cell_angle_beta 126.591756
_cell_angle_gamma 37.526731
_cell_volume 753.835943
_symmetry_space_group_name_H-M "P -1"
_symmetry_group_IT_number 2
_symmetry_cell_setting 'triclinic'
loop_
_space_group_symop_operation_xyz
x,y,z
-x,-y,-z
loop_
_atom_site_type_symbol
_atom_site_label
_atom_site_fract_x
_atom_site_fract_y
_atom_site_fract_z
Si Si1 0.785467 0.231529 0.184451
Si Si2 0.671818 0.743715 0.862992
Si Si3 0.869333 0.881531 0.737854
Si Si4 0.130629 0.751693 0.262120
Si Si5 0.214494 0.403499 0.815512
Si Si6 0.643074 0.042712 0.378033
Si Si7 0.356898 0.593890 0.621947
Si Si8 0.328213 0.896142 0.137043
O O1 0.775453 0.439389 0.205118
O O2 0.735670 0.269001 0.291038
O O3 0.680009 0.255033 0.005834
O O4 0.960001 0.953151 0.228035
O O5 0.814678 0.470287 0.841785
O O6 0.516734 0.851540 0.707792
O O7 0.673362 0.935986 0.892045
O O8 0.680067 0.710738 0.005878
O O9 0.748224 0.940250 0.558767
O O10 0.039948 0.605174 0.771908
O O11 0.865106 0.084322 0.763929
O O12 0.814644 0.927532 0.841757
O O13 0.251713 0.626201 0.441209
O O14 0.264316 0.184955 0.708941
O O15 0.609147 0.267621 0.362637
O O16 0.516699 0.306028 0.707742
#
# Coordination Sequence:
#
# PCOD9038874 Si02
#       8
#     2   2   2   2   2   2   2   2
#     4  11  23  41  64  90 122 158 199 247 300 357
#     4  12  25  40  61  90 123 160 203 248 295 352
#     4  10  23  42  64  90 121 158 198 246 303 358
#     4  10  23  42  64  90 121 158 198 246 303 358
#     4  11  23  41  64  90 122 158 199 247 300 357
#     4  11  23  41  64  90 122 158 199 247 300 357
#     4  11  23  41  64  90 122 158 199 247 300 357
#     4  12  25  40  61  90 123 160 203 248 295 352
#
# _framework density 21.224775999999999
#
# number of rings (size 3 to 8) (size 9 to 14) (size 15 to 20)
#    0.000    1.000    0.000    6.750    0.000   10.000 
#    0.000    0.000    0.000    0.000    0.000    0.000 
#    0.000    0.000    0.000    0.000    0.000    0.000 
#
# Total GULP energy -89626.008263 kJ/mol
# GULP energy per Si atom -5601.625516 kJ/mol
# Density = 2.117647 g / cm^3
# Si number density = 21.224776 Si / 1000 Ang^3
#
#
#
# Elastic Constant Matrix: (Units=GPa)
#
#
# Indices 1 2 3 4 5 6 
#
# 1 56.4670 -11.5930 0.3527 -2.9344 1.3211 -20.2438
# 2 -11.5930 73.6477 -1.1508 -1.9694 2.2680 -6.4334
# 3 0.3527 -1.1508 52.0501 -0.7285 -0.0674 2.4412
# 4 -2.9344 -1.9694 -0.7285 31.1904 -13.3144 -0.3506
# 5 1.3211 2.2680 -0.0674 -13.3144 22.8067 0.1783
# 6 -20.2438 -6.4334 2.4412 -0.3506 0.1783 18.8130
#
#
#
# Elastic Compliance Matrix: (Units=1/GPa)
#
#
# Indices 1 2 3 4 5 6 
#
# 1 0.034199 0.008997 -0.001867 0.003769 -0.000995 0.040199
# 2 0.008997 0.016415 -0.000402 0.001432 -0.001439 0.015387
# 3 -0.001867 -0.000402 0.019441 0.000405 0.000478 -0.004666
# 4 0.003769 0.001432 0.000405 0.043157 0.024796 0.005062
# 5 -0.000995 -0.001439 0.000478 0.024796 0.058538 -0.001718
# 6 0.040199 0.015387 -0.004666 0.005062 -0.001718 0.102389
#
#
# Mechanical properties :
#
#
# Convention : Reuss Voigt Hill
#
# Bulk Modulus (GPa) = 11.97428 17.48697 14.73062
# Shear Modulus (GPa) = 17.32993 27.53242 22.43117
#
# Velocity S-wave (km/s) = 2.86054 3.60555 3.25443
# Velocity P-wave (km/s) = 4.06991 5.05867 4.59098
#
# Compressibility (1/GPa) = 0.08351234
#
# Stress axis : x y z
#
# Youngs Moduli (GPa) = 29.24075 60.92048 51.43724
#
# Poissons Ratio (x) = -0.54810 0.09602
# Poissons Ratio (y) = -0.26308 0.02065
# Poissons Ratio (z) = 0.05458 0.02446
#
# Static dielectric constant tensor:
#      x y z
#    x 1.721890 -0.026700 0.010610 
#    y -0.026700 1.739710 -0.015790 
#    z 0.010610 -0.015790 1.740210 
# 
# From -- ./inp_files/243396.got.cif
#   From: 2010.05.17/outbox.cif.g08.bks.cpg/sg2_122_cif.got.tgz:243396.got - 2010.06.03 11:33:40.
