data_PCOD9038981
_publ_section_title
;
Structure prediction by ZEFSAII (Michael W. Deem and Ramdas Pophale) SiO2 
 PCOD9038981
Probable space group: P -1
;
_chemical_formula_sum "Si O2"
_cell_formula_units_Z 16
_cell_length_a 9.383759
_cell_length_b 14.836039
_cell_length_c 11.199318
_cell_angle_alpha 103.610781
_cell_angle_beta 123.542818
_cell_angle_gamma 121.464195
_cell_volume 749.538131
_symmetry_space_group_name_H-M "P -1"
_symmetry_group_IT_number 2
_symmetry_cell_setting 'triclinic'
loop_
_space_group_symop_operation_xyz
x,y,z
-x,-y,-z
loop_
_atom_site_type_symbol
_atom_site_label
_atom_site_fract_x
_atom_site_fract_y
_atom_site_fract_z
Si Si1 0.436551 0.113998 0.768511
Si Si2 0.690418 0.643147 0.980670
Si Si3 0.255340 0.172675 0.113936
Si Si4 0.031839 0.407044 0.020434
Si Si5 0.820270 0.793081 0.330131
Si Si6 0.829576 0.659141 0.483591
Si Si7 0.680380 0.234116 0.172060
Si Si8 0.728049 0.486902 0.576154
O O1 0.328054 0.173109 0.743734
O O2 0.719501 0.232507 0.857254
O O3 0.524711 0.126678 0.948529
O O4 0.165820 0.946465 0.531424
O O5 0.838012 0.784048 0.005058
O O6 0.362626 0.493189 0.734412
O O7 0.829198 0.602985 0.011675
O O8 0.708167 0.681229 0.136556
O O9 0.458577 0.196656 0.133521
O O10 0.462445 0.310393 0.352148
O O11 0.000000 0.000000 0.000000
O O12 0.221137 0.487687 0.253109
O O13 0.000000 0.500000 0.000000
O O14 0.774279 0.733730 0.423464
O O15 0.728226 0.589791 0.548287
O O16 0.162666 0.774897 0.677342
O O17 0.963177 0.413314 0.307957
#
# Coordination Sequence:
#
# PCOD9038981 Si02
#       8
#     2   2   2   2   2   2   2   2
#     4  10  23  42  65  92 133 181 219 267 332 401
#     4  11  24  41  63 102 135 166 228 277 326 401
#     4  11  22  38  64 100 136 172 210 280 337 383
#     4  11  24  44  66  94 133 178 216 277 341 391
#     4  11  22  41  66  95 132 171 225 277 325 394
#     4   9  21  38  69  92 119 176 227 274 316 391
#     4   9  19  42  64  93 127 175 226 265 319 394
#     4   8  21  41  63  89 125 171 222 261 317 400
#
# _framework density 21.346478999999999
#
# number of rings (size 3 to 8) (size 9 to 14) (size 15 to 20)
#    0.750    1.250    1.250    1.500    0.000    6.000 
#    4.500    0.000    0.000    0.000    0.000    0.000 
#    0.000    0.000    0.000    0.000    0.000    0.000 
#
# Total GULP energy -89258.732013 kJ/mol
# GULP energy per Si atom -5578.670751 kJ/mol
# Density = 2.129789 g / cm^3
# Si number density = 21.346479 Si / 1000 Ang^3
#
#
#
# Elastic Constant Matrix: (Units=GPa)
#
#
# Indices 1 2 3 4 5 6 
#
# 1 58.5568 9.8243 19.4478 -6.1586 16.7343 5.0529
# 2 9.8243 89.3492 24.6024 -11.8442 6.2493 -5.4026
# 3 19.4478 24.6024 104.1943 -9.3637 10.8360 -0.5973
# 4 -6.1586 -11.8442 -9.3637 39.8565 5.0595 5.8547
# 5 16.7343 6.2493 10.8360 5.0595 26.1619 -1.9125
# 6 5.0529 -5.4026 -0.5973 5.8547 -1.9125 23.8903
#
#
#
# Elastic Compliance Matrix: (Units=1/GPa)
#
#
# Indices 1 2 3 4 5 6 
#
# 1 0.023796 -0.000572 -0.002131 0.006214 -0.015990 -0.008018
# 2 -0.000572 0.012579 -0.002356 0.003073 -0.002112 0.001985
# 3 -0.002131 -0.002356 0.011053 0.002040 -0.003087 -0.000553
# 4 0.006214 0.003073 0.002040 0.030290 -0.012066 -0.008957
# 5 -0.015990 -0.002112 -0.003087 -0.012066 0.053302 0.010051
# 6 -0.008018 0.001985 -0.000553 -0.008957 0.010051 0.046989
#
#
# Mechanical properties :
#
#
# Convention : Reuss Voigt Hill
#
# Bulk Modulus (GPa) = 26.80358 39.98325 33.39342
# Shear Modulus (GPa) = 24.92964 31.19679 28.06321
#
# Velocity S-wave (km/s) = 3.42110 3.82704 3.62975
# Velocity P-wave (km/s) = 5.30933 6.18866 5.76578
#
# Compressibility (1/GPa) = 0.03730845
#
# Stress axis : x y z
#
# Youngs Moduli (GPa) = 42.02359 79.49908 90.47504
#
# Poissons Ratio (x) = 0.04551 0.19280
# Poissons Ratio (y) = 0.02406 0.21317
# Poissons Ratio (z) = 0.08955 0.18731
#
# Static dielectric constant tensor:
#      x y z
#    x 1.810290 -0.009970 0.048970 
#    y -0.009970 1.843250 0.027170 
#    z 0.048970 0.027170 1.772350 
# 
# From -- ./inp_files/399326.got.cif
#   From: 2010.05.17/outbox.cif.g08.bks.cpg/sg2_200_cif.got.tgz:399326.got - 2010.06.03 11:33:40.
