data_PCOD9038402
_publ_section_title
;
Structure prediction by ZEFSAII (Michael W. Deem and Ramdas Pophale) SiO2 
 PCOD9038402
Probable space group: P -1
;
_chemical_formula_sum "Si O2"
_cell_formula_units_Z 16
_cell_length_a 19.459330
_cell_length_b 5.299041
_cell_length_c 12.822874
_cell_angle_alpha 94.902273
_cell_angle_beta 42.032156
_cell_angle_gamma 117.173792
_cell_volume 712.540357
_symmetry_space_group_name_H-M "P -1"
_symmetry_group_IT_number 2
_symmetry_cell_setting 'triclinic'
loop_
_space_group_symop_operation_xyz
x,y,z
-x,-y,-z
loop_
_atom_site_type_symbol
_atom_site_label
_atom_site_fract_x
_atom_site_fract_y
_atom_site_fract_z
Si Si1 0.387951 0.507194 0.086522
Si Si2 0.235706 0.871627 0.597197
Si Si3 0.497738 0.760591 0.574948
Si Si4 0.807282 0.173955 0.784819
Si Si5 0.680309 0.385741 0.043776
Si Si6 0.043594 0.962572 0.259303
Si Si7 0.088304 0.185390 0.810176
Si Si8 0.799145 0.457239 0.595573
O O1 0.343347 0.652737 0.223851
O O2 0.261920 0.156046 0.205500
O O3 0.500000 0.500000 0.000000
O O4 0.405642 0.638628 0.955146
O O5 0.169186 0.561572 0.734769
O O6 0.211531 0.738970 0.500850
O O7 0.381166 0.073719 0.478009
O O8 0.175640 0.064366 0.685558
O O9 0.500000 0.500000 0.500000
O O10 0.375835 0.621112 0.782778
O O11 0.500000 0.000000 0.500000
O O12 0.922334 0.250187 0.728834
O O13 0.838255 0.400927 0.661860
O O14 0.700897 0.121888 0.984259
O O15 0.825619 0.692154 0.871879
O O16 0.009169 0.903433 0.176423
O O17 0.906958 0.824164 0.459495
O O18 0.000000 0.000000 0.000000
#
# Coordination Sequence:
#
# PCOD9038402 Si02
#       8
#     2   2   2   2   2   2   2   2
#     4  10  24  41  69 100 145 188 236 292 358 437
#     4  11  27  47  74 111 141 189 245 299 367 434
#     4  12  30  50  78 104 143 194 246 306 365 427
#     4  10  23  41  69 102 141 187 233 294 357 437
#     4  10  26  43  67 104 138 188 240 300 357 437
#     4  10  24  42  69 100 145 184 239 290 362 430
#     4  11  26  47  75 105 144 193 242 311 361 426
#     4  10  24  42  69 107 141 192 230 300 362 433
#
# _framework density 22.454868000000001
#
# number of rings (size 3 to 8) (size 9 to 14) (size 15 to 20)
#    0.000    1.500    0.000    1.500   17.500    5.500 
#    0.000    0.000    0.000    0.000    0.000    0.000 
#    0.000    0.000    0.000    0.000    0.000    0.000 
#
# Total GULP energy -89260.366743 kJ/mol
# GULP energy per Si atom -5578.772921 kJ/mol
# Density = 2.240376 g / cm^3
# Si number density = 22.454868 Si / 1000 Ang^3
#
#
#
# Elastic Constant Matrix: (Units=GPa)
#
#
# Indices 1 2 3 4 5 6 
#
# 1 131.2223 18.9171 50.7624 5.1663 -11.4128 7.2262
# 2 18.9171 66.6811 31.2872 0.9412 0.4522 2.9167
# 3 50.7624 31.2872 121.9671 19.6982 24.4822 7.4588
# 4 5.1663 0.9412 19.6982 33.9180 0.1793 -5.3745
# 5 -11.4128 0.4522 24.4822 0.1793 30.5768 -0.4288
# 6 7.2262 2.9167 7.4588 -5.3745 -0.4288 29.5374
#
#
#
# Elastic Compliance Matrix: (Units=1/GPa)
#
#
# Indices 1 2 3 4 5 6 
#
# 1 0.011039 0.000002 -0.006842 0.002172 0.009579 -0.000439
# 2 0.000002 0.017698 -0.005948 0.002997 0.004489 0.000364
# 3 -0.006842 -0.005948 0.017740 -0.009676 -0.016672 -0.004221
# 4 0.002172 0.002997 -0.009676 0.035956 0.008419 0.008281
# 5 0.009579 0.004489 -0.016672 0.008419 0.049565 0.003675
# 6 -0.000439 0.000364 -0.004221 0.008281 0.003675 0.036553
#
#
# Mechanical properties :
#
#
# Convention : Reuss Voigt Hill
#
# Bulk Modulus (GPa) = 47.84427 57.97821 52.91124
# Shear Modulus (GPa) = 24.86412 33.40003 29.13208
#
# Velocity S-wave (km/s) = 3.33121 3.86090 3.60580
# Velocity P-wave (km/s) = 6.01241 6.76398 6.39924
#
# Compressibility (1/GPa) = 0.02090114
#
# Stress axis : x y z
#
# Youngs Moduli (GPa) = 90.58989 56.50199 56.37104
#
# Poissons Ratio (x) = -0.00011 0.38566
# Poissons Ratio (y) = -0.00018 0.33532
# Poissons Ratio (z) = 0.61977 0.33609
#
# Static dielectric constant tensor:
#      x y z
#    x 1.838030 -0.064960 -0.016120 
#    y -0.064960 1.972470 -0.016060 
#    z -0.016120 -0.016060 1.842510 
# 
# From -- ./inp_files/459511.got.cif
#   From: 2010.05.17/outbox.cif.g08.bks.cpg/sg2_230_cif.got.tgz:459511.got - 2010.06.03 11:33:40.
