data_PCOD9038173
_publ_section_title
;
Structure prediction by ZEFSAII (Michael W. Deem and Ramdas Pophale) SiO2 
 PCOD9038173
Probable space group: P -1
;
_chemical_formula_sum "Si O2"
_cell_formula_units_Z 15
_cell_length_a 11.594966
_cell_length_b 8.189682
_cell_length_c 8.821456
_cell_angle_alpha 77.382818
_cell_angle_beta 129.132531
_cell_angle_gamma 105.462242
_cell_volume 624.846505
_symmetry_space_group_name_H-M "P -1"
_symmetry_group_IT_number 2
_symmetry_cell_setting 'triclinic'
loop_
_space_group_symop_operation_xyz
x,y,z
-x,-y,-z
loop_
_atom_site_type_symbol
_atom_site_label
_atom_site_fract_x
_atom_site_fract_y
_atom_site_fract_z
Si Si1 0.666211 0.003979 0.577258
Si Si2 0.000000 0.500000 0.000000
Si Si3 0.683964 0.358073 0.651599
Si Si4 0.518471 0.453409 0.770798
Si Si5 0.646712 0.717573 0.047806
Si Si6 0.108758 0.952452 0.732634
Si Si7 0.078329 0.171922 0.108301
Si Si8 0.381655 0.897364 0.806773
O O1 0.733706 0.188357 0.662020
O O2 0.667605 0.003829 0.397611
O O3 0.500000 0.000000 0.500000
O O4 0.749090 0.853907 0.731734
O O5 0.164525 0.511599 0.218510
O O6 0.040912 0.339038 0.968835
O O7 0.597468 0.335437 0.747162
O O8 0.570345 0.432715 0.431543
O O9 0.395264 0.352333 0.803840
O O10 0.646274 0.563145 0.961985
O O11 0.785467 0.876115 0.143649
O O12 0.486966 0.772412 0.854755
O O13 0.228794 0.844010 0.784301
O O14 0.000000 0.000000 0.500000
O O15 0.007912 0.842937 0.797540
O O16 0.000000 0.000000 0.000000
O O17 0.500000 0.000000 0.000000
#
# Coordination Sequence:
#
# PCOD9038173 Si02
#       8
#     2   1   2   2   2   2   2   2
#     4  12  27  46  75 110 144 198 252 310 371 446
#     4  12  30  46  72 110 150 200 244 306 382 442
#     4  11  26  44  71 104 152 197 251 305 377 435
#     4  10  24  44  69 104 149 199 245 313 362 444
#     4  10  23  42  71 104 147 191 253 302 373 444
#     4  11  25  44  70 106 143 196 241 308 376 442
#     4  12  29  50  74 108 155 197 253 307 381 450
#     4  10  23  41  67 100 142 187 249 297 366 441
#
# _framework density 24.005897000000001
#
# number of rings (size 3 to 8) (size 9 to 14) (size 15 to 20)
#    0.000    1.067    4.000    0.000   16.800    0.000 
#    0.000    0.000    0.000    5.600    0.000    0.000 
#    0.000    0.000    0.000    0.000    0.000    0.000 
#
# Total GULP energy -83550.790707 kJ/mol
# GULP energy per Si atom -5570.052714 kJ/mol
# Density = 2.395126 g / cm^3
# Si number density = 24.005897 Si / 1000 Ang^3
#
#
#
# Elastic Constant Matrix: (Units=GPa)
#
#
# Indices 1 2 3 4 5 6 
#
# 1 124.3138 9.8875 41.9072 -1.3978 10.4902 4.9467
# 2 9.8875 72.3976 13.5512 15.0834 11.5282 -13.0795
# 3 41.9072 13.5512 79.6790 16.6227 12.6769 -15.4805
# 4 -1.3978 15.0834 16.6227 41.6822 -7.0959 11.5929
# 5 10.4902 11.5282 12.6769 -7.0959 46.5635 -0.8474
# 6 4.9467 -13.0795 -15.4805 11.5929 -0.8474 42.3186
#
#
#
# Elastic Compliance Matrix: (Units=1/GPa)
#
#
# Indices 1 2 3 4 5 6 
#
# 1 0.011479 -0.003040 -0.008730 0.007296 0.001520 -0.007443
# 2 -0.003040 0.019372 0.004438 -0.013285 -0.007135 0.011463
# 3 -0.008730 0.004438 0.024426 -0.017463 -0.008153 0.015948
# 4 0.007296 -0.013285 -0.017463 0.044672 0.012783 -0.023329
# 5 0.001520 -0.007135 -0.008153 0.012783 0.026916 -0.008328
# 6 -0.007443 0.011463 0.015948 -0.023329 -0.008328 0.040101
#
#
# Mechanical properties :
#
#
# Convention : Reuss Voigt Hill
#
# Bulk Modulus (GPa) = 24.62309 45.23136 34.92723
# Shear Modulus (GPa) = 25.61888 40.18249 32.90068
#
# Velocity S-wave (km/s) = 3.27033 4.09572 3.70608
# Velocity P-wave (km/s) = 4.95373 6.42256 5.73536
#
# Compressibility (1/GPa) = 0.04061228
#
# Stress axis : x y z
#
# Youngs Moduli (GPa) = 87.11584 51.62113 40.93975
#
# Poissons Ratio (x) = 0.15694 0.35741
# Poissons Ratio (y) = 0.26486 -0.18170
# Poissons Ratio (z) = 0.76054 -0.22910
#
# Static dielectric constant tensor:
#      x y z
#    x 3.450200 -2.581290 -2.451120 
#    y -2.581290 6.789520 4.349270 
#    z -2.451120 4.349270 6.006000 
# 
# From -- ./inp_files/243731.got.cif
#   From: 2010.05.17/outbox.cif.g08.bks.cpg/sg2_122_cif.got.tgz:243731.got - 2010.06.03 11:33:40.
