data_PCOD9038124
_publ_section_title
;
Structure prediction by ZEFSAII (Michael W. Deem and Ramdas Pophale) SiO2 
 PCOD9038124
Probable space group: P -1
;
_chemical_formula_sum "Si O2"
_cell_formula_units_Z 16
_cell_length_a 12.879542
_cell_length_b 11.933969
_cell_length_c 13.199735
_cell_angle_alpha 56.411470
_cell_angle_beta 31.561925
_cell_angle_gamma 76.509154
_cell_volume 741.092620
_symmetry_space_group_name_H-M "P -1"
_symmetry_group_IT_number 2
_symmetry_cell_setting 'triclinic'
loop_
_space_group_symop_operation_xyz
x,y,z
-x,-y,-z
loop_
_atom_site_type_symbol
_atom_site_label
_atom_site_fract_x
_atom_site_fract_y
_atom_site_fract_z
Si Si1 0.377257 0.340637 0.752365
Si Si2 0.947268 0.026998 0.835328
Si Si3 0.186115 0.591161 0.518813
Si Si4 0.586890 0.919279 0.676468
Si Si5 0.360189 0.877199 0.087826
Si Si6 0.930278 0.241214 0.899063
Si Si7 0.844221 0.501271 0.034965
Si Si8 0.666133 0.164289 0.343264
O O1 0.500000 0.500000 0.500000
O O2 0.577123 0.333509 0.650177
O O3 0.232516 0.378818 0.932071
O O4 0.211487 0.165306 0.929816
O O5 0.809326 0.081385 0.850616
O O6 0.966432 0.110425 0.884772
O O7 0.203583 0.087827 0.544770
O O8 0.213608 0.703834 0.348224
O O9 0.126484 0.419711 0.614894
O O10 0.983686 0.553596 0.787229
O O11 0.652492 0.096886 0.499539
O O12 0.549350 0.894520 0.839177
O O13 0.324488 0.797143 0.909789
O O14 0.500000 0.000000 0.000000
O O15 0.907320 0.236219 0.042394
O O16 0.632105 0.311508 0.298887
O O17 0.000000 0.500000 0.000000
O O18 0.500000 0.000000 0.500000
#
# Coordination Sequence:
#
# PCOD9038124 Si02
#       8
#     2   2   2   2   2   2   2   2
#     4  12  26  39  66 102 135 172 220 273 334 395
#     4  11  25  43  69  99 132 179 220 272 331 397
#     4  11  25  46  65 100 131 176 224 272 334 385
#     4  10  23  41  66  97 129 176 226 262 332 388
#     4  11  25  44  68  92 138 177 221 276 321 396
#     4   9  23  44  67  97 134 176 215 278 333 393
#     4  11  23  39  63  92 133 169 207 275 326 382
#     4   9  20  38  64  91 130 170 209 260 328 390
#
# _framework density 21.589745000000001
#
# number of rings (size 3 to 8) (size 9 to 14) (size 15 to 20)
#    0.000    1.500    2.500    0.750   10.500    7.000 
#    0.000    1.250    0.000    0.000    0.000    0.000 
#    0.000    0.000    0.000    0.000    0.000    0.000 
#
# Total GULP energy -89351.329658 kJ/mol
# GULP energy per Si atom -5584.458104 kJ/mol
# Density = 2.154061 g / cm^3
# Si number density = 21.589745 Si / 1000 Ang^3
#
#
#
# Elastic Constant Matrix: (Units=GPa)
#
#
# Indices 1 2 3 4 5 6 
#
# 1 55.2497 6.7179 24.3930 -6.2665 18.0992 -1.3247
# 2 6.7179 118.5721 51.0207 -12.4168 8.9096 14.7212
# 3 24.3930 51.0207 109.3759 -13.7939 21.8676 4.9205
# 4 -6.2665 -12.4168 -13.7939 47.5215 -3.8333 -0.6031
# 5 18.0992 8.9096 21.8676 -3.8333 45.5836 0.3446
# 6 -1.3247 14.7212 4.9205 -0.6031 0.3446 36.1599
#
#
#
# Elastic Compliance Matrix: (Units=1/GPa)
#
#
# Indices 1 2 3 4 5 6 
#
# 1 0.022179 0.000954 -0.003843 0.001505 -0.007031 0.001039
# 2 0.000954 0.011195 -0.005075 0.001531 0.000026 -0.003807
# 3 -0.003843 -0.005075 0.013324 0.001736 -0.003729 0.000177
# 4 0.001505 0.001531 0.001736 0.022151 0.000137 -0.000436
# 5 -0.007031 0.000026 -0.003729 0.000137 0.026525 -0.000011
# 6 0.001039 -0.003807 0.000177 -0.000436 -0.000011 0.029211
#
#
# Mechanical properties :
#
#
# Convention : Reuss Voigt Hill
#
# Bulk Modulus (GPa) = 32.50051 49.71787 41.10919
# Shear Modulus (GPa) = 33.16318 39.25741 36.21030
#
# Velocity S-wave (km/s) = 3.92351 4.26882 4.09980
# Velocity P-wave (km/s) = 5.96755 6.88299 6.44155
#
# Compressibility (1/GPa) = 0.03076875
#
# Stress axis : x y z
#
# Youngs Moduli (GPa) = 45.08791 89.32879 75.05324
#
# Poissons Ratio (x) = -0.08519 0.28840
# Poissons Ratio (y) = -0.04300 0.38092
# Poissons Ratio (z) = 0.17325 0.45338
#
# Static dielectric constant tensor:
#      x y z
#    x 1.846470 0.025410 -0.027140 
#    y 0.025410 1.822420 -0.010940 
#    z -0.027140 -0.010940 1.847160 
# 
# From -- ./inp_files/531709.got.cif
#   From: 2010.05.17/outbox.cif.g08.bks.cpg/sg2_266_cif.got.tgz:531709.got - 2010.06.03 11:33:40.
