data_PCOD9038651
_publ_section_title
;
Structure prediction by ZEFSAII (Michael W. Deem and Ramdas Pophale) SiO2 
 PCOD9038651
Probable space group: P -1
;
_chemical_formula_sum "Si O2"
_cell_formula_units_Z 10
_cell_length_a 9.839199
_cell_length_b 14.747723
_cell_length_c 8.753744
_cell_angle_alpha 140.877527
_cell_angle_beta 72.109014
_cell_angle_gamma 137.235302
_cell_volume 430.239444
_symmetry_space_group_name_H-M "P -1"
_symmetry_group_IT_number 2
_symmetry_cell_setting 'triclinic'
loop_
_space_group_symop_operation_xyz
x,y,z
-x,-y,-z
loop_
_atom_site_type_symbol
_atom_site_label
_atom_site_fract_x
_atom_site_fract_y
_atom_site_fract_z
Si Si1 0.841921 0.462268 0.629558
Si Si2 0.458087 0.496847 0.191213
Si Si3 0.816288 0.270990 0.884959
Si Si4 0.330478 0.949439 0.654540
Si Si5 0.998892 0.928694 0.742308
O O1 0.651158 0.435447 0.633502
O O2 0.704777 0.227851 0.473544
O O3 0.000000 0.500000 0.500000
O O4 0.050469 0.697819 0.983555
O O5 0.500000 0.500000 0.000000
O O6 0.232774 0.200462 0.929707
O O7 0.730139 0.705650 0.456034
O O8 0.672036 0.047659 0.526121
O O9 0.619271 0.225318 0.956177
O O10 0.000000 0.500000 0.000000
O O11 0.095061 0.849545 0.644390
O O12 0.000000 0.000000 0.000000
#
# Coordination Sequence:
#
# PCOD9038651 Si02
#       5
#     2   2   2   2   2
#     4  11  25  42  69 101 139 177 232 295 350 409
#     4  12  29  48  73 109 150 186 237 302 367 417
#     4   9  21  39  67  96 130 172 238 277 340 413
#     4  10  23  41  72  94 131 185 237 274 341 435
#     4  12  28  48  74 103 148 192 237 293 363 432
#
# _framework density 23.24287
#
# number of rings (size 3 to 8) (size 9 to 14) (size 15 to 20)
#    0.000    1.200    0.000    3.600   19.600    0.800 
#    0.000    0.000    0.000    0.000    0.000    0.000 
#    0.000    0.000    0.000    0.000    0.000    0.000 
#
# Total GULP energy -55675.073477 kJ/mol
# GULP energy per Si atom -5567.507348 kJ/mol
# Density = 2.318997 g / cm^3
# Si number density = 23.242870 Si / 1000 Ang^3
#
#
#
# Elastic Constant Matrix: (Units=GPa)
#
#
# Indices 1 2 3 4 5 6 
#
# 1 113.1228 -13.2242 31.1923 30.9879 4.4128 34.1075
# 2 -13.2242 103.2359 23.5377 12.1924 -2.1060 5.5261
# 3 31.1923 23.5377 82.1113 21.2056 23.1655 7.4829
# 4 30.9879 12.1924 21.2056 38.0691 6.5826 -0.3026
# 5 4.4128 -2.1060 23.1655 6.5826 44.8114 7.8619
# 6 34.1075 5.5261 7.4829 -0.3026 7.8619 38.4290
#
#
#
# Elastic Compliance Matrix: (Units=1/GPa)
#
#
# Indices 1 2 3 4 5 6 
#
# 1 0.023478 0.008187 -0.006436 -0.019758 0.008269 -0.022609
# 2 0.008187 0.013657 -0.005410 -0.009070 0.005613 -0.009397
# 3 -0.006436 -0.005410 0.019049 -0.001865 -0.010040 0.004820
# 4 -0.019758 -0.009070 -0.001865 0.047896 -0.008285 0.021275
# 5 0.008269 0.005613 -0.010040 -0.008285 0.030360 -0.012467
# 6 -0.022609 -0.009397 0.004820 0.021275 -0.012467 0.049220
#
#
# Mechanical properties :
#
#
# Convention : Reuss Voigt Hill
#
# Bulk Modulus (GPa) = 20.46340 42.38685 31.42513
# Shear Modulus (GPa) = 24.12357 41.39287 32.75822
#
# Velocity S-wave (km/s) = 3.22513 4.22463 3.75825
# Velocity P-wave (km/s) = 4.76360 6.48635 5.69055
#
# Compressibility (1/GPa) = 0.04886774
#
# Stress axis : x y z
#
# Youngs Moduli (GPa) = 42.59277 73.21989 52.49606
#
# Poissons Ratio (x) = -0.59946 0.33784
# Poissons Ratio (y) = -0.34871 0.28401
# Poissons Ratio (z) = 0.27411 0.39612
#
# Static dielectric constant tensor:
#      x y z
#    x 1.978930 0.176380 -0.117790 
#    y 0.176380 2.077350 -0.052460 
#    z -0.117790 -0.052460 2.167220 
# 
# From -- ./inp_files/15924.got.cif
#   From: 2010.05.17/outbox.cif.g08.bks.cpg/sg2_8_cif.got.tgz:15924.got - 2010.06.03 11:33:40.
