data_PCOD9038505
_publ_section_title
;
Structure prediction by ZEFSAII (Michael W. Deem and Ramdas Pophale) SiO2 
 PCOD9038505
Probable space group: P -1
;
_chemical_formula_sum "Si O2"
_cell_formula_units_Z 16
_cell_length_a 13.696713
_cell_length_b 9.754147
_cell_length_c 18.260764
_cell_angle_alpha 31.898715
_cell_angle_beta 33.642982
_cell_angle_gamma 51.754158
_cell_volume 681.373256
_symmetry_space_group_name_H-M "P -1"
_symmetry_group_IT_number 2
_symmetry_cell_setting 'triclinic'
loop_
_space_group_symop_operation_xyz
x,y,z
-x,-y,-z
loop_
_atom_site_type_symbol
_atom_site_label
_atom_site_fract_x
_atom_site_fract_y
_atom_site_fract_z
Si Si1 0.306913 0.248049 0.546890
Si Si2 0.023540 0.535255 0.555386
Si Si3 0.325843 0.845569 0.992045
Si Si4 0.134835 0.408573 0.056184
Si Si5 0.591851 0.546792 0.340363
Si Si6 0.226783 0.837314 0.670281
Si Si7 0.150819 0.846446 0.952367
Si Si8 0.629389 0.941403 0.880480
O O1 0.116493 0.312063 0.626884
O O2 0.452640 0.500739 0.378755
O O3 0.656646 0.880919 0.493760
O O4 0.274896 0.027729 0.730216
O O5 0.000000 0.500000 0.500000
O O6 0.176793 0.814830 0.354617
O O7 0.818112 0.428983 0.762916
O O8 0.291050 0.811827 0.942702
O O9 0.514518 0.890340 0.899389
O O10 0.285594 0.141244 0.890075
O O11 0.304924 0.314224 0.019882
O O12 0.968524 0.158411 0.242180
O O13 0.186473 0.620361 0.860750
O O14 0.061475 0.556961 0.100847
O O15 0.500000 0.500000 0.500000
O O16 0.683841 0.308793 0.379082
O O17 0.000000 0.000000 0.000000
O O18 0.500000 0.000000 0.000000
#
# Coordination Sequence:
#
# PCOD9038505 Si02
#       8
#     2   2   2   2   2   2   2   2
#     4  11  23  41  68 107 141 179 250 300 368 432
#     4  12  25  41  70 104 140 197 242 293 363 437
#     4  12  25  43  73 103 149 191 244 299 365 441
#     4  10  24  43  71 105 140 189 248 301 371 435
#     4  12  24  42  72 108 143 191 244 304 379 438
#     4  10  23  41  70 103 143 183 243 321 362 426
#     4  11  22  43  74 102 141 189 240 305 373 430
#     4  12  25  46  70 103 144 193 248 300 360 443
#
# _framework density 23.481988999999999
#
# number of rings (size 3 to 8) (size 9 to 14) (size 15 to 20)
#    0.000    0.750    5.000    2.625    3.500    0.500 
#    0.000    0.625    2.750    0.000    0.000    0.000 
#    0.000    0.000    0.000    0.000    0.000    0.000 
#
# Total GULP energy -89290.278057 kJ/mol
# GULP energy per Si atom -5580.642379 kJ/mol
# Density = 2.342854 g / cm^3
# Si number density = 23.481989 Si / 1000 Ang^3
#
#
#
# Elastic Constant Matrix: (Units=GPa)
#
#
# Indices 1 2 3 4 5 6 
#
# 1 195.8037 41.8172 43.4661 -3.0518 -16.0363 -1.6604
# 2 41.8172 91.5957 9.6912 9.7673 -7.9587 13.5735
# 3 43.4661 9.6912 99.6304 -16.3794 -21.0520 13.2459
# 4 -3.0518 9.7673 -16.3794 21.7242 4.0839 -4.5506
# 5 -16.0363 -7.9587 -21.0520 4.0839 41.4149 -3.0559
# 6 -1.6604 13.5735 13.2459 -4.5506 -3.0559 45.1167
#
#
#
# Elastic Compliance Matrix: (Units=1/GPa)
#
#
# Indices 1 2 3 4 5 6 
#
# 1 0.006376 -0.002939 -0.002506 0.000604 0.000715 0.001964
# 2 -0.002939 0.014100 -0.000438 -0.008461 0.001818 -0.004952
# 3 -0.002506 -0.000438 0.014078 0.008919 0.005011 -0.002855
# 4 0.000604 -0.008461 0.008919 0.058245 -0.002183 0.005676
# 5 0.000715 0.001818 0.005011 -0.002183 0.027509 -0.000349
# 6 0.001964 -0.004952 -0.002855 0.005676 -0.000349 0.025114
#
#
# Mechanical properties :
#
#
# Convention : Reuss Voigt Hill
#
# Bulk Modulus (GPa) = 43.88480 64.10876 53.99678
# Shear Modulus (GPa) = 30.34289 41.12152 35.73221
#
# Velocity S-wave (km/s) = 3.59859 4.18927 3.90511
# Velocity P-wave (km/s) = 5.99964 7.12464 6.58620
#
# Compressibility (1/GPa) = 0.02278693
#
# Stress axis : x y z
#
# Youngs Moduli (GPa) = 156.84119 70.92349 71.03351
#
# Poissons Ratio (x) = 0.20844 0.17804
# Poissons Ratio (y) = 0.46096 0.03110
# Poissons Ratio (z) = 0.39310 0.03105
#
# Static dielectric constant tensor:
#      x y z
#    x 1.904610 0.007720 -0.045250 
#    y 0.007720 1.935920 0.001380 
#    z -0.045250 0.001380 2.011930 
# 
# From -- ./inp_files/597790.got.cif
#   From: 2010.05.17/outbox.cif.g08.bks.cpg/sg2_299_cif.got.tgz:597790.got - 2010.06.03 11:33:40.
