data_PCOD9038019
_publ_section_title
;
Structure prediction by ZEFSAII (Michael W. Deem and Ramdas Pophale) SiO2 
 PCOD9038019
Probable space group: P -1
;
_chemical_formula_sum "Si O2"
_cell_formula_units_Z 16
_cell_length_a 12.258177
_cell_length_b 8.264533
_cell_length_c 9.700252
_cell_angle_alpha 49.894933
_cell_angle_beta 82.835923
_cell_angle_gamma 103.258194
_cell_volume 680.857671
_symmetry_space_group_name_H-M "P -1"
_symmetry_group_IT_number 2
_symmetry_cell_setting 'triclinic'
loop_
_space_group_symop_operation_xyz
x,y,z
-x,-y,-z
loop_
_atom_site_type_symbol
_atom_site_label
_atom_site_fract_x
_atom_site_fract_y
_atom_site_fract_z
Si Si1 0.816387 0.830614 0.234957
Si Si2 0.722378 0.177201 0.383956
Si Si3 0.623255 0.999378 0.218315
Si Si4 0.539099 0.377771 0.938444
Si Si5 0.373259 0.606044 0.361688
Si Si6 0.703628 0.022670 0.785729
Si Si7 0.834727 0.699878 0.013907
Si Si8 0.957899 0.101867 0.319202
O O1 0.746024 0.997517 0.138006
O O2 0.701991 0.592450 0.413873
O O3 0.879758 0.793542 0.109052
O O4 0.898486 0.909801 0.313692
O O5 0.737328 0.438601 0.202580
O O6 0.855366 0.183642 0.337628
O O7 0.636156 0.005636 0.378192
O O8 0.686243 0.079926 0.597213
O O9 0.500691 0.788848 0.302183
O O10 0.615826 0.240758 0.053510
O O11 0.602903 0.505532 0.720506
O O12 0.500000 0.500000 0.000000
O O13 0.415699 0.171977 0.024571
O O14 0.288438 0.743993 0.270978
O O15 0.792936 0.895781 0.853306
O O16 0.932001 0.701186 0.886639
O O17 0.000000 0.000000 0.500000
#
# Coordination Sequence:
#
# PCOD9038019 Si02
#       8
#     2   2   2   2   2   2   2   2
#     4  11  24  43  71 101 135 184 233 281 343 410
#     4  11  24  44  70 105 135 184 226 279 345 411
#     4  10  23  41  65  97 146 180 219 278 333 407
#     4  11  24  39  65 100 134 184 230 275 337 406
#     4  11  23  44  65 102 144 180 229 275 340 407
#     4  11  23  43  68  98 143 177 231 273 337 409
#     4  12  23  46  73 100 136 182 233 287 342 403
#     4  11  25  46  71 100 139 175 231 298 347 402
#
# _framework density 23.499770000000002
#
# number of rings (size 3 to 8) (size 9 to 14) (size 15 to 20)
#    0.000    1.000    2.500    4.875    3.500    3.000 
#    0.000    3.750    0.000    0.000    0.000    0.000 
#    0.000    0.000    0.000    0.000    0.000    0.000 
#
# Total GULP energy -89354.013083 kJ/mol
# GULP energy per Si atom -5584.625818 kJ/mol
# Density = 2.344628 g / cm^3
# Si number density = 23.499770 Si / 1000 Ang^3
#
#
#
# Elastic Constant Matrix: (Units=GPa)
#
#
# Indices 1 2 3 4 5 6 
#
# 1 55.0668 5.8061 28.6722 1.2089 17.5323 -8.2607
# 2 5.8061 78.1520 46.9661 4.6074 19.0804 -8.1512
# 3 28.6722 46.9661 134.8355 20.7498 -3.9534 0.2105
# 4 1.2089 4.6074 20.7498 40.0961 -7.1515 2.7323
# 5 17.5323 19.0804 -3.9534 -7.1515 35.2206 3.5728
# 6 -8.2607 -8.1512 0.2105 2.7323 3.5728 39.3048
#
#
#
# Elastic Compliance Matrix: (Units=1/GPa)
#
#
# Indices 1 2 3 4 5 6 
#
# 1 0.033294 0.012497 -0.011950 -0.001772 -0.026279 0.012165
# 2 0.012497 0.025959 -0.012097 -0.001918 -0.023076 0.010306
# 3 -0.011950 -0.012097 0.015074 -0.003098 0.014191 -0.006175
# 4 -0.001772 -0.001918 -0.003098 0.028423 0.007692 -0.003428
# 5 -0.026279 -0.023076 0.014191 0.007692 0.058779 -0.016262
# 6 0.012165 0.010306 -0.006175 -0.003428 -0.016262 0.031886
#
#
# Mechanical properties :
#
#
# Convention : Reuss Voigt Hill
#
# Bulk Modulus (GPa) = 19.52092 47.88258 33.70175
# Shear Modulus (GPa) = 21.40501 35.36495 28.38498
#
# Velocity S-wave (km/s) = 3.02132 3.88352 3.47923
# Velocity P-wave (km/s) = 4.52726 6.36624 5.52381
#
# Compressibility (1/GPa) = 0.05122710
#
# Stress axis : x y z
#
# Youngs Moduli (GPa) = 30.03501 38.52264 66.34086
#
# Poissons Ratio (x) = -0.48141 0.79275
# Poissons Ratio (y) = -0.37534 0.80252
# Poissons Ratio (z) = 0.35891 0.46601
#
# Static dielectric constant tensor:
#      x y z
#    x 2.007800 -0.072150 0.069730 
#    y -0.072150 1.991320 -0.017280 
#    z 0.069730 -0.017280 1.902730 
# 
# From -- ./inp_files/242118.got.cif
#   From: 2010.05.17/outbox.cif.g08.bks.cpg/sg2_122_cif.got.tgz:242118.got - 2010.06.03 11:33:40.
