data_PCOD9038539
_publ_section_title
;
Structure prediction by ZEFSAII (Michael W. Deem and Ramdas Pophale) SiO2 
 PCOD9038539
Probable space group: P -1
;
_chemical_formula_sum "Si O2"
_cell_formula_units_Z 12
_cell_length_a 12.974194
_cell_length_b 9.536101
_cell_length_c 7.391165
_cell_angle_alpha 62.203717
_cell_angle_beta 73.706156
_cell_angle_gamma 35.625741
_cell_volume 462.511194
_symmetry_space_group_name_H-M "P -1"
_symmetry_group_IT_number 2
_symmetry_cell_setting 'triclinic'
loop_
_space_group_symop_operation_xyz
x,y,z
-x,-y,-z
loop_
_atom_site_type_symbol
_atom_site_label
_atom_site_fract_x
_atom_site_fract_y
_atom_site_fract_z
Si Si1 0.516433 0.320459 0.807092
Si Si2 0.029292 0.661689 0.501422
Si Si3 0.208108 0.150844 0.806405
Si Si4 0.809830 0.222446 0.724633
Si Si5 0.184267 0.629808 0.974651
Si Si6 0.230617 0.200926 0.171073
O O1 0.310095 0.575017 0.803942
O O2 0.572329 0.114415 0.763985
O O3 0.367864 0.662540 0.311317
O O4 0.606726 0.155395 0.055596
O O5 0.924910 0.796440 0.280486
O O6 0.880476 0.767830 0.646769
O O7 0.188817 0.342247 0.600969
O O8 0.118008 0.721525 0.468374
O O9 0.152163 0.263412 0.970612
O O10 0.780225 0.337873 0.865498
O O11 0.977590 0.904782 0.856148
O O12 0.235689 0.382431 0.092996
#
# Coordination Sequence:
#
# PCOD9038539 Si02
#       6
#     2   2   2   2   2   2
#     4  10  23  44  68  97 131 177 221 268 329 389
#     4  11  20  40  64 103 136 162 225 271 322 400
#     4   9  21  38  66  97 128 174 219 266 323 383
#     4  11  24  37  67 101 132 178 210 271 340 383
#     4  11  22  44  69  94 136 176 222 267 325 399
#     4  10  23  41  70  98 126 177 224 268 325 386
#
# _framework density 25.945319000000001
#
# number of rings (size 3 to 8) (size 9 to 14) (size 15 to 20)
#    1.000    0.667    0.000    6.500    2.333    0.667 
#    0.000    5.833    0.000    0.000    0.000    0.000 
#    0.000    0.000    0.000    0.000    0.000    0.000 
#
# Total GULP energy -67122.274746 kJ/mol
# GULP energy per Si atom -5593.522895 kJ/mol
# Density = 2.588627 g / cm^3
# Si number density = 25.945319 Si / 1000 Ang^3
#
#
#
# Elastic Constant Matrix: (Units=GPa)
#
#
# Indices 1 2 3 4 5 6 
#
# 1 158.5232 70.5301 42.7892 8.3220 -17.5870 10.1911
# 2 70.5301 100.4465 12.3660 20.6231 -7.0542 1.2104
# 3 42.7892 12.3660 79.4776 11.3562 3.6518 -7.2052
# 4 8.3220 20.6231 11.3562 32.1383 1.1155 -6.1361
# 5 -17.5870 -7.0542 3.6518 1.1155 58.1666 3.1908
# 6 10.1911 1.2104 -7.2052 -6.1361 3.1908 37.5786
#
#
#
# Elastic Compliance Matrix: (Units=1/GPa)
#
#
# Indices 1 2 3 4 5 6 
#
# 1 0.012009 -0.008102 -0.006193 0.003424 0.003185 -0.003895
# 2 -0.008102 0.017263 0.003178 -0.009963 -0.000401 0.000658
# 3 -0.006193 0.003178 0.016697 -0.005458 -0.002656 0.004113
# 4 0.003424 -0.009963 -0.005458 0.039510 -0.000855 0.004870
# 5 0.003185 -0.000401 -0.002656 -0.000855 0.018458 -0.003067
# 6 -0.003895 0.000658 0.004113 0.004870 -0.003067 0.029490
#
#
# Mechanical properties :
#
#
# Convention : Reuss Voigt Hill
#
# Bulk Modulus (GPa) = 42.13542 65.53533 53.83537
# Shear Modulus (GPa) = 30.56743 39.76083 35.16413
#
# Velocity S-wave (km/s) = 3.43614 3.91894 3.68546
# Velocity P-wave (km/s) = 5.65845 6.76693 6.23736
#
# Compressibility (1/GPa) = 0.02373300
#
# Stress axis : x y z
#
# Youngs Moduli (GPa) = 83.27327 57.92824 59.89153
#
# Poissons Ratio (x) = 0.46933 0.37092
# Poissons Ratio (y) = 0.67468 -0.19031
# Poissons Ratio (z) = 0.51573 -0.18407
#
# Static dielectric constant tensor:
#      x y z
#    x 2.017540 -0.033780 -0.022110 
#    y -0.033780 2.122060 -0.033470 
#    z -0.022110 -0.033470 2.125630 
# 
# From -- ./inp_files/330761.got.cif
#   From: 2010.05.17/outbox.cif.g08.bks.cpg/sg2_166_cif.got.tgz:330761.got - 2010.06.03 11:33:40.
