data_PCOD9038625
_publ_section_title
;
Structure prediction by ZEFSAII (Michael W. Deem and Ramdas Pophale) SiO2 
 PCOD9038625
Probable space group: P -1
;
_chemical_formula_sum "Si O2"
_cell_formula_units_Z 14
_cell_length_a 8.711863
_cell_length_b 12.108840
_cell_length_c 9.387081
_cell_angle_alpha 128.119613
_cell_angle_beta 116.460145
_cell_angle_gamma 58.420978
_cell_volume 652.544223
_symmetry_space_group_name_H-M "P -1"
_symmetry_group_IT_number 2
_symmetry_cell_setting 'triclinic'
loop_
_space_group_symop_operation_xyz
x,y,z
-x,-y,-z
loop_
_atom_site_type_symbol
_atom_site_label
_atom_site_fract_x
_atom_site_fract_y
_atom_site_fract_z
Si Si1 0.537565 0.108483 0.490523
Si Si2 0.062541 0.327793 0.840400
Si Si3 0.310496 0.652812 0.201043
Si Si4 0.100974 0.871189 0.824776
Si Si5 0.147345 0.316921 0.537105
Si Si6 0.709243 0.430171 0.194917
Si Si7 0.312452 0.037788 0.861177
O O1 0.654171 0.193866 0.683855
O O2 0.338251 0.226239 0.467624
O O3 0.500000 0.000000 0.500000
O O4 0.632825 0.029891 0.326096
O O5 0.152366 0.305151 0.703053
O O6 0.193246 0.212926 0.918541
O O7 0.864979 0.308546 0.740279
O O8 0.000000 0.500000 0.000000
O O9 0.504269 0.534245 0.239226
O O10 0.279299 0.588724 0.985811
O O11 0.253184 0.733299 0.856706
O O12 0.980476 0.777455 0.635819
O O13 0.187722 0.954278 0.815227
O O14 0.000000 0.000000 0.000000
O O15 0.144705 0.487806 0.644407
O O16 0.500000 0.000000 0.000000
#
# Coordination Sequence:
#
# PCOD9038625 Si02
#       7
#     2   2   2   2   2   2   2
#     4  11  24  44  72 102 144 188 240 302 353 431
#     4  12  25  45  73 104 140 191 244 299 345 442
#     4  10  23  41  72 101 135 193 247 276 363 429
#     4  12  27  44  72 107 151 185 236 308 363 424
#     4  11  24  46  72 104 139 193 242 289 363 431
#     4  10  23  44  69 101 144 190 231 295 357 433
#     4  12  29  46  71 110 146 187 240 304 371 415
#
# _framework density 21.454484999999998
#
# number of rings (size 3 to 8) (size 9 to 14) (size 15 to 20)
#    0.000    0.857    2.857    3.000    8.000    1.143 
#    5.143    3.571    0.000    0.000    0.000    0.000 
#    0.000    0.000    0.000    0.000    0.000    0.000 
#
# Total GULP energy -78088.661459 kJ/mol
# GULP energy per Si atom -5577.761533 kJ/mol
# Density = 2.140565 g / cm^3
# Si number density = 21.454485 Si / 1000 Ang^3
#
#
#
# Elastic Constant Matrix: (Units=GPa)
#
#
# Indices 1 2 3 4 5 6 
#
# 1 117.1929 46.7268 41.8203 15.2917 -6.8412 15.0062
# 2 46.7268 145.5780 49.5545 29.4154 -4.1059 10.4364
# 3 41.8203 49.5545 109.1022 19.4408 14.1739 0.3284
# 4 15.2917 29.4154 19.4408 28.2794 4.6134 7.2719
# 5 -6.8412 -4.1059 14.1739 4.6134 39.4680 2.0399
# 6 15.0062 10.4364 0.3284 7.2719 2.0399 31.9231
#
#
#
# Elastic Compliance Matrix: (Units=1/GPa)
#
#
# Indices 1 2 3 4 5 6 
#
# 1 0.011590 -0.001706 -0.003919 -0.001150 0.003622 -0.004820
# 2 -0.001706 0.010132 -0.002906 -0.007845 0.002764 -0.000870
# 3 -0.003919 -0.002906 0.013445 -0.004220 -0.005522 0.003968
# 4 -0.001150 -0.007845 -0.004220 0.049879 -0.004922 -0.007899
# 5 0.003622 0.002764 -0.005522 -0.004922 0.028980 -0.003280
# 6 -0.004820 -0.000870 0.003968 -0.007899 -0.003280 0.035843
#
#
# Mechanical properties :
#
#
# Convention : Reuss Voigt Hill
#
# Bulk Modulus (GPa) = 55.23457 72.00847 63.62152
# Shear Modulus (GPa) = 28.90703 35.51887 32.21295
#
# Velocity S-wave (km/s) = 3.67463 4.07325 3.87907
# Velocity P-wave (km/s) = 6.61852 7.46713 7.05559
#
# Compressibility (1/GPa) = 0.01810460
#
# Stress axis : x y z
#
# Youngs Moduli (GPa) = 86.27846 98.70061 74.37437
#
# Poissons Ratio (x) = 0.16839 0.29147
# Poissons Ratio (y) = 0.14720 0.21616
# Poissons Ratio (z) = 0.33812 0.28686
#
# Static dielectric constant tensor:
#      x y z
#    x 1.789480 -0.077860 0.049020 
#    y -0.077860 1.850470 -0.016340 
#    z 0.049020 -0.016340 1.785600 
# 
# From -- ./inp_files/189825.got.cif
#   From: 2010.05.17/outbox.cif.g08.bks.cpg/sg2_95_cif.got.tgz:189825.got - 2010.06.03 11:33:40.
