data_PCOD9038723
_publ_section_title
;
Structure prediction by ZEFSAII (Michael W. Deem and Ramdas Pophale) SiO2 
 PCOD9038723
Probable space group: P -1
;
_chemical_formula_sum "Si O2"
_cell_formula_units_Z 15
_cell_length_a 6.422750
_cell_length_b 19.410973
_cell_length_c 7.979692
_cell_angle_alpha 140.368935
_cell_angle_beta 89.134056
_cell_angle_gamma 84.302511
_cell_volume 624.810980
_symmetry_space_group_name_H-M "P -1"
_symmetry_group_IT_number 2
_symmetry_cell_setting 'triclinic'
loop_
_space_group_symop_operation_xyz
x,y,z
-x,-y,-z
loop_
_atom_site_type_symbol
_atom_site_label
_atom_site_fract_x
_atom_site_fract_y
_atom_site_fract_z
Si Si1 0.533553 0.644212 0.914163
Si Si2 0.294138 0.141144 0.647955
Si Si3 0.115760 0.767651 0.032168
Si Si4 0.322347 0.808768 0.782471
Si Si5 0.469096 0.439298 0.716238
Si Si6 0.000000 0.000000 0.000000
Si Si7 0.380179 0.049770 0.854699
Si Si8 0.873455 0.594305 0.557327
O O1 0.286059 0.685843 0.981681
O O2 0.568705 0.520828 0.745230
O O3 0.641951 0.635993 0.717170
O O4 0.636999 0.741912 0.176093
O O5 0.344065 0.099292 0.760243
O O6 0.423062 0.051470 0.357260
O O7 0.040710 0.161810 0.702803
O O8 0.244802 0.828954 0.015943
O O9 0.992089 0.696282 0.776184
O O10 0.391461 0.681247 0.505760
O O11 0.531842 0.862237 0.867118
O O12 0.138924 0.877481 0.804845
O O13 0.217555 0.440124 0.681855
O O14 0.500000 0.500000 0.000000
O O15 0.173438 0.019620 0.885100
O O16 0.000000 0.500000 0.500000
#
# Coordination Sequence:
#
# PCOD9038723 Si02
#       8
#     2   2   2   2   2   1   2   2
#     4  11  22  44  73 109 151 200 253 324 386 465
#     4  10  23  41  75 114 145 182 269 326 371 449
#     4  11  20  41  76 109 144 196 258 325 377 456
#     4  12  25  48  71 105 151 210 260 309 391 475
#     4  12  27  46  73 110 163 203 251 329 393 461
#     4  12  28  46  76  98 150 208 250 308 400 468
#     4  11  24  47  72 107 144 202 259 320 381 461
#     4  11  21  40  74 105 143 206 260 301 382 470
#
# _framework density 24.007259000000001
#
# number of rings (size 3 to 8) (size 9 to 14) (size 15 to 20)
#    0.000    0.800    5.333    2.400    1.867    1.600 
#    0.000    2.667    0.000    0.000    0.000    0.000 
#    0.000    0.000    0.000    0.000    0.000    0.000 
#
# Total GULP energy -83503.805940 kJ/mol
# GULP energy per Si atom -5566.920396 kJ/mol
# Density = 2.395262 g / cm^3
# Si number density = 24.007259 Si / 1000 Ang^3
#
#
#
# Elastic Constant Matrix: (Units=GPa)
#
#
# Indices 1 2 3 4 5 6 
#
# 1 101.5145 37.2997 48.7273 0.8273 -22.5884 4.0965
# 2 37.2997 91.7685 43.3868 33.0855 -5.1079 2.1452
# 3 48.7273 43.3868 95.1472 30.4503 -15.2113 -3.0438
# 4 0.8273 33.0855 30.4503 40.4086 -7.5203 -8.2408
# 5 -22.5884 -5.1079 -15.2113 -7.5203 36.0784 13.6242
# 6 4.0965 2.1452 -3.0438 -8.2408 13.6242 41.6693
#
#
#
# Elastic Compliance Matrix: (Units=1/GPa)
#
#
# Indices 1 2 3 4 5 6 
#
# 1 0.020171 -0.008454 -0.009593 0.015297 0.011731 -0.003059
# 2 -0.008454 0.020698 -0.000293 -0.017984 -0.005470 -0.002024
# 3 -0.009593 -0.000293 0.020268 -0.015003 -0.000491 -0.000368
# 4 0.015297 -0.017984 -0.015003 0.053435 0.009680 0.005729
# 5 0.011731 -0.005470 -0.000491 0.009680 0.040750 -0.012317
# 6 -0.003059 -0.002024 -0.000368 0.005729 -0.012317 0.029536
#
#
# Mechanical properties :
#
#
# Convention : Reuss Voigt Hill
#
# Bulk Modulus (GPa) = 40.88678 60.80641 50.84659
# Shear Modulus (GPa) = 21.76862 34.23234 28.00048
#
# Velocity S-wave (km/s) = 3.01450 3.78023 3.41887
# Velocity P-wave (km/s) = 5.40224 6.66609 6.06717
#
# Compressibility (1/GPa) = 0.02445779
#
# Stress axis : x y z
#
# Youngs Moduli (GPa) = 49.57689 48.31366 49.33976
#
# Poissons Ratio (x) = 0.40842 0.47332
# Poissons Ratio (y) = 0.41910 0.01444
# Poissons Ratio (z) = 0.47559 0.01414
#
# Static dielectric constant tensor:
#      x y z
#    x 1.994030 -0.026920 0.096010 
#    y -0.026920 2.035150 -0.046880 
#    z 0.096010 -0.046880 1.969190 
# 
# From -- ./inp_files/140874.got.cif
#   From: 2010.05.17/outbox.cif.g08.bks.cpg/sg2_71_cif.got.tgz:140874.got - 2010.06.03 11:33:40.
