data_PCOD9038038
_publ_section_title
;
Structure prediction by ZEFSAII (Michael W. Deem and Ramdas Pophale) SiO2 
 PCOD9038038
Probable space group: P -1
;
_chemical_formula_sum "Si O2"
_cell_formula_units_Z 16
_cell_length_a 16.501563
_cell_length_b 14.151905
_cell_length_c 7.345688
_cell_angle_alpha 60.302256
_cell_angle_beta 108.165511
_cell_angle_gamma 153.102036
_cell_volume 636.137241
_symmetry_space_group_name_H-M "P -1"
_symmetry_group_IT_number 2
_symmetry_cell_setting 'triclinic'
loop_
_space_group_symop_operation_xyz
x,y,z
-x,-y,-z
loop_
_atom_site_type_symbol
_atom_site_label
_atom_site_fract_x
_atom_site_fract_y
_atom_site_fract_z
Si Si1 0.465737 0.629335 0.325554
Si Si2 0.624170 0.046430 0.131435
Si Si3 0.820916 0.549813 0.313790
Si Si4 0.831346 0.332195 0.681130
Si Si5 0.602424 0.947159 0.604061
Si Si6 0.148777 0.968011 0.894054
Si Si7 0.742207 0.899606 0.544739
Si Si8 0.082252 0.146023 0.651481
O O1 0.545196 0.650426 0.537351
O O2 0.244160 0.354817 0.411160
O O3 0.512069 0.805718 0.246661
O O4 0.626756 0.788796 0.135457
O O5 0.648331 0.075818 0.337352
O O6 0.817597 0.274331 0.932058
O O7 0.500000 0.000000 0.000000
O O8 0.812456 0.440893 0.553830
O O9 0.622124 0.325839 0.285892
O O10 0.847599 0.695111 0.291628
O O11 0.000603 0.736190 0.132753
O O12 0.000000 0.500000 0.500000
O O13 0.664232 0.077546 0.703730
O O14 0.705350 0.951050 0.617239
O O15 0.139539 0.922744 0.718248
O O16 0.094866 0.033360 0.803708
O O17 0.130128 0.053281 0.342184
#
# Coordination Sequence:
#
# PCOD9038038 Si02
#       8
#     2   2   2   2   2   2   2   2
#     4   9  21  40  63  96 136 165 226 282 327 407
#     4  11  21  42  67  99 131 179 227 262 348 410
#     4  12  23  43  62  99 138 175 224 286 333 402
#     4  12  26  42  68 100 138 180 230 278 343 411
#     4  11  24  47  66  98 147 176 224 290 335 409
#     4  10  23  41  65  99 133 173 230 280 341 393
#     4   9  22  42  64  96 132 167 234 275 336 408
#     4  12  20  42  73  91 130 187 220 281 344 405
#
# _framework density 25.151805
#
# number of rings (size 3 to 8) (size 9 to 14) (size 15 to 20)
#    0.750    0.500    3.750    3.000    0.000    1.500 
#    2.250    0.625    0.000    0.000    0.000    0.000 
#    0.000    0.000    0.000    0.000    0.000    0.000 
#
# Total GULP energy -89421.182952 kJ/mol
# GULP energy per Si atom -5588.823934 kJ/mol
# Density = 2.509456 g / cm^3
# Si number density = 25.151805 Si / 1000 Ang^3
#
#
#
# Elastic Constant Matrix: (Units=GPa)
#
#
# Indices 1 2 3 4 5 6 
#
# 1 138.8996 11.6667 22.0330 -12.3002 -0.4046 12.5954
# 2 11.6667 62.1871 9.0911 0.4029 -1.2681 -4.3537
# 3 22.0330 9.0911 90.9209 -13.4918 -16.0193 -13.3724
# 4 -12.3002 0.4029 -13.4918 26.6700 -1.5441 -4.5893
# 5 -0.4046 -1.2681 -16.0193 -1.5441 44.0261 -2.6889
# 6 12.5954 -4.3537 -13.3724 -4.5893 -2.6889 27.8672
#
#
#
# Elastic Compliance Matrix: (Units=1/GPa)
#
#
# Indices 1 2 3 4 5 6 
#
# 1 0.008344 -0.001580 -0.002578 0.001623 -0.001161 -0.005100
# 2 -0.001580 0.016724 -0.001000 -0.001009 0.000233 0.002703
# 3 -0.002578 -0.001000 0.015825 0.009067 0.006680 0.010740
# 4 0.001623 -0.001009 0.009067 0.045135 0.005566 0.011430
# 5 -0.001161 0.000233 0.006680 0.005566 0.025773 0.007170
# 6 -0.005100 0.002703 0.010740 0.011430 0.007170 0.046340
#
#
# Mechanical properties :
#
#
# Convention : Reuss Voigt Hill
#
# Bulk Modulus (GPa) = 32.70461 41.95435 37.32948
# Shear Modulus (GPa) = 27.98779 36.32710 32.15744
#
# Velocity S-wave (km/s) = 3.33942 3.80454 3.57954
# Velocity P-wave (km/s) = 5.28205 6.00133 5.65314
#
# Compressibility (1/GPa) = 0.03057673
#
# Stress axis : x y z
#
# Youngs Moduli (GPa) = 119.84875 59.79552 63.18999
#
# Poissons Ratio (x) = 0.09446 0.16289
# Poissons Ratio (y) = 0.18933 0.06322
# Poissons Ratio (z) = 0.30895 0.05982
#
# Static dielectric constant tensor:
#      x y z
#    x 2.077530 0.072630 -0.045870 
#    y 0.072630 1.979880 0.009180 
#    z -0.045870 0.009180 2.042290 
# 
# From -- ./inp_files/307049.got.cif
#   From: 2010.05.17/outbox.cif.g08.bks.cpg/sg2_154_cif.got.tgz:307049.got - 2010.06.03 11:33:40.
