data_PCOD9038683
_publ_section_title
;
Structure prediction by ZEFSAII (Michael W. Deem and Ramdas Pophale) SiO2 
 PCOD9038683
Probable space group: P -1
;
_chemical_formula_sum "Si O2"
_cell_formula_units_Z 14
_cell_length_a 7.719350
_cell_length_b 12.854734
_cell_length_c 8.892626
_cell_angle_alpha 44.959892
_cell_angle_beta 69.266691
_cell_angle_gamma 50.039615
_cell_volume 469.635039
_symmetry_space_group_name_H-M "P -1"
_symmetry_group_IT_number 2
_symmetry_cell_setting 'triclinic'
loop_
_space_group_symop_operation_xyz
x,y,z
-x,-y,-z
loop_
_atom_site_type_symbol
_atom_site_label
_atom_site_fract_x
_atom_site_fract_y
_atom_site_fract_z
Si Si1 0.525735 0.623430 0.478631
Si Si2 0.944927 0.989619 0.851035
Si Si3 0.794408 0.771177 0.953935
Si Si4 0.392722 0.886678 0.652691
Si Si5 0.015368 0.652395 0.681054
Si Si6 0.483165 0.451110 0.889800
Si Si7 0.355096 0.169530 0.643433
O O1 0.500000 0.500000 0.500000
O O2 0.292777 0.820816 0.304711
O O3 0.660718 0.460452 0.730972
O O4 0.689518 0.693892 0.350265
O O5 0.136273 0.966061 0.700254
O O6 0.908923 0.838714 0.960498
O O7 0.000000 0.000000 0.000000
O O8 0.875983 0.762957 0.762329
O O9 0.520018 0.954479 0.857171
O O10 0.913410 0.552916 0.150317
O O11 0.474584 0.807674 0.539672
O O12 0.500000 0.000000 0.500000
O O13 0.131697 0.243765 0.531773
O O14 0.517640 0.721315 0.905402
O O15 0.260032 0.603686 0.708704
O O16 0.500000 0.500000 0.000000
#
# Coordination Sequence:
#
# PCOD9038683 Si02
#       7
#     2   2   2   2   2   2   2
#     4  11  27  48  75 113 159 218 280 341 416 505
#     4  11  27  50  81 113 166 227 276 340 430 509
#     4  10  23  41  73 113 150 204 270 340 406 492
#     4  12  25  44  77 119 161 204 275 351 413 488
#     4  11  23  41  74 114 158 203 258 347 418 467
#     4  12  25  46  75 117 158 212 275 341 411 508
#     4  11  24  43  72 113 159 200 272 344 407 491
#
# _framework density 29.810382000000001
#
# number of rings (size 3 to 8) (size 9 to 14) (size 15 to 20)
#    0.000    0.857    1.429    5.571    8.000    1.143 
#    0.000    2.143    0.000    9.429    0.000    0.000 
#    0.000    0.000    0.000    0.000    0.000    0.000 
#
# Total GULP energy -77951.442719 kJ/mol
# GULP energy per Si atom -5567.960194 kJ/mol
# Density = 2.974253 g / cm^3
# Si number density = 29.810382 Si / 1000 Ang^3
#
#
#
# Elastic Constant Matrix: (Units=GPa)
#
#
# Indices 1 2 3 4 5 6 
#
# 1 130.6946 33.7530 79.7828 -9.1210 42.7149 21.6207
# 2 33.7530 135.7162 48.8677 1.5573 11.3862 30.0638
# 3 79.7828 48.8677 164.5590 -21.9109 6.6207 29.6744
# 4 -9.1210 1.5573 -21.9109 44.9298 2.8871 -11.4908
# 5 42.7149 11.3862 6.6207 2.8871 69.9989 -3.7817
# 6 21.6207 30.0638 29.6744 -11.4908 -3.7817 72.0524
#
#
#
# Elastic Compliance Matrix: (Units=1/GPa)
#
#
# Indices 1 2 3 4 5 6 
#
# 1 0.014687 -0.000172 -0.006353 -0.000126 -0.008446 -0.002182
# 2 -0.000172 0.009071 -0.002274 -0.002200 -0.001238 -0.003212
# 3 -0.006353 -0.002274 0.010286 0.003435 0.003096 -0.000671
# 4 -0.000126 -0.002200 0.003435 0.024919 -0.000730 0.003477
# 5 -0.008446 -0.001238 0.003096 -0.000730 0.019524 0.002684
# 6 -0.002182 -0.003212 -0.000671 0.003477 0.002684 0.016846
#
#
# Mechanical properties :
#
#
# Convention : Reuss Voigt Hill
#
# Bulk Modulus (GPa) = 60.80657 83.97519 72.39088
# Shear Modulus (GPa) = 42.22583 55.30062 48.76323
#
# Velocity S-wave (km/s) = 3.76770 4.31174 4.04887
# Velocity P-wave (km/s) = 6.27451 7.28142 6.79664
#
# Compressibility (1/GPa) = 0.01644559
#
# Stress axis : x y z
#
# Youngs Moduli (GPa) = 68.08968 110.24528 97.21899
#
# Poissons Ratio (x) = 0.01892 0.61763
# Poissons Ratio (y) = 0.01168 0.22111
# Poissons Ratio (z) = 0.43257 0.25073
#
# Static dielectric constant tensor:
#      x y z
#    x 2.398910 -0.140610 -0.089630 
#    y -0.140610 3.103160 0.082800 
#    z -0.089630 0.082800 2.439540 
# 
# From -- ./inp_files/261610.got.cif
#   From: 2010.05.17/outbox.cif.g08.bks.cpg/sg2_131_cif.got.tgz:261610.got - 2010.06.03 11:33:40.
