data_PCOD9038069
_publ_section_title
;
Structure prediction by ZEFSAII (Michael W. Deem and Ramdas Pophale) SiO2 
 PCOD9038069
Probable space group: P -1
;
_chemical_formula_sum "Si O2"
_cell_formula_units_Z 16
_cell_length_a 8.537637
_cell_length_b 15.187850
_cell_length_c 11.194503
_cell_angle_alpha 127.816392
_cell_angle_beta 140.308222
_cell_angle_gamma 49.758502
_cell_volume 687.312613
_symmetry_space_group_name_H-M "P -1"
_symmetry_group_IT_number 2
_symmetry_cell_setting 'triclinic'
loop_
_space_group_symop_operation_xyz
x,y,z
-x,-y,-z
loop_
_atom_site_type_symbol
_atom_site_label
_atom_site_fract_x
_atom_site_fract_y
_atom_site_fract_z
Si Si1 0.745889 0.613419 0.911615
Si Si2 0.766197 0.519989 0.283410
Si Si3 0.546285 0.419153 0.626123
Si Si4 0.627050 0.733153 0.197153
Si Si5 0.046463 0.902518 0.048256
Si Si6 0.224865 0.997998 0.791219
Si Si7 0.041849 0.816046 0.417563
Si Si8 0.121753 0.309439 0.190835
O O1 0.550909 0.546995 0.691567
O O2 0.832807 0.685054 0.919322
O O3 0.627696 0.688463 0.022937
O O4 0.000000 0.500000 0.000000
O O5 0.509228 0.556787 0.245139
O O6 0.743437 0.622579 0.261502
O O7 0.000000 0.500000 0.500000
O O8 0.845091 0.399299 0.153610
O O9 0.327011 0.366959 0.410133
O O10 0.807437 0.313185 0.655382
O O11 0.343807 0.815771 0.141243
O O12 0.826961 0.804593 0.372849
O O13 0.975304 0.966409 0.186706
O O14 0.866496 0.819247 0.865457
O O15 0.000000 0.000000 0.000000
O O16 0.237578 0.871068 0.641797
O O17 0.108462 0.093321 0.698126
O O18 0.500000 0.000000 0.000000
#
# Coordination Sequence:
#
# PCOD9038069 Si02
#       8
#     2   2   2   2   2   2   2   2
#     4  12  23  41  73 108 144 178 234 288 369 439
#     4  10  23  41  66 104 142 180 225 285 368 433
#     4  11  23  41  69 102 145 179 230 287 367 439
#     4  12  25  43  72 104 148 184 236 298 361 435
#     4  12  28  46  72 105 144 194 249 299 359 422
#     4  11  25  47  72  97 137 185 254 307 353 414
#     4  11  24  44  71 102 134 191 242 297 362 425
#     4  11  24  45  70 102 147 188 237 295 360 432
#
# _framework density 23.279071999999999
#
# number of rings (size 3 to 8) (size 9 to 14) (size 15 to 20)
#    0.000    0.750    2.500    4.125    1.750    6.500 
#    0.000    0.000    0.000    0.000    0.000    0.000 
#    0.000    0.000    0.000    0.000    0.000    0.000 
#
# Total GULP energy -89558.001994 kJ/mol
# GULP energy per Si atom -5597.375125 kJ/mol
# Density = 2.322609 g / cm^3
# Si number density = 23.279072 Si / 1000 Ang^3
#
#
#
# Elastic Constant Matrix: (Units=GPa)
#
#
# Indices 1 2 3 4 5 6 
#
# 1 151.2786 54.9160 30.8974 10.7835 -6.2915 4.3657
# 2 54.9160 112.0236 34.7581 17.4141 -4.4484 16.1624
# 3 30.8974 34.7581 123.3338 14.7862 10.1470 3.0221
# 4 10.7835 17.4141 14.7862 35.2678 2.2565 5.3776
# 5 -6.2915 -4.4484 10.1470 2.2565 37.0674 5.7409
# 6 4.3657 16.1624 3.0221 5.3776 5.7409 59.8859
#
#
#
# Elastic Compliance Matrix: (Units=1/GPa)
#
#
# Indices 1 2 3 4 5 6 
#
# 1 0.008222 -0.003630 -0.001099 -0.000393 0.001230 0.000353
# 2 -0.003630 0.012502 -0.002266 -0.003816 0.002180 -0.002861
# 3 -0.001099 -0.002266 0.009549 -0.002465 -0.003034 0.000722
# 4 -0.000393 -0.003816 -0.002465 0.031723 -0.001546 -0.001517
# 5 0.001230 0.002180 -0.003034 -0.001546 0.028861 -0.003153
# 6 0.000353 -0.002861 0.000722 -0.001517 -0.003153 0.017847
#
#
# Mechanical properties :
#
#
# Convention : Reuss Voigt Hill
#
# Bulk Modulus (GPa) = 61.41520 69.75322 65.58421
# Shear Modulus (GPa) = 39.02533 44.18185 41.60359
#
# Velocity S-wave (km/s) = 4.09884 4.36124 4.23208
# Velocity P-wave (km/s) = 6.98857 7.44241 7.21906
#
# Compressibility (1/GPa) = 0.01628261
#
# Stress axis : x y z
#
# Youngs Moduli (GPa) = 121.62962 79.98753 104.71863
#
# Poissons Ratio (x) = 0.29038 0.11512
# Poissons Ratio (y) = 0.44156 0.23724
# Poissons Ratio (z) = 0.13371 0.18121
#
# Static dielectric constant tensor:
#      x y z
#    x 1.844410 -0.050840 -0.001050 
#    y -0.050840 1.844150 -0.053980 
#    z -0.001050 -0.053980 1.904930 
# 
# From -- ./inp_files/399692.got.cif
#   From: 2010.05.17/outbox.cif.g08.bks.cpg/sg2_200_cif.got.tgz:399692.got - 2010.06.03 11:33:40.
