data_PCOD9038646
_publ_section_title
;
Structure prediction by ZEFSAII (Michael W. Deem and Ramdas Pophale) SiO2 
 PCOD9038646
Probable space group: P -1
;
_chemical_formula_sum "Si O2"
_cell_formula_units_Z 13
_cell_length_a 10.848981
_cell_length_b 11.013593
_cell_length_c 5.125611
_cell_angle_alpha 64.688470
_cell_angle_beta 64.155726
_cell_angle_gamma 81.870579
_cell_volume 497.507862
_symmetry_space_group_name_H-M "P -1"
_symmetry_group_IT_number 2
_symmetry_cell_setting 'triclinic'
loop_
_space_group_symop_operation_xyz
x,y,z
-x,-y,-z
loop_
_atom_site_type_symbol
_atom_site_label
_atom_site_fract_x
_atom_site_fract_y
_atom_site_fract_z
Si Si1 0.197557 0.194719 0.463120
Si Si2 0.490956 0.094096 0.171874
Si Si3 0.000000 0.000000 0.500000
Si Si4 0.666325 0.600262 0.504647
Si Si5 0.350120 0.594579 0.803297
Si Si6 0.231223 0.795320 0.377229
Si Si7 0.002253 0.408791 0.331910
O O1 0.347287 0.163718 0.249677
O O2 0.231343 0.267976 0.647381
O O3 0.126926 0.314190 0.273060
O O4 0.086381 0.073358 0.611607
O O5 0.627332 0.188632 0.924557
O O6 0.500000 0.000000 0.500000
O O7 0.500000 0.000000 0.000000
O O8 0.142261 0.925525 0.366060
O O9 0.510100 0.645529 0.613265
O O10 0.672427 0.509390 0.324269
O O11 0.676969 0.495520 0.832495
O O12 0.264482 0.722802 0.688526
O O13 0.129022 0.689973 0.429553
O O14 0.000000 0.500000 0.500000
O O15 0.000000 0.500000 0.000000
#
# Coordination Sequence:
#
# PCOD9038646 Si02
#       7
#     2   2   1   2   2   2   2
#     4  11  25  48  79 111 157 205 264 327 392 467
#     4  12  30  50  78 115 159 208 274 331 394 460
#     4  10  24  52  76 110 150 218 268 322 388 476
#     4  10  23  41  72 113 151 190 244 310 396 463
#     4  10  23  42  72 114 150 192 241 315 392 466
#     4  11  25  50  81 113 160 206 269 327 397 471
#     4  11  26  51  79 116 159 209 258 318 404 487
#
# _framework density 26.130237999999999
#
# number of rings (size 3 to 8) (size 9 to 14) (size 15 to 20)
#    0.000    1.231    1.538    1.846    8.615    2.462 
#    0.000    1.538    0.000    0.000    0.000    0.000 
#    0.000    0.000    0.000    0.000    0.000    0.000 
#
# Total GULP energy -72533.730719 kJ/mol
# GULP energy per Si atom -5579.517748 kJ/mol
# Density = 2.607076 g / cm^3
# Si number density = 26.130238 Si / 1000 Ang^3
#
#
#
# Elastic Constant Matrix: (Units=GPa)
#
#
# Indices 1 2 3 4 5 6 
#
# 1 207.9802 77.7749 62.4729 1.5131 -18.8021 -13.9956
# 2 77.7749 104.8458 52.3871 19.0061 3.6650 -5.7863
# 3 62.4729 52.3871 140.1637 12.6561 18.2134 -0.1418
# 4 1.5131 19.0061 12.6561 33.1467 13.2450 -7.4977
# 5 -18.8021 3.6650 18.2134 13.2450 44.5698 9.5740
# 6 -13.9956 -5.7863 -0.1418 -7.4977 9.5740 95.0088
#
#
#
# Elastic Compliance Matrix: (Units=1/GPa)
#
#
# Indices 1 2 3 4 5 6 
#
# 1 0.007769 -0.005113 -0.002238 0.002014 0.003886 0.000597
# 2 -0.005113 0.016339 -0.003130 -0.008157 0.000297 -0.000436
# 3 -0.002238 -0.003130 0.009917 -0.000006 -0.004732 -0.000029
# 4 0.002014 -0.008157 -0.000006 0.040205 -0.011309 0.004112
# 5 0.003886 0.000297 -0.004732 -0.011309 0.030063 -0.003338
# 6 0.000597 -0.000436 -0.000029 0.004112 -0.003338 0.011248
#
#
# Mechanical properties :
#
#
# Convention : Reuss Voigt Hill
#
# Bulk Modulus (GPa) = 76.55245 93.13994 84.84619
# Shear Modulus (GPa) = 35.49666 51.90204 43.69935
#
# Velocity S-wave (km/s) = 3.68972 4.46161 4.09389
# Velocity P-wave (km/s) = 6.89290 7.89070 7.40862
#
# Compressibility (1/GPa) = 0.01306294
#
# Stress axis : x y z
#
# Youngs Moduli (GPa) = 128.71292 61.20342 100.83380
#
# Poissons Ratio (x) = 0.31293 0.22567
# Poissons Ratio (y) = 0.65810 0.31564
# Poissons Ratio (z) = 0.28806 0.19159
#
# Static dielectric constant tensor:
#      x y z
#    x 2.199950 0.093290 -0.094860 
#    y 0.093290 2.082830 -0.040560 
#    z -0.094860 -0.040560 2.132740 
# 
# From -- ./inp_files/59107.got.cif
#   From: 2010.05.17/outbox.cif.g08.bks.cpg/sg2_30_cif.got.tgz:59107.got - 2010.06.03 11:33:40.
