data_PCOD9038333
_publ_section_title
;
Structure prediction by ZEFSAII (Michael W. Deem and Ramdas Pophale) SiO2 
 PCOD9038333
Probable space group: P -1
;
_chemical_formula_sum "Si O2"
_cell_formula_units_Z 16
_cell_length_a 9.461310
_cell_length_b 14.738235
_cell_length_c 13.028413
_cell_angle_alpha 102.926873
_cell_angle_beta 89.699954
_cell_angle_gamma 30.274736
_cell_volume 816.652490
_symmetry_space_group_name_H-M "P -1"
_symmetry_group_IT_number 2
_symmetry_cell_setting 'triclinic'
loop_
_space_group_symop_operation_xyz
x,y,z
-x,-y,-z
loop_
_atom_site_type_symbol
_atom_site_label
_atom_site_fract_x
_atom_site_fract_y
_atom_site_fract_z
Si Si1 0.712106 0.193733 0.802085
Si Si2 0.104813 0.414515 0.591713
Si Si3 0.205196 0.961844 0.032554
Si Si4 0.851688 0.814475 0.417450
Si Si5 0.897503 0.330646 0.067260
Si Si6 0.882463 0.864834 0.196706
Si Si7 0.303347 0.236335 0.162779
Si Si8 0.201620 0.964162 0.444401
O O1 0.677956 0.147435 0.888729
O O2 0.426277 0.431399 0.848964
O O3 0.739522 0.105012 0.687452
O O4 0.001203 0.095902 0.785160
O O5 0.998082 0.371545 0.604485
O O6 0.470450 0.215567 0.546877
O O7 0.000000 0.500000 0.500000
O O8 0.957132 0.563086 0.718725
O O9 0.488766 0.817568 0.920468
O O10 0.988957 0.180313 0.084791
O O11 0.000000 0.000000 0.000000
O O12 0.888466 0.816884 0.297468
O O13 0.500000 0.000000 0.500000
O O14 0.955841 0.843648 0.488910
O O15 0.155117 0.250031 0.088527
O O16 0.918511 0.298921 0.936599
O O17 0.541637 0.056568 0.199850
O O18 0.000000 0.000000 0.500000
#
# Coordination Sequence:
#
# PCOD9038333 Si02
#       8
#     2   2   2   2   2   2   2   2
#     4  12  24  43  71  98 137 180 224 282 334 412
#     4  11  25  43  68  97 132 176 225 278 341 407
#     4  11  24  41  67 100 138 180 221 273 343 402
#     4  10  23  41  68  94 127 176 223 269 342 399
#     4  11  25  43  67 103 136 174 230 278 337 404
#     4  11  22  42  70  92 136 180 212 281 344 394
#     4  11  23  43  64 101 138 169 227 283 332 402
#     4  11  23  46  67  98 131 173 230 279 338 397
#
# _framework density 19.592177
#
# number of rings (size 3 to 8) (size 9 to 14) (size 15 to 20)
#    0.000    1.000    5.000    3.375    1.750    5.500 
#    0.000    0.625    0.000    0.000    0.000    0.000 
#    0.000    0.000    0.000    0.000    0.000    0.000 
#
# Total GULP energy -89271.312312 kJ/mol
# GULP energy per Si atom -5579.457019 kJ/mol
# Density = 1.954758 g / cm^3
# Si number density = 19.592177 Si / 1000 Ang^3
#
#
#
# Elastic Constant Matrix: (Units=GPa)
#
#
# Indices 1 2 3 4 5 6 
#
# 1 142.2671 26.9620 56.3496 -17.6055 8.8643 4.4855
# 2 26.9620 51.6396 29.9365 -10.8646 -6.3019 1.2898
# 3 56.3496 29.9365 93.2255 -23.5842 6.4510 12.8981
# 4 -17.6055 -10.8646 -23.5842 24.8712 5.7211 2.8589
# 5 8.8643 -6.3019 6.4510 5.7211 38.9599 -11.5572
# 6 4.4855 1.2898 12.8981 2.8589 -11.5572 28.6733
#
#
#
# Elastic Compliance Matrix: (Units=1/GPa)
#
#
# Indices 1 2 3 4 5 6 
#
# 1 0.009605 -0.002380 -0.004122 0.002516 -0.002494 -0.000797
# 2 -0.002380 0.026333 -0.008857 -0.001294 0.008447 0.006706
# 3 -0.004122 -0.008857 0.024947 0.021903 -0.013072 -0.017632
# 4 0.002516 -0.001294 0.021903 0.070402 -0.022547 -0.026296
# 5 -0.002494 0.008447 -0.013072 -0.022547 0.040311 0.024386
# 6 -0.000797 0.006706 -0.017632 -0.026296 0.024386 0.055081
#
#
# Mechanical properties :
#
#
# Convention : Reuss Voigt Hill
#
# Bulk Modulus (GPa) = 33.14867 57.06980 45.10924
# Shear Modulus (GPa) = 18.69489 30.09315 24.39402
#
# Velocity S-wave (km/s) = 3.09237 3.92341 3.53241
# Velocity P-wave (km/s) = 5.45036 7.05098 6.30169
#
# Compressibility (1/GPa) = 0.03016712
#
# Stress axis : x y z
#
# Youngs Moduli (GPa) = 104.11741 37.97447 40.08445
#
# Poissons Ratio (x) = 0.09039 0.16522
# Poissons Ratio (y) = 0.24784 0.35503
# Poissons Ratio (z) = 0.42914 0.33634
#
# Static dielectric constant tensor:
#      x y z
#    x 1.680680 0.025430 -0.005970 
#    y 0.025430 1.733010 -0.001460 
#    z -0.005970 -0.001460 1.847680 
# 
# From -- ./inp_files/214558.got.cif
#   From: 2010.05.17/outbox.cif.g08.bks.cpg/sg2_108_cif.got.tgz:214558.got - 2010.06.03 11:33:40.
