data_PCOD9038132
_publ_section_title
;
Structure prediction by ZEFSAII (Michael W. Deem and Ramdas Pophale) SiO2 
 PCOD9038132
Probable space group: P -1
;
_chemical_formula_sum "Si O2"
_cell_formula_units_Z 16
_cell_length_a 15.110527
_cell_length_b 8.010836
_cell_length_c 8.004790
_cell_angle_alpha 61.440612
_cell_angle_beta 80.891175
_cell_angle_gamma 119.065607
_cell_volume 640.425421
_symmetry_space_group_name_H-M "P -1"
_symmetry_group_IT_number 2
_symmetry_cell_setting 'triclinic'
loop_
_space_group_symop_operation_xyz
x,y,z
-x,-y,-z
loop_
_atom_site_type_symbol
_atom_site_label
_atom_site_fract_x
_atom_site_fract_y
_atom_site_fract_z
Si Si1 0.652730 0.011834 0.292257
Si Si2 0.029023 0.554965 0.268962
Si Si3 0.773189 0.120783 0.501871
Si Si4 0.822757 0.573692 0.880267
Si Si5 0.183533 0.088333 0.088079
Si Si6 0.421898 0.366369 0.752656
Si Si7 0.567992 0.122682 0.657398
Si Si8 0.602156 0.398094 0.846826
O O1 0.717854 0.958928 0.425342
O O2 0.517165 0.875175 0.443022
O O3 0.643242 0.920557 0.149329
O O4 0.735892 0.308247 0.125267
O O5 0.093890 0.453141 0.235421
O O6 0.000000 0.500000 0.500000
O O7 0.902441 0.381072 0.302532
O O8 0.106991 0.853661 0.097120
O O9 0.783900 0.003615 0.718904
O O10 0.678666 0.155078 0.551574
O O11 0.879778 0.810320 0.869921
O O12 0.732939 0.573721 0.793760
O O13 0.308335 0.328317 0.857898
O O14 0.500000 0.500000 0.500000
O O15 0.515389 0.458823 0.825650
O O16 0.609583 0.319988 0.696780
O O17 0.475464 0.851398 0.898981
#
# Coordination Sequence:
#
# PCOD9038132 Si02
#       8
#     2   2   2   2   2   2   2   2
#     4  10  23  41  66  97 138 176 216 289 336 402
#     4  10  23  44  70  97 136 182 228 281 333 397
#     4  11  22  39  70  97 133 182 229 272 340 402
#     4  11  23  42  70  98 137 176 233 276 338 400
#     4  11  24  44  69  99 135 180 229 282 332 408
#     4  11  23  40  66  99 141 174 219 279 348 400
#     4   9  17  35  63  94 132 170 219 265 342 394
#     4   9  18  34  61  92 127 175 204 275 334 398
#
# _framework density 24.983393
#
# number of rings (size 3 to 8) (size 9 to 14) (size 15 to 20)
#    0.000    1.750    2.500    2.625    1.750    7.000 
#    0.000    0.625    0.000    0.000    0.000    0.000 
#    0.000    0.000    0.000    0.000    0.000    0.000 
#
# Total GULP energy -89303.702973 kJ/mol
# GULP energy per Si atom -5581.481436 kJ/mol
# Density = 2.492653 g / cm^3
# Si number density = 24.983393 Si / 1000 Ang^3
#
#
#
# Elastic Constant Matrix: (Units=GPa)
#
#
# Indices 1 2 3 4 5 6 
#
# 1 114.6022 72.6383 33.8076 -4.8652 -30.6959 -0.5162
# 2 72.6383 111.5028 22.7200 -4.8557 -22.6171 1.4238
# 3 33.8076 22.7200 75.2544 -4.6717 -16.6145 -1.0175
# 4 -4.8652 -4.8557 -4.6717 31.5347 2.4628 -7.3237
# 5 -30.6959 -22.6171 -16.6145 2.4628 45.8380 9.1079
# 6 -0.5162 1.4238 -1.0175 -7.3237 9.1079 51.6971
#
#
#
# Elastic Compliance Matrix: (Units=1/GPa)
#
#
# Indices 1 2 3 4 5 6 
#
# 1 0.017253 -0.009313 -0.003673 0.000085 0.005751 -0.000645
# 2 -0.009313 0.015382 -0.000118 0.000647 0.001410 -0.000676
# 3 -0.003673 -0.000118 0.015756 0.001491 0.003125 -0.000063
# 4 0.000085 0.000647 0.001491 0.033370 -0.001884 0.005072
# 5 0.005751 0.001410 0.003125 -0.001884 0.028636 -0.005232
# 6 -0.000645 -0.000676 -0.000063 0.005072 -0.005232 0.020995
#
#
# Mechanical properties :
#
#
# Convention : Reuss Voigt Hill
#
# Bulk Modulus (GPa) = 45.07871 62.18791 53.63331
# Shear Modulus (GPa) = 30.30430 37.29353 33.79891
#
# Velocity S-wave (km/s) = 3.48656 3.86778 3.68211
# Velocity P-wave (km/s) = 5.85583 6.70015 6.29217
#
# Compressibility (1/GPa) = 0.02218342
#
# Stress axis : x y z
#
# Youngs Moduli (GPa) = 57.96071 65.01128 63.46927
#
# Poissons Ratio (x) = 0.60542 0.23313
# Poissons Ratio (y) = 0.53977 0.00749
# Poissons Ratio (z) = 0.21289 0.00767
#
# Static dielectric constant tensor:
#      x y z
#    x 2.030380 -0.043080 0.054510 
#    y -0.043080 2.165520 -0.012880 
#    z 0.054510 -0.012880 2.063660 
# 
# From -- ./inp_files/297636.got.cif
#   From: 2010.05.17/outbox.cif.g08.bks.cpg/sg2_149_cif.got.tgz:297636.got - 2010.06.03 11:33:40.
