data_PCOD9038915
_publ_section_title
;
Structure prediction by ZEFSAII (Michael W. Deem and Ramdas Pophale) SiO2 
 PCOD9038915
Probable space group: P -1
;
_chemical_formula_sum "Si O2"
_cell_formula_units_Z 16
_cell_length_a 5.137146
_cell_length_b 8.642612
_cell_length_c 25.941955
_cell_angle_alpha 145.829321
_cell_angle_beta 102.588892
_cell_angle_gamma 83.174261
_cell_volume 627.373280
_symmetry_space_group_name_H-M "P -1"
_symmetry_group_IT_number 2
_symmetry_cell_setting 'triclinic'
loop_
_space_group_symop_operation_xyz
x,y,z
-x,-y,-z
loop_
_atom_site_type_symbol
_atom_site_label
_atom_site_fract_x
_atom_site_fract_y
_atom_site_fract_z
Si Si1 0.709628 0.380114 0.935756
Si Si2 0.440945 0.773057 0.978150
Si Si3 0.884533 0.298634 0.577876
Si Si4 0.401012 0.058977 0.364682
Si Si5 0.006593 0.504996 0.177520
Si Si6 0.354302 0.164243 0.170343
Si Si7 0.755307 0.651584 0.305429
Si Si8 0.326961 0.460876 0.560475
O O1 0.622239 0.521985 0.919052
O O2 0.715569 0.048259 0.844715
O O3 0.500000 0.500000 0.000000
O O4 0.000000 0.500000 0.000000
O O5 0.139835 0.627098 0.915602
O O6 0.500000 0.000000 0.000000
O O7 0.494624 0.962778 0.082826
O O8 0.964437 0.372734 0.661102
O O9 0.576642 0.336860 0.565460
O O10 0.074628 0.466823 0.589400
O O11 0.000000 0.000000 0.500000
O O12 0.255588 0.256535 0.451853
O O13 0.547599 0.247613 0.378274
O O14 0.630630 0.939031 0.376509
O O15 0.203110 0.792280 0.263897
O O16 0.769859 0.572044 0.224482
O O17 0.137978 0.273502 0.152647
O O18 0.555895 0.428008 0.264980
#
# Coordination Sequence:
#
# PCOD9038915 Si02
#       8
#     2   2   2   2   2   2   2   2
#     4  10  23  42  66  94 129 171 223 279 334 395
#     4  11  21  42  70  98 131 183 235 278 341 411
#     4  12  25  44  71 101 135 182 233 277 345 419
#     4  10  25  44  69 102 139 179 225 293 347 406
#     4  11  23  41  70  99 139 179 236 282 350 407
#     4  10  23  42  64  96 133 181 224 282 344 401
#     4  11  24  42  67  98 140 179 227 287 340 411
#     4  11  26  46  74 102 138 183 231 284 349 419
#
# _framework density 25.503157000000002
#
# number of rings (size 3 to 8) (size 9 to 14) (size 15 to 20)
#    0.000    1.250    2.500    2.250    7.000    3.000 
#    0.000    0.000    0.000    0.000    0.000    0.000 
#    0.000    0.000    0.000    0.000    0.000    0.000 
#
# Total GULP energy -89405.513647 kJ/mol
# GULP energy per Si atom -5587.844603 kJ/mol
# Density = 2.544511 g / cm^3
# Si number density = 25.503157 Si / 1000 Ang^3
#
#
#
# Elastic Constant Matrix: (Units=GPa)
#
#
# Indices 1 2 3 4 5 6 
#
# 1 94.9150 7.5287 15.5921 7.4076 14.0216 -0.3244
# 2 7.5287 120.6426 36.3148 38.3712 24.8672 -9.5050
# 3 15.5921 36.3148 53.3419 26.1248 14.6854 9.7758
# 4 7.4076 38.3712 26.1248 51.6272 5.1589 -0.7515
# 5 14.0216 24.8672 14.6854 5.1589 32.0145 -7.7268
# 6 -0.3244 -9.5050 9.7758 -0.7515 -7.7268 43.2643
#
#
#
# Elastic Compliance Matrix: (Units=1/GPa)
#
#
# Indices 1 2 3 4 5 6 
#
# 1 0.011627 0.001315 -0.002572 -0.000866 -0.004772 0.000090
# 2 0.001315 0.013571 -0.004592 -0.007192 -0.007221 0.002615
# 3 -0.002572 -0.004592 0.033841 -0.012354 -0.011479 -0.010939
# 4 -0.000866 -0.007192 -0.012354 0.030388 0.007476 0.003068
# 5 -0.004772 -0.007221 -0.011479 0.007476 0.045210 0.009176
# 6 0.000090 0.002615 -0.010939 0.003068 0.009176 0.027853
#
#
# Mechanical properties :
#
#
# Convention : Reuss Voigt Hill
#
# Bulk Modulus (GPa) = 21.12422 43.08563 32.10492
# Shear Modulus (GPa) = 26.32001 39.34547 32.83274
#
# Velocity S-wave (km/s) = 3.21601 3.93207 3.59193
# Velocity P-wave (km/s) = 4.70013 6.12746 5.46063
#
# Compressibility (1/GPa) = 0.04733903
#
# Stress axis : x y z
#
# Youngs Moduli (GPa) = 86.00732 73.68696 29.54979
#
# Poissons Ratio (x) = -0.09689 0.07601
# Poissons Ratio (y) = -0.11309 0.13571
# Poissons Ratio (z) = 0.22124 0.33841
#
# Static dielectric constant tensor:
#      x y z
#    x 2.027500 0.037850 -0.024230 
#    y 0.037850 2.086870 -0.001110 
#    z -0.024230 -0.001110 2.122710 
# 
# From -- ./inp_files/621782.got.cif
#   From: 2010.05.17/outbox.cif.g08.bks.cpg/sg2_311_cif.got.tgz:621782.got - 2010.06.03 11:33:40.
