data_PCOD9038877
_publ_section_title
;
Structure prediction by ZEFSAII (Michael W. Deem and Ramdas Pophale) SiO2 
 PCOD9038877
Probable space group: P -1
;
_chemical_formula_sum "Si O2"
_cell_formula_units_Z 14
_cell_length_a 8.911281
_cell_length_b 9.630101
_cell_length_c 8.288771
_cell_angle_alpha 64.233247
_cell_angle_beta 74.812214
_cell_angle_gamma 99.699379
_cell_volume 584.677789
_symmetry_space_group_name_H-M "P -1"
_symmetry_group_IT_number 2
_symmetry_cell_setting 'triclinic'
loop_
_space_group_symop_operation_xyz
x,y,z
-x,-y,-z
loop_
_atom_site_type_symbol
_atom_site_label
_atom_site_fract_x
_atom_site_fract_y
_atom_site_fract_z
Si Si1 0.323199 0.194046 0.741003
Si Si2 0.768089 0.170363 0.013373
Si Si3 0.887820 0.675551 0.026141
Si Si4 0.704679 0.238940 0.638891
Si Si5 0.649721 0.429231 0.008522
Si Si6 0.805251 0.585848 0.550552
Si Si7 0.952296 0.161969 0.433187
O O1 0.513927 0.223077 0.699426
O O2 0.306316 0.318838 0.546364
O O3 0.225353 0.233549 0.901366
O O4 0.238370 0.002880 0.825473
O O5 0.730653 0.156122 0.841382
O O6 0.633898 0.240248 0.097478
O O7 0.951699 0.298522 0.922539
O O8 0.761945 0.502065 0.095318
O O9 0.969100 0.749243 0.796777
O O10 0.802863 0.434988 0.514014
O O11 0.764750 0.151463 0.519265
O O12 0.739541 0.496430 0.781075
O O13 0.500000 0.500000 0.000000
O O14 0.965090 0.730583 0.487717
O O15 0.000000 0.000000 0.500000
#
# Coordination Sequence:
#
# PCOD9038877 Si02
#       7
#     2   2   2   2   2   2   2
#     4  12  24  42  67  95 125 166 215 265 311 371
#     4  11  23  41  65  94 125 169 213 257 314 380
#     4  11  23  40  65  95 128 166 209 259 316 377
#     4  11  24  43  65  92 127 171 213 257 314 379
#     4  10  23  43  65  94 131 167 208 261 317 373
#     4  10  23  42  64  91 127 169 210 254 315 386
#     4  11  23  41  64  95 129 164 209 265 318 372
#
# _framework density 23.944811999999999
#
# number of rings (size 3 to 8) (size 9 to 14) (size 15 to 20)
#    0.000    1.143    0.000    6.429    0.000    6.857 
#    0.000    2.143    0.000    0.000    0.000    0.000 
#    0.000    0.000    0.000    0.000    0.000    0.000 
#
# Total GULP energy -78257.360488 kJ/mol
# GULP energy per Si atom -5589.811463 kJ/mol
# Density = 2.389031 g / cm^3
# Si number density = 23.944812 Si / 1000 Ang^3
#
#
#
# Elastic Constant Matrix: (Units=GPa)
#
#
# Indices 1 2 3 4 5 6 
#
# 1 115.6997 33.9262 40.6892 19.1801 -4.6488 -23.9451
# 2 33.9262 136.5156 29.3274 3.8829 -12.6084 -35.7792
# 3 40.6892 29.3274 43.1823 9.6094 9.2546 -11.8103
# 4 19.1801 3.8829 9.6094 34.2066 -10.8698 -2.6493
# 5 -4.6488 -12.6084 9.2546 -10.8698 36.3794 7.1637
# 6 -23.9451 -35.7792 -11.8103 -2.6493 7.1637 45.4719
#
#
#
# Elastic Compliance Matrix: (Units=1/GPa)
#
#
# Indices 1 2 3 4 5 6 
#
# 1 0.014585 0.000718 -0.013274 -0.003013 0.003797 0.004024
# 2 0.000718 0.010990 -0.008352 0.002986 0.005710 0.006131
# 3 -0.013274 -0.008352 0.048948 -0.011877 -0.020938 0.001758
# 4 -0.003013 0.002986 -0.011877 0.038727 0.015744 -0.002546
# 5 0.003797 0.005710 -0.020938 0.015744 0.040862 -0.004466
# 6 0.004024 0.006131 0.001758 -0.002546 -0.004466 0.029947
#
#
# Mechanical properties :
#
#
# Convention : Reuss Voigt Hill
#
# Bulk Modulus (GPa) = 30.57267 55.92035 43.24651
# Shear Modulus (GPa) = 21.11682 35.97524 28.54603
#
# Velocity S-wave (km/s) = 2.97289 3.88032 3.45651
# Velocity P-wave (km/s) = 4.95780 6.59396 5.83353
#
# Compressibility (1/GPa) = 0.03270895
#
# Stress axis : x y z
#
# Youngs Moduli (GPa) = 68.56141 90.98966 20.42965
#
# Poissons Ratio (x) = -0.06532 0.27118
# Poissons Ratio (y) = -0.04922 0.17063
# Poissons Ratio (z) = 0.91006 0.75994
#
# Static dielectric constant tensor:
#      x y z
#    x 1.981400 0.042230 -0.033080 
#    y 0.042230 1.976280 -0.003470 
#    z -0.033080 -0.003470 1.902440 
# 
# From -- ./inp_files/157248.got.cif
#   From: 2010.05.17/outbox.cif.g08.bks.cpg/sg2_79_cif.got.tgz:157248.got - 2010.06.03 11:33:40.
