data_PCOD9038453
_publ_section_title
;
Structure prediction by ZEFSAII (Michael W. Deem and Ramdas Pophale) SiO2 
 PCOD9038453
Probable space group: P -1
;
_chemical_formula_sum "Si O2"
_cell_formula_units_Z 15
_cell_length_a 13.816441
_cell_length_b 16.753921
_cell_length_c 5.500913
_cell_angle_alpha 73.017668
_cell_angle_beta 80.160961
_cell_angle_gamma 28.616281
_cell_volume 573.011171
_symmetry_space_group_name_H-M "P -1"
_symmetry_group_IT_number 2
_symmetry_cell_setting 'triclinic'
loop_
_space_group_symop_operation_xyz
x,y,z
-x,-y,-z
loop_
_atom_site_type_symbol
_atom_site_label
_atom_site_fract_x
_atom_site_fract_y
_atom_site_fract_z
Si Si1 0.158375 0.303887 0.106153
Si Si2 0.438702 0.222557 0.546545
Si Si3 0.679438 0.378740 0.226784
Si Si4 0.500000 0.000000 0.500000
Si Si5 0.306348 0.734802 0.282493
Si Si6 0.022013 0.612074 0.389807
Si Si7 0.631611 0.135093 0.048533
Si Si8 0.932330 0.246428 0.843146
O O1 0.398282 0.138126 0.200054
O O2 0.117360 0.287389 0.398726
O O3 0.000000 0.500000 0.000000
O O4 0.104618 0.297678 0.886223
O O5 0.509081 0.075286 0.608786
O O6 0.190999 0.413041 0.494430
O O7 0.513565 0.203922 0.787090
O O8 0.511131 0.220562 0.278509
O O9 0.550174 0.533777 0.325197
O O10 0.732106 0.249338 0.429590
O O11 0.500000 0.500000 0.000000
O O12 0.875823 0.277249 0.123151
O O13 0.270557 0.846549 0.062843
O O14 0.170156 0.759429 0.220237
O O15 0.147813 0.604480 0.339504
O O16 0.829349 0.928606 0.163759
#
# Coordination Sequence:
#
# PCOD9038453 Si02
#       8
#     2   2   2   1   2   2   2   2
#     4  12  27  51  78 114 148 195 244 305 375 443
#     4  12  29  48  75 107 145 192 242 306 364 443
#     4   9  21  39  63 100 128 194 236 298 352 428
#     4  12  28  52  82 110 152 188 246 306 380 438
#     4  10  23  41  69  96 144 190 242 293 361 433
#     4  12  27  49  77 111 149 193 248 298 364 447
#     4  12  28  46  69 110 145 189 242 302 365 428
#     4  11  25  42  70 102 146 191 240 300 363 431
#
# _framework density 26.177500999999999
#
# number of rings (size 3 to 8) (size 9 to 14) (size 15 to 20)
#    0.000    0.800    1.333    4.000   13.067    1.600 
#    0.000    0.000    0.000    0.000    0.000    0.000 
#    0.000    0.000    0.000    0.000    0.000    0.000 
#
# Total GULP energy -83662.238389 kJ/mol
# GULP energy per Si atom -5577.482559 kJ/mol
# Density = 2.611792 g / cm^3
# Si number density = 26.177501 Si / 1000 Ang^3
#
#
#
# Elastic Constant Matrix: (Units=GPa)
#
#
# Indices 1 2 3 4 5 6 
#
# 1 107.2231 8.8882 62.4404 10.1285 4.8502 10.6055
# 2 8.8882 72.6089 22.1381 11.8677 9.4982 -5.5209
# 3 62.4404 22.1381 164.2418 22.8158 8.0299 0.9594
# 4 10.1285 11.8677 22.8158 51.3152 -12.2234 -14.2572
# 5 4.8502 9.4982 8.0299 -12.2234 56.8768 -9.3008
# 6 10.6055 -5.5209 0.9594 -14.2572 -9.3008 38.5000
#
#
#
# Elastic Compliance Matrix: (Units=1/GPa)
#
#
# Indices 1 2 3 4 5 6 
#
# 1 0.012617 0.000028 -0.004381 -0.002229 -0.001693 -0.004597
# 2 0.000028 0.015201 -0.001409 -0.003595 -0.003094 0.000129
# 3 -0.004381 -0.001409 0.008441 -0.003070 -0.001352 -0.000669
# 4 -0.002229 -0.003595 -0.003070 0.027881 0.009300 0.012746
# 5 -0.001693 -0.003094 -0.001352 0.009300 0.021869 0.008783
# 6 -0.004597 0.000129 -0.000669 0.012746 0.008783 0.034118
#
#
# Mechanical properties :
#
#
# Convention : Reuss Voigt Hill
#
# Bulk Modulus (GPa) = 40.43228 59.00078 49.71653
# Shear Modulus (GPa) = 35.74085 46.04554 40.89319
#
# Velocity S-wave (km/s) = 3.69904 4.19856 3.95669
# Velocity P-wave (km/s) = 5.80714 6.78908 6.31721
#
# Compressibility (1/GPa) = 0.02473271
#
# Stress axis : x y z
#
# Youngs Moduli (GPa) = 79.25668 65.78557 118.47429
#
# Poissons Ratio (x) = -0.00181 0.51906
# Poissons Ratio (y) = -0.00219 0.16698
# Poissons Ratio (z) = 0.34724 0.09272
#
# Static dielectric constant tensor:
#      x y z
#    x 1.881400 0.489230 -0.042430 
#    y 0.489230 0.884240 0.250670 
#    z -0.042430 0.250670 2.324380 
# 
# From -- ./inp_files/99597.got.cif
#   From: 2010.05.17/outbox.cif.g08.bks.cpg/sg2_50_cif.got.tgz:99597.got - 2010.06.03 11:33:40.
