data_PCOD9038048
_publ_section_title
;
Structure prediction by ZEFSAII (Michael W. Deem and Ramdas Pophale) SiO2 
 PCOD9038048
Probable space group: P -1
;
_chemical_formula_sum "Si O2"
_cell_formula_units_Z 16
_cell_length_a 13.982788
_cell_length_b 23.662019
_cell_length_c 9.133618
_cell_angle_alpha 31.423518
_cell_angle_beta 53.273202
_cell_angle_gamma 31.262406
_cell_volume 714.682487
_symmetry_space_group_name_H-M "P -1"
_symmetry_group_IT_number 2
_symmetry_cell_setting 'triclinic'
loop_
_space_group_symop_operation_xyz
x,y,z
-x,-y,-z
loop_
_atom_site_type_symbol
_atom_site_label
_atom_site_fract_x
_atom_site_fract_y
_atom_site_fract_z
Si Si1 0.487323 0.367656 0.133605
Si Si2 0.075364 0.066209 0.781226
Si Si3 0.685415 0.104398 0.773539
Si Si4 0.383440 0.491451 0.366626
Si Si5 0.080839 0.228920 0.874427
Si Si6 0.897421 0.561669 0.115525
Si Si7 0.516990 0.708568 0.022651
Si Si8 0.027940 0.676069 0.907418
O O1 0.684940 0.187392 0.453982
O O2 0.503504 0.484827 0.843911
O O3 0.486068 0.311280 0.102053
O O4 0.275539 0.478091 0.159079
O O5 0.941877 0.252090 0.401582
O O6 0.130366 0.049722 0.935006
O O7 0.286039 0.912444 0.832901
O O8 0.000000 0.000000 0.000000
O O9 0.500992 0.298443 0.612408
O O10 0.710881 0.973534 0.948788
O O11 0.133858 0.681470 0.148044
O O12 0.418251 0.448782 0.601819
O O13 0.014512 0.389506 0.497721
O O14 0.096663 0.218568 0.058838
O O15 0.673411 0.680671 0.009032
O O16 0.000000 0.500000 0.000000
O O17 0.915134 0.662587 0.957122
#
# Coordination Sequence:
#
# PCOD9038048 Si02
#       8
#     2   2   2   2   2   2   2   2
#     4  12  23  41  70 102 142 185 231 291 357 424
#     4  11  26  44  69 108 145 184 234 288 357 435
#     4  11  24  43  64 101 141 179 228 284 353 422
#     4  10  23  41  66 100 142 179 229 293 356 429
#     4  11  25  43  71 101 138 189 234 297 354 414
#     4  11  23  46  73 100 138 189 244 296 350 413
#     4  10  23  43  68  99 142 185 236 290 358 414
#     4  12  24  44  72 101 143 189 240 289 351 419
#
# _framework density 22.387564000000001
#
# number of rings (size 3 to 8) (size 9 to 14) (size 15 to 20)
#    0.000    1.000    2.500    4.125    5.250    1.000 
#    0.000    1.875    0.000    0.000    0.000    0.000 
#    0.000    0.000    0.000    0.000    0.000    0.000 
#
# Total GULP energy -89137.916204 kJ/mol
# GULP energy per Si atom -5571.119763 kJ/mol
# Density = 2.233661 g / cm^3
# Si number density = 22.387564 Si / 1000 Ang^3
#
#
#
# Elastic Constant Matrix: (Units=GPa)
#
#
# Indices 1 2 3 4 5 6 
#
# 1 71.9791 46.2370 37.3067 19.9475 -1.3641 19.4975
# 2 46.2370 82.9560 19.5577 7.9310 -4.6651 18.5503
# 3 37.3067 19.5577 78.0971 24.5467 12.5694 11.0255
# 4 19.9475 7.9310 24.5467 36.2213 8.5629 10.4198
# 5 -1.3641 -4.6651 12.5694 8.5629 34.9964 14.7900
# 6 19.4975 18.5503 11.0255 10.4198 14.7900 37.1328
#
#
#
# Elastic Compliance Matrix: (Units=1/GPa)
#
#
# Indices 1 2 3 4 5 6 
#
# 1 0.031265 -0.011921 -0.009736 -0.007503 0.008744 -0.008948
# 2 -0.011921 0.020049 -0.000064 0.003037 0.004121 -0.006231
# 3 -0.009736 -0.000064 0.020617 -0.008031 -0.007656 0.004325
# 4 -0.007503 0.003037 -0.008031 0.038847 -0.004729 -0.004210
# 5 0.008744 0.004121 -0.007656 -0.004729 0.041675 -0.019649
# 6 -0.008948 -0.006231 0.004325 -0.004210 -0.019649 0.042464
#
#
# Mechanical properties :
#
#
# Convention : Reuss Voigt Hill
#
# Bulk Modulus (GPa) = 35.10108 48.80390 41.95249
# Shear Modulus (GPa) = 20.17297 30.33215 25.25256
#
# Velocity S-wave (km/s) = 3.00505 3.68484 3.36217
# Velocity P-wave (km/s) = 5.26814 6.32068 5.81826
#
# Compressibility (1/GPa) = 0.02848915
#
# Stress axis : x y z
#
# Youngs Moduli (GPa) = 31.98419 49.87793 48.50356
#
# Poissons Ratio (x) = 0.59460 0.47221
# Poissons Ratio (y) = 0.38129 0.00312
# Poissons Ratio (z) = 0.31139 0.00321
#
# Static dielectric constant tensor:
#      x y z
#    x 1.843870 0.028660 0.070150 
#    y 0.028660 1.839110 -0.027770 
#    z 0.070150 -0.027770 1.912440 
# 
# From -- ./inp_files/320252.got.cif
#   From: 2010.05.17/outbox.cif.g08.bks.cpg/sg2_161_cif.got.tgz:320252.got - 2010.06.03 11:33:40.
