data_PCOD9038395
_publ_section_title
;
Structure prediction by ZEFSAII (Michael W. Deem and Ramdas Pophale) SiO2 
 PCOD9038395
Probable space group: P -1
;
_chemical_formula_sum "Si O2"
_cell_formula_units_Z 14
_cell_length_a 9.576586
_cell_length_b 5.395869
_cell_length_c 12.501423
_cell_angle_alpha 73.334664
_cell_angle_beta 86.003597
_cell_angle_gamma 72.794135
_cell_volume 591.087924
_symmetry_space_group_name_H-M "P -1"
_symmetry_group_IT_number 2
_symmetry_cell_setting 'triclinic'
loop_
_space_group_symop_operation_xyz
x,y,z
-x,-y,-z
loop_
_atom_site_type_symbol
_atom_site_label
_atom_site_fract_x
_atom_site_fract_y
_atom_site_fract_z
Si Si1 0.671918 0.877036 0.491911
Si Si2 0.227608 0.664520 0.810806
Si Si3 0.505898 0.702723 0.878925
Si Si4 0.695681 0.266158 0.623603
Si Si5 0.932921 0.050603 0.822560
Si Si6 0.829095 0.536629 0.925864
Si Si7 0.624823 0.767602 0.278756
O O1 0.707932 0.561725 0.557830
O O2 0.685621 0.893610 0.362056
O O3 0.500000 0.000000 0.500000
O O4 0.735632 0.057885 0.546727
O O5 0.401326 0.635888 0.804891
O O6 0.233620 0.467689 0.736808
O O7 0.095837 0.936108 0.782223
O O8 0.206473 0.547179 0.943696
O O9 0.675654 0.649699 0.855827
O O10 0.428009 0.025268 0.845378
O O11 0.500000 0.500000 0.000000
O O12 0.527069 0.285365 0.664576
O O13 0.809463 0.159540 0.726281
O O14 0.897447 0.782281 0.901947
O O15 0.918650 0.278601 0.885042
#
# Coordination Sequence:
#
# PCOD9038395 Si02
#       7
#     2   2   2   2   2   2   2
#     4  10  23  41  69 101 126 170 229 285 328 393
#     4  11  27  40  66 100 139 179 220 274 340 405
#     4  10  24  41  67  99 136 173 226 276 334 394
#     4  11  23  44  70  98 129 174 233 274 334 395
#     4  12  25  45  68  96 138 183 223 273 332 403
#     4  11  25  45  68  95 137 183 228 267 328 406
#     4  11  23  41  69  97 136 172 223 283 340 386
#
# _framework density 23.685137999999998
#
# number of rings (size 3 to 8) (size 9 to 14) (size 15 to 20)
#    0.000    1.143    1.429    4.286   14.000    1.143 
#    0.000    1.429    0.000    0.000    0.000    0.000 
#    0.000    0.000    0.000    0.000    0.000    0.000 
#
# Total GULP energy -78101.768800 kJ/mol
# GULP energy per Si atom -5578.697771 kJ/mol
# Density = 2.363123 g / cm^3
# Si number density = 23.685138 Si / 1000 Ang^3
#
#
#
# Elastic Constant Matrix: (Units=GPa)
#
#
# Indices 1 2 3 4 5 6 
#
# 1 77.9167 15.4143 26.0587 -1.4334 5.3904 -4.7026
# 2 15.4143 155.2624 57.1917 9.2699 5.5178 3.9865
# 3 26.0587 57.1917 97.9233 11.8855 15.5107 3.6153
# 4 -1.4334 9.2699 11.8855 45.1838 5.5735 -10.1953
# 5 5.3904 5.5178 15.5107 5.5735 29.7031 2.0330
# 6 -4.7026 3.9865 3.6153 -10.1953 2.0330 26.4631
#
#
#
# Elastic Compliance Matrix: (Units=1/GPa)
#
#
# Indices 1 2 3 4 5 6 
#
# 1 0.014632 -0.000180 -0.004072 0.002709 -0.001300 0.004327
# 2 -0.000180 0.008274 -0.004846 -0.000814 0.001249 -0.001026
# 3 -0.004072 -0.004846 0.015516 -0.003171 -0.005670 -0.002899
# 4 0.002709 -0.000814 -0.003171 0.026367 -0.004421 0.011535
# 5 -0.001300 0.001249 -0.005670 -0.004421 0.037751 -0.004248
# 6 0.004327 -0.001026 -0.002899 0.011535 -0.004248 0.043879
#
#
# Mechanical properties :
#
#
# Convention : Reuss Voigt Hill
#
# Bulk Modulus (GPa) = 49.43549 58.71466 54.07508
# Shear Modulus (GPa) = 29.17902 35.76586 32.47244
#
# Velocity S-wave (km/s) = 3.51373 3.89016 3.70673
# Velocity P-wave (km/s) = 6.11384 6.70979 6.41873
#
# Compressibility (1/GPa) = 0.02022838
#
# Stress axis : x y z
#
# Youngs Moduli (GPa) = 68.34149 120.85954 64.45054
#
# Poissons Ratio (x) = 0.02170 0.26242
# Poissons Ratio (y) = 0.01227 0.31232
# Poissons Ratio (z) = 0.27826 0.58566
#
# Static dielectric constant tensor:
#      x y z
#    x 1.914720 0.046950 -0.149360 
#    y 0.046950 2.011780 -0.182140 
#    z -0.149360 -0.182140 1.770360 
# 
# From -- ./inp_files/368152.got.cif
#   From: 2010.05.17/outbox.cif.g08.bks.cpg/sg2_185_cif.got.tgz:368152.got - 2010.06.03 11:33:40.
