data_PCOD9038428
_publ_section_title
;
Structure prediction by ZEFSAII (Michael W. Deem and Ramdas Pophale) SiO2 
 PCOD9038428
Probable space group: P -1
;
_chemical_formula_sum "Si O2"
_cell_formula_units_Z 16
_cell_length_a 8.866538
_cell_length_b 9.771190
_cell_length_c 10.066384
_cell_angle_alpha 96.225640
_cell_angle_beta 80.807455
_cell_angle_gamma 46.615690
_cell_volume 596.048424
_symmetry_space_group_name_H-M "P -1"
_symmetry_group_IT_number 2
_symmetry_cell_setting 'triclinic'
loop_
_space_group_symop_operation_xyz
x,y,z
-x,-y,-z
loop_
_atom_site_type_symbol
_atom_site_label
_atom_site_fract_x
_atom_site_fract_y
_atom_site_fract_z
Si Si1 0.318366 0.445156 0.602178
Si Si2 0.242283 0.748776 0.460252
Si Si3 0.329317 0.956692 0.090481
Si Si4 0.386165 0.873886 0.786364
Si Si5 0.955007 0.079916 0.743788
Si Si6 0.650291 0.404532 0.106619
Si Si7 0.810778 0.530854 0.971195
Si Si8 0.161797 0.342179 0.290001
O O1 0.308979 0.563303 0.499132
O O2 0.579055 0.244158 0.547628
O O3 0.315226 0.524464 0.755455
O O4 0.096334 0.499584 0.622262
O O5 0.036784 0.920591 0.600040
O O6 0.218783 0.731260 0.305162
O O7 0.568861 0.741262 0.076174
O O8 0.225798 0.149126 0.206147
O O9 0.361985 0.978942 0.935325
O O10 0.158515 0.940338 0.131628
O O11 0.169789 0.023316 0.745774
O O12 0.373044 0.728632 0.836235
O O13 0.615813 0.762349 0.671373
O O14 0.849433 0.349629 0.992585
O O15 0.500000 0.500000 0.000000
O O16 0.819903 0.556415 0.817727
O O17 0.000000 0.500000 0.000000
#
# Coordination Sequence:
#
# PCOD9038428 Si02
#       8
#     2   2   2   2   2   2   2   2
#     4  11  22  43  66  90 125 172 217 266 319 380
#     4  10  23  41  69  87 122 173 228 264 312 374
#     4  11  22  41  63  95 131 169 205 261 337 388
#     4  11  23  39  65  99 135 162 210 272 324 386
#     4  11  22  42  65  93 122 168 223 268 312 382
#     4  12  21  38  63 101 131 161 208 266 324 383
#     4  11  22  36  60  92 134 163 203 249 321 401
#     4  11  22  41  63  94 134 171 204 260 333 392
#
# _framework density 26.843456
#
# number of rings (size 3 to 8) (size 9 to 14) (size 15 to 20)
#    0.000    1.000    6.250    2.625    0.000    0.000 
#    2.250    1.250    0.000    0.000    0.000    0.000 
#    0.000    0.000    0.000    0.000    0.000    0.000 
#
# Total GULP energy -89184.783686 kJ/mol
# GULP energy per Si atom -5574.048980 kJ/mol
# Density = 2.678236 g / cm^3
# Si number density = 26.843456 Si / 1000 Ang^3
#
#
#
# Elastic Constant Matrix: (Units=GPa)
#
#
# Indices 1 2 3 4 5 6 
#
# 1 183.0004 30.7161 28.7593 -2.1647 -26.7382 -41.3001
# 2 30.7161 50.4352 20.1119 4.8902 -1.6447 -17.0192
# 3 28.7593 20.1119 105.1283 4.0290 -19.9531 -23.0663
# 4 -2.1647 4.8902 4.0290 45.9849 -14.6086 3.6499
# 5 -26.7382 -1.6447 -19.9531 -14.6086 52.5898 -0.8087
# 6 -41.3001 -17.0192 -23.0663 3.6499 -0.8087 61.1469
#
#
#
# Elastic Compliance Matrix: (Units=1/GPa)
#
#
# Indices 1 2 3 4 5 6 
#
# 1 0.007611 -0.003325 0.000262 0.001754 0.004418 0.004267
# 2 -0.003325 0.024693 -0.003523 -0.003783 -0.003253 0.003481
# 3 0.000262 -0.003523 0.011793 0.000558 0.004709 0.003674
# 4 0.001754 -0.003783 0.000558 0.024757 0.007846 -0.001032
# 5 0.004418 -0.003253 0.004709 0.007846 0.025183 0.003719
# 6 0.004267 0.003481 0.003674 -0.001032 0.003719 0.021702
#
#
# Mechanical properties :
#
#
# Convention : Reuss Voigt Hill
#
# Bulk Modulus (GPa) = 32.33808 55.30430 43.82119
# Shear Modulus (GPa) = 35.91470 49.20941 42.56205
#
# Velocity S-wave (km/s) = 3.66174 4.28623 3.98624
# Velocity P-wave (km/s) = 5.47274 6.71885 6.12755
#
# Compressibility (1/GPa) = 0.03092329
#
# Stress axis : x y z
#
# Youngs Moduli (GPa) = 131.39245 40.49771 84.79645
#
# Poissons Ratio (x) = 0.13467 -0.02219
# Poissons Ratio (y) = 0.43694 0.29873
# Poissons Ratio (z) = -0.03439 0.14267
#
# Static dielectric constant tensor:
#      x y z
#    x 2.203540 -0.072020 0.116470 
#    y -0.072020 2.530960 0.107380 
#    z 0.116470 0.107380 2.232790 
# 
# From -- ./inp_files/390202.got.cif
#   From: 2010.05.17/outbox.cif.g08.bks.cpg/sg2_196_cif.got.tgz:390202.got - 2010.06.03 11:33:40.
