data_PCOD9038186
_publ_section_title
;
Structure prediction by ZEFSAII (Michael W. Deem and Ramdas Pophale) SiO2 
 PCOD9038186
Probable space group: P -1
;
_chemical_formula_sum "Si O2"
_cell_formula_units_Z 16
_cell_length_a 18.448631
_cell_length_b 12.015872
_cell_length_c 9.696890
_cell_angle_alpha 138.939373
_cell_angle_beta 40.574536
_cell_angle_gamma 152.403972
_cell_volume 623.914275
_symmetry_space_group_name_H-M "P -1"
_symmetry_group_IT_number 2
_symmetry_cell_setting 'triclinic'
loop_
_space_group_symop_operation_xyz
x,y,z
-x,-y,-z
loop_
_atom_site_type_symbol
_atom_site_label
_atom_site_fract_x
_atom_site_fract_y
_atom_site_fract_z
Si Si1 0.646538 0.773304 0.236146
Si Si2 0.122262 0.402990 0.985766
Si Si3 0.135663 0.026498 0.650880
Si Si4 0.323424 0.655025 0.654707
Si Si5 0.240138 0.920194 0.885774
Si Si6 0.384110 0.812353 0.188162
Si Si7 0.619551 0.758800 0.754722
Si Si8 0.241002 0.438449 0.285570
O O1 0.793451 0.980109 0.321162
O O2 0.500417 0.533466 0.316744
O O3 0.634267 0.897196 0.248115
O O4 0.702032 0.670333 0.971092
O O5 0.125226 0.217769 0.872578
O O6 0.209978 0.485647 0.788635
O O7 0.230683 0.647091 0.152666
O O8 0.939650 0.260622 0.086547
O O9 0.262223 0.136793 0.446944
O O10 0.954761 0.765146 0.629920
O O11 0.266832 0.769106 0.774429
O O12 0.294828 0.500568 0.423653
O O13 0.504145 0.898607 0.680966
O O14 0.273613 0.085665 0.117828
O O15 0.321495 0.675544 0.298373
O O16 0.503471 0.795771 0.941476
#
# Coordination Sequence:
#
# PCOD9038186 Si02
#       8
#     2   2   2   2   2   2   2   2
#     4  11  22  43  71  98 138 175 224 283 335 396
#     4  12  23  42  72  98 139 177 226 280 334 401
#     4  12  23  41  72 108 131 173 232 281 341 390
#     4  11  26  44  65 101 140 182 223 272 338 408
#     4  11  24  44  67 101 138 179 223 278 341 395
#     4  10  23  47  69  97 138 180 226 273 340 401
#     4  10  23  41  67 103 139 170 220 283 339 398
#     4  11  22  43  71 101 135 174 227 282 329 402
#
# _framework density 25.644548
#
# number of rings (size 3 to 8) (size 9 to 14) (size 15 to 20)
#    0.000    1.000    3.750    3.750    1.750    2.000 
#    2.250    5.000    0.000    0.000    0.000    0.000 
#    0.000    0.000    0.000    0.000    0.000    0.000 
#
# Total GULP energy -89818.670581 kJ/mol
# GULP energy per Si atom -5613.666911 kJ/mol
# Density = 2.558618 g / cm^3
# Si number density = 25.644548 Si / 1000 Ang^3
#
#
#
# Elastic Constant Matrix: (Units=GPa)
#
#
# Indices 1 2 3 4 5 6 
#
# 1 112.1608 23.5785 17.5468 6.2962 14.4054 15.6309
# 2 23.5785 109.9973 36.0361 -6.7824 2.9355 24.0172
# 3 17.5468 36.0361 86.3057 0.5768 15.8564 4.2612
# 4 6.2962 -6.7824 0.5768 39.1597 -8.5646 7.8082
# 5 14.4054 2.9355 15.8564 -8.5646 33.9091 0.0788
# 6 15.6309 24.0172 4.2612 7.8082 0.0788 53.4640
#
#
#
# Elastic Compliance Matrix: (Units=1/GPa)
#
#
# Indices 1 2 3 4 5 6 
#
# 1 0.010349 -0.001719 -0.000412 -0.002621 -0.004713 -0.001831
# 2 -0.001719 0.012515 -0.005226 0.004281 0.003185 -0.005333
# 3 -0.000412 -0.005226 0.015110 -0.002976 -0.007193 0.001709
# 4 -0.002621 0.004281 -0.002976 0.029923 0.009705 -0.005304
# 5 -0.004713 0.003185 -0.007193 0.009705 0.037034 -0.000951
# 6 -0.001831 -0.005333 0.001709 -0.005304 -0.000951 0.022275
#
#
# Mechanical properties :
#
#
# Convention : Reuss Voigt Hill
#
# Bulk Modulus (GPa) = 42.99622 51.42074 47.20848
# Shear Modulus (GPa) = 33.40545 40.72672 37.06608
#
# Velocity S-wave (km/s) = 3.61312 3.98945 3.80594
# Velocity P-wave (km/s) = 5.84883 6.42774 6.14510
#
# Compressibility (1/GPa) = 0.02325786
#
# Stress axis : x y z
#
# Youngs Moduli (GPa) = 96.62453 79.90222 66.18170
#
# Poissons Ratio (x) = 0.13739 0.02729
# Poissons Ratio (y) = 0.16614 0.34590
# Poissons Ratio (z) = 0.03985 0.41761
#
# Static dielectric constant tensor:
#      x y z
#    x 1.993570 0.010790 -0.093580 
#    y 0.010790 1.974480 0.020380 
#    z -0.093580 0.020380 2.069630 
# 
# From -- ./inp_files/332968.got.cif
#   From: 2010.05.17/outbox.cif.g08.bks.cpg/sg2_167_cif.got.tgz:332968.got - 2010.06.03 11:33:40.
