data_PCOD9038631
_publ_section_title
;
Structure prediction by ZEFSAII (Michael W. Deem and Ramdas Pophale) SiO2 
 PCOD9038631
Probable space group: P -1
;
_chemical_formula_sum "Si O2"
_cell_formula_units_Z 10
_cell_length_a 9.413055
_cell_length_b 7.046615
_cell_length_c 12.071756
_cell_angle_alpha 143.914934
_cell_angle_beta 52.457479
_cell_angle_gamma 110.883002
_cell_volume 357.739957
_symmetry_space_group_name_H-M "P -1"
_symmetry_group_IT_number 2
_symmetry_cell_setting 'triclinic'
loop_
_space_group_symop_operation_xyz
x,y,z
-x,-y,-z
loop_
_atom_site_type_symbol
_atom_site_label
_atom_site_fract_x
_atom_site_fract_y
_atom_site_fract_z
Si Si1 0.133546 0.628349 0.779664
Si Si2 0.647389 0.216040 0.558345
Si Si3 0.931036 0.147223 0.858266
Si Si4 0.265598 0.921049 0.292728
Si Si5 0.591661 0.120474 0.132181
O O1 0.141474 0.312765 0.551791
O O2 0.332460 0.699513 0.718867
O O3 0.105536 0.557644 0.891326
O O4 0.000000 0.000000 0.000000
O O5 0.540590 0.584451 0.739115
O O6 0.500000 0.000000 0.500000
O O7 0.695722 0.207302 0.661586
O O8 0.855168 0.078233 0.341932
O O9 0.842970 0.235998 0.819573
O O10 0.781571 0.963122 0.896183
O O11 0.466567 0.910363 0.143494
#
# Coordination Sequence:
#
# PCOD9038631 Si02
#       5
#     2   2   2   2   2
#     4  10  23  41  72 102 139 180 229 278 348 407
#     4  12  25  45  74 101 142 184 230 288 342 413
#     4  10  26  46  67 109 139 178 236 282 346 413
#     4  12  24  47  74 100 144 182 226 292 346 405
#     4  10  25  46  69 106 135 181 237 276 347 413
#
# _framework density 27.953265999999999
#
# number of rings (size 3 to 8) (size 9 to 14) (size 15 to 20)
#    1.200    0.000    2.000    3.000    2.800    7.200 
#    0.000    0.000    0.000    0.000    0.000    0.000 
#    0.000    0.000    0.000    0.000    0.000    0.000 
#
# Total GULP energy -55958.632385 kJ/mol
# GULP energy per Si atom -5595.863238 kJ/mol
# Density = 2.788964 g / cm^3
# Si number density = 27.953266 Si / 1000 Ang^3
#
#
#
# Elastic Constant Matrix: (Units=GPa)
#
#
# Indices 1 2 3 4 5 6 
#
# 1 204.6302 31.4794 61.8081 -12.1335 -5.1554 10.5041
# 2 31.4794 61.9736 48.0826 4.6659 -15.1899 -7.4450
# 3 61.8081 48.0826 205.1612 -18.6983 -39.6234 5.6897
# 4 -12.1335 4.6659 -18.6983 44.8903 6.5092 -13.8367
# 5 -5.1554 -15.1899 -39.6234 6.5092 72.2652 1.6556
# 6 10.5041 -7.4450 5.6897 -13.8367 1.6556 47.4060
#
#
#
# Elastic Compliance Matrix: (Units=1/GPa)
#
#
# Indices 1 2 3 4 5 6 
#
# 1 0.005717 -0.002402 -0.001189 0.001060 -0.000817 -0.001164
# 2 -0.002402 0.022099 -0.004476 -0.004145 0.002319 0.003249
# 3 -0.001189 -0.004476 0.007033 0.002494 0.002621 -0.000647
# 4 0.001060 -0.004145 0.002494 0.026341 -0.001952 0.006571
# 5 -0.000817 0.002319 0.002621 -0.001952 0.015900 -0.000894
# 6 -0.001164 0.003249 -0.000647 0.006571 -0.000894 0.023889
#
#
# Mechanical properties :
#
#
# Convention : Reuss Voigt Hill
#
# Bulk Modulus (GPa) = 53.42803 83.83392 68.63097
# Shear Modulus (GPa) = 40.53464 54.93861 47.73662
#
# Velocity S-wave (km/s) = 3.81213 4.43806 4.13695
# Velocity P-wave (km/s) = 6.20736 7.50451 6.88654
#
# Compressibility (1/GPa) = 0.01871677
#
# Stress axis : x y z
#
# Youngs Moduli (GPa) = 174.90675 45.25038 142.19476
#
# Poissons Ratio (x) = 0.10869 0.16900
# Poissons Ratio (y) = 0.42011 0.63643
# Poissons Ratio (z) = 0.20788 0.20253
#
# Static dielectric constant tensor:
#      x y z
#    x 2.261000 0.024710 0.057140 
#    y 0.024710 2.275710 -0.104020 
#    z 0.057140 -0.104020 2.228620 
# 
# From -- ./inp_files/131651.got.cif
#   From: 2010.05.17/outbox.cif.g08.bks.cpg/sg2_66_cif.got.tgz:131651.got - 2010.06.03 11:33:40.
