data_PCOD9038964
_publ_section_title
;
Structure prediction by ZEFSAII (Michael W. Deem and Ramdas Pophale) SiO2 
 PCOD9038964
Probable space group: P -1
;
_chemical_formula_sum "Si O2"
_cell_formula_units_Z 16
_cell_length_a 12.037910
_cell_length_b 11.486822
_cell_length_c 13.238204
_cell_angle_alpha 124.115181
_cell_angle_beta 46.693670
_cell_angle_gamma 86.911781
_cell_volume 756.147459
_symmetry_space_group_name_H-M "P -1"
_symmetry_group_IT_number 2
_symmetry_cell_setting 'triclinic'
loop_
_space_group_symop_operation_xyz
x,y,z
-x,-y,-z
loop_
_atom_site_type_symbol
_atom_site_label
_atom_site_fract_x
_atom_site_fract_y
_atom_site_fract_z
Si Si1 0.353880 0.439958 0.268949
Si Si2 0.413616 0.032751 0.738293
Si Si3 0.650648 0.489058 0.087118
Si Si4 0.497087 0.274094 0.884038
Si Si5 0.872244 0.807480 0.665913
Si Si6 0.014164 0.019445 0.619798
Si Si7 0.458395 0.138266 0.220045
Si Si8 0.774020 0.709184 0.196700
O O1 0.437810 0.542766 0.282963
O O2 0.399801 0.315381 0.277236
O O3 0.102742 0.589728 0.457934
O O4 0.505993 0.294132 0.006932
O O5 0.402902 0.183289 0.881662
O O6 0.217527 0.187543 0.853086
O O7 0.462742 0.889417 0.727676
O O8 0.626758 0.877924 0.457501
O O9 0.650608 0.509586 0.974859
O O10 0.657597 0.642176 0.199156
O O11 0.866620 0.249850 0.859396
O O12 0.724241 0.128088 0.607836
O O13 0.761413 0.813273 0.636819
O O14 0.931064 0.932017 0.679563
O O15 0.672102 0.926223 0.928236
O O16 0.000000 0.000000 0.500000
O O17 0.000000 0.500000 0.000000
#
# Coordination Sequence:
#
# PCOD9038964 Si02
#       8
#     2   2   2   2   2   2   2   2
#     4  12  22  38  59  96 130 165 200 245 307 368
#     4  10  23  42  65  88 117 160 203 258 304 358
#     4  11  22  36  60  91 126 156 202 256 305 355
#     4  11  21  36  60  93 129 155 202 250 303 366
#     4  11  23  36  58  89 134 170 199 237 301 369
#     4  12  19  32  56  87 125 162 193 242 300 356
#     4  11  23  41  57  88 128 170 204 243 293 379
#     4  10  23  44  67  90 114 152 209 263 309 357
#
# _framework density 21.159894000000001
#
# number of rings (size 3 to 8) (size 9 to 14) (size 15 to 20)
#    0.000    1.000    3.750    4.500    0.000    3.000 
#    0.000    0.625    0.000    1.500    0.000    0.000 
#    0.000    0.000    0.000    0.000    0.000    0.000 
#
# Total GULP energy -89230.237790 kJ/mol
# GULP energy per Si atom -5576.889862 kJ/mol
# Density = 2.111173 g / cm^3
# Si number density = 21.159894 Si / 1000 Ang^3
#
#
#
# Elastic Constant Matrix: (Units=GPa)
#
#
# Indices 1 2 3 4 5 6 
#
# 1 54.5673 31.4027 15.8933 -2.6489 -6.4972 -16.2485
# 2 31.4027 150.6045 26.2844 3.6136 -4.1224 -25.4949
# 3 15.8933 26.2844 62.6384 10.7055 -19.0029 -13.5306
# 4 -2.6489 3.6136 10.7055 29.9403 -5.5554 -2.4933
# 5 -6.4972 -4.1224 -19.0029 -5.5554 37.0464 5.1774
# 6 -16.2485 -25.4949 -13.5306 -2.4933 5.1774 43.8082
#
#
#
# Elastic Compliance Matrix: (Units=1/GPa)
#
#
# Indices 1 2 3 4 5 6 
#
# 1 0.023419 -0.003365 -0.003532 0.004550 0.001810 0.005683
# 2 -0.003365 0.008215 -0.002276 -0.000475 -0.001328 0.002960
# 3 -0.003532 -0.002276 0.022260 -0.006048 0.009247 0.002804
# 4 0.004550 -0.000475 -0.006048 0.036679 0.002964 0.001280
# 5 0.001810 -0.001328 0.009247 0.002964 0.032478 -0.000915
# 6 0.005683 0.002960 0.002804 0.001280 -0.000915 0.027704
#
#
# Mechanical properties :
#
#
# Convention : Reuss Voigt Hill
#
# Bulk Modulus (GPa) = 28.12882 46.10789 37.11835
# Shear Modulus (GPa) = 27.63207 35.10764 31.36985
#
# Velocity S-wave (km/s) = 3.61760 4.07770 3.85452
# Velocity P-wave (km/s) = 5.54723 6.63383 6.11471
#
# Compressibility (1/GPa) = 0.03555073
#
# Stress axis : x y z
#
# Youngs Moduli (GPa) = 42.69994 121.73278 44.92305
#
# Poissons Ratio (x) = 0.40957 0.15865
# Poissons Ratio (y) = 0.14366 0.10223
# Poissons Ratio (z) = 0.15080 0.27703
#
# Static dielectric constant tensor:
#      x y z
#    x 1.848810 -0.030290 -0.060580 
#    y -0.030290 1.846420 0.029940 
#    z -0.060580 0.029940 1.771590 
# 
# From -- ./inp_files/428672.got.cif
#   From: 2010.05.17/outbox.cif.g08.bks.cpg/sg2_215_cif.got.tgz:428672.got - 2010.06.03 11:33:40.
