data_PCOD9038122
_publ_section_title
;
Structure prediction by ZEFSAII (Michael W. Deem and Ramdas Pophale) SiO2 
 PCOD9038122
Probable space group: P -1
;
_chemical_formula_sum "Si O2"
_cell_formula_units_Z 16
_cell_length_a 15.494118
_cell_length_b 8.010128
_cell_length_c 12.455528
_cell_angle_alpha 113.634712
_cell_angle_beta 151.965999
_cell_angle_gamma 64.882168
_cell_volume 656.589299
_symmetry_space_group_name_H-M "P -1"
_symmetry_group_IT_number 2
_symmetry_cell_setting 'triclinic'
loop_
_space_group_symop_operation_xyz
x,y,z
-x,-y,-z
loop_
_atom_site_type_symbol
_atom_site_label
_atom_site_fract_x
_atom_site_fract_y
_atom_site_fract_z
Si Si1 0.367055 0.119483 0.556649
Si Si2 0.212914 0.642095 0.430693
Si Si3 0.313320 0.481242 0.729036
Si Si4 0.000764 0.015905 0.823811
Si Si5 0.292910 0.073059 0.841133
Si Si6 0.413925 0.256561 0.221980
Si Si7 0.236764 0.290907 0.252910
Si Si8 0.922617 0.211829 0.342939
O O1 0.336278 0.275090 0.654735
O O2 0.392214 0.208814 0.491224
O O3 0.175813 0.036618 0.323059
O O4 0.523424 0.953227 0.720237
O O5 0.269346 0.600454 0.603257
O O6 0.076805 0.832688 0.313744
O O7 0.401927 0.660044 0.580103
O O8 0.132150 0.470622 0.246417
O O9 0.155594 0.577769 0.660425
O O10 0.500000 0.500000 0.000000
O O11 0.094275 0.838747 0.813776
O O12 0.121763 0.128455 0.058330
O O13 0.134885 0.152225 0.601779
O O14 0.208124 0.911743 0.768290
O O15 0.311927 0.230294 0.991449
O O16 0.500000 0.000000 0.000000
O O17 0.306207 0.351904 0.230117
#
# Coordination Sequence:
#
# PCOD9038122 Si02
#       8
#     2   2   2   2   2   2   2   2
#     4  10  24  41  63  93 132 176 215 269 330 399
#     4  10  23  41  66  97 127 167 220 276 327 395
#     4  11  24  43  68  97 139 173 217 277 339 388
#     4  11  22  42  66  93 129 172 219 269 331 391
#     4  11  21  38  67 100 131 170 217 275 335 392
#     4  11  21  40  67  95 126 171 220 267 333 393
#     4  11  22  40  65  94 131 167 220 272 328 393
#     4  11  23  40  66  99 132 171 224 269 329 410
#
# _framework density 24.368354
#
# number of rings (size 3 to 8) (size 9 to 14) (size 15 to 20)
#    0.000    1.250    1.250    6.000    0.000    1.500 
#    0.000    0.625    0.000    0.000    0.000    0.000 
#    0.000    0.000    0.000    0.000    0.000    0.000 
#
# Total GULP energy -89534.979526 kJ/mol
# GULP energy per Si atom -5595.936220 kJ/mol
# Density = 2.431289 g / cm^3
# Si number density = 24.368354 Si / 1000 Ang^3
#
#
#
# Elastic Constant Matrix: (Units=GPa)
#
#
# Indices 1 2 3 4 5 6 
#
# 1 85.8864 22.8161 43.7013 11.1120 -11.7547 -17.1005
# 2 22.8161 64.2655 33.1351 2.3509 -17.8883 -21.6320
# 3 43.7013 33.1351 131.8646 22.2140 -12.7258 -19.2942
# 4 11.1120 2.3509 22.2140 34.3243 -7.6363 -7.2994
# 5 -11.7547 -17.8883 -12.7258 -7.6363 44.2270 8.0864
# 6 -17.1005 -21.6320 -19.2942 -7.2994 8.0864 36.1415
#
#
#
# Elastic Compliance Matrix: (Units=1/GPa)
#
#
# Indices 1 2 3 4 5 6 
#
# 1 0.015047 -0.001868 -0.003654 -0.001344 0.001323 0.003483
# 2 -0.001868 0.023581 -0.003989 0.005364 0.006873 0.010646
# 3 -0.003654 -0.003989 0.010763 -0.005496 -0.000554 0.000644
# 4 -0.001344 0.005364 -0.005496 0.035113 0.005279 0.005552
# 5 0.001323 0.006873 -0.000554 0.005279 0.026574 -0.000435
# 6 0.003483 0.010646 0.000644 0.005552 -0.000435 0.037252
#
#
# Mechanical properties :
#
#
# Convention : Reuss Voigt Hill
#
# Bulk Modulus (GPa) = 32.92761 53.48019 43.20390
# Shear Modulus (GPa) = 28.17296 35.09617 31.63456
#
# Velocity S-wave (km/s) = 3.40388 3.79916 3.60694
# Velocity P-wave (km/s) = 5.38426 6.42176 5.92576
#
# Compressibility (1/GPa) = 0.03036965
#
# Stress axis : x y z
#
# Youngs Moduli (GPa) = 66.45756 42.40737 92.90830
#
# Poissons Ratio (x) = 0.07923 0.33945
# Poissons Ratio (y) = 0.12417 0.37060
# Poissons Ratio (z) = 0.24281 0.16916
#
# Static dielectric constant tensor:
#      x y z
#    x 2.019770 -0.009530 -0.006080 
#    y -0.009530 1.941260 0.013440 
#    z -0.006080 0.013440 1.943770 
# 
# From -- ./inp_files/447955.got.cif
#   From: 2010.05.17/outbox.cif.g08.bks.cpg/sg2_224_cif.got.tgz:447955.got - 2010.06.03 11:33:40.
