data_PCOD9038472
_publ_section_title
;
Structure prediction by ZEFSAII (Michael W. Deem and Ramdas Pophale) SiO2 
 PCOD9038472
Probable space group: P -1
;
_chemical_formula_sum "Si O2"
_cell_formula_units_Z 12
_cell_length_a 11.892512
_cell_length_b 7.780193
_cell_length_c 6.497675
_cell_angle_alpha 73.778157
_cell_angle_beta 122.617552
_cell_angle_gamma 110.104290
_cell_volume 472.156179
_symmetry_space_group_name_H-M "P -1"
_symmetry_group_IT_number 2
_symmetry_cell_setting 'triclinic'
loop_
_space_group_symop_operation_xyz
x,y,z
-x,-y,-z
loop_
_atom_site_type_symbol
_atom_site_label
_atom_site_fract_x
_atom_site_fract_y
_atom_site_fract_z
Si Si1 0.702478 0.492852 0.714689
Si Si2 0.540608 0.333021 0.976647
Si Si3 0.081942 0.244824 0.863902
Si Si4 0.180761 0.779352 0.611213
Si Si5 0.907225 0.292090 0.987103
Si Si6 0.746694 0.828556 0.330996
O O1 0.568343 0.394253 0.744109
O O2 0.762742 0.321608 0.752860
O O3 0.723874 0.640116 0.502938
O O4 0.792276 0.607894 0.954754
O O5 0.403714 0.169120 0.907229
O O6 0.500000 0.500000 0.000000
O O7 0.677682 0.286053 0.219642
O O8 0.150144 0.170929 0.758975
O O9 0.952634 0.317092 0.619102
O O10 0.993073 0.163925 0.008059
O O11 0.210370 0.998966 0.531144
O O12 0.125152 0.763412 0.794092
O O13 0.000000 0.500000 0.000000
#
# Coordination Sequence:
#
# PCOD9038472 Si02
#       6
#     2   2   2   2   2   2
#     4  10  23  41  69  99 130 172 223 277 321 387
#     4  11  24  48  69  93 129 183 227 267 325 395
#     4  11  22  41  69  97 137 165 224 262 338 391
#     4  11  26  43  67 100 137 174 214 278 332 390
#     4   9  21  38  62  99 129 172 214 266 320 385
#     4  12  25  43  68  99 139 171 217 275 336 386
#
# _framework density 25.415322
#
# number of rings (size 3 to 8) (size 9 to 14) (size 15 to 20)
#    0.000    1.333    1.667    3.500    2.333    9.333 
#    0.000    0.833    0.000    0.000    0.000    0.000 
#    0.000    0.000    0.000    0.000    0.000    0.000 
#
# Total GULP energy -66890.343682 kJ/mol
# GULP energy per Si atom -5574.195307 kJ/mol
# Density = 2.535748 g / cm^3
# Si number density = 25.415322 Si / 1000 Ang^3
#
#
#
# Elastic Constant Matrix: (Units=GPa)
#
#
# Indices 1 2 3 4 5 6 
#
# 1 206.4428 28.1957 34.5898 -4.1398 1.1010 -21.9277
# 2 28.1957 58.4374 8.7871 13.7494 7.7526 -24.0234
# 3 34.5898 8.7871 99.5411 4.7800 21.4462 5.2700
# 4 -4.1398 13.7494 4.7800 27.0893 9.7235 -3.0467
# 5 1.1010 7.7526 21.4462 9.7235 30.3783 -1.3244
# 6 -21.9277 -24.0234 5.2700 -3.0467 -1.3244 31.4243
#
#
#
# Elastic Compliance Matrix: (Units=1/GPa)
#
#
# Indices 1 2 3 4 5 6 
#
# 1 0.005903 -0.001725 -0.002502 0.002080 0.001479 0.003483
# 2 -0.001725 0.029873 -0.002313 -0.012289 -0.001088 0.020784
# 3 -0.002502 -0.002313 0.013414 0.001123 -0.009412 -0.006051
# 4 0.002080 -0.012289 0.001123 0.047523 -0.013121 -0.004077
# 5 0.001479 -0.001088 -0.009412 -0.013121 0.044090 0.002364
# 6 0.003483 0.020784 -0.006051 -0.004077 0.002364 0.050861
#
#
# Mechanical properties :
#
#
# Convention : Reuss Voigt Hill
#
# Bulk Modulus (GPa) = 27.69430 56.39627 42.04528
# Shear Modulus (GPa) = 23.06488 37.30165 30.18326
#
# Velocity S-wave (km/s) = 3.01577 3.83519 3.44990
# Velocity P-wave (km/s) = 4.80072 6.46913 5.69634
#
# Compressibility (1/GPa) = 0.03610852
#
# Stress axis : x y z
#
# Youngs Moduli (GPa) = 169.41749 33.47546 74.54953
#
# Poissons Ratio (x) = 0.05776 0.18650
# Poissons Ratio (y) = 0.29232 0.17245
# Poissons Ratio (z) = 0.42382 0.07744
#
# Static dielectric constant tensor:
#      x y z
#    x 2.101460 -0.071470 -0.011060 
#    y -0.071470 2.122090 0.056640 
#    z -0.011060 0.056640 2.159080 
# 
# From -- ./inp_files/60263.got.cif
#   From: 2010.05.17/outbox.cif.g08.bks.cpg/sg2_31_cif.got.tgz:60263.got - 2010.06.03 11:33:40.
