data_PCOD9038830
_publ_section_title
;
Structure prediction by ZEFSAII (Michael W. Deem and Ramdas Pophale) SiO2 
 PCOD9038830
Probable space group: P -1
;
_chemical_formula_sum "Si O2"
_cell_formula_units_Z 10
_cell_length_a 5.201491
_cell_length_b 7.708525
_cell_length_c 11.442071
_cell_angle_alpha 114.880510
_cell_angle_beta 119.072725
_cell_angle_gamma 91.736511
_cell_volume 347.451413
_symmetry_space_group_name_H-M "P -1"
_symmetry_group_IT_number 2
_symmetry_cell_setting 'triclinic'
loop_
_space_group_symop_operation_xyz
x,y,z
-x,-y,-z
loop_
_atom_site_type_symbol
_atom_site_label
_atom_site_fract_x
_atom_site_fract_y
_atom_site_fract_z
Si Si1 0.346119 0.991871 0.091906
Si Si2 0.128321 0.838989 0.292268
Si Si3 0.010643 0.759196 0.674546
Si Si4 0.223927 0.579090 0.886265
Si Si5 0.688380 0.680491 0.351877
O O1 0.628605 0.154859 0.261541
O O2 0.331947 0.762746 0.050823
O O3 0.500000 0.000000 0.000000
O O4 0.000000 0.000000 0.000000
O O5 0.460946 0.811459 0.357330
O O6 0.916450 0.626615 0.134952
O O7 0.983162 0.811294 0.381533
O O8 0.092789 0.036728 0.280672
O O9 0.992179 0.639931 0.758799
O O10 0.802162 0.635473 0.490676
O O11 0.432851 0.514348 0.813912
#
# Coordination Sequence:
#
# PCOD9038830 Si02
#       5
#     2   2   2   2   2
#     4  10  24  41  63  92 124 161 211 254 304 373
#     4  10  24  40  64  95 129 157 211 257 304 372
#     4  11  22  43  67  91 125 174 198 256 321 358
#     4   9  24  42  64  92 127 160 214 254 304 370
#     4  10  23  42  63  95 129 157 211 259 301 372
#
# _framework density 28.781003999999999
#
# number of rings (size 3 to 8) (size 9 to 14) (size 15 to 20)
#    1.200    0.800    0.000    1.800    5.600    8.000 
#    0.000    1.000    0.000    0.000    0.000    0.000 
#    0.000    0.000    0.000    0.000    0.000    0.000 
#
# Total GULP energy -55876.820661 kJ/mol
# GULP energy per Si atom -5587.682066 kJ/mol
# Density = 2.871550 g / cm^3
# Si number density = 28.781004 Si / 1000 Ang^3
#
#
#
# Elastic Constant Matrix: (Units=GPa)
#
#
# Indices 1 2 3 4 5 6 
#
# 1 156.9780 39.4637 24.6444 -15.7547 22.4950 -41.0035
# 2 39.4637 182.3569 27.6543 -11.3669 2.4498 -39.8236
# 3 24.6444 27.6543 145.5388 -6.8211 6.3250 -12.1271
# 4 -15.7547 -11.3669 -6.8211 65.3202 -0.1622 -2.9402
# 5 22.4950 2.4498 6.3250 -0.1622 33.8133 -16.4201
# 6 -41.0035 -39.8236 -12.1271 -2.9402 -16.4201 57.5775
#
#
#
# Elastic Compliance Matrix: (Units=1/GPa)
#
#
# Indices 1 2 3 4 5 6 
#
# 1 0.008522 -0.000524 -0.000711 0.002096 -0.003178 0.004757
# 2 -0.000524 0.006846 -0.000849 0.001204 0.002413 0.004932
# 3 -0.000711 -0.000849 0.007225 0.000445 -0.000692 0.000253
# 4 0.002096 0.001204 0.000445 0.016219 0.000104 0.003277
# 5 -0.003178 0.002413 -0.000692 0.000104 0.036316 0.009622
# 6 0.004757 0.004932 0.000253 0.003277 0.009622 0.027132
#
#
# Mechanical properties :
#
#
# Convention : Reuss Voigt Hill
#
# Bulk Modulus (GPa) = 54.27683 74.26650 64.27167
# Shear Modulus (GPa) = 44.41708 57.54961 50.98334
#
# Velocity S-wave (km/s) = 3.93272 4.47651 4.21339
# Velocity P-wave (km/s) = 6.28659 7.25113 6.78602
#
# Compressibility (1/GPa) = 0.01842407
#
# Stress axis : x y z
#
# Youngs Moduli (GPa) = 117.34085 146.07572 138.41190
#
# Poissons Ratio (x) = 0.07657 0.09837
# Poissons Ratio (y) = 0.06151 0.11758
# Poissons Ratio (z) = 0.08339 0.12409
#
# Static dielectric constant tensor:
#      x y z
#    x 2.396690 0.001790 0.023200 
#    y 0.001790 2.304080 0.115550 
#    z 0.023200 0.115550 2.389060 
# 
# From -- ./inp_files/18168.got.cif
#   From: 2010.05.17/outbox.cif.g08.bks.cpg/sg2_10_cif.got.tgz:18168.got - 2010.06.03 11:33:40.
