data_PCOD9038134
_publ_section_title
;
Structure prediction by ZEFSAII (Michael W. Deem and Ramdas Pophale) SiO2 
 PCOD9038134
Probable space group: P -1
;
_chemical_formula_sum "Si O2"
_cell_formula_units_Z 16
_cell_length_a 9.628215
_cell_length_b 11.903882
_cell_length_c 9.008891
_cell_angle_alpha 84.850169
_cell_angle_beta 130.144490
_cell_angle_gamma 93.217428
_cell_volume 786.105018
_symmetry_space_group_name_H-M "P -1"
_symmetry_group_IT_number 2
_symmetry_cell_setting 'triclinic'
loop_
_space_group_symop_operation_xyz
x,y,z
-x,-y,-z
loop_
_atom_site_type_symbol
_atom_site_label
_atom_site_fract_x
_atom_site_fract_y
_atom_site_fract_z
Si Si1 0.586056 0.890380 0.492742
Si Si2 0.994139 0.126695 0.915490
Si Si3 0.348823 0.274470 0.189549
Si Si4 0.672179 0.219093 0.224693
Si Si5 0.602254 0.479512 0.857322
Si Si6 0.672283 0.226374 0.875336
Si Si7 0.128425 0.968412 0.457108
Si Si8 0.202264 0.542271 0.683146
O O1 0.561543 0.787530 0.601112
O O2 0.489907 0.853122 0.280842
O O3 0.500000 0.000000 0.500000
O O4 0.789725 0.924072 0.584604
O O5 0.834797 0.189597 0.885401
O O6 0.960779 0.108914 0.720436
O O7 0.170147 0.202028 0.050341
O O8 0.000000 0.000000 0.000000
O O9 0.472468 0.261395 0.129020
O O10 0.331364 0.407135 0.191092
O O11 0.710533 0.104520 0.350882
O O12 0.798246 0.322136 0.353309
O O13 0.702452 0.204731 0.072908
O O14 0.632975 0.359197 0.817272
O O15 0.382960 0.493616 0.729385
O O16 0.725882 0.476424 0.094633
O O17 0.000000 0.000000 0.500000
O O18 0.000000 0.500000 0.500000
#
# Coordination Sequence:
#
# PCOD9038134 Si02
#       8
#     2   2   2   2   2   2   2   2
#     4  12  23  45  65  92 134 177 214 282 346 399
#     4  12  24  43  66  95 136 177 219 285 340 400
#     4  11  23  43  68  94 137 176 220 276 343 403
#     4  10  23  41  66  98 129 172 223 274 335 407
#     4   9  22  42  64 104 135 177 230 280 340 407
#     4  11  24  44  67  95 139 170 223 284 338 403
#     4  12  26  41  64  98 127 167 236 269 337 414
#     4   9  19  40  68  97 140 178 224 281 335 401
#
# _framework density 20.353514000000001
#
# number of rings (size 3 to 8) (size 9 to 14) (size 15 to 20)
#    0.000    1.250    3.750    1.500    3.500    2.500 
#    2.250    0.000    0.000    0.000    0.000    0.000 
#    0.000    0.000    0.000    0.000    0.000    0.000 
#
# Total GULP energy -89252.659900 kJ/mol
# GULP energy per Si atom -5578.291244 kJ/mol
# Density = 2.030719 g / cm^3
# Si number density = 20.353514 Si / 1000 Ang^3
#
#
#
# Elastic Constant Matrix: (Units=GPa)
#
#
# Indices 1 2 3 4 5 6 
#
# 1 95.1887 38.0447 33.5327 15.2400 -2.2312 -5.9388
# 2 38.0447 144.3313 38.4384 4.7044 -3.4174 -0.3847
# 3 33.5327 38.4384 80.5161 21.3227 9.2353 -5.3291
# 4 15.2400 4.7044 21.3227 36.3257 10.8295 -0.8657
# 5 -2.2312 -3.4174 9.2353 10.8295 34.9146 9.2653
# 6 -5.9388 -0.3847 -5.3291 -0.8657 9.2653 38.7486
#
#
#
# Elastic Compliance Matrix: (Units=1/GPa)
#
#
# Indices 1 2 3 4 5 6 
#
# 1 0.013502 -0.002385 -0.003682 -0.003952 0.002610 0.000827
# 2 -0.002385 0.008536 -0.003757 0.001638 0.001464 -0.001111
# 3 -0.003682 -0.003757 0.018360 -0.007540 -0.003829 0.002671
# 4 -0.003952 0.001638 -0.007540 0.036352 -0.009777 0.001524
# 5 0.002610 0.001464 -0.003829 -0.009777 0.035326 -0.008778
# 6 0.000827 -0.001111 0.002671 0.001524 -0.008778 0.028423
#
#
# Mechanical properties :
#
#
# Convention : Reuss Voigt Hill
#
# Bulk Modulus (GPa) = 48.19583 60.00754 54.10168
# Shear Modulus (GPa) = 29.92869 35.99913 32.96391
#
# Velocity S-wave (km/s) = 3.83880 4.21015 4.02875
# Velocity P-wave (km/s) = 6.58629 7.29249 6.94837
#
# Compressibility (1/GPa) = 0.02074868
#
# Stress axis : x y z
#
# Youngs Moduli (GPa) = 74.06561 117.14936 54.46712
#
# Poissons Ratio (x) = 0.27946 0.20055
# Poissons Ratio (y) = 0.17668 0.20462
# Poissons Ratio (z) = 0.27272 0.44010
#
# Static dielectric constant tensor:
#      x y z
#    x 1.681680 -0.001460 -0.036030 
#    y -0.001460 1.721930 -0.027480 
#    z -0.036030 -0.027480 1.774400 
# 
# From -- ./inp_files/188025.got.cif
#   From: 2010.05.17/outbox.cif.g08.bks.cpg/sg2_95_cif.got.tgz:188025.got - 2010.06.03 11:33:40.
