data_PCOD9038792
_publ_section_title
;
Structure prediction by ZEFSAII (Michael W. Deem and Ramdas Pophale) SiO2 
 PCOD9038792
Probable space group: P -1
;
_chemical_formula_sum "Si O2"
_cell_formula_units_Z 16
_cell_length_a 11.116313
_cell_length_b 12.030155
_cell_length_c 10.623083
_cell_angle_alpha 125.144301
_cell_angle_beta 57.192921
_cell_angle_gamma 78.699280
_cell_volume 657.874163
_symmetry_space_group_name_H-M "P -1"
_symmetry_group_IT_number 2
_symmetry_cell_setting 'triclinic'
loop_
_space_group_symop_operation_xyz
x,y,z
-x,-y,-z
loop_
_atom_site_type_symbol
_atom_site_label
_atom_site_fract_x
_atom_site_fract_y
_atom_site_fract_z
Si Si1 0.129575 0.769741 0.253224
Si Si2 0.794024 0.779847 0.362981
Si Si3 0.387164 0.189618 0.960571
Si Si4 0.890903 0.960344 0.120937
Si Si5 0.867226 0.213802 0.459037
Si Si6 0.482182 0.379033 0.198000
Si Si7 0.014270 0.405654 0.130681
Si Si8 0.339498 0.942374 0.922876
O O1 0.210472 0.685457 0.294419
O O2 0.978108 0.756314 0.283894
O O3 0.317803 0.668640 0.983940
O O4 0.000000 0.000000 0.500000
O O5 0.840656 0.691323 0.140460
O O6 0.571427 0.012405 0.646512
O O7 0.818574 0.639627 0.358421
O O8 0.157404 0.357577 0.134148
O O9 0.459871 0.275936 0.040219
O O10 0.383939 0.070915 0.987861
O O11 0.020191 0.731050 0.918696
O O12 0.843789 0.069622 0.349273
O O13 0.693935 0.058145 0.208125
O O14 0.000000 0.000000 0.000000
O O15 0.727491 0.385939 0.545400
O O16 0.113005 0.079472 0.212087
O O17 0.516061 0.274244 0.239017
#
# Coordination Sequence:
#
# PCOD9038792 Si02
#       8
#     2   2   2   2   2   2   2   2
#     4  12  22  42  68  94 132 170 211 272 324 378
#     4  11  23  42  66  95 133 171 215 269 320 383
#     4  11  23  41  64  95 131 167 217 263 321 390
#     4   9  21  41  66  90 130 169 213 264 315 381
#     4  11  23  42  64  95 129 169 213 267 322 380
#     4  12  25  40  67  97 128 171 216 263 326 387
#     4  10  23  42  64  95 128 174 217 264 327 378
#     4  10  23  42  62  94 127 174 215 262 325 378
#
# _framework density 24.32076
#
# number of rings (size 3 to 8) (size 9 to 14) (size 15 to 20)
#    0.000    1.250    2.500    2.625    1.750    4.000 
#    9.000    0.000    0.000    0.000    0.000    0.000 
#    0.000    0.000    0.000    0.000    0.000    0.000 
#
# Total GULP energy -89517.125486 kJ/mol
# GULP energy per Si atom -5594.820343 kJ/mol
# Density = 2.426540 g / cm^3
# Si number density = 24.320760 Si / 1000 Ang^3
#
#
#
# Elastic Constant Matrix: (Units=GPa)
#
#
# Indices 1 2 3 4 5 6 
#
# 1 58.2390 20.4188 -5.2426 0.1985 3.1406 4.2552
# 2 20.4188 130.6124 11.2013 15.9921 -12.5105 2.9701
# 3 -5.2426 11.2013 42.7095 14.1763 -4.0232 2.4786
# 4 0.1985 15.9921 14.1763 44.2386 -4.1720 2.3072
# 5 3.1406 -12.5105 -4.0232 -4.1720 22.0090 -0.3290
# 6 4.2552 2.9701 2.4786 2.3072 -0.3290 37.8134
#
#
#
# Elastic Compliance Matrix: (Units=1/GPa)
#
#
# Indices 1 2 3 4 5 6 
#
# 1 0.019087 -0.003597 0.003022 -0.000046 -0.004256 -0.002098
# 2 -0.003597 0.009113 -0.001601 -0.002296 0.004965 -0.000023
# 3 0.003022 -0.001601 0.027092 -0.007840 0.002103 -0.001494
# 4 -0.000046 -0.002296 -0.007840 0.026203 0.002222 -0.000880
# 5 -0.004256 0.004965 0.002103 0.002222 0.049675 0.000248
# 6 -0.002098 -0.000023 -0.001494 -0.000880 0.000248 0.026837
#
#
# Mechanical properties :
#
#
# Convention : Reuss Voigt Hill
#
# Bulk Modulus (GPa) = 19.63065 31.59067 25.61066
# Shear Modulus (GPa) = 27.88022 34.49108 31.18565
#
# Velocity S-wave (km/s) = 3.38946 3.76995 3.58476
# Velocity P-wave (km/s) = 4.83808 5.65397 5.26186
#
# Compressibility (1/GPa) = 0.05094076
#
# Stress axis : x y z
#
# Youngs Moduli (GPa) = 52.39191 109.73186 36.91132
#
# Poissons Ratio (x) = 0.39475 -0.11156
# Poissons Ratio (y) = 0.18848 0.05908
# Poissons Ratio (z) = -0.15835 0.17563
#
# Static dielectric constant tensor:
#      x y z
#    x 1.963520 -0.019240 0.019710 
#    y -0.019240 2.015920 -0.007120 
#    z 0.019710 -0.007120 1.921730 
# 
# From -- ./inp_files/428884.got.cif
#   From: 2010.05.17/outbox.cif.g08.bks.cpg/sg2_215_cif.got.tgz:428884.got - 2010.06.03 11:33:40.
