data_PCOD9038994
_publ_section_title
;
Structure prediction by ZEFSAII (Michael W. Deem and Ramdas Pophale) SiO2 
 PCOD9038994
Probable space group: P -1
;
_chemical_formula_sum "Si O2"
_cell_formula_units_Z 16
_cell_length_a 12.062518
_cell_length_b 9.151923
_cell_length_c 15.144478
_cell_angle_alpha 48.922443
_cell_angle_beta 139.937986
_cell_angle_gamma 105.911790
_cell_volume 715.341692
_symmetry_space_group_name_H-M "P -1"
_symmetry_group_IT_number 2
_symmetry_cell_setting 'triclinic'
loop_
_space_group_symop_operation_xyz
x,y,z
-x,-y,-z
loop_
_atom_site_type_symbol
_atom_site_label
_atom_site_fract_x
_atom_site_fract_y
_atom_site_fract_z
Si Si1 0.234042 0.597363 0.961127
Si Si2 0.807666 0.503928 0.838495
Si Si3 0.905824 0.625774 0.171277
Si Si4 0.117552 0.984696 0.487465
Si Si5 0.449087 0.806174 0.060996
Si Si6 0.252178 0.882117 0.093204
Si Si7 0.326309 0.246153 0.518486
Si Si8 0.176959 0.525022 0.637225
O O1 0.212764 0.420807 0.959266
O O2 0.305888 0.492759 0.142689
O O3 0.364960 0.713534 0.968768
O O4 0.020282 0.809253 0.740652
O O5 0.840877 0.282275 0.895427
O O6 0.698447 0.690109 0.625645
O O7 0.000000 0.500000 0.000000
O O8 0.804739 0.592835 0.210580
O O9 0.132922 0.439604 0.372282
O O10 0.878952 0.869744 0.054571
O O11 0.154888 0.762045 0.551433
O O12 0.300202 0.028122 0.601893
O O13 0.000000 0.000000 0.500000
O O14 0.296304 0.889500 0.013457
O O15 0.654833 0.594964 0.284426
O O16 0.500000 0.000000 0.000000
O O17 0.466611 0.784980 0.307931
O O18 0.000000 0.500000 0.500000
#
# Coordination Sequence:
#
# PCOD9038994 Si02
#       8
#     2   2   2   2   2   2   2   2
#     4  10  23  42  65  94 132 172 226 269 338 395
#     4  11  22  48  72  93 135 180 221 286 338 392
#     4  11  23  42  68  99 135 178 220 275 338 399
#     4  11  22  38  65  96 132 174 216 274 328 403
#     4  11  23  39  62  92 136 178 212 273 329 397
#     4  11  26  43  70 101 132 176 233 274 336 403
#     4  11  24  45  72  98 136 176 226 282 334 394
#     4  12  24  37  61  97 139 180 221 266 334 408
#
# _framework density 22.366934000000001
#
# number of rings (size 3 to 8) (size 9 to 14) (size 15 to 20)
#    0.000    1.000    6.250    1.875    5.250    1.000 
#    0.000    0.625    2.750    0.000    0.000    0.000 
#    0.000    0.000    0.000    0.000    0.000    0.000 
#
# Total GULP energy -89215.281606 kJ/mol
# GULP energy per Si atom -5575.955100 kJ/mol
# Density = 2.231603 g / cm^3
# Si number density = 22.366934 Si / 1000 Ang^3
#
#
#
# Elastic Constant Matrix: (Units=GPa)
#
#
# Indices 1 2 3 4 5 6 
#
# 1 54.0137 20.6194 9.7222 -5.5718 -11.6291 -2.4482
# 2 20.6194 214.0528 42.0909 -0.6458 10.1289 12.1424
# 3 9.7222 42.0909 49.3112 6.4204 1.6549 -0.0307
# 4 -5.5718 -0.6458 6.4204 38.0624 2.8946 6.8632
# 5 -11.6291 10.1289 1.6549 2.8946 42.0992 0.6833
# 6 -2.4482 12.1424 -0.0307 6.8632 0.6833 37.8031
#
#
#
# Elastic Compliance Matrix: (Units=1/GPa)
#
#
# Indices 1 2 3 4 5 6 
#
# 1 0.021507 -0.001782 -0.003315 0.002964 0.006275 0.001311
# 2 -0.001782 0.006020 -0.004885 0.001206 -0.001795 -0.002239
# 3 -0.003315 -0.004885 0.025810 -0.005312 -0.000428 0.002348
# 4 0.002964 0.001206 -0.005312 0.028681 -0.001147 -0.005386
# 5 0.006275 -0.001795 -0.000428 -0.001147 0.026003 0.000721
# 6 0.001311 -0.002239 0.002348 -0.005386 0.000721 0.028224
#
#
# Mechanical properties :
#
#
# Convention : Reuss Voigt Hill
#
# Bulk Modulus (GPa) = 29.96438 51.36030 40.66234
# Shear Modulus (GPa) = 29.88066 39.92262 34.90164
#
# Velocity S-wave (km/s) = 3.65900 4.22938 3.95449
# Velocity P-wave (km/s) = 5.59257 6.84563 6.25058
#
# Compressibility (1/GPa) = 0.03337296
#
# Stress axis : x y z
#
# Youngs Moduli (GPa) = 46.49656 166.12412 38.74470
#
# Poissons Ratio (x) = 0.29609 0.12842
# Poissons Ratio (y) = 0.08287 0.18926
# Poissons Ratio (z) = 0.15412 0.81150
#
# Static dielectric constant tensor:
#      x y z
#    x 1.925140 0.022970 -0.007910 
#    y 0.022970 1.788390 0.064880 
#    z -0.007910 0.064880 1.900240 
# 
# From -- ./inp_files/333211.got.cif
#   From: 2010.05.17/outbox.cif.g08.bks.cpg/sg2_167_cif.got.tgz:333211.got - 2010.06.03 11:33:40.
