data_PCOD9038196
_publ_section_title
;
Structure prediction by ZEFSAII (Michael W. Deem and Ramdas Pophale) SiO2 
 PCOD9038196
Probable space group: P -1
;
_chemical_formula_sum "Si O2"
_cell_formula_units_Z 16
_cell_length_a 9.039461
_cell_length_b 14.187765
_cell_length_c 9.455343
_cell_angle_alpha 140.592956
_cell_angle_beta 68.219127
_cell_angle_gamma 109.335760
_cell_volume 712.829892
_symmetry_space_group_name_H-M "P -1"
_symmetry_group_IT_number 2
_symmetry_cell_setting 'triclinic'
loop_
_space_group_symop_operation_xyz
x,y,z
-x,-y,-z
loop_
_atom_site_type_symbol
_atom_site_label
_atom_site_fract_x
_atom_site_fract_y
_atom_site_fract_z
Si Si1 0.104169 0.392584 0.254482
Si Si2 0.959686 0.637684 0.075599
Si Si3 0.382460 0.468254 0.871755
Si Si4 0.470771 0.850852 0.934262
Si Si5 0.169603 0.147308 0.145094
Si Si6 0.723624 0.200069 0.776763
Si Si7 0.653928 0.364240 0.497501
Si Si8 0.836258 0.146091 0.370664
O O1 0.098347 0.230435 0.132723
O O2 0.279288 0.465321 0.312259
O O3 0.000000 0.500000 0.500000
O O4 0.035878 0.400828 0.133897
O O5 0.771376 0.642259 0.167100
O O6 0.090938 0.771988 0.210066
O O7 0.000000 0.500000 0.000000
O O8 0.473161 0.375914 0.618908
O O9 0.500000 0.500000 0.000000
O O10 0.333774 0.631896 0.031320
O O11 0.649286 0.795351 0.818592
O O12 0.352297 0.728706 0.752447
O O13 0.389765 0.872951 0.143393
O O14 0.500000 0.000000 0.000000
O O15 0.031430 0.164652 0.332394
O O16 0.187800 0.983407 0.887404
O O17 0.743048 0.123392 0.526673
O O18 0.757966 0.284186 0.484952
#
# Coordination Sequence:
#
# PCOD9038196 Si02
#       8
#     2   2   2   2   2   2   2   2
#     4  12  23  40  73 102 137 191 235 287 358 430
#     4  10  23  41  67 108 149 177 231 300 355 426
#     4  11  21  40  71 112 140 181 242 296 356 431
#     4  12  28  50  71 104 146 191 245 308 357 429
#     4  11  27  45  74 105 146 188 247 292 368 428
#     4  11  25  45  74 105 146 189 246 297 361 429
#     4  12  23  44  74 101 146 187 237 297 366 426
#     4  11  24  49  73 101 144 197 236 293 361 448
#
# _framework density 22.445747999999998
#
# number of rings (size 3 to 8) (size 9 to 14) (size 15 to 20)
#    0.000    0.750    5.000    2.250    1.750    3.500 
#    2.250    1.250    0.000    0.000    0.000    0.000 
#    0.000    0.000    0.000    0.000    0.000    0.000 
#
# Total GULP energy -89195.176733 kJ/mol
# GULP energy per Si atom -5574.698546 kJ/mol
# Density = 2.239466 g / cm^3
# Si number density = 22.445748 Si / 1000 Ang^3
#
#
#
# Elastic Constant Matrix: (Units=GPa)
#
#
# Indices 1 2 3 4 5 6 
#
# 1 92.0619 17.6592 10.2965 -15.7232 2.6922 7.9088
# 2 17.6592 95.0481 26.6204 -20.9962 -5.1153 -6.3457
# 3 10.2965 26.6204 71.3338 -23.3852 -12.0369 -5.4173
# 4 -15.7232 -20.9962 -23.3852 41.5992 4.8080 -5.3893
# 5 2.6922 -5.1153 -12.0369 4.8080 37.2802 -3.0058
# 6 7.9088 -6.3457 -5.4173 -5.3893 -3.0058 33.9892
#
#
#
# Elastic Compliance Matrix: (Units=1/GPa)
#
#
# Indices 1 2 3 4 5 6 
#
# 1 0.012108 -0.001658 -0.000612 0.003247 -0.001951 -0.002882
# 2 -0.001658 0.012861 -0.002666 0.004698 0.000673 0.003167
# 3 -0.000612 -0.002666 0.019376 0.009329 0.005107 0.004664
# 4 0.003247 0.004698 0.009329 0.033825 -0.000381 0.006938
# 5 -0.001951 0.000673 0.005107 -0.000381 0.029070 0.003904
# 6 -0.002882 0.003167 0.004664 0.006938 0.003904 0.032872
#
#
# Mechanical properties :
#
#
# Convention : Reuss Voigt Hill
#
# Bulk Modulus (GPa) = 29.00840 40.84401 34.92620
# Shear Modulus (GPa) = 30.96427 36.16489 33.56458
#
# Velocity S-wave (km/s) = 3.71821 4.01835 3.87119
# Velocity P-wave (km/s) = 5.60226 6.30601 5.96452
#
# Compressibility (1/GPa) = 0.03447278
#
# Stress axis : x y z
#
# Youngs Moduli (GPa) = 82.58946 77.75308 51.60932
#
# Poissons Ratio (x) = 0.12893 0.03161
# Poissons Ratio (y) = 0.13694 0.13758
# Poissons Ratio (z) = 0.05058 0.20728
#
# Static dielectric constant tensor:
#      x y z
#    x 1.843390 -0.010130 -0.067190 
#    y -0.010130 1.586870 -0.110570 
#    z -0.067190 -0.110570 1.792760 
# 
# From -- ./inp_files/209214.got.cif
#   From: 2010.05.17/outbox.cif.g08.bks.cpg/sg2_105_cif.got.tgz:209214.got - 2010.06.03 11:33:40.
