data_PCOD9038957
_publ_section_title
;
Structure prediction by ZEFSAII (Michael W. Deem and Ramdas Pophale) SiO2 
 PCOD9038957
Probable space group: P -1
;
_chemical_formula_sum "Si O2"
_cell_formula_units_Z 14
_cell_length_a 11.056705
_cell_length_b 10.943273
_cell_length_c 8.393435
_cell_angle_alpha 56.733052
_cell_angle_beta 69.131769
_cell_angle_gamma 38.812270
_cell_volume 527.285401
_symmetry_space_group_name_H-M "P -1"
_symmetry_group_IT_number 2
_symmetry_cell_setting 'triclinic'
loop_
_space_group_symop_operation_xyz
x,y,z
-x,-y,-z
loop_
_atom_site_type_symbol
_atom_site_label
_atom_site_fract_x
_atom_site_fract_y
_atom_site_fract_z
Si Si1 0.830967 0.395903 0.510494
Si Si2 0.745893 0.098219 0.286802
Si Si3 0.555831 0.864702 0.730095
Si Si4 0.384409 0.292554 0.876435
Si Si5 0.282226 0.826684 0.388299
Si Si6 0.917182 0.468953 0.698965
Si Si7 0.908498 0.262213 0.097621
O O1 0.772072 0.577769 0.288768
O O2 0.732257 0.330859 0.541603
O O3 0.767353 0.496408 0.645028
O O4 0.058464 0.164365 0.595052
O O5 0.587216 0.152680 0.215221
O O6 0.672055 0.191436 0.434492
O O7 0.816227 0.193904 0.116372
O O8 0.787362 0.670432 0.734452
O O9 0.500000 0.000000 0.500000
O O10 0.547995 0.895581 0.902499
O O11 0.568380 0.214969 0.764775
O O12 0.263187 0.502902 0.903486
O O13 0.067199 0.074710 0.283555
O O14 0.000000 0.500000 0.500000
O O15 0.018417 0.267030 0.910074
#
# Coordination Sequence:
#
# PCOD9038957 Si02
#       7
#     2   2   2   2   2   2   2
#     4  11  22  42  67 100 133 171 219 273 332 389
#     4  11  22  43  71  97 141 166 219 281 325 398
#     4  11  27  46  64  98 134 177 225 273 328 396
#     4  11  23  41  69  98 134 173 221 272 333 395
#     4  11  22  39  71 101 139 167 219 276 332 395
#     4  11  26  44  67  94 138 177 224 271 330 396
#     4  10  23  42  65 105 131 173 220 274 335 387
#
# _framework density 26.551085
#
# number of rings (size 3 to 8) (size 9 to 14) (size 15 to 20)
#    0.000    1.143    2.857    3.000    8.000    2.286 
#    2.571    3.571    0.000    0.000    0.000    0.000 
#    0.000    0.000    0.000    0.000    0.000    0.000 
#
# Total GULP energy -78185.405734 kJ/mol
# GULP energy per Si atom -5584.671838 kJ/mol
# Density = 2.649065 g / cm^3
# Si number density = 26.551085 Si / 1000 Ang^3
#
#
#
# Elastic Constant Matrix: (Units=GPa)
#
#
# Indices 1 2 3 4 5 6 
#
# 1 54.2007 2.2706 3.4545 8.8505 0.2157 -11.8794
# 2 2.2706 52.3534 6.7057 13.8423 -15.6544 -20.8907
# 3 3.4545 6.7057 184.6304 11.7936 -4.9441 -5.1243
# 4 8.8505 13.8423 11.7936 46.9005 -6.4445 3.3698
# 5 0.2157 -15.6544 -4.9441 -6.4445 47.0581 4.4911
# 6 -11.8794 -20.8907 -5.1243 3.3698 4.4911 35.9650
#
#
#
# Elastic Compliance Matrix: (Units=1/GPa)
#
#
# Indices 1 2 3 4 5 6 
#
# 1 0.021603 0.004856 0.000110 -0.006349 -0.000354 0.010611
# 2 0.004856 0.032023 0.000200 -0.010888 0.007218 0.020352
# 3 0.000110 0.000200 0.005541 -0.001501 0.000343 0.001040
# 4 -0.006349 -0.010888 -0.001501 0.027065 0.001034 -0.011300
# 5 -0.000354 0.007218 0.000343 0.001034 0.023729 0.001065
# 6 0.010611 0.020352 0.001040 -0.011300 0.001065 0.044205
#
#
# Mechanical properties :
#
#
# Convention : Reuss Voigt Hill
#
# Bulk Modulus (GPa) = 14.38889 35.11623 24.75256
# Shear Modulus (GPa) = 29.93978 44.56830 37.25404
#
# Velocity S-wave (km/s) = 3.36166 4.10150 3.74987
# Velocity P-wave (km/s) = 4.52756 5.97364 5.30015
#
# Compressibility (1/GPa) = 0.06949808
#
# Stress axis : x y z
#
# Youngs Moduli (GPa) = 46.28941 31.22733 180.47912
#
# Poissons Ratio (x) = -0.15163 -0.01985
# Poissons Ratio (y) = -0.22477 -0.03605
# Poissons Ratio (z) = -0.00509 -0.00624
#
# Static dielectric constant tensor:
#      x y z
#    x 2.061210 0.039520 -0.029670 
#    y 0.039520 2.192390 -0.089220 
#    z -0.029670 -0.089220 2.146460 
# 
# From -- ./inp_files/157612.got.cif
#   From: 2010.05.17/outbox.cif.g08.bks.cpg/sg2_79_cif.got.tgz:157612.got - 2010.06.03 11:33:40.
