data_PCOD9038827
_publ_section_title
;
Structure prediction by ZEFSAII (Michael W. Deem and Ramdas Pophale) SiO2 
 PCOD9038827
Probable space group: P -1
;
_chemical_formula_sum "Si O2"
_cell_formula_units_Z 16
_cell_length_a 17.709387
_cell_length_b 5.553441
_cell_length_c 9.170744
_cell_angle_alpha 83.471010
_cell_angle_beta 84.140429
_cell_angle_gamma 49.303696
_cell_volume 678.915246
_symmetry_space_group_name_H-M "P -1"
_symmetry_group_IT_number 2
_symmetry_cell_setting 'triclinic'
loop_
_space_group_symop_operation_xyz
x,y,z
-x,-y,-z
loop_
_atom_site_type_symbol
_atom_site_label
_atom_site_fract_x
_atom_site_fract_y
_atom_site_fract_z
Si Si1 0.610326 0.871549 0.985395
Si Si2 0.076483 0.922796 0.695303
Si Si3 0.563079 0.614195 0.514515
Si Si4 0.083112 0.112576 0.383694
Si Si5 0.942391 0.457131 0.894646
Si Si6 0.748435 0.961774 0.028031
Si Si7 0.712822 0.417061 0.750428
Si Si8 0.721624 0.351578 0.247637
O O1 0.638777 0.074152 0.028503
O O2 0.659837 0.746797 0.824026
O O3 0.662780 0.593421 0.111792
O O4 0.500000 0.000000 0.000000
O O5 0.079019 0.132865 0.557971
O O6 0.018567 0.103350 0.842714
O O7 0.191931 0.647663 0.720277
O O8 0.014660 0.833126 0.646149
O O9 0.500000 0.500000 0.500000
O O10 0.627429 0.476707 0.661113
O O11 0.646399 0.453166 0.383768
O O12 0.500000 0.000000 0.500000
O O13 0.084538 0.342258 0.263414
O O14 0.185420 0.752896 0.348543
O O15 0.837802 0.603286 0.979579
O O16 0.000000 0.500000 0.000000
O O17 0.747877 0.172833 0.892358
O O18 0.768922 0.020021 0.180939
#
# Coordination Sequence:
#
# PCOD9038827 Si02
#       8
#     2   2   2   2   2   2   2   2
#     4  11  25  42  67  95 131 179 240 290 367 416
#     4  11  22  42  64  96 137 177 231 283 351 427
#     4  12  29  50  76 107 144 190 244 302 364 422
#     4  10  23  42  63  94 135 183 225 284 350 426
#     4  11  22  39  64  96 131 175 224 276 352 414
#     4  10  24  43  66  97 135 182 229 294 352 435
#     4  10  23  45  66  98 137 182 236 288 361 427
#     4  11  25  43  68 102 134 179 237 296 359 428
#
# _framework density 23.567008000000001
#
# number of rings (size 3 to 8) (size 9 to 14) (size 15 to 20)
#    0.000    1.250    2.500    1.875    8.750    1.500 
#    0.000    0.000    0.000    0.000    0.000    0.000 
#    0.000    0.000    0.000    0.000    0.000    0.000 
#
# Total GULP energy -89339.039921 kJ/mol
# GULP energy per Si atom -5583.689995 kJ/mol
# Density = 2.351337 g / cm^3
# Si number density = 23.567008 Si / 1000 Ang^3
#
#
#
# Elastic Constant Matrix: (Units=GPa)
#
#
# Indices 1 2 3 4 5 6 
#
# 1 130.6460 24.2710 13.7182 9.0220 12.4733 -31.6996
# 2 24.2710 58.4530 17.4176 6.2803 -4.5819 -19.9787
# 3 13.7182 17.4176 106.2520 15.4235 0.7685 -10.8907
# 4 9.0220 6.2803 15.4235 30.7071 -7.0596 1.1459
# 5 12.4733 -4.5819 0.7685 -7.0596 43.7242 -4.7301
# 6 -31.6996 -19.9787 -10.8907 1.1459 -4.7301 38.9995
#
#
#
# Elastic Compliance Matrix: (Units=1/GPa)
#
#
# Indices 1 2 3 4 5 6 
#
# 1 0.010245 -0.001661 0.000263 -0.003745 -0.002916 0.007306
# 2 -0.001661 0.022410 -0.002074 -0.002619 0.003524 0.010055
# 3 0.000263 -0.002074 0.010729 -0.005379 -0.001115 0.002171
# 4 -0.003745 -0.002619 -0.005379 0.038619 0.006449 -0.006241
# 5 -0.002916 0.003524 -0.001115 0.006449 0.025350 0.002009
# 6 0.007306 0.010055 0.002171 -0.006241 0.002009 0.037764
#
#
# Mechanical properties :
#
#
# Convention : Reuss Voigt Hill
#
# Bulk Modulus (GPa) = 27.44235 45.12940 36.28588
# Shear Modulus (GPa) = 30.44929 38.68245 34.56587
#
# Velocity S-wave (km/s) = 3.59838 4.05579 3.83391
# Velocity P-wave (km/s) = 5.37905 6.41277 5.91852
#
# Compressibility (1/GPa) = 0.03644003
#
# Stress axis : x y z
#
# Youngs Moduli (GPa) = 97.60809 44.62330 93.20557
#
# Poissons Ratio (x) = 0.07413 -0.02454
# Poissons Ratio (y) = 0.16216 0.19329
# Poissons Ratio (z) = -0.02570 0.09254
#
# Static dielectric constant tensor:
#      x y z
#    x 1.855550 -0.001450 0.018810 
#    y -0.001450 2.019470 0.071630 
#    z 0.018810 0.071630 1.880340 
# 
# From -- ./inp_files/46205.got.cif
#   From: 2010.05.17/outbox.cif.g08.bks.cpg/sg2_24_cif.got.tgz:46205.got - 2010.06.03 11:33:40.
