data_PCOD9038125
_publ_section_title
;
Structure prediction by ZEFSAII (Michael W. Deem and Ramdas Pophale) SiO2 
 PCOD9038125
Probable space group: P -1
;
_chemical_formula_sum "Si O2"
_cell_formula_units_Z 16
_cell_length_a 8.899470
_cell_length_b 21.191447
_cell_length_c 12.205340
_cell_angle_alpha 160.006869
_cell_angle_beta 67.714616
_cell_angle_gamma 110.375003
_cell_volume 727.985658
_symmetry_space_group_name_H-M "P -1"
_symmetry_group_IT_number 2
_symmetry_cell_setting 'triclinic'
loop_
_space_group_symop_operation_xyz
x,y,z
-x,-y,-z
loop_
_atom_site_type_symbol
_atom_site_label
_atom_site_fract_x
_atom_site_fract_y
_atom_site_fract_z
Si Si1 0.950899 0.013480 0.256477
Si Si2 0.693169 0.079519 0.954920
Si Si3 0.333105 0.458060 0.762971
Si Si4 0.356405 0.855919 0.304465
Si Si5 0.130927 0.637756 0.287199
Si Si6 0.570353 0.193591 0.401149
Si Si7 0.124006 0.355901 0.456511
Si Si8 0.661436 0.377217 0.281613
O O1 0.122666 0.984485 0.221745
O O2 0.803093 0.056996 0.451250
O O3 0.959283 0.185361 0.452294
O O4 0.912641 0.835387 0.903071
O O5 0.554909 0.942718 0.729497
O O6 0.670413 0.084372 0.100677
O O7 0.662553 0.281722 0.242959
O O8 0.463208 0.344663 0.611733
O O9 0.268224 0.351887 0.500789
O O10 0.390656 0.659506 0.036511
O O11 0.179308 0.495100 0.946120
O O12 0.500000 0.000000 0.500000
O O13 0.327054 0.789787 0.080950
O O14 0.303786 0.712552 0.401846
O O15 0.031147 0.573080 0.314427
O O16 0.185678 0.496226 0.577062
O O17 0.500000 0.500000 0.500000
#
# Coordination Sequence:
#
# PCOD9038125 Si02
#       8
#     2   2   2   2   2   2   2   2
#     4  11  24  41  66  97 131 171 219 271 324 385
#     4  11  25  42  65 100 131 171 222 267 323 390
#     4  10  23  41  66  97 130 170 219 269 324 384
#     4  10  23  43  67  96 130 175 216 266 327 393
#     4  11  23  41  67  97 130 170 217 271 332 376
#     4  11  24  40  67  98 132 169 220 272 322 385
#     4  11  22  41  66  94 130 169 216 264 326 390
#     4  11  25  43  68  93 130 178 215 265 331 389
#
# _framework density 21.978456999999999
#
# number of rings (size 3 to 8) (size 9 to 14) (size 15 to 20)
#    0.000    1.250    1.250    4.125    8.750    3.000 
#    2.250    0.000    0.000    0.000    0.000    0.000 
#    0.000    0.000    0.000    0.000    0.000    0.000 
#
# Total GULP energy -89517.744649 kJ/mol
# GULP energy per Si atom -5594.859041 kJ/mol
# Density = 2.192843 g / cm^3
# Si number density = 21.978457 Si / 1000 Ang^3
#
#
#
# Elastic Constant Matrix: (Units=GPa)
#
#
# Indices 1 2 3 4 5 6 
#
# 1 94.3865 36.9714 29.5814 26.5913 -2.8304 15.3941
# 2 36.9714 114.6918 33.2883 15.7180 -0.4850 27.8301
# 3 29.5814 33.2883 68.8692 3.2168 10.3780 15.6584
# 4 26.5913 15.7180 3.2168 39.1366 2.5831 0.5094
# 5 -2.8304 -0.4850 10.3780 2.5831 39.2206 1.9265
# 6 15.3941 27.8301 15.6584 0.5094 1.9265 39.3083
#
#
#
# Elastic Compliance Matrix: (Units=1/GPa)
#
#
# Indices 1 2 3 4 5 6 
#
# 1 0.016492 -0.001453 -0.005702 -0.010344 0.003519 -0.003197
# 2 -0.001453 0.012487 -0.003960 -0.003725 0.001673 -0.006728
# 3 -0.005702 -0.003960 0.020214 0.004232 -0.005951 -0.002779
# 4 -0.010344 -0.003725 0.004232 0.033955 -0.004383 0.004777
# 5 0.003519 0.001673 -0.005951 -0.004383 0.027708 -0.001493
# 6 -0.003197 -0.006728 -0.002779 0.004777 -0.001493 0.032574
#
#
# Mechanical properties :
#
#
# Convention : Reuss Voigt Hill
#
# Bulk Modulus (GPa) = 37.08683 53.06995 45.07839
# Shear Modulus (GPa) = 28.62912 35.40687 32.01800
#
# Velocity S-wave (km/s) = 3.61307 4.01806 3.82093
# Velocity P-wave (km/s) = 5.85803 6.76204 6.32620
#
# Compressibility (1/GPa) = 0.02696375
#
# Stress axis : x y z
#
# Youngs Moduli (GPa) = 60.63549 80.08408 49.46975
#
# Poissons Ratio (x) = 0.11638 0.28206
# Poissons Ratio (y) = 0.08811 0.19589
# Poissons Ratio (z) = 0.34572 0.31712
#
# Static dielectric constant tensor:
#      x y z
#    x 1.804630 0.028010 0.000900 
#    y 0.028010 1.815580 -0.006780 
#    z 0.000900 -0.006780 1.807140 
# 
# From -- ./inp_files/405762.got.cif
#   From: 2010.05.17/outbox.cif.g08.bks.cpg/sg2_203_cif.got.tgz:405762.got - 2010.06.03 11:33:40.
