data_PCOD9038834
_publ_section_title
;
Structure prediction by ZEFSAII (Michael W. Deem and Ramdas Pophale) SiO2 
 PCOD9038834
Probable space group: P -1
;
_chemical_formula_sum "Si O2"
_cell_formula_units_Z 16
_cell_length_a 29.257319
_cell_length_b 17.582906
_cell_length_c 27.055521
_cell_angle_alpha 160.186365
_cell_angle_beta 170.307702
_cell_angle_gamma 20.166775
_cell_volume 778.471505
_symmetry_space_group_name_H-M "P -1"
_symmetry_group_IT_number 2
_symmetry_cell_setting 'triclinic'
loop_
_space_group_symop_operation_xyz
x,y,z
-x,-y,-z
loop_
_atom_site_type_symbol
_atom_site_label
_atom_site_fract_x
_atom_site_fract_y
_atom_site_fract_z
Si Si1 0.842887 0.164357 0.753061
Si Si2 0.418772 0.759777 0.318265
Si Si3 0.358650 0.624612 0.847657
Si Si4 0.429189 0.950685 0.706177
Si Si5 0.801326 0.725565 0.608468
Si Si6 0.350288 0.417729 0.445365
Si Si7 0.834659 0.300030 0.206911
Si Si8 0.046759 0.707463 0.214373
O O1 0.651772 0.157004 0.497209
O O2 0.640033 0.283867 0.651112
O O3 0.991494 0.906879 0.764552
O O4 0.098670 0.284752 0.090015
O O5 0.619087 0.729662 0.466143
O O6 0.575472 0.584398 0.419065
O O7 0.345298 0.028423 0.421751
O O8 0.117644 0.723146 0.958496
O O9 0.197216 0.502187 0.561245
O O10 0.202126 0.757719 0.809807
O O11 0.543404 0.403439 0.935753
O O12 0.537296 0.790428 0.112858
O O13 0.200779 0.888136 0.461446
O O14 0.737384 0.823454 0.971822
O O15 0.239456 0.625501 0.417107
O O16 0.000000 0.500000 0.500000
O O17 0.000000 0.500000 0.000000
#
# Coordination Sequence:
#
# PCOD9038834 Si02
#       8
#     2   2   2   2   2   2   2   2
#     4  12  22  37  59  92 130 166 198 253 313 386
#     4  10  23  42  63  96 115 161 219 266 302 378
#     4  11  25  41  61  92 132 175 201 261 314 382
#     4  12  23  39  59  92 130 164 215 242 314 396
#     4  10  23  42  67  87 126 162 210 256 319 369
#     4  12  24  39  66  88 128 165 208 272 317 351
#     4  11  24  36  59  95 131 166 207 241 304 406
#     4  12  23  40  62  91 126 172 209 261 316 373
#
# _framework density 20.553094999999999
#
# number of rings (size 3 to 8) (size 9 to 14) (size 15 to 20)
#    0.000    0.750    3.750    4.125    5.250    1.000 
#    0.000    0.000    0.000    4.500    0.000    0.000 
#    0.000    0.000    0.000    0.000    0.000    0.000 
#
# Total GULP energy -89294.304202 kJ/mol
# GULP energy per Si atom -5580.894013 kJ/mol
# Density = 2.050632 g / cm^3
# Si number density = 20.553095 Si / 1000 Ang^3
#
#
#
# Elastic Constant Matrix: (Units=GPa)
#
#
# Indices 1 2 3 4 5 6 
#
# 1 85.4716 29.5434 61.4054 -6.8237 2.7950 14.4379
# 2 29.5434 67.8872 30.9293 -15.6469 -0.1604 15.5760
# 3 61.4054 30.9293 125.4395 1.5698 15.5490 -4.4012
# 4 -6.8237 -15.6469 1.5698 42.1854 3.8984 3.9056
# 5 2.7950 -0.1604 15.5490 3.8984 39.7561 -7.2543
# 6 14.4379 15.5760 -4.4012 3.9056 -7.2543 36.0064
#
#
#
# Elastic Compliance Matrix: (Units=1/GPa)
#
#
# Indices 1 2 3 4 5 6 
#
# 1 0.022011 -0.001313 -0.010914 0.004359 0.000469 -0.009970
# 2 -0.001313 0.022384 -0.005296 0.009362 -0.000663 -0.010953
# 3 -0.010914 -0.005296 0.015380 -0.004778 -0.003267 0.008407
# 4 0.004359 0.009362 -0.004778 0.029293 -0.003132 -0.010190
# 5 0.000469 -0.000663 -0.003267 -0.003132 0.027729 0.005626
# 6 -0.009970 -0.010953 0.008407 -0.010190 0.005626 0.039775
#
#
# Mechanical properties :
#
#
# Convention : Reuss Voigt Hill
#
# Bulk Modulus (GPa) = 40.43690 58.06163 49.24926
# Shear Modulus (GPa) = 25.01742 34.05093 29.53418
#
# Velocity S-wave (km/s) = 3.49264 4.07471 3.79485
# Velocity P-wave (km/s) = 5.99848 7.10272 6.57383
#
# Compressibility (1/GPa) = 0.02472989
#
# Stress axis : x y z
#
# Youngs Moduli (GPa) = 45.43094 44.67540 65.01977
#
# Poissons Ratio (x) = 0.05867 0.70961
# Poissons Ratio (y) = 0.05966 0.34431
# Poissons Ratio (z) = 0.49582 0.23658
#
# Static dielectric constant tensor:
#      x y z
#    x 1.604960 -0.067390 -0.003490 
#    y -0.067390 1.754880 -0.010490 
#    z -0.003490 -0.010490 1.709260 
# 
# From -- ./inp_files/571620.got.cif
#   From: 2010.05.17/outbox.cif.g08.bks.cpg/sg2_286_cif.got.tgz:571620.got - 2010.06.03 11:33:40.
