data_PCOD9038419
_publ_section_title
;
Structure prediction by ZEFSAII (Michael W. Deem and Ramdas Pophale) SiO2 
 PCOD9038419
Probable space group: P -1
;
_chemical_formula_sum "Si O2"
_cell_formula_units_Z 12
_cell_length_a 9.352814
_cell_length_b 13.636438
_cell_length_c 8.730090
_cell_angle_alpha 149.000539
_cell_angle_beta 120.619862
_cell_angle_gamma 57.775417
_cell_volume 481.614551
_symmetry_space_group_name_H-M "P -1"
_symmetry_group_IT_number 2
_symmetry_cell_setting 'triclinic'
loop_
_space_group_symop_operation_xyz
x,y,z
-x,-y,-z
loop_
_atom_site_type_symbol
_atom_site_label
_atom_site_fract_x
_atom_site_fract_y
_atom_site_fract_z
Si Si1 0.343376 0.970829 0.583240
Si Si2 0.873742 0.608623 0.446811
Si Si3 0.685617 0.438350 0.853237
Si Si4 0.297652 0.090289 0.019317
Si Si5 0.843110 0.257787 0.394412
Si Si6 0.388268 0.796156 0.074612
O O1 0.364433 0.765405 0.407409
O O2 0.275677 0.921005 0.314036
O O3 0.509159 0.054286 0.745222
O O4 0.242701 0.125723 0.858416
O O5 0.730478 0.734469 0.644003
O O6 0.000000 0.500000 0.500000
O O7 0.976289 0.733216 0.564906
O O8 0.797986 0.480523 0.113148
O O9 0.785575 0.405311 0.701657
O O10 0.472132 0.378478 0.007643
O O11 0.500000 0.000000 0.000000
O O12 0.183384 0.947910 0.832025
O O13 0.712294 0.294339 0.229229
#
# Coordination Sequence:
#
# PCOD9038419 Si02
#       6
#     2   2   2   2   2   2
#     4  10  23  41  69 107 137 190 250 302 349 434
#     4  12  28  48  72 109 156 190 240 311 384 431
#     4  11  25  45  72 107 151 195 250 298 367 449
#     4  11  23  47  74 104 144 194 253 297 359 446
#     4  11  25  46  72 109 146 193 240 310 372 437
#     4  11  22  43  77 107 146 189 259 296 368 433
#
# _framework density 24.91619
#
# number of rings (size 3 to 8) (size 9 to 14) (size 15 to 20)
#    0.000    1.000    1.667    4.000    4.667    4.000 
#    3.000    4.167    0.000    0.000    0.000    0.000 
#    0.000    0.000    0.000    0.000    0.000    0.000 
#
# Total GULP energy -67134.527449 kJ/mol
# GULP energy per Si atom -5594.543954 kJ/mol
# Density = 2.485948 g / cm^3
# Si number density = 24.916190 Si / 1000 Ang^3
#
#
#
# Elastic Constant Matrix: (Units=GPa)
#
#
# Indices 1 2 3 4 5 6 
#
# 1 126.1780 33.8601 66.0666 -9.7014 -9.6104 27.0359
# 2 33.8601 95.8033 46.1173 -21.7659 5.4775 13.8687
# 3 66.0666 46.1173 181.8558 -52.1639 -10.6473 7.8720
# 4 -9.7014 -21.7659 -52.1639 49.9910 21.7332 0.3178
# 5 -9.6104 5.4775 -10.6473 21.7332 50.0531 -3.6016
# 6 27.0359 13.8687 7.8720 0.3178 -3.6016 40.4559
#
#
#
# Elastic Compliance Matrix: (Units=1/GPa)
#
#
# Indices 1 2 3 4 5 6 
#
# 1 0.012314 -0.002517 -0.004879 -0.005257 0.003448 -0.006069
# 2 -0.002517 0.014217 -0.000738 0.007424 -0.005679 -0.003612
# 3 -0.004879 -0.000738 0.010370 0.011000 -0.003347 0.001111
# 4 -0.005257 0.007424 0.011000 0.041399 -0.017678 -0.003071
# 5 0.003448 -0.005679 -0.003347 -0.017678 0.028440 0.002965
# 6 -0.006069 -0.003612 0.001111 -0.003071 0.002965 0.030084
#
#
# Mechanical properties :
#
#
# Convention : Reuss Voigt Hill
#
# Bulk Modulus (GPa) = 48.46322 77.32502 62.89412
# Shear Modulus (GPa) = 31.25630 45.28621 38.27126
#
# Velocity S-wave (km/s) = 3.54567 4.26789 3.92343
# Velocity P-wave (km/s) = 6.02122 7.44231 6.76916
#
# Compressibility (1/GPa) = 0.02063421
#
# Stress axis : x y z
#
# Youngs Moduli (GPa) = 81.20880 70.33873 96.43542
#
# Poissons Ratio (x) = 0.17702 0.47049
# Poissons Ratio (y) = 0.20437 0.07114
# Poissons Ratio (z) = 0.39620 0.05189
#
# Static dielectric constant tensor:
#      x y z
#    x 1.972670 -0.011430 -0.052350 
#    y -0.011430 2.049720 -0.013460 
#    z -0.052350 -0.013460 2.036470 
# 
# From -- ./inp_files/204947.got.cif
#   From: 2010.05.17/outbox.cif.g08.bks.cpg/sg2_103_cif.got.tgz:204947.got - 2010.06.03 11:33:40.
