data_PCOD9038731
_publ_section_title
;
Structure prediction by ZEFSAII (Michael W. Deem and Ramdas Pophale) SiO2 
 PCOD9038731
Probable space group: P -1
;
_chemical_formula_sum "Si O2"
_cell_formula_units_Z 16
_cell_length_a 18.021685
_cell_length_b 5.739983
_cell_length_c 13.571427
_cell_angle_alpha 98.983412
_cell_angle_beta 144.633899
_cell_angle_gamma 60.726767
_cell_volume 621.614998
_symmetry_space_group_name_H-M "P -1"
_symmetry_group_IT_number 2
_symmetry_cell_setting 'triclinic'
loop_
_space_group_symop_operation_xyz
x,y,z
-x,-y,-z
loop_
_atom_site_type_symbol
_atom_site_label
_atom_site_fract_x
_atom_site_fract_y
_atom_site_fract_z
Si Si1 0.401645 0.395206 0.341323
Si Si2 0.684022 0.688644 0.564192
Si Si3 0.051536 0.866868 0.793418
Si Si4 0.936239 0.807909 0.392808
Si Si5 0.321740 0.675251 0.639708
Si Si6 0.562129 0.107299 0.990172
Si Si7 0.621740 0.621042 0.904106
Si Si8 0.992979 0.438805 0.770209
O O1 0.500000 0.500000 0.500000
O O2 0.274202 0.459980 0.291832
O O3 0.353992 0.511250 0.186675
O O4 0.524014 0.033912 0.429234
O O5 0.654588 0.511837 0.444867
O O6 0.820281 0.681967 0.654333
O O7 0.872329 0.038038 0.558446
O O8 0.072482 0.603526 0.863272
O O9 0.212193 0.668346 0.883183
O O10 0.050297 0.124449 0.861261
O O11 0.000369 0.664660 0.342008
O O12 0.000000 0.500000 0.500000
O O13 0.000000 0.000000 0.500000
O O14 0.264204 0.974613 0.798058
O O15 0.446734 0.743228 0.763724
O O16 0.405085 0.439425 0.805298
O O17 0.500000 0.000000 0.000000
O O18 0.617864 0.901644 0.938168
#
# Coordination Sequence:
#
# PCOD9038731 Si02
#       8
#     2   2   2   2   2   2   2   2
#     4  11  22  43  73 119 162 205 272 328 416 486
#     4  10  23  41  77 114 154 216 261 331 406 489
#     4  11  26  45  82 113 154 210 271 325 409 475
#     4  12  29  52  81 115 162 211 277 346 411 493
#     4  11  25  48  80 112 160 214 266 342 408 490
#     4  12  30  52  80 121 157 221 284 338 420 502
#     4  12  25  49  83 113 161 217 266 341 410 494
#     4  11  24  49  76 110 154 206 264 326 407 473
#
# _framework density 25.739405000000001
#
# number of rings (size 3 to 8) (size 9 to 14) (size 15 to 20)
#    0.000    0.750    3.750    2.250    8.750    2.500 
#    0.000    3.750    0.000    0.000    0.000    0.000 
#    0.000    0.000    0.000    0.000    0.000    0.000 
#
# Total GULP energy -89318.649699 kJ/mol
# GULP energy per Si atom -5582.415606 kJ/mol
# Density = 2.568082 g / cm^3
# Si number density = 25.739405 Si / 1000 Ang^3
#
#
#
# Elastic Constant Matrix: (Units=GPa)
#
#
# Indices 1 2 3 4 5 6 
#
# 1 159.5875 25.0748 48.7801 5.0562 3.4268 -4.7424
# 2 25.0748 128.8080 45.8829 5.5913 2.0296 2.2240
# 3 48.7801 45.8829 110.8145 -2.7180 9.6817 -1.8951
# 4 5.0562 5.5913 -2.7180 48.2107 -6.8920 10.7496
# 5 3.4268 2.0296 9.6817 -6.8920 49.5198 7.6405
# 6 -4.7424 2.2240 -1.8951 10.7496 7.6405 52.0991
#
#
#
# Elastic Compliance Matrix: (Units=1/GPa)
#
#
# Indices 1 2 3 4 5 6 
#
# 1 0.007323 -0.000282 -0.003105 -0.001118 -0.000170 0.000821
# 2 -0.000282 0.009203 -0.003744 -0.001129 0.000273 -0.000362
# 3 -0.003105 -0.003744 0.012141 0.001087 -0.001912 0.000375
# 4 -0.001118 -0.001129 0.001087 0.022788 0.003898 -0.005288
# 5 -0.000170 0.000273 -0.001912 0.003898 0.021742 -0.004090
# 6 0.000821 -0.000362 0.000375 -0.005288 -0.004090 0.020989
#
#
# Mechanical properties :
#
#
# Convention : Reuss Voigt Hill
#
# Bulk Modulus (GPa) = 69.42332 70.96506 70.19419
# Shear Modulus (GPa) = 44.14983 48.59742 46.37362
#
# Velocity S-wave (km/s) = 4.14607 4.34989 4.24920
# Velocity P-wave (km/s) = 7.06753 7.27043 7.16970
#
# Compressibility (1/GPa) = 0.01440438
#
# Stress axis : x y z
#
# Youngs Moduli (GPa) = 136.55320 108.65943 82.36368
#
# Poissons Ratio (x) = 0.03069 0.25575
# Poissons Ratio (y) = 0.03857 0.30836
# Poissons Ratio (z) = 0.42402 0.40681
#
# Static dielectric constant tensor:
#      x y z
#    x 2.152520 0.049710 -0.057840 
#    y 0.049710 2.043130 -0.059790 
#    z -0.057840 -0.059790 2.186630 
# 
# From -- ./inp_files/80175.got.cif
#   From: 2010.05.17/outbox.cif.g08.bks.cpg/sg2_41_cif.got.tgz:80175.got - 2010.06.03 11:33:40.
