data_PCOD9038498
_publ_section_title
;
Structure prediction by ZEFSAII (Michael W. Deem and Ramdas Pophale) SiO2 
 PCOD9038498
Probable space group: P -1
;
_chemical_formula_sum "Si O2"
_cell_formula_units_Z 14
_cell_length_a 13.975176
_cell_length_b 10.897786
_cell_length_c 5.555376
_cell_angle_alpha 80.325406
_cell_angle_beta 84.409976
_cell_angle_gamma 42.075365
_cell_volume 558.419633
_symmetry_space_group_name_H-M "P -1"
_symmetry_group_IT_number 2
_symmetry_cell_setting 'triclinic'
loop_
_space_group_symop_operation_xyz
x,y,z
-x,-y,-z
loop_
_atom_site_type_symbol
_atom_site_label
_atom_site_fract_x
_atom_site_fract_y
_atom_site_fract_z
Si Si1 0.574835 0.968345 0.240905
Si Si2 0.328967 0.841626 0.909037
Si Si3 0.015881 0.120765 0.855238
Si Si4 0.787648 0.482765 0.040109
Si Si5 0.968196 0.714544 0.594261
Si Si6 0.411497 0.523998 0.725919
Si Si7 0.794576 0.659360 0.595898
O O1 0.719162 0.749127 0.327023
O O2 0.500000 0.000000 0.500000
O O3 0.614527 0.076173 0.205994
O O4 0.500000 0.000000 0.000000
O O5 0.319589 0.731700 0.768086
O O6 0.166083 0.021508 0.976827
O O7 0.458180 0.661038 0.093056
O O8 0.045748 0.135800 0.567391
O O9 0.855204 0.321322 0.886772
O O10 0.000000 0.000000 0.000000
O O11 0.931736 0.387501 0.167336
O O12 0.694029 0.493721 0.248233
O O13 0.719066 0.651670 0.826347
O O14 0.057622 0.555352 0.416685
O O15 0.827881 0.766399 0.645210
O O16 0.500000 0.500000 0.500000
#
# Coordination Sequence:
#
# PCOD9038498 Si02
#       7
#     2   2   2   2   2   2   2
#     4  12  29  48  77 112 152 204 257 316 385 465
#     4  11  26  50  70 104 151 193 253 316 383 447
#     4  11  23  44  69 103 142 181 245 307 376 444
#     4  11  24  42  75 104 142 195 247 306 381 459
#     4  10  23  41  70 102 141 190 238 306 378 447
#     4  11  27  45  72 103 144 200 250 310 382 462
#     4  10  23  45  67 102 147 184 248 306 375 447
#
# _framework density 25.070753
#
# number of rings (size 3 to 8) (size 9 to 14) (size 15 to 20)
#    0.000    1.143    2.857    1.286    8.000    4.000 
#    0.000    0.000    0.000    0.000    0.000    0.000 
#    0.000    0.000    0.000    0.000    0.000    0.000 
#
# Total GULP energy -77951.085979 kJ/mol
# GULP energy per Si atom -5567.934713 kJ/mol
# Density = 2.501369 g / cm^3
# Si number density = 25.070753 Si / 1000 Ang^3
#
#
#
# Elastic Constant Matrix: (Units=GPa)
#
#
# Indices 1 2 3 4 5 6 
#
# 1 152.6730 12.3350 80.7068 -15.8797 -37.2974 3.2219
# 2 12.3350 92.6974 35.6289 -22.4641 -19.0488 -7.0358
# 3 80.7068 35.6289 138.5921 -44.4226 -26.3756 22.1906
# 4 -15.8797 -22.4641 -44.4226 39.1194 -1.5046 -9.6346
# 5 -37.2974 -19.0488 -26.3756 -1.5046 53.5472 -15.6364
# 6 3.2219 -7.0358 22.1906 -9.6346 -15.6364 35.2163
#
#
#
# Elastic Compliance Matrix: (Units=1/GPa)
#
#
# Indices 1 2 3 4 5 6 
#
# 1 0.012311 0.004049 -0.007493 0.001303 0.008906 0.008715
# 2 0.004049 0.017966 -0.002816 0.012654 0.012236 0.013888
# 3 -0.007493 -0.002816 0.018245 0.014399 0.001149 -0.006924
# 4 0.001303 0.012654 0.014399 0.054536 0.018895 0.016645
# 5 0.008906 0.012236 0.001149 0.018895 0.036885 0.022452
# 6 0.008715 0.013888 -0.006924 0.016645 0.022452 0.049259
#
#
# Mechanical properties :
#
#
# Convention : Reuss Voigt Hill
#
# Bulk Modulus (GPa) = 27.77480 71.25599 49.51539
# Shear Modulus (GPa) = 23.39480 42.59603 32.99541
#
# Velocity S-wave (km/s) = 3.05807 4.12640 3.63173
# Velocity P-wave (km/s) = 4.85506 7.15448 6.11385
#
# Compressibility (1/GPa) = 0.03600386
#
# Stress axis : x y z
#
# Youngs Moduli (GPa) = 81.22726 55.65945 54.80869
#
# Poissons Ratio (x) = -0.22537 0.41068
# Poissons Ratio (y) = -0.32890 0.15432
# Poissons Ratio (z) = 0.60863 0.15672
#
# Static dielectric constant tensor:
#      x y z
#    x 2.119510 -0.017820 -0.108010 
#    y -0.017820 2.127520 0.156240 
#    z -0.108010 0.156240 2.204970 
# 
# From -- ./inp_files/94587.got.cif
#   From: 2010.05.17/outbox.cif.g08.bks.cpg/sg2_48_cif.got.tgz:94587.got - 2010.06.03 11:33:40.
