data_PCOD9038712
_publ_section_title
;
Structure prediction by ZEFSAII (Michael W. Deem and Ramdas Pophale) SiO2 
 PCOD9038712
Probable space group: P -1
;
_chemical_formula_sum "Si O2"
_cell_formula_units_Z 10
_cell_length_a 10.285308
_cell_length_b 10.864631
_cell_length_c 5.061803
_cell_angle_alpha 108.557442
_cell_angle_beta 68.643708
_cell_angle_gamma 126.725987
_cell_volume 418.386515
_symmetry_space_group_name_H-M "P -1"
_symmetry_group_IT_number 2
_symmetry_cell_setting 'triclinic'
loop_
_space_group_symop_operation_xyz
x,y,z
-x,-y,-z
loop_
_atom_site_type_symbol
_atom_site_label
_atom_site_fract_x
_atom_site_fract_y
_atom_site_fract_z
Si Si1 0.931071 0.750658 0.437662
Si Si2 0.498081 0.881901 0.132355
Si Si3 0.771861 0.424326 0.061766
Si Si4 0.169136 0.701229 0.558595
Si Si5 0.849521 0.962464 0.895242
O O1 0.824203 0.588593 0.250872
O O2 0.818245 0.812815 0.658770
O O3 0.035214 0.737781 0.589308
O O4 0.073988 0.889576 0.250150
O O5 0.420079 0.713312 0.930504
O O6 0.681101 0.932540 0.120853
O O7 0.358745 0.838868 0.430032
O O8 0.500000 0.000000 0.000000
O O9 0.833368 0.347559 0.174111
O O10 0.152014 0.571324 0.277377
O O11 0.000000 0.000000 0.000000
#
# Coordination Sequence:
#
# PCOD9038712 Si02
#       5
#     2   2   2   2   2
#     4  11  24  42  66 101 139 176 226 278 337 402
#     4  10  23  44  68 100 135 178 226 279 329 405
#     4  10  24  42  73 101 131 179 230 274 333 396
#     4  10  23  41  74  99 133 175 228 276 331 399
#     4  11  26  43  67 101 137 182 218 283 341 397
#
# _framework density 23.901344000000002
#
# number of rings (size 3 to 8) (size 9 to 14) (size 15 to 20)
#    1.200    0.400    2.000    1.200    8.400    4.800 
#    0.000    2.000    0.000    0.000    0.000    0.000 
#    0.000    0.000    0.000    0.000    0.000    0.000 
#
# Total GULP energy -55910.661518 kJ/mol
# GULP energy per Si atom -5591.066152 kJ/mol
# Density = 2.384694 g / cm^3
# Si number density = 23.901344 Si / 1000 Ang^3
#
#
#
# Elastic Constant Matrix: (Units=GPa)
#
#
# Indices 1 2 3 4 5 6 
#
# 1 116.2271 64.6498 38.1103 2.6963 -7.3606 7.5922
# 2 64.6498 130.6056 42.4793 19.8138 -21.8612 -8.9522
# 3 38.1103 42.4793 97.9610 20.4818 -11.7818 -13.4904
# 4 2.6963 19.8138 20.4818 48.3472 -14.5854 0.3089
# 5 -7.3606 -21.8612 -11.7818 -14.5854 47.4746 -4.1767
# 6 7.5922 -8.9522 -13.4904 0.3089 -4.1767 48.7814
#
#
#
# Elastic Compliance Matrix: (Units=1/GPa)
#
#
# Indices 1 2 3 4 5 6 
#
# 1 0.013643 -0.006479 -0.003946 0.003215 -0.001258 -0.004532
# 2 -0.006479 0.012655 -0.001408 -0.003100 0.003810 0.003287
# 3 -0.003946 -0.001408 0.014112 -0.004868 0.001132 0.004386
# 4 0.003215 -0.003100 -0.004868 0.025515 0.005517 -0.002105
# 5 -0.001258 0.003810 0.001132 0.005517 0.024890 0.003304
# 6 -0.004532 0.003287 0.004386 -0.002105 0.003304 0.023317
#
#
# Mechanical properties :
#
#
# Convention : Reuss Voigt Hill
#
# Bulk Modulus (GPa) = 59.72181 70.58582 65.15382
# Shear Modulus (GPa) = 34.87249 42.22427 38.54838
#
# Velocity S-wave (km/s) = 3.82385 4.20766 4.02034
# Velocity P-wave (km/s) = 6.67359 7.29398 6.99067
#
# Compressibility (1/GPa) = 0.01674430
#
# Stress axis : x y z
#
# Youngs Moduli (GPa) = 73.29588 79.01933 70.86310
#
# Poissons Ratio (x) = 0.51197 0.27962
# Poissons Ratio (y) = 0.47489 0.09977
# Poissons Ratio (z) = 0.28922 0.11126
#
# Static dielectric constant tensor:
#      x y z
#    x 1.868190 0.063990 0.021200 
#    y 0.063990 2.044270 0.072810 
#    z 0.021200 0.072810 1.975600 
# 
# From -- ./inp_files/17750.got.cif
#   From: 2010.05.17/outbox.cif.g08.bks.cpg/sg2_9_cif.got.tgz:17750.got - 2010.06.03 11:33:40.
