data_PCOD9038348
_publ_section_title
;
Structure prediction by ZEFSAII (Michael W. Deem and Ramdas Pophale) SiO2 
 PCOD9038348
Probable space group: P -1
;
_chemical_formula_sum "Si O2"
_cell_formula_units_Z 16
_cell_length_a 6.936946
_cell_length_b 11.328338
_cell_length_c 14.463383
_cell_angle_alpha 58.750943
_cell_angle_beta 55.163924
_cell_angle_gamma 88.660209
_cell_volume 734.747581
_symmetry_space_group_name_H-M "P -1"
_symmetry_group_IT_number 2
_symmetry_cell_setting 'triclinic'
loop_
_space_group_symop_operation_xyz
x,y,z
-x,-y,-z
loop_
_atom_site_type_symbol
_atom_site_label
_atom_site_fract_x
_atom_site_fract_y
_atom_site_fract_z
Si Si1 0.208424 0.765905 0.208404
Si Si2 0.857682 0.878648 0.770031
Si Si3 0.946457 0.212165 0.062428
Si Si4 0.507543 0.579102 0.199286
Si Si5 0.593452 0.017356 0.097681
Si Si6 0.621385 0.875221 0.513777
Si Si7 0.524838 0.322624 0.181310
Si Si8 0.362989 0.382404 0.502950
O O1 0.301744 0.641660 0.193817
O O2 0.931056 0.697231 0.354427
O O3 0.428220 0.845736 0.191647
O O4 0.242447 0.893618 0.071150
O O5 0.626615 0.918326 0.854961
O O6 0.721778 0.748877 0.786637
O O7 0.986748 0.824982 0.839179
O O8 0.074940 0.027995 0.609258
O O9 0.774547 0.060547 0.118386
O O10 0.773939 0.310347 0.072621
O O11 0.214283 0.296229 0.904749
O O12 0.563798 0.484836 0.140113
O O13 0.396888 0.478105 0.360705
O O14 0.534450 0.780504 0.669250
O O15 0.554006 0.754990 0.495990
O O16 0.500000 0.000000 0.500000
O O17 0.500000 0.500000 0.500000
#
# Coordination Sequence:
#
# PCOD9038348 Si02
#       8
#     2   2   2   2   2   2   2   2
#     4  11  22  44  64  92 131 172 216 264 331 384
#     4  11  21  42  66  95 126 169 216 269 326 380
#     4  11  22  42  66  97 129 169 217 266 329 381
#     4  11  24  42  62  94 133 174 215 258 330 397
#     4  10  23  41  68  96 128 166 216 277 314 383
#     4  11  22  42  67  96 131 171 223 267 328 387
#     4  10  24  41  64  94 132 170 211 275 320 389
#     4  11  25  43  65  97 136 172 218 270 324 397
#
# _framework density 21.776187
#
# number of rings (size 3 to 8) (size 9 to 14) (size 15 to 20)
#    0.000    1.250    3.750    1.875    0.000    3.000 
#    2.250    0.000    0.000    0.000    0.000    0.000 
#    0.000    0.000    0.000    0.000    0.000    0.000 
#
# Total GULP energy -89398.491391 kJ/mol
# GULP energy per Si atom -5587.405712 kJ/mol
# Density = 2.172662 g / cm^3
# Si number density = 21.776187 Si / 1000 Ang^3
#
#
#
# Elastic Constant Matrix: (Units=GPa)
#
#
# Indices 1 2 3 4 5 6 
#
# 1 84.7162 58.0360 17.6350 4.1537 -12.6465 16.6044
# 2 58.0360 103.5163 9.9452 3.4863 -15.2349 9.1681
# 3 17.6350 9.9452 106.6358 8.2622 -31.1362 -4.5926
# 4 4.1537 3.4863 8.2622 23.1648 -1.7512 -1.5863
# 5 -12.6465 -15.2349 -31.1362 -1.7512 26.0993 -2.1844
# 6 16.6044 9.1681 -4.5926 -1.5863 -2.1844 33.6065
#
#
#
# Elastic Compliance Matrix: (Units=1/GPa)
#
#
# Indices 1 2 3 4 5 6 
#
# 1 0.021666 -0.011116 -0.002796 -0.001782 -0.000128 -0.008147
# 2 -0.011116 0.016619 0.002626 -0.000753 0.007546 0.001772
# 3 -0.002796 0.002626 0.015534 -0.003752 0.018779 0.003832
# 4 -0.001782 -0.000753 -0.003752 0.044920 -0.002554 0.002527
# 5 -0.000128 0.007546 0.018779 -0.002554 0.065282 0.004694
# 6 -0.008147 0.001772 0.003832 0.002527 0.004694 0.034246
#
#
# Mechanical properties :
#
#
# Convention : Reuss Voigt Hill
#
# Bulk Modulus (GPa) = 32.00253 51.78895 41.89574
# Shear Modulus (GPa) = 21.62107 30.52428 26.07268
#
# Velocity S-wave (km/s) = 3.15441 3.74803 3.46396
# Velocity P-wave (km/s) = 5.29104 6.52413 5.93967
#
# Compressibility (1/GPa) = 0.03124753
#
# Stress axis : x y z
#
# Youngs Moduli (GPa) = 46.15452 60.17248 64.37406
#
# Poissons Ratio (x) = 0.66886 0.18002
# Poissons Ratio (y) = 0.51304 -0.16906
# Poissons Ratio (z) = 0.12907 -0.15803
#
# Static dielectric constant tensor:
#      x y z
#    x 1.766150 0.013090 0.017390 
#    y 0.013090 1.875420 -0.008720 
#    z 0.017390 -0.008720 1.782600 
# 
# From -- ./inp_files/441731.got.cif
#   From: 2010.05.17/outbox.cif.g08.bks.cpg/sg2_221_cif.got.tgz:441731.got - 2010.06.03 11:33:40.
