data_PCOD9038705
_publ_section_title
;
Structure prediction by ZEFSAII (Michael W. Deem and Ramdas Pophale) SiO2 
 PCOD9038705
Probable space group: P -1
;
_chemical_formula_sum "Si O2"
_cell_formula_units_Z 13
_cell_length_a 5.137621
_cell_length_b 19.632537
_cell_length_c 12.182937
_cell_angle_alpha 151.177986
_cell_angle_beta 79.529355
_cell_angle_gamma 109.441046
_cell_volume 542.067404
_symmetry_space_group_name_H-M "P -1"
_symmetry_group_IT_number 2
_symmetry_cell_setting 'triclinic'
loop_
_space_group_symop_operation_xyz
x,y,z
-x,-y,-z
loop_
_atom_site_type_symbol
_atom_site_label
_atom_site_fract_x
_atom_site_fract_y
_atom_site_fract_z
Si Si1 0.945179 0.857019 0.380080
Si Si2 0.630015 0.168629 0.517921
Si Si3 0.233684 0.636746 0.537522
Si Si4 0.478053 0.423042 0.108221
Si Si5 0.359133 0.613133 0.721749
Si Si6 0.781927 0.076914 0.156420
Si Si7 0.000000 0.500000 0.000000
O O1 0.701829 0.860733 0.488911
O O2 0.232449 0.863057 0.424773
O O3 0.794313 0.693514 0.101011
O O4 0.000000 0.000000 0.500000
O O5 0.704313 0.072663 0.283226
O O6 0.804038 0.345653 0.733756
O O7 0.441430 0.578235 0.368470
O O8 0.361144 0.709888 0.749390
O O9 0.115291 0.748708 0.643193
O O10 0.969315 0.481778 0.361689
O O11 0.506552 0.337960 0.099528
O O12 0.743934 0.463026 0.062919
O O13 0.500000 0.500000 0.500000
O O14 0.500000 0.000000 0.000000
O O15 0.000000 0.000000 0.000000
#
# Coordination Sequence:
#
# PCOD9038705 Si02
#       7
#     2   2   2   2   2   2   1
#     4  11  26  47  70 105 145 189 238 297 368 439
#     4  11  26  48  72 107 141 190 244 298 368 429
#     4  10  23  43  73 102 144 187 249 301 362 439
#     4  10  23  41  74 108 146 189 243 306 371 431
#     4   9  20  42  67 107 134 185 239 303 357 423
#     4  12  29  48  71 105 146 195 239 301 370 434
#     4  10  24  42  78 104 144 184 244 304 356 428
#
# _framework density 23.982256
#
# number of rings (size 3 to 8) (size 9 to 14) (size 15 to 20)
#    0.000    1.538    0.000    2.308   15.077    2.462 
#   13.846    0.000    0.000    0.000    0.000    0.000 
#    0.000    0.000    0.000    0.000    0.000    0.000 
#
# Total GULP energy -72455.261361 kJ/mol
# GULP energy per Si atom -5573.481643 kJ/mol
# Density = 2.392767 g / cm^3
# Si number density = 23.982256 Si / 1000 Ang^3
#
#
#
# Elastic Constant Matrix: (Units=GPa)
#
#
# Indices 1 2 3 4 5 6 
#
# 1 91.1140 19.4129 29.3080 -16.8302 -15.4356 -0.1434
# 2 19.4129 73.0127 45.8360 -15.9368 -17.3343 0.5686
# 3 29.3080 45.8360 106.5235 -30.4006 -19.8520 12.7751
# 4 -16.8302 -15.9368 -30.4006 49.0317 1.2180 0.0683
# 5 -15.4356 -17.3343 -19.8520 1.2180 35.2348 -4.4619
# 6 -0.1434 0.5686 12.7751 0.0683 -4.4619 40.4623
#
#
#
# Elastic Compliance Matrix: (Units=1/GPa)
#
#
# Indices 1 2 3 4 5 6 
#
# 1 0.012987 -0.000663 -0.001717 0.003066 0.004426 0.001081
# 2 -0.000663 0.020144 -0.007237 0.001685 0.005818 0.002638
# 3 -0.001717 -0.007237 0.016298 0.007070 0.004041 -0.004617
# 4 0.003066 0.001685 0.007070 0.026256 0.005028 -0.001735
# 5 0.004426 0.005818 0.004041 0.005028 0.035612 0.002577
# 6 0.001081 0.002638 -0.004617 -0.001735 0.002577 0.026426
#
#
# Mechanical properties :
#
#
# Convention : Reuss Voigt Hill
#
# Bulk Modulus (GPa) = 33.11824 51.08487 42.10155
# Shear Modulus (GPa) = 29.93613 36.68531 33.31072
#
# Velocity S-wave (km/s) = 3.53691 3.91536 3.73094
# Velocity P-wave (km/s) = 5.52441 6.46432 6.01276
#
# Compressibility (1/GPa) = 0.03019484
#
# Stress axis : x y z
#
# Youngs Moduli (GPa) = 77.00086 49.64227 61.35575
#
# Poissons Ratio (x) = 0.03292 0.10538
# Poissons Ratio (y) = 0.05106 0.44401
# Poissons Ratio (z) = 0.13225 0.35924
#
# Static dielectric constant tensor:
#      x y z
#    x 2.021530 -0.041820 -0.082720 
#    y -0.041820 2.014730 -0.040620 
#    z -0.082720 -0.040620 2.005230 
# 
# From -- ./inp_files/62577.got.cif
#   From: 2010.05.17/outbox.cif.g08.bks.cpg/sg2_32_cif.got.tgz:62577.got - 2010.06.03 11:33:40.
