data_PCOD9038121
_publ_section_title
;
Structure prediction by ZEFSAII (Michael W. Deem and Ramdas Pophale) SiO2 
 PCOD9038121
Probable space group: P -1
;
_chemical_formula_sum "Si O2"
_cell_formula_units_Z 16
_cell_length_a 8.419235
_cell_length_b 15.259929
_cell_length_c 14.583707
_cell_angle_alpha 150.619755
_cell_angle_beta 89.447238
_cell_angle_gamma 109.186539
_cell_volume 696.331759
_symmetry_space_group_name_H-M "P -1"
_symmetry_group_IT_number 2
_symmetry_cell_setting 'triclinic'
loop_
_space_group_symop_operation_xyz
x,y,z
-x,-y,-z
loop_
_atom_site_type_symbol
_atom_site_label
_atom_site_fract_x
_atom_site_fract_y
_atom_site_fract_z
Si Si1 0.354650 0.357827 0.484223
Si Si2 0.964409 0.285295 0.352336
Si Si3 0.577770 0.849173 0.867728
Si Si4 0.285995 0.007011 0.305175
Si Si5 0.034207 0.521276 0.907756
Si Si6 0.482001 0.659685 0.027844
Si Si7 0.268001 0.857738 0.589278
Si Si8 0.250047 0.144973 0.611858
O O1 0.491907 0.639661 0.750870
O O2 0.452398 0.278793 0.344300
O O3 0.278387 0.189471 0.418800
O O4 0.161102 0.305766 0.387185
O O5 0.873018 0.271662 0.439642
O O6 0.000000 0.500000 0.500000
O O7 0.814327 0.057990 0.083126
O O8 0.500000 0.000000 0.000000
O O9 0.515782 0.095538 0.364343
O O10 0.267442 0.998573 0.407792
O O11 0.075814 0.733962 0.042334
O O12 0.860133 0.284778 0.633726
O O13 0.264910 0.606536 0.976725
O O14 0.000000 0.500000 0.000000
O O15 0.611846 0.775473 0.226732
O O16 0.650567 0.877623 0.161397
O O17 0.388626 0.394862 0.784950
O O18 0.000000 0.000000 0.500000
#
# Coordination Sequence:
#
# PCOD9038121 Si02
#       8
#     2   2   2   2   2   2   2   2
#     4  11  27  45  75 110 142 193 245 302 376 443
#     4  12  27  46  75 103 144 193 246 305 375 441
#     4  11  24  49  75 101 147 186 239 307 374 439
#     4  11  26  42  69 104 141 181 244 297 361 443
#     4  11  23  44  70  99 143 187 239 300 366 435
#     4  10  23  41  66  96 136 184 235 286 360 430
#     4  11  26  44  70 103 140 189 245 298 370 436
#     4  11  23  41  67  99 144 184 233 294 365 433
#
# _framework density 22.977550999999998
#
# number of rings (size 3 to 8) (size 9 to 14) (size 15 to 20)
#    0.000    1.000    1.250    4.125    8.750    5.000 
#    0.000    0.000    0.000    0.000    0.000    0.000 
#    0.000    0.000    0.000    0.000    0.000    0.000 
#
# Total GULP energy -89075.179848 kJ/mol
# GULP energy per Si atom -5567.198740 kJ/mol
# Density = 2.292525 g / cm^3
# Si number density = 22.977551 Si / 1000 Ang^3
#
#
#
# Elastic Constant Matrix: (Units=GPa)
#
#
# Indices 1 2 3 4 5 6 
#
# 1 64.5837 21.6224 24.5785 11.4597 -2.4116 -10.2196
# 2 21.6224 119.6460 58.4107 18.1205 -6.4280 -9.9002
# 3 24.5785 58.4107 157.3237 36.3666 4.4465 -14.9368
# 4 11.4597 18.1205 36.3666 44.0093 -0.6406 -9.5059
# 5 -2.4116 -6.4280 4.4465 -0.6406 35.1108 0.9279
# 6 -10.2196 -9.9002 -14.9368 -9.5059 0.9279 32.7814
#
#
#
# Elastic Compliance Matrix: (Units=1/GPa)
#
#
# Indices 1 2 3 4 5 6 
#
# 1 0.017570 -0.001912 -0.001260 -0.001926 0.000882 0.003743
# 2 -0.001912 0.010710 -0.003474 -0.000847 0.002234 0.000747
# 3 -0.001260 -0.003474 0.009340 -0.005727 -0.002042 0.001211
# 4 -0.001926 -0.000847 -0.005727 0.029406 0.000841 0.005037
# 5 0.000882 0.002234 -0.002042 0.000841 0.029240 -0.000564
# 6 0.003743 0.000747 0.001211 0.005037 -0.000564 0.033926
#
#
# Mechanical properties :
#
#
# Convention : Reuss Voigt Hill
#
# Bulk Modulus (GPa) = 41.10346 61.19741 51.15044
# Shear Modulus (GPa) = 32.98361 38.17641 35.58001
#
# Velocity S-wave (km/s) = 3.79287 4.08053 3.93933
# Velocity P-wave (km/s) = 6.09168 6.99231 6.55747
#
# Compressibility (1/GPa) = 0.02432885
#
# Stress axis : x y z
#
# Youngs Moduli (GPa) = 56.91504 93.37454 107.07193
#
# Poissons Ratio (x) = 0.17849 0.13487
# Poissons Ratio (y) = 0.10879 0.37196
# Poissons Ratio (z) = 0.07169 0.32438
#
# Static dielectric constant tensor:
#      x y z
#    x 1.939720 -0.087690 -0.231310 
#    y -0.087690 2.025480 0.298030 
#    z -0.231310 0.298030 2.649700 
# 
# From -- ./inp_files/505854.got.cif
#   From: 2010.05.17/outbox.cif.g08.bks.cpg/sg2_253_cif.got.tgz:505854.got - 2010.06.03 11:33:40.
