data_PCOD9038300
_publ_section_title
;
Structure prediction by ZEFSAII (Michael W. Deem and Ramdas Pophale) SiO2 
 PCOD9038300
Probable space group: P -1
;
_chemical_formula_sum "Si O2"
_cell_formula_units_Z 12
_cell_length_a 21.078127
_cell_length_b 8.486304
_cell_length_c 8.260501
_cell_angle_alpha 133.146065
_cell_angle_beta 47.766695
_cell_angle_gamma 150.260493
_cell_volume 522.102540
_symmetry_space_group_name_H-M "P -1"
_symmetry_group_IT_number 2
_symmetry_cell_setting 'triclinic'
loop_
_space_group_symop_operation_xyz
x,y,z
-x,-y,-z
loop_
_atom_site_type_symbol
_atom_site_label
_atom_site_fract_x
_atom_site_fract_y
_atom_site_fract_z
Si Si1 0.171817 0.870527 0.844426
Si Si2 0.587963 0.822394 0.180428
Si Si3 0.972930 0.822061 0.253719
Si Si4 0.846231 0.273099 0.594902
Si Si5 0.405917 0.466924 0.524215
Si Si6 0.762663 0.472830 0.119097
O O1 0.100095 0.540552 0.831983
O O2 0.178932 0.786391 0.594602
O O3 0.311028 0.143528 0.879574
O O4 0.099783 0.962368 0.047733
O O5 0.498447 0.745832 0.423871
O O6 0.666447 0.141006 0.160126
O O7 0.500000 0.500000 0.000000
O O8 0.878828 0.766702 0.250362
O O9 0.000000 0.000000 0.500000
O O10 0.000000 0.500000 0.500000
O O11 0.716431 0.890195 0.604279
O O12 0.828944 0.458741 0.855318
O O13 0.500000 0.500000 0.500000
O O14 0.326816 0.504693 0.777383
#
# Coordination Sequence:
#
# PCOD9038300 Si02
#       6
#     2   2   2   2   2   2
#     4  10  23  43  66 101 142 181 234 292 347 421
#     4  11  23  47  72 100 139 189 238 295 350 425
#     4  10  23  41  68 101 138 183 234 287 351 421
#     4  12  25  46  70 103 148 184 235 295 352 426
#     4  12  27  48  69 102 145 191 239 296 355 419
#     4  11  26  44  75 105 137 191 241 286 361 423
#
# _framework density 22.983989999999999
#
# number of rings (size 3 to 8) (size 9 to 14) (size 15 to 20)
#    0.000    1.000    5.000    0.500    4.667    2.667 
#    0.000    0.000    0.000    0.000    0.000    0.000 
#    0.000    0.000    0.000    0.000    0.000    0.000 
#
# Total GULP energy -66963.969920 kJ/mol
# GULP energy per Si atom -5580.330827 kJ/mol
# Density = 2.293168 g / cm^3
# Si number density = 22.983990 Si / 1000 Ang^3
#
#
#
# Elastic Constant Matrix: (Units=GPa)
#
#
# Indices 1 2 3 4 5 6 
#
# 1 138.9801 50.4783 77.6596 -4.7501 -11.3931 39.6049
# 2 50.4783 111.2749 37.4525 -13.5338 -8.4085 25.0696
# 3 77.6596 37.4525 177.8080 -26.2115 -10.0414 31.3453
# 4 -4.7501 -13.5338 -26.2115 37.9366 6.8302 8.9468
# 5 -11.3931 -8.4085 -10.0414 6.8302 40.3082 -0.2621
# 6 39.6049 25.0696 31.3453 8.9468 -0.2621 47.0617
#
#
#
# Elastic Compliance Matrix: (Units=1/GPa)
#
#
# Indices 1 2 3 4 5 6 
#
# 1 0.012145 -0.002878 -0.003659 -0.000975 0.002047 -0.006053
# 2 -0.002878 0.012051 0.000508 0.005395 0.000878 -0.005356
# 3 -0.003659 0.000508 0.008926 0.006923 0.000093 -0.004452
# 4 -0.000975 0.005395 0.006923 0.036851 -0.003759 -0.013691
# 5 0.002047 0.000878 0.000093 -0.003759 0.026222 -0.001391
# 6 -0.006053 -0.005356 -0.004452 -0.013691 -0.001391 0.034756
#
#
# Mechanical properties :
#
#
# Convention : Reuss Voigt Hill
#
# Bulk Modulus (GPa) = 47.47755 84.36042 65.91899
# Shear Modulus (GPa) = 33.32674 42.55948 37.94311
#
# Velocity S-wave (km/s) = 3.81202 4.30781 4.06747
# Velocity P-wave (km/s) = 6.33063 7.84389 7.12754
#
# Compressibility (1/GPa) = 0.02106259
#
# Stress axis : x y z
#
# Youngs Moduli (GPa) = 82.34059 82.98385 112.03319
#
# Poissons Ratio (x) = 0.23881 0.40995
# Poissons Ratio (y) = 0.23696 -0.05688
# Poissons Ratio (z) = 0.30130 -0.04213
#
# Static dielectric constant tensor:
#      x y z
#    x 1.804330 -0.126440 -0.132910 
#    y -0.126440 1.828280 -0.244320 
#    z -0.132910 -0.244320 1.632850 
# 
# From -- ./inp_files/36809.got.cif
#   From: 2010.05.17/outbox.cif.g08.bks.cpg/sg2_19_cif.got.tgz:36809.got - 2010.06.03 11:33:40.
