data_PCOD9038159
_publ_section_title
;
Structure prediction by ZEFSAII (Michael W. Deem and Ramdas Pophale) SiO2 
 PCOD9038159
Probable space group: P -1
;
_chemical_formula_sum "Si O2"
_cell_formula_units_Z 16
_cell_length_a 9.262585
_cell_length_b 11.636595
_cell_length_c 10.915361
_cell_angle_alpha 108.380294
_cell_angle_beta 119.016003
_cell_angle_gamma 42.424124
_cell_volume 692.246657
_symmetry_space_group_name_H-M "P -1"
_symmetry_group_IT_number 2
_symmetry_cell_setting 'triclinic'
loop_
_space_group_symop_operation_xyz
x,y,z
-x,-y,-z
loop_
_atom_site_type_symbol
_atom_site_label
_atom_site_fract_x
_atom_site_fract_y
_atom_site_fract_z
Si Si1 0.419276 0.334116 0.096558
Si Si2 0.962083 0.898656 0.529969
Si Si3 0.445591 0.520855 0.625369
Si Si4 0.301673 0.138555 0.065975
Si Si5 0.544358 0.945721 0.353568
Si Si6 0.190446 0.647090 0.983845
Si Si7 0.583661 0.258270 0.777121
Si Si8 0.944710 0.092411 0.164575
O O1 0.429308 0.436366 0.234231
O O2 0.299395 0.282763 0.091138
O O3 0.688240 0.169276 0.110419
O O4 0.271020 0.466840 0.968817
O O5 0.178106 0.698644 0.577961
O O6 0.916730 0.970610 0.671248
O O7 0.764742 0.914839 0.402294
O O8 0.000000 0.000000 0.500000
O O9 0.500000 0.500000 0.500000
O O10 0.518042 0.353740 0.652571
O O11 0.037004 0.225530 0.976279
O O12 0.373512 0.071437 0.213239
O O13 0.500000 0.000000 0.000000
O O14 0.561112 0.791225 0.292714
O O15 0.500000 0.000000 0.500000
O O16 0.105943 0.748695 0.856549
O O17 0.409617 0.618150 0.103069
O O18 0.842199 0.084648 0.874233
#
# Coordination Sequence:
#
# PCOD9038159 Si02
#       8
#     2   2   2   2   2   2   2   2
#     4  10  24  40  68  98 135 175 228 280 342 403
#     4  11  23  43  68  97 131 178 227 276 341 406
#     4  10  23  41  66  99 134 179 221 280 341 401
#     4  12  26  44  68 104 136 180 231 281 340 406
#     4  12  25  44  70 101 132 182 231 280 337 409
#     4  11  23  43  66  96 137 176 224 280 344 400
#     4  11  23  39  68  95 133 171 227 276 338 398
#     4  11  20  41  68  94 126 178 220 276 337 407
#
# _framework density 23.113149
#
# number of rings (size 3 to 8) (size 9 to 14) (size 15 to 20)
#    0.000    1.000    2.500    4.125    3.500    2.500 
#    0.000    0.000    0.000    0.000    0.000    0.000 
#    0.000    0.000    0.000    0.000    0.000    0.000 
#
# Total GULP energy -89086.808516 kJ/mol
# GULP energy per Si atom -5567.925532 kJ/mol
# Density = 2.306054 g / cm^3
# Si number density = 23.113149 Si / 1000 Ang^3
#
#
#
# Elastic Constant Matrix: (Units=GPa)
#
#
# Indices 1 2 3 4 5 6 
#
# 1 155.9584 41.3466 46.9796 -5.5116 14.3423 42.7983
# 2 41.3466 101.3300 22.3746 -20.5998 -1.4414 31.7456
# 3 46.9796 22.3746 74.6057 -16.0580 -4.9619 20.1813
# 4 -5.5116 -20.5998 -16.0580 40.2026 5.1796 -6.9952
# 5 14.3423 -1.4414 -4.9619 5.1796 47.7827 -3.7254
# 6 42.7983 31.7456 20.1813 -6.9952 -3.7254 52.6341
#
#
#
# Elastic Compliance Matrix: (Units=1/GPa)
#
#
# Indices 1 2 3 4 5 6 
#
# 1 0.010313 -0.001682 -0.005066 -0.002006 -0.003920 -0.005973
# 2 -0.001682 0.013638 -0.000191 0.005653 -0.000188 -0.006047
# 3 -0.005066 -0.000191 0.018635 0.005974 0.002652 -0.001929
# 4 -0.002006 0.005653 0.005974 0.030089 -0.001885 -0.000204
# 5 -0.003920 -0.000188 0.002652 -0.001885 0.022864 0.003652
# 6 -0.005973 -0.006047 -0.001929 -0.000204 0.003652 0.028474
#
#
# Mechanical properties :
#
#
# Convention : Reuss Voigt Hill
#
# Bulk Modulus (GPa) = 34.83360 61.47731 48.15545
# Shear Modulus (GPa) = 33.90741 42.87009 38.38875
#
# Velocity S-wave (km/s) = 3.83432 4.31140 4.07984
# Velocity P-wave (km/s) = 5.89121 7.17220 6.56303
#
# Compressibility (1/GPa) = 0.02870792
#
# Stress axis : x y z
#
# Youngs Moduli (GPa) = 96.96851 73.32341 53.66150
#
# Poissons Ratio (x) = 0.12330 0.27187
# Poissons Ratio (y) = 0.16306 0.01026
# Poissons Ratio (z) = 0.49128 0.01402
#
# Static dielectric constant tensor:
#      x y z
#    x 1.859060 0.038100 -0.057840 
#    y 0.038100 1.668690 -0.033430 
#    z -0.057840 -0.033430 2.054330 
# 
# From -- ./inp_files/390486.got.cif
#   From: 2010.05.17/outbox.cif.g08.bks.cpg/sg2_196_cif.got.tgz:390486.got - 2010.06.03 11:33:40.
