data_PCOD9038587
_publ_section_title
;
Structure prediction by ZEFSAII (Michael W. Deem and Ramdas Pophale) SiO2 
 PCOD9038587
Probable space group: P -1
;
_chemical_formula_sum "Si O2"
_cell_formula_units_Z 16
_cell_length_a 11.205616
_cell_length_b 6.042815
_cell_length_c 11.319311
_cell_angle_alpha 92.384678
_cell_angle_beta 87.692337
_cell_angle_gamma 57.370724
_cell_volume 643.151161
_symmetry_space_group_name_H-M "P -1"
_symmetry_group_IT_number 2
_symmetry_cell_setting 'triclinic'
loop_
_space_group_symop_operation_xyz
x,y,z
-x,-y,-z
loop_
_atom_site_type_symbol
_atom_site_label
_atom_site_fract_x
_atom_site_fract_y
_atom_site_fract_z
Si Si1 0.951172 0.799834 0.455335
Si Si2 0.694646 0.861553 0.576898
Si Si3 0.663943 0.631163 0.189548
Si Si4 0.640295 0.854310 0.832454
Si Si5 0.131273 0.143903 0.058832
Si Si6 0.655053 0.424903 0.948934
Si Si7 0.084131 0.307761 0.806575
Si Si8 0.411242 0.405159 0.568551
O O1 0.786739 0.945056 0.504452
O O2 0.965540 0.761306 0.312291
O O3 0.000000 0.500000 0.500000
O O4 0.000000 0.000000 0.500000
O O5 0.731380 0.807793 0.711420
O O6 0.697709 0.617437 0.510822
O O7 0.531768 0.103944 0.591553
O O8 0.760393 0.743458 0.222863
O O9 0.657337 0.475415 0.299582
O O10 0.507478 0.871392 0.162731
O O11 0.720150 0.451924 0.068752
O O12 0.732103 0.827493 0.942384
O O13 0.616371 0.621392 0.846587
O O14 0.011751 0.383646 0.145287
O O15 0.214559 0.856437 0.105898
O O16 0.084745 0.166320 0.925203
O O17 0.500000 0.500000 0.000000
O O18 0.500000 0.500000 0.500000
#
# Coordination Sequence:
#
# PCOD9038587 Si02
#       8
#     2   2   2   2   2   2   2   2
#     4  12  29  55  82 115 159 216 271 330 403 492
#     4  10  24  44  70 107 147 201 257 322 403 466
#     4  11  22  44  73 108 158 197 262 322 403 475
#     4  11  23  45  69 106 157 195 254 327 394 478
#     4  11  25  47  71 109 151 201 261 322 404 464
#     4  12  24  40  74 110 147 209 264 321 396 482
#     4  11  25  50  74 111 158 200 261 337 399 482
#     4  10  23  41  71 107 149 193 256 331 393 465
#
# _framework density 24.877509
#
# number of rings (size 3 to 8) (size 9 to 14) (size 15 to 20)
#    0.000    1.000    3.750    1.875    3.500    2.500 
#    6.750    0.000    0.000    0.000    0.000    0.000 
#    0.000    0.000    0.000    0.000    0.000    0.000 
#
# Total GULP energy -89262.129542 kJ/mol
# GULP energy per Si atom -5578.883096 kJ/mol
# Density = 2.482089 g / cm^3
# Si number density = 24.877509 Si / 1000 Ang^3
#
#
#
# Elastic Constant Matrix: (Units=GPa)
#
#
# Indices 1 2 3 4 5 6 
#
# 1 97.3317 8.0894 32.6930 11.8293 14.6558 8.8777
# 2 8.0894 81.7527 42.7722 7.2174 4.8554 -4.4959
# 3 32.6930 42.7722 155.2691 4.4737 12.6801 18.2808
# 4 11.8293 7.2174 4.4737 22.4664 2.7261 -4.1207
# 5 14.6558 4.8554 12.6801 2.7261 37.7514 0.6477
# 6 8.8777 -4.4959 18.2808 -4.1207 0.6477 37.4410
#
#
#
# Elastic Compliance Matrix: (Units=1/GPa)
#
#
# Indices 1 2 3 4 5 6 
#
# 1 0.012461 0.000425 -0.001949 -0.006330 -0.003736 -0.002584
# 2 0.000425 0.015085 -0.004531 -0.003469 -0.000394 0.003548
# 3 -0.001949 -0.004531 0.008726 0.000141 -0.001528 -0.004300
# 4 -0.006330 -0.003469 0.000141 0.050241 -0.000884 0.006560
# 5 -0.003736 -0.000394 -0.001528 -0.000884 0.028550 0.000993
# 6 -0.002584 0.003548 -0.004300 0.006560 0.000993 0.030552
#
#
# Mechanical properties :
#
#
# Convention : Reuss Voigt Hill
#
# Bulk Modulus (GPa) = 41.38505 55.71809 48.55157
# Shear Modulus (GPa) = 30.16066 36.25168 33.20617
#
# Velocity S-wave (km/s) = 3.48568 3.82148 3.65744
# Velocity P-wave (km/s) = 5.73338 6.47435 6.11510
#
# Compressibility (1/GPa) = 0.02416332
#
# Stress axis : x y z
#
# Youngs Moduli (GPa) = 80.24939 66.29061 114.60061
#
# Poissons Ratio (x) = -0.02820 0.22339
# Poissons Ratio (y) = -0.03414 0.51922
# Poissons Ratio (z) = 0.15643 0.30034
#
# Static dielectric constant tensor:
#      x y z
#    x 2.102440 0.109770 0.050410 
#    y 0.109770 2.163190 0.030970 
#    z 0.050410 0.030970 2.014570 
# 
# From -- ./inp_files/410801.got.cif
#   From: 2010.05.17/outbox.cif.g08.bks.cpg/sg2_206_cif.got.tgz:410801.got - 2010.06.03 11:33:40.
