data_PCOD9038917
_publ_section_title
;
Structure prediction by ZEFSAII (Michael W. Deem and Ramdas Pophale) SiO2 
 PCOD9038917
Probable space group: P -1
;
_chemical_formula_sum "Si O2"
_cell_formula_units_Z 16
_cell_length_a 11.831546
_cell_length_b 12.368776
_cell_length_c 9.555434
_cell_angle_alpha 55.390972
_cell_angle_beta 127.302444
_cell_angle_gamma 89.599598
_cell_volume 772.627725
_symmetry_space_group_name_H-M "P -1"
_symmetry_group_IT_number 2
_symmetry_cell_setting 'triclinic'
loop_
_space_group_symop_operation_xyz
x,y,z
-x,-y,-z
loop_
_atom_site_type_symbol
_atom_site_label
_atom_site_fract_x
_atom_site_fract_y
_atom_site_fract_z
Si Si1 0.391778 0.695306 0.108576
Si Si2 0.064389 0.838270 0.590320
Si Si3 0.940820 0.153385 0.751440
Si Si4 0.740755 0.826620 0.394175
Si Si5 0.120206 0.340963 0.796582
Si Si6 0.454734 0.124281 0.054597
Si Si7 0.921917 0.479552 0.816827
Si Si8 0.698846 0.351514 0.651606
O O1 0.532743 0.516026 0.371056
O O2 0.327224 0.750248 0.179103
O O3 0.243145 0.716936 0.882100
O O4 0.463445 0.788806 0.020404
O O5 0.075783 0.857990 0.418370
O O6 0.924095 0.799887 0.549122
O O7 0.000000 0.000000 0.500000
O O8 0.768506 0.274917 0.610843
O O9 0.057589 0.223532 0.808952
O O10 0.000000 0.000000 0.000000
O O11 0.771476 0.656332 0.542538
O O12 0.615699 0.948561 0.327808
O O13 0.657014 0.896085 0.130051
O O14 0.000000 0.500000 0.500000
O O15 0.070814 0.404111 0.870069
O O16 0.317735 0.242185 0.977799
O O17 0.833890 0.381541 0.807300
O O18 0.000000 0.500000 0.000000
#
# Coordination Sequence:
#
# PCOD9038917 Si02
#       8
#     2   2   2   2   2   2   2   2
#     4  11  22  41  67  93 133 174 220 270 329 393
#     4  12  23  40  64  98 131 175 224 272 325 398
#     4  11  24  41  67  99 135 174 218 277 336 395
#     4  11  22  38  67  97 125 171 224 263 328 395
#     4  11  21  44  69  96 127 177 227 265 327 405
#     4  11  21  39  69  94 126 172 222 271 316 397
#     4  11  22  41  68  98 133 172 216 275 333 393
#     4  10  23  42  64  96 135 175 216 271 336 399
#
# _framework density 20.708552000000001
#
# number of rings (size 3 to 8) (size 9 to 14) (size 15 to 20)
#    0.000    1.000    5.000    2.250    0.000    1.500 
#    0.000    3.125    0.000    0.000    0.000    0.000 
#    0.000    0.000    0.000    0.000    0.000    0.000 
#
# Total GULP energy -89258.052462 kJ/mol
# GULP energy per Si atom -5578.628279 kJ/mol
# Density = 2.066142 g / cm^3
# Si number density = 20.708552 Si / 1000 Ang^3
#
#
#
# Elastic Constant Matrix: (Units=GPa)
#
#
# Indices 1 2 3 4 5 6 
#
# 1 131.6039 54.5168 39.3018 -6.2938 5.9688 -27.8463
# 2 54.5168 96.8877 37.0425 0.5385 -8.3576 -25.7584
# 3 39.3018 37.0425 68.1793 10.6248 10.9890 -16.1089
# 4 -6.2938 0.5385 10.6248 38.7313 -0.8373 -4.1626
# 5 5.9688 -8.3576 10.9890 -0.8373 33.7288 1.1531
# 6 -27.8463 -25.7584 -16.1089 -4.1626 1.1531 50.2347
#
#
#
# Elastic Compliance Matrix: (Units=1/GPa)
#
#
# Indices 1 2 3 4 5 6 
#
# 1 0.011418 -0.004359 -0.003636 0.003219 -0.001947 0.003240
# 2 -0.004359 0.017298 -0.007373 0.001669 0.007362 0.004058
# 3 -0.003636 -0.007373 0.023669 -0.007026 -0.009118 0.001421
# 4 0.003219 0.001669 -0.007026 0.028595 0.002751 0.002694
# 5 -0.001947 0.007362 -0.009118 0.002751 0.034883 -0.000801
# 6 0.003240 0.004058 0.001421 0.002694 -0.000801 0.024480
#
#
# Mechanical properties :
#
#
# Convention : Reuss Voigt Hill
#
# Bulk Modulus (GPa) = 46.19267 62.04367 54.11817
# Shear Modulus (GPa) = 28.04324 35.59297 31.81810
#
# Velocity S-wave (km/s) = 3.68392 4.15029 3.92404
# Velocity P-wave (km/s) = 6.35999 7.27956 6.83526
#
# Compressibility (1/GPa) = 0.02164846
#
# Stress axis : x y z
#
# Youngs Moduli (GPa) = 87.58214 57.81152 42.24885
#
# Poissons Ratio (x) = 0.25200 0.15362
# Poissons Ratio (y) = 0.38178 0.31151
# Poissons Ratio (z) = 0.31845 0.42625
#
# Static dielectric constant tensor:
#      x y z
#    x 1.810290 -0.020670 0.033820 
#    y -0.020670 1.739120 -0.026880 
#    z 0.033820 -0.026880 1.798900 
# 
# From -- ./inp_files/262143.got.cif
#   From: 2010.05.17/outbox.cif.g08.bks.cpg/sg2_132_cif.got.tgz:262143.got - 2010.06.03 11:33:40.
