data_PCOD9038560
_publ_section_title
;
Structure prediction by ZEFSAII (Michael W. Deem and Ramdas Pophale) SiO2 
 PCOD9038560
Probable space group: P -1
;
_chemical_formula_sum "Si O2"
_cell_formula_units_Z 14
_cell_length_a 10.475934
_cell_length_b 10.563957
_cell_length_c 11.691377
_cell_angle_alpha 129.550184
_cell_angle_beta 112.857630
_cell_angle_gamma 38.514015
_cell_volume 604.782843
_symmetry_space_group_name_H-M "P -1"
_symmetry_group_IT_number 2
_symmetry_cell_setting 'triclinic'
loop_
_space_group_symop_operation_xyz
x,y,z
-x,-y,-z
loop_
_atom_site_type_symbol
_atom_site_label
_atom_site_fract_x
_atom_site_fract_y
_atom_site_fract_z
Si Si1 0.047227 0.686012 0.634722
Si Si2 0.281364 0.957245 0.083460
Si Si3 0.567043 0.519194 0.227393
Si Si4 0.308133 0.204488 0.861780
Si Si5 0.091358 0.971555 0.393610
Si Si6 0.695966 0.744223 0.359248
Si Si7 0.044452 0.206506 0.912494
O O1 0.249200 0.620961 0.696041
O O2 0.130166 0.448364 0.593865
O O3 0.845176 0.923249 0.773872
O O4 0.990180 0.779318 0.538224
O O5 0.452459 0.949455 0.131978
O O6 0.397590 0.681659 0.941205
O O7 0.105120 0.131992 0.023201
O O8 0.343677 0.738465 0.336713
O O9 0.615950 0.632867 0.229829
O O10 0.257807 0.205553 0.713014
O O11 0.245845 0.111430 0.868093
O O12 0.150379 0.495548 0.001007
O O13 0.013507 0.906826 0.237368
O O14 0.000000 0.000000 0.500000
O O15 0.500000 0.000000 0.500000
#
# Coordination Sequence:
#
# PCOD9038560 Si02
#       7
#     2   2   2   2   2   2   2
#     4  10  24  42  73  98 132 174 225 285 330 389
#     4  12  21  44  73 105 127 170 236 281 335 392
#     4  10  23  41  71 100 128 175 224 281 333 386
#     4  11  24  40  67  98 136 178 221 273 341 394
#     4  12  26  44  68 101 136 180 226 271 342 406
#     4  10  23  45  65  96 138 179 218 276 335 398
#     4  11  23  43  65  97 141 173 219 282 328 400
#
# _framework density 23.148804999999999
#
# number of rings (size 3 to 8) (size 9 to 14) (size 15 to 20)
#    0.857    0.286    4.286    1.714    4.000    1.714 
#    2.571    2.857    0.000    0.000    0.000    0.000 
#    0.000    0.000    0.000    0.000    0.000    0.000 
#
# Total GULP energy -78259.556964 kJ/mol
# GULP energy per Si atom -5589.968355 kJ/mol
# Density = 2.309612 g / cm^3
# Si number density = 23.148805 Si / 1000 Ang^3
#
#
#
# Elastic Constant Matrix: (Units=GPa)
#
#
# Indices 1 2 3 4 5 6 
#
# 1 95.1059 24.4787 12.2578 -0.8295 -17.1262 -8.3521
# 2 24.4787 92.8721 22.3262 0.7441 -9.2526 -15.5642
# 3 12.2578 22.3262 32.5185 -6.2889 -15.4896 7.5138
# 4 -0.8295 0.7441 -6.2889 36.8783 1.3544 1.1787
# 5 -17.1262 -9.2526 -15.4896 1.3544 42.6521 -4.7570
# 6 -8.3521 -15.5642 7.5138 1.1787 -4.7570 46.5902
#
#
#
# Elastic Compliance Matrix: (Units=1/GPa)
#
#
# Indices 1 2 3 4 5 6 
#
# 1 0.012189 -0.001983 -0.001869 -0.000225 0.004042 0.002243
# 2 -0.001983 0.015287 -0.012343 -0.002630 -0.001132 0.006693
# 3 -0.001869 -0.012343 0.050658 0.008720 0.013412 -0.011480
# 4 -0.000225 -0.002630 0.008720 0.028698 0.001269 -0.002922
# 5 0.004042 -0.001132 0.013412 0.001269 0.029786 0.001193
# 6 0.002243 0.006693 -0.011480 -0.002922 0.001193 0.026149
#
#
# Mechanical properties :
#
#
# Convention : Reuss Voigt Hill
#
# Bulk Modulus (GPa) = 21.86083 37.62463 29.74273
# Shear Modulus (GPa) = 23.76371 35.98637 29.87504
#
# Velocity S-wave (km/s) = 3.20748 3.94708 3.59634
# Velocity P-wave (km/s) = 4.81470 6.08779 5.48829
#
# Compressibility (1/GPa) = 0.04574392
#
# Stress axis : x y z
#
# Youngs Moduli (GPa) = 82.04251 65.41397 19.74030
#
# Poissons Ratio (x) = 0.12971 0.03690
# Poissons Ratio (y) = 0.16269 0.24365
# Poissons Ratio (z) = 0.15335 0.80739
#
# Static dielectric constant tensor:
#      x y z
#    x 1.905980 0.010610 0.090690 
#    y 0.010610 1.884000 -0.021000 
#    z 0.090690 -0.021000 1.879790 
# 
# From -- ./inp_files/426522.got.cif
#   From: 2010.05.17/outbox.cif.g08.bks.cpg/sg2_214_cif.got.tgz:426522.got - 2010.06.03 11:33:40.
