data_PCOD9038041
_publ_section_title
;
Structure prediction by ZEFSAII (Michael W. Deem and Ramdas Pophale) SiO2 
 PCOD9038041
Probable space group: P -1
;
_chemical_formula_sum "Si O2"
_cell_formula_units_Z 16
_cell_length_a 9.399327
_cell_length_b 11.339925
_cell_length_c 26.394251
_cell_angle_alpha 22.165750
_cell_angle_beta 128.875989
_cell_angle_gamma 133.296578
_cell_volume 772.233203
_symmetry_space_group_name_H-M "P -1"
_symmetry_group_IT_number 2
_symmetry_cell_setting 'triclinic'
loop_
_space_group_symop_operation_xyz
x,y,z
-x,-y,-z
loop_
_atom_site_type_symbol
_atom_site_label
_atom_site_fract_x
_atom_site_fract_y
_atom_site_fract_z
Si Si1 0.987837 0.144583 0.383672
Si Si2 0.265519 0.794414 0.027347
Si Si3 0.307012 0.287719 0.314624
Si Si4 0.009036 0.149120 0.886474
Si Si5 0.672155 0.911161 0.176575
Si Si6 0.643980 0.724300 0.402433
Si Si7 0.208784 0.548849 0.549091
Si Si8 0.554589 0.890075 0.863446
O O1 0.193863 0.276142 0.347033
O O2 0.912166 0.451246 0.252014
O O3 0.845702 0.897354 0.409011
O O4 0.000000 0.000000 0.500000
O O5 0.228856 0.804432 0.955417
O O6 0.217334 0.449612 0.184878
O O7 0.145585 0.001331 0.944081
O O8 0.500000 0.000000 0.000000
O O9 0.522559 0.562789 0.258455
O O10 0.295740 0.915570 0.447222
O O11 0.789532 0.051313 0.854262
O O12 0.000000 0.000000 0.000000
O O13 0.816868 0.769755 0.294382
O O14 0.540856 0.033677 0.136739
O O15 0.500000 0.500000 0.500000
O O16 0.662588 0.497164 0.450359
O O17 0.549237 0.977315 0.256916
O O18 0.000000 0.500000 0.500000
O O19 0.500000 0.500000 0.000000
#
# Coordination Sequence:
#
# PCOD9038041 Si02
#       8
#     2   2   2   2   2   2   2   2
#     4  12  25  41  72 101 129 175 233 276 330 408
#     4  10  23  41  66 100 130 163 220 279 326 388
#     4  11  22  44  68  95 132 174 225 273 332 393
#     4  12  22  42  70  97 133 179 227 277 329 396
#     4  10  23  43  65  99 133 171 225 275 327 400
#     4  11  26  44  63  98 140 171 223 280 339 397
#     4  11  24  41  67  92 136 178 213 274 337 393
#     4  11  24  42  68  96 136 181 218 278 341 393
#
# _framework density 20.719131000000001
#
# number of rings (size 3 to 8) (size 9 to 14) (size 15 to 20)
#    0.000    1.000    3.750    2.625    3.500    4.000 
#    0.000    1.250    0.000    0.000    0.000    0.000 
#    0.000    0.000    0.000    0.000    0.000    0.000 
#
# Total GULP energy -89353.501443 kJ/mol
# GULP energy per Si atom -5584.593840 kJ/mol
# Density = 2.067197 g / cm^3
# Si number density = 20.719131 Si / 1000 Ang^3
#
#
#
# Elastic Constant Matrix: (Units=GPa)
#
#
# Indices 1 2 3 4 5 6 
#
# 1 95.6548 13.4089 65.9490 19.0560 -2.7282 -11.5084
# 2 13.4089 56.0405 13.9488 7.4743 7.4307 -8.8505
# 3 65.9490 13.9488 139.9223 16.2257 2.1742 -28.6835
# 4 19.0560 7.4743 16.2257 41.4649 -11.2759 2.8238
# 5 -2.7282 7.4307 2.1742 -11.2759 44.9617 4.8872
# 6 -11.5084 -8.8505 -28.6835 2.8238 4.8872 25.1729
#
#
#
# Elastic Compliance Matrix: (Units=1/GPa)
#
#
# Indices 1 2 3 4 5 6 
#
# 1 0.016484 -0.001863 -0.007375 -0.004059 0.000779 -0.001218
# 2 -0.001863 0.021167 0.001714 -0.006070 -0.006353 0.010458
# 3 -0.007375 0.001714 0.014012 -0.004509 -0.004116 0.014502
# 4 -0.004059 -0.006070 -0.004509 0.032799 0.010821 -0.014908
# 5 0.000779 -0.006353 -0.004116 0.010821 0.027681 -0.013155
# 6 -0.001218 0.010458 0.014502 -0.014908 -0.013155 0.063596
#
#
# Mechanical properties :
#
#
# Convention : Reuss Voigt Hill
#
# Bulk Modulus (GPa) = 27.31031 53.13677 40.22354
# Shear Modulus (GPa) = 24.63167 35.54063 30.08615
#
# Velocity S-wave (km/s) = 3.45169 4.14618 3.81477
# Velocity P-wave (km/s) = 5.39401 6.97302 6.23371
#
# Compressibility (1/GPa) = 0.03661621
#
# Stress axis : x y z
#
# Youngs Moduli (GPa) = 60.66375 47.24350 71.36983
#
# Poissons Ratio (x) = 0.08801 0.52634
# Poissons Ratio (y) = 0.11301 -0.12236
# Poissons Ratio (z) = 0.44739 -0.08100
#
# Static dielectric constant tensor:
#      x y z
#    x 2.149750 -0.032910 0.134760 
#    y -0.032910 1.729950 -0.020680 
#    z 0.134760 -0.020680 1.790310 
# 
# From -- ./inp_files/186703.got.cif
#   From: 2010.05.17/outbox.cif.g08.bks.cpg/sg2_94_cif.got.tgz:186703.got - 2010.06.03 11:33:40.
