data_PCOD9038686
_publ_section_title
;
Structure prediction by ZEFSAII (Michael W. Deem and Ramdas Pophale) SiO2 
 PCOD9038686
Probable space group: P -1
;
_chemical_formula_sum "Si O2"
_cell_formula_units_Z 16
_cell_length_a 10.582331
_cell_length_b 16.538911
_cell_length_c 5.616824
_cell_angle_alpha 93.823032
_cell_angle_beta 49.759148
_cell_angle_gamma 63.786274
_cell_volume 577.471548
_symmetry_space_group_name_H-M "P -1"
_symmetry_group_IT_number 2
_symmetry_cell_setting 'triclinic'
loop_
_space_group_symop_operation_xyz
x,y,z
-x,-y,-z
loop_
_atom_site_type_symbol
_atom_site_label
_atom_site_fract_x
_atom_site_fract_y
_atom_site_fract_z
Si Si1 0.921253 0.934647 0.438185
Si Si2 0.252367 0.415694 0.736947
Si Si3 0.804209 0.403500 0.958521
Si Si4 0.266020 0.322651 0.215052
Si Si5 0.797325 0.262424 0.648334
Si Si6 0.688083 0.141280 0.533964
Si Si7 0.093634 0.206519 0.900715
Si Si8 0.560032 0.062083 0.287195
O O1 0.891194 0.889199 0.233052
O O2 0.134245 0.825285 0.257493
O O3 0.882535 0.038382 0.420099
O O4 0.716414 0.986905 0.870776
O O5 0.337368 0.354727 0.367481
O O6 0.270622 0.358828 0.948241
O O7 0.000000 0.500000 0.000000
O O8 0.324875 0.482857 0.744564
O O9 0.018428 0.375993 0.570725
O O10 0.909643 0.314746 0.016023
O O11 0.694578 0.374956 0.903066
O O12 0.454533 0.197171 0.943745
O O13 0.704467 0.233557 0.549674
O O14 0.023560 0.224498 0.260899
O O15 0.676133 0.099058 0.292331
O O16 0.322458 0.171830 0.552972
O O17 0.500000 0.000000 0.500000
#
# Coordination Sequence:
#
# PCOD9038686 Si02
#       8
#     2   2   2   2   2   2   2   2
#     4  11  23  42  65  89 132 175 231 275 337 398
#     4  10  23  44  73 109 134 170 228 292 350 404
#     4  10  23  41  73  95 131 169 222 285 338 408
#     4  11  25  44  72 108 135 175 231 287 348 404
#     4  11  25  43  62  95 133 182 227 268 342 413
#     4  12  27  41  64  93 138 181 223 280 337 409
#     4  11  23  40  65  99 127 173 226 274 343 402
#     4  12  23  39  63  92 129 167 220 282 333 389
#
# _framework density 27.706994999999999
#
# number of rings (size 3 to 8) (size 9 to 14) (size 15 to 20)
#    0.000    1.000    2.500    3.750   12.250    4.000 
#    0.000    1.250    0.000    0.000    0.000    0.000 
#    0.000    0.000    0.000    0.000    0.000    0.000 
#
# Total GULP energy -89423.495345 kJ/mol
# GULP energy per Si atom -5588.968459 kJ/mol
# Density = 2.764393 g / cm^3
# Si number density = 27.706995 Si / 1000 Ang^3
#
#
#
# Elastic Constant Matrix: (Units=GPa)
#
#
# Indices 1 2 3 4 5 6 
#
# 1 81.4593 26.7783 21.2535 1.0772 21.0006 27.4236
# 2 26.7783 109.9748 30.5423 0.7373 27.8091 18.0294
# 3 21.2535 30.5423 158.0964 10.8582 22.3119 9.4023
# 4 1.0772 0.7373 10.8582 38.2730 10.0082 8.5861
# 5 21.0006 27.8091 22.3119 10.0082 47.7388 19.7634
# 6 27.4236 18.0294 9.4023 8.5861 19.7634 56.5530
#
#
#
# Elastic Compliance Matrix: (Units=1/GPa)
#
#
# Indices 1 2 3 4 5 6 
#
# 1 0.016080 -0.001735 -0.001124 0.002186 -0.003434 -0.006189
# 2 -0.001735 0.011341 -0.001286 0.001782 -0.005195 -0.001015
# 3 -0.001124 -0.001286 0.007077 -0.001583 -0.002034 0.000730
# 4 0.002186 0.001782 -0.001583 0.028824 -0.005759 -0.003728
# 5 -0.003434 -0.005195 -0.002034 -0.005759 0.030123 -0.005993
# 6 -0.006189 -0.001015 0.000730 -0.003728 -0.005993 0.023547
#
#
# Mechanical properties :
#
#
# Convention : Reuss Voigt Hill
#
# Bulk Modulus (GPa) = 38.15762 56.29762 47.22762
# Shear Modulus (GPa) = 37.30848 46.57671 41.94259
#
# Velocity S-wave (km/s) = 3.67350 4.10450 3.89497
# Velocity P-wave (km/s) = 5.63866 6.54413 6.10820
#
# Compressibility (1/GPa) = 0.02620708
#
# Stress axis : x y z
#
# Youngs Moduli (GPa) = 62.19066 88.17650 141.29692
#
# Poissons Ratio (x) = 0.15298 0.15881
# Poissons Ratio (y) = 0.10789 0.18178
# Poissons Ratio (z) = 0.06990 0.11344
#
# Static dielectric constant tensor:
#      x y z
#    x 2.314050 0.017420 -0.026550 
#    y 0.017420 2.154300 -0.060860 
#    z -0.026550 -0.060860 2.152000 
# 
# From -- ./inp_files/77729.got.cif
#   From: 2010.05.17/outbox.cif.g08.bks.cpg/sg2_39_cif.got.tgz:77729.got - 2010.06.03 11:33:40.
