data_PCOD9038225
_publ_section_title
;
Structure prediction by ZEFSAII (Michael W. Deem and Ramdas Pophale) SiO2 
 PCOD9038225
Probable space group: P -1
;
_chemical_formula_sum "Si O2"
_cell_formula_units_Z 16
_cell_length_a 19.944612
_cell_length_b 13.908832
_cell_length_c 8.627278
_cell_angle_alpha 101.598904
_cell_angle_beta 70.396725
_cell_angle_gamma 158.671467
_cell_volume 775.404622
_symmetry_space_group_name_H-M "P -1"
_symmetry_group_IT_number 2
_symmetry_cell_setting 'triclinic'
loop_
_space_group_symop_operation_xyz
x,y,z
-x,-y,-z
loop_
_atom_site_type_symbol
_atom_site_label
_atom_site_fract_x
_atom_site_fract_y
_atom_site_fract_z
Si Si1 0.297914 0.296888 0.919038
Si Si2 0.418026 0.917006 0.298930
Si Si3 0.923047 0.788715 0.485479
Si Si4 0.737301 0.900310 0.842918
Si Si5 0.148853 0.783185 0.942624
Si Si6 0.208336 0.574211 0.048537
Si Si7 0.505922 0.168930 0.574295
Si Si8 0.914412 0.780292 0.842464
O O1 0.532137 0.624869 0.813184
O O2 0.300822 0.206550 0.000022
O O3 0.196661 0.258469 0.074545
O O4 0.142602 0.081830 0.828776
O O5 0.268003 0.707228 0.203378
O O6 0.405772 0.811508 0.395085
O O7 0.405931 0.998672 0.439389
O O8 0.636358 0.198173 0.134844
O O9 0.696072 0.484975 0.496959
O O10 0.916016 0.747285 0.655546
O O11 0.000000 0.000000 0.500000
O O12 0.075100 0.913993 0.317958
O O13 0.785853 0.074755 0.907169
O O14 0.013189 0.681923 0.915251
O O15 0.343142 0.004248 0.763792
O O16 0.000000 0.500000 0.000000
O O17 0.209371 0.459366 0.040621
#
# Coordination Sequence:
#
# PCOD9038225 Si02
#       8
#     2   2   2   2   2   2   2   2
#     4  10  23  41  67  94 130 173 219 270 326 389
#     4  10  23  41  67  94 130 173 219 270 326 389
#     4  12  25  42  68  98 133 175 221 269 331 389
#     4  11  24  42  67  97 132 172 221 270 325 391
#     4  12  25  42  68  98 133 175 221 269 331 389
#     4  11  22  41  67  98 131 172 218 271 329 392
#     4  11  24  42  67  97 132 172 221 270 325 391
#     4  11  22  41  67  98 131 172 218 271 329 392
#
# _framework density 20.634388999999999
#
# number of rings (size 3 to 8) (size 9 to 14) (size 15 to 20)
#    0.000    1.000    5.000    1.500    3.500    1.000 
#    0.000    1.250    0.000    0.000    0.000    0.000 
#    0.000    0.000    0.000    0.000    0.000    0.000 
#
# Total GULP energy -89385.945550 kJ/mol
# GULP energy per Si atom -5586.621597 kJ/mol
# Density = 2.058742 g / cm^3
# Si number density = 20.634389 Si / 1000 Ang^3
#
#
#
# Elastic Constant Matrix: (Units=GPa)
#
#
# Indices 1 2 3 4 5 6 
#
# 1 32.1888 11.4579 -10.3305 -2.3192 0.2849 -18.5150
# 2 11.4579 124.7386 29.0323 -3.5156 -16.3891 -18.8363
# 3 -10.3305 29.0323 59.8456 8.3853 -18.0248 -8.9386
# 4 -2.3192 -3.5156 8.3853 32.2945 0.1417 -4.2198
# 5 0.2849 -16.3891 -18.0248 0.1417 21.7522 0.2868
# 6 -18.5150 -18.8363 -8.9386 -4.2198 0.2868 35.1899
#
#
#
# Elastic Compliance Matrix: (Units=1/GPa)
#
#
# Indices 1 2 3 4 5 6 
#
# 1 0.058798 -0.003065 0.020421 0.003067 0.013364 0.034741
# 2 -0.003065 0.010372 -0.004096 0.002364 0.004404 0.003146
# 3 0.020421 -0.004096 0.032378 -0.005406 0.023301 0.015938
# 4 0.003067 0.002364 -0.005406 0.033586 -0.003030 0.005558
# 5 0.013364 0.004404 0.023301 -0.003030 0.068254 0.014388
# 6 0.034741 0.003146 0.015938 0.005558 0.014388 0.052978
#
#
# Mechanical properties :
#
#
# Convention : Reuss Voigt Hill
#
# Bulk Modulus (GPa) = 7.80840 30.78804 19.29822
# Shear Modulus (GPa) = 18.34631 30.28821 24.31726
#
# Velocity S-wave (km/s) = 2.98503 3.83541 3.43663
# Velocity P-wave (km/s) = 3.95891 5.87937 5.01198
#
# Compressibility (1/GPa) = 0.12806728
#
# Stress axis : x y z
#
# Youngs Moduli (GPa) = 17.00750 96.41389 30.88555
#
# Poissons Ratio (x) = 0.29553 -0.63071
# Poissons Ratio (y) = 0.05213 0.12649
# Poissons Ratio (z) = -0.34731 0.39487
#
# Static dielectric constant tensor:
#      x y z
#    x 1.751280 -0.045320 0.009900 
#    y -0.045320 1.766480 0.002720 
#    z 0.009900 0.002720 1.697230 
# 
# From -- ./inp_files/178240.got.cif
#   From: 2010.05.17/outbox.cif.g08.bks.cpg/sg2_90_cif.got.tgz:178240.got - 2010.06.03 11:33:40.
