data_PCOD9038298
_publ_section_title
;
Structure prediction by ZEFSAII (Michael W. Deem and Ramdas Pophale) SiO2 
 PCOD9038298
Probable space group: P -1
;
_chemical_formula_sum "Si O2"
_cell_formula_units_Z 15
_cell_length_a 7.893742
_cell_length_b 15.601385
_cell_length_c 7.712114
_cell_angle_alpha 132.928870
_cell_angle_beta 85.646295
_cell_angle_gamma 99.597248
_cell_volume 684.757520
_symmetry_space_group_name_H-M "P -1"
_symmetry_group_IT_number 2
_symmetry_cell_setting 'triclinic'
loop_
_space_group_symop_operation_xyz
x,y,z
-x,-y,-z
loop_
_atom_site_type_symbol
_atom_site_label
_atom_site_fract_x
_atom_site_fract_y
_atom_site_fract_z
Si Si1 0.503973 0.187734 0.384957
Si Si2 0.354903 0.126230 0.966826
Si Si3 0.098970 0.770393 0.493043
Si Si4 0.513831 0.367087 0.369450
Si Si5 0.715180 0.949724 0.486476
Si Si6 0.000000 0.000000 0.000000
Si Si7 0.918978 0.366977 0.360572
Si Si8 0.031337 0.814044 0.181459
O O1 0.695740 0.199018 0.455256
O O2 0.463524 0.316509 0.498713
O O3 0.377164 0.122076 0.445727
O O4 0.515256 0.880988 0.892586
O O5 0.389811 0.057186 0.695703
O O6 0.170259 0.076269 0.992995
O O7 0.396916 0.268200 0.124719
O O8 0.019791 0.884947 0.717740
O O9 0.042692 0.667281 0.493201
O O10 0.058652 0.746037 0.262851
O O11 0.500000 0.500000 0.500000
O O12 0.714255 0.353926 0.326044
O O13 0.868834 0.879610 0.315758
O O14 0.806818 0.080564 0.711698
O O15 0.000000 0.500000 0.500000
O O16 0.984251 0.272895 0.098465
#
# Coordination Sequence:
#
# PCOD9038298 Si02
#       8
#     2   2   2   2   2   1   2   2
#     4   9  24  41  66  98 140 178 226 285 343 411
#     4  10  23  41  68 101 136 178 223 286 340 407
#     4  11  25  44  67 101 139 179 231 286 351 407
#     4   9  23  45  68  96 133 186 236 277 341 403
#     4  11  23  42  68 105 138 179 225 284 356 415
#     4  12  22  40  70 102 140 186 218 282 354 406
#     4  11  27  46  72  97 137 189 234 289 338 416
#     4  11  26  41  68 105 138 176 233 287 344 421
#
# _framework density 21.905563000000001
#
# number of rings (size 3 to 8) (size 9 to 14) (size 15 to 20)
#    0.800    0.800    1.333    1.600   11.200    2.667 
#    0.000    0.667    0.000    0.000    0.000    0.000 
#    0.000    0.000    0.000    0.000    0.000    0.000 
#
# Total GULP energy -83555.759372 kJ/mol
# GULP energy per Si atom -5570.383958 kJ/mol
# Density = 2.185571 g / cm^3
# Si number density = 21.905563 Si / 1000 Ang^3
#
#
#
# Elastic Constant Matrix: (Units=GPa)
#
#
# Indices 1 2 3 4 5 6 
#
# 1 19.5170 1.7654 -14.2224 5.6348 8.6846 4.6766
# 2 1.7654 128.3118 11.0414 20.6307 10.7801 16.1185
# 3 -14.2224 11.0414 28.9961 21.7808 5.6444 15.1684
# 4 5.6348 20.6307 21.7808 41.5394 1.6829 6.4346
# 5 8.6846 10.7801 5.6444 1.6829 25.6522 6.2050
# 6 4.6766 16.1185 15.1684 6.4346 6.2050 40.6684
#
#
#
# Elastic Compliance Matrix: (Units=1/GPa)
#
#
# Indices 1 2 3 4 5 6 
#
# 1 -0.080859 -0.008313 -0.116435 0.068428 0.042641 0.038688
# 2 -0.008313 0.008259 -0.008919 0.001566 0.001058 0.000600
# 3 -0.116435 -0.008919 -0.093680 0.061961 0.051440 0.034213
# 4 0.068428 0.001566 0.061961 -0.013392 -0.030577 -0.024815
# 5 0.042641 0.001058 0.051440 -0.030577 0.020297 -0.022767
# 6 0.038688 0.000600 0.034213 -0.024815 -0.022767 0.014542
#
#
# Mechanical properties :
#
#
# Convention : Reuss Voigt Hill
#
# Bulk Modulus (GPa) = -2.30620 19.33265 8.51322
# Shear Modulus (GPa) = -226.88420 33.45470 -96.71475
#
# Velocity S-wave (km/s) = -10.18816 3.91221 -6.65181
# Velocity P-wave (km/s) = 11.80903 5.40849 7.42299
#
# Compressibility (1/GPa) = -0.43361284
#
# Stress axis : x y z
#
# Youngs Moduli (GPa) = -12.36721 121.07577 -10.67463
#
# Poissons Ratio (x) = 1.00649 -1.24290
# Poissons Ratio (y) = -0.10281 -0.09520
# Poissons Ratio (z) = -1.43998 1.07983
#
# Static dielectric constant tensor:
#      x y z
#    x 1.902700 -0.052410 -0.000900 
#    y -0.052410 1.836680 0.003730 
#    z -0.000900 0.003730 1.779080 
# 
# From -- ./inp_files/209223.got.cif
#   From: 2010.05.17/outbox.cif.g08.bks.cpg/sg2_105_cif.got.tgz:209223.got - 2010.06.03 11:33:40.
