data_PCOD9038053
_publ_section_title
;
Structure prediction by ZEFSAII (Michael W. Deem and Ramdas Pophale) SiO2 
 PCOD9038053
Probable space group: P -1
;
_chemical_formula_sum "Si O2"
_cell_formula_units_Z 14
_cell_length_a 12.106163
_cell_length_b 19.800389
_cell_length_c 8.183453
_cell_angle_alpha 43.953068
_cell_angle_beta 122.346810
_cell_angle_gamma 151.982931
_cell_volume 608.403860
_symmetry_space_group_name_H-M "P -1"
_symmetry_group_IT_number 2
_symmetry_cell_setting 'triclinic'
loop_
_space_group_symop_operation_xyz
x,y,z
-x,-y,-z
loop_
_atom_site_type_symbol
_atom_site_label
_atom_site_fract_x
_atom_site_fract_y
_atom_site_fract_z
Si Si1 0.005342 0.433243 0.778870
Si Si2 0.673506 0.012166 0.615677
Si Si3 0.233872 0.924797 0.801571
Si Si4 0.484960 0.725929 0.489168
Si Si5 0.744338 0.702976 0.770265
Si Si6 0.241913 0.380754 0.429316
Si Si7 0.693595 0.369192 0.845647
O O1 0.926571 0.447790 0.845961
O O2 0.000000 0.500000 0.500000
O O3 0.287508 0.578634 0.731833
O O4 0.826338 0.227444 0.978534
O O5 0.706524 0.012096 0.449380
O O6 0.955248 0.191896 0.598771
O O7 0.500000 0.000000 0.500000
O O8 0.518539 0.832477 0.898414
O O9 0.982786 0.815583 0.855875
O O10 0.444596 0.115810 0.731382
O O11 0.710740 0.796999 0.577790
O O12 0.383882 0.638036 0.381994
O O13 0.772297 0.679755 0.650624
O O14 0.500000 0.500000 0.000000
O O15 0.500000 0.500000 0.500000
O O16 0.267355 0.513326 0.215327
#
# Coordination Sequence:
#
# PCOD9038053 Si02
#       7
#     2   2   2   2   2   2   2
#     4  10  23  41  66 101 132 177 228 276 344 409
#     4  11  26  45  69 104 141 179 229 285 348 407
#     4  11  24  43  67 102 137 175 230 287 346 407
#     4  11  24  43  70  98 136 180 231 278 347 411
#     4  11  23  44  68  99 134 178 232 285 342 408
#     4  11  26  48  71  98 140 185 231 284 344 411
#     4  11  25  44  70 100 136 183 231 282 344 417
#
# _framework density 23.011032
#
# number of rings (size 3 to 8) (size 9 to 14) (size 15 to 20)
#    0.000    1.143    4.286    0.429    4.000    6.857 
#    0.000    0.000    0.000    0.000    0.000    0.000 
#    0.000    0.000    0.000    0.000    0.000    0.000 
#
# Total GULP energy -78114.060910 kJ/mol
# GULP energy per Si atom -5579.575779 kJ/mol
# Density = 2.295866 g / cm^3
# Si number density = 23.011032 Si / 1000 Ang^3
#
#
#
# Elastic Constant Matrix: (Units=GPa)
#
#
# Indices 1 2 3 4 5 6 
#
# 1 143.6747 39.8780 49.9528 -17.9970 14.5185 27.6938
# 2 39.8780 66.7465 20.8845 -15.2344 -2.0887 22.9367
# 3 49.9528 20.8845 120.0693 -28.5355 -1.4416 9.4803
# 4 -17.9970 -15.2344 -28.5355 35.7356 1.1435 1.0903
# 5 14.5185 -2.0887 -1.4416 1.1435 41.2711 -7.2668
# 6 27.6938 22.9367 9.4803 1.0903 -7.2668 38.5956
#
#
#
# Elastic Compliance Matrix: (Units=1/GPa)
#
#
# Indices 1 2 3 4 5 6 
#
# 1 0.010880 -0.003075 -0.003065 0.002081 -0.005252 -0.006275
# 2 -0.003075 0.022707 0.000326 0.008748 -0.000047 -0.011624
# 3 -0.003065 0.000326 0.011464 0.007738 0.001137 -0.000815
# 4 0.002081 0.008748 0.007738 0.039346 -0.002914 -0.010253
# 5 -0.005252 -0.000047 0.001137 -0.002914 0.027750 0.008824
# 6 -0.006275 -0.011624 -0.000815 -0.010253 0.008824 0.039471
#
#
# Mechanical properties :
#
#
# Convention : Reuss Voigt Hill
#
# Bulk Modulus (GPa) = 29.91901 61.32457 45.62179
# Shear Modulus (GPa) = 28.67217 37.77214 33.22216
#
# Velocity S-wave (km/s) = 3.53373 4.05591 3.80379
# Velocity P-wave (km/s) = 5.44793 6.97437 6.25786
#
# Compressibility (1/GPa) = 0.03342357
#
# Stress axis : x y z
#
# Youngs Moduli (GPa) = 91.91218 44.03984 87.23044
#
# Poissons Ratio (x) = 0.13540 0.26734
# Poissons Ratio (y) = 0.28259 -0.02842
# Poissons Ratio (z) = 0.28169 -0.01435
#
# Static dielectric constant tensor:
#      x y z
#    x 1.885360 0.096610 0.013850 
#    y 0.096610 1.976860 0.018930 
#    z 0.013850 0.018930 1.834410 
# 
# From -- ./inp_files/68739.got.cif
#   From: 2010.05.17/outbox.cif.g08.bks.cpg/sg2_35_cif.got.tgz:68739.got - 2010.06.03 11:33:40.
