data_PCOD9038800
_publ_section_title
;
Structure prediction by ZEFSAII (Michael W. Deem and Ramdas Pophale) SiO2 
 PCOD9038800
Probable space group: P -1
;
_chemical_formula_sum "Si O2"
_cell_formula_units_Z 10
_cell_length_a 9.525300
_cell_length_b 9.547664
_cell_length_c 7.753666
_cell_angle_alpha 107.559722
_cell_angle_beta 83.383061
_cell_angle_gamma 46.143408
_cell_volume 427.461653
_symmetry_space_group_name_H-M "P -1"
_symmetry_group_IT_number 2
_symmetry_cell_setting 'triclinic'
loop_
_space_group_symop_operation_xyz
x,y,z
-x,-y,-z
loop_
_atom_site_type_symbol
_atom_site_label
_atom_site_fract_x
_atom_site_fract_y
_atom_site_fract_z
Si Si1 0.822969 0.201144 0.445308
Si Si2 0.129563 0.523953 0.400745
Si Si3 0.620130 0.368023 0.155079
Si Si4 0.975165 0.257574 0.849756
Si Si5 0.401653 0.930525 0.903436
O O1 0.944321 0.260115 0.437321
O O2 0.721295 0.270363 0.294003
O O3 0.627084 0.378841 0.678950
O O4 0.948074 0.948027 0.346168
O O5 0.387718 0.294184 0.320990
O O6 0.000000 0.500000 0.500000
O O7 0.089615 0.568158 0.216716
O O8 0.631816 0.189864 0.018630
O O9 0.767332 0.364787 0.027941
O O10 0.180197 0.134904 0.900099
O O11 0.500000 0.000000 0.000000
#
# Coordination Sequence:
#
# PCOD9038800 Si02
#       5
#     2   2   2   2   2
#     4   9  19  41  67  99 128 166 221 272 316 392
#     4  11  26  42  64  99 135 169 220 273 328 382
#     4   9  20  40  72  97 127 170 225 264 320 395
#     4  11  23  44  72  94 127 182 217 264 330 384
#     4  10  23  42  63 101 133 164 215 272 325 389
#
# _framework density 23.393910999999999
#
# number of rings (size 3 to 8) (size 9 to 14) (size 15 to 20)
#    0.000    2.000    0.000    4.200    5.600    4.800 
#    3.600    0.000    0.000    0.000    0.000    0.000 
#    0.000    0.000    0.000    0.000    0.000    0.000 
#
# Total GULP energy -55838.751337 kJ/mol
# GULP energy per Si atom -5583.875134 kJ/mol
# Density = 2.334067 g / cm^3
# Si number density = 23.393911 Si / 1000 Ang^3
#
#
#
# Elastic Constant Matrix: (Units=GPa)
#
#
# Indices 1 2 3 4 5 6 
#
# 1 185.4328 80.4755 54.2254 -19.4543 -14.2719 18.7292
# 2 80.4755 137.4176 44.4981 -9.9652 -24.1555 5.2575
# 3 54.2254 44.4981 88.2296 7.3825 -16.5102 14.7252
# 4 -19.4543 -9.9652 7.3825 23.6075 10.7319 -1.3407
# 5 -14.2719 -24.1555 -16.5102 10.7319 50.2209 -1.7678
# 6 18.7292 5.2575 14.7252 -1.3407 -1.7678 29.9028
#
#
#
# Elastic Compliance Matrix: (Units=1/GPa)
#
#
# Indices 1 2 3 4 5 6 
#
# 1 0.009317 -0.003688 -0.004618 0.008583 -0.002573 -0.002680
# 2 -0.003688 0.011018 -0.003216 0.001390 0.002974 0.002195
# 3 -0.004618 -0.003216 0.019232 -0.014408 0.006321 -0.006285
# 4 0.008583 0.001390 -0.014408 0.061363 -0.014624 0.003362
# 5 -0.002573 0.002974 0.006321 -0.014624 0.025774 -0.001156
# 6 -0.002680 0.002195 -0.006285 0.003362 -0.001156 0.037912
#
#
# Mechanical properties :
#
#
# Convention : Reuss Voigt Hill
#
# Bulk Modulus (GPa) = 60.52751 85.49755 73.01253
# Shear Modulus (GPa) = 25.88412 36.20497 31.04455
#
# Velocity S-wave (km/s) = 3.32994 3.93825 3.64680
# Velocity P-wave (km/s) = 6.38075 7.57008 7.00072
#
# Compressibility (1/GPa) = 0.01652141
#
# Stress axis : x y z
#
# Youngs Moduli (GPa) = 107.32982 90.75989 51.99702
#
# Poissons Ratio (x) = 0.33473 0.24015
# Poissons Ratio (y) = 0.39585 0.16723
# Poissons Ratio (z) = 0.49570 0.29190
#
# Static dielectric constant tensor:
#      x y z
#    x 1.953880 -0.049400 0.057380 
#    y -0.049400 1.984970 0.015760 
#    z 0.057380 0.015760 1.913610 
# 
# From -- ./inp_files/144022.got.cif
#   From: 2010.05.17/outbox.cif.g08.bks.cpg/sg2_73_cif.got.tgz:144022.got - 2010.06.03 11:33:40.
