data_PCOD9038383
_publ_section_title
;
Structure prediction by ZEFSAII (Michael W. Deem and Ramdas Pophale) SiO2 
 PCOD9038383
Probable space group: P -1
;
_chemical_formula_sum "Si O2"
_cell_formula_units_Z 15
_cell_length_a 20.245825
_cell_length_b 5.309637
_cell_length_c 16.682038
_cell_angle_alpha 69.474341
_cell_angle_beta 20.872821
_cell_angle_gamma 67.057804
_cell_volume 587.892129
_symmetry_space_group_name_H-M "P -1"
_symmetry_group_IT_number 2
_symmetry_cell_setting 'triclinic'
loop_
_space_group_symop_operation_xyz
x,y,z
-x,-y,-z
loop_
_atom_site_type_symbol
_atom_site_label
_atom_site_fract_x
_atom_site_fract_y
_atom_site_fract_z
Si Si1 0.230497 0.969520 0.084085
Si Si2 0.719983 0.068487 0.368600
Si Si3 0.451454 0.715354 0.309895
Si Si4 0.851296 0.362527 0.465799
Si Si5 0.047744 0.628421 0.079581
Si Si6 0.000000 0.500000 0.000000
Si Si7 0.621370 0.154161 0.248679
Si Si8 0.124957 0.697662 0.374962
O O1 0.007962 0.084130 0.318574
O O2 0.268049 0.747872 0.136982
O O3 0.349580 0.203311 0.945725
O O4 0.296094 0.885990 0.930182
O O5 0.666567 0.051266 0.525443
O O6 0.832442 0.313565 0.209062
O O7 0.521458 0.056167 0.552914
O O8 0.874037 0.793231 0.203078
O O9 0.329128 0.662758 0.379253
O O10 0.490494 0.454355 0.353203
O O11 0.803907 0.421600 0.605841
O O12 0.965643 0.559966 0.264947
O O13 0.085631 0.366844 0.008230
O O14 0.214900 0.791685 0.884048
O O15 0.000000 0.500000 0.500000
O O16 0.000000 0.000000 0.500000
#
# Coordination Sequence:
#
# PCOD9038383 Si02
#       8
#     2   2   2   2   2   1   2   2
#     4  10  23  41  68  99 139 176 229 280 335 406
#     4  11  24  45  66  98 132 172 221 284 337 419
#     4  11  22  41  68 102 131 175 229 277 334 415
#     4  11  21  43  71  95 136 181 226 277 344 407
#     4  12  24  43  71  94 130 181 220 279 347 406
#     4  12  26  44  68  98 136 162 232 278 346 414
#     4  11  23  41  71  97 132 176 226 276 343 409
#     4  10  23  42  67 103 141 185 236 288 344 412
#
# _framework density 25.514885
#
# number of rings (size 3 to 8) (size 9 to 14) (size 15 to 20)
#    0.000    1.067    4.000    2.000    1.867    2.133 
#    0.000    4.000    0.000    0.000    0.000    0.000 
#    0.000    0.000    0.000    0.000    0.000    0.000 
#
# Total GULP energy -83672.921467 kJ/mol
# GULP energy per Si atom -5578.194764 kJ/mol
# Density = 2.545681 g / cm^3
# Si number density = 25.514885 Si / 1000 Ang^3
#
#
#
# Elastic Constant Matrix: (Units=GPa)
#
#
# Indices 1 2 3 4 5 6 
#
# 1 176.5711 33.5526 73.4846 -32.5318 -28.5955 22.9946
# 2 33.5526 67.2720 34.4775 -28.2791 -18.3803 14.3047
# 3 73.4846 34.4775 102.4300 -30.1705 -22.9096 12.3622
# 4 -32.5318 -28.2791 -30.1705 52.3359 7.1199 -7.7065
# 5 -28.5955 -18.3803 -22.9096 7.1199 51.3149 -18.2463
# 6 22.9946 14.3047 12.3622 -7.7065 -18.2463 36.6876
#
#
#
# Elastic Compliance Matrix: (Units=1/GPa)
#
#
# Indices 1 2 3 4 5 6 
#
# 1 0.008681 -0.000004 -0.005034 0.001913 0.001379 -0.002655
# 2 -0.000004 0.022275 -0.003566 0.008911 0.003831 -0.003704
# 3 -0.005034 -0.003566 0.016322 0.004142 0.003158 0.001487
# 4 0.001913 0.008911 0.004142 0.027282 0.002675 0.000991
# 5 0.001379 0.003831 0.003158 0.002675 0.026301 0.010220
# 6 -0.002655 -0.003704 0.001487 0.000991 0.010220 0.035156
#
#
# Mechanical properties :
#
#
# Convention : Reuss Voigt Hill
#
# Bulk Modulus (GPa) = 33.25688 69.92252 51.58970
# Shear Modulus (GPa) = 30.62836 41.71823 36.17329
#
# Velocity S-wave (km/s) = 3.46845 4.04797 3.76936
# Velocity P-wave (km/s) = 5.39470 7.02226 6.26159
#
# Compressibility (1/GPa) = 0.03006896
#
# Stress axis : x y z
#
# Youngs Moduli (GPa) = 115.19626 44.89343 61.26865
#
# Poissons Ratio (x) = 0.00018 0.30842
# Poissons Ratio (y) = 0.00047 0.21850
# Poissons Ratio (z) = 0.57989 0.16010
#
# Static dielectric constant tensor:
#      x y z
#    x 1.835270 -0.270920 -0.072920 
#    y -0.270920 1.755240 -0.133680 
#    z -0.072920 -0.133680 1.896790 
# 
# From -- ./inp_files/119910.got.cif
#   From: 2010.05.17/outbox.cif.g08.bks.cpg/sg2_60_cif.got.tgz:119910.got - 2010.06.03 11:33:40.
