data_PCOD9038439
_publ_section_title
;
Structure prediction by ZEFSAII (Michael W. Deem and Ramdas Pophale) SiO2 
 PCOD9038439
Probable space group: P -1
;
_chemical_formula_sum "Si O2"
_cell_formula_units_Z 12
_cell_length_a 16.171810
_cell_length_b 9.455713
_cell_length_c 11.558506
_cell_angle_alpha 138.614201
_cell_angle_beta 33.104148
_cell_angle_gamma 152.644147
_cell_volume 443.446347
_symmetry_space_group_name_H-M "P -1"
_symmetry_group_IT_number 2
_symmetry_cell_setting 'triclinic'
loop_
_space_group_symop_operation_xyz
x,y,z
-x,-y,-z
loop_
_atom_site_type_symbol
_atom_site_label
_atom_site_fract_x
_atom_site_fract_y
_atom_site_fract_z
Si Si1 0.599953 0.279917 0.143636
Si Si2 0.556774 0.409514 0.736184
Si Si3 0.762856 0.396140 0.269305
Si Si4 0.791970 0.881929 0.572511
Si Si5 0.091784 0.842883 0.904959
Si Si6 0.871439 0.444755 0.503433
O O1 0.631526 0.222007 0.199603
O O2 0.418296 0.276079 0.352751
O O3 0.835881 0.625785 0.051622
O O4 0.500000 0.000000 0.000000
O O5 0.607502 0.299556 0.501364
O O6 0.698740 0.751733 0.731286
O O7 0.661176 0.387618 0.708251
O O8 0.300173 0.197199 0.913284
O O9 0.881191 0.747725 0.337809
O O10 0.899138 0.336577 0.119819
O O11 0.960272 0.241918 0.578657
O O12 0.162171 0.807419 0.680355
O O13 0.000000 0.500000 0.500000
#
# Coordination Sequence:
#
# PCOD9038439 Si02
#       6
#     2   2   2   2   2   2
#     4  12  24  39  64 101 132 169 218 275 325 380
#     4   9  23  41  68  94 131 175 219 261 326 390
#     4   9  22  42  67  90 129 180 218 253 333 389
#     4  10  23  41  69  94 134 170 221 261 326 387
#     4  11  23  40  66  97 136 171 213 272 330 386
#     4  11  22  38  69 101 124 169 226 269 307 389
#
# _framework density 27.060770999999999
#
# number of rings (size 3 to 8) (size 9 to 14) (size 15 to 20)
#    1.000    0.667    1.667    3.500    4.667    0.667 
#    0.000    0.000    0.000    3.000    0.000    0.000 
#    0.000    0.000    0.000    0.000    0.000    0.000 
#
# Total GULP energy -66988.230472 kJ/mol
# GULP energy per Si atom -5582.352539 kJ/mol
# Density = 2.699918 g / cm^3
# Si number density = 27.060771 Si / 1000 Ang^3
#
#
#
# Elastic Constant Matrix: (Units=GPa)
#
#
# Indices 1 2 3 4 5 6 
#
# 1 186.7286 46.4719 19.0376 1.2041 2.2750 32.9871
# 2 46.4719 145.2902 43.8180 -28.0635 -11.5037 18.0908
# 3 19.0376 43.8180 57.8545 2.3592 -7.5823 22.3505
# 4 1.2041 -28.0635 2.3592 42.3763 17.1230 -4.7472
# 5 2.2750 -11.5037 -7.5823 17.1230 43.0856 -7.7112
# 6 32.9871 18.0908 22.3505 -4.7472 -7.7112 49.9876
#
#
#
# Elastic Compliance Matrix: (Units=1/GPa)
#
#
# Indices 1 2 3 4 5 6 
#
# 1 0.006624 -0.002440 0.001360 -0.002081 -0.000723 -0.004406
# 2 -0.002440 0.012052 -0.009828 0.009572 -0.001779 0.002277
# 3 0.001360 -0.009828 0.029629 -0.011492 0.005137 -0.010887
# 4 -0.002081 0.009572 -0.011492 0.036400 -0.013018 0.004496
# 5 -0.000723 -0.001779 0.005137 -0.013018 0.029226 0.002097
# 6 -0.004406 0.002277 -0.010887 0.004496 0.002097 0.027707
#
#
# Mechanical properties :
#
#
# Convention : Reuss Voigt Hill
#
# Bulk Modulus (GPa) = 37.75115 67.61426 52.68270
# Shear Modulus (GPa) = 29.02220 45.79295 37.40758
#
# Velocity S-wave (km/s) = 3.27843 4.11813 3.72204
# Velocity P-wave (km/s) = 5.32086 6.90307 6.16295
#
# Compressibility (1/GPa) = 0.02648926
#
# Stress axis : x y z
#
# Youngs Moduli (GPa) = 150.95609 82.97691 33.75104
#
# Poissons Ratio (x) = 0.20244 -0.04590
# Poissons Ratio (y) = 0.36828 0.33171
# Poissons Ratio (z) = -0.20531 0.81551
#
# Static dielectric constant tensor:
#      x y z
#    x 2.134230 0.014760 0.020580 
#    y 0.014760 2.212390 -0.028350 
#    z 0.020580 -0.028350 2.233070 
# 
# From -- ./inp_files/448010.got.cif
#   From: 2010.05.17/outbox.cif.g08.bks.cpg/sg2_225_cif.got.tgz:448010.got - 2010.06.03 11:33:40.
