data_PCOD9038266
_publ_section_title
;
Structure prediction by ZEFSAII (Michael W. Deem and Ramdas Pophale) SiO2 
 PCOD9038266
Probable space group: P -1
;
_chemical_formula_sum "Si O2"
_cell_formula_units_Z 15
_cell_length_a 10.673484
_cell_length_b 16.023063
_cell_length_c 8.727774
_cell_angle_alpha 56.328440
_cell_angle_beta 119.491676
_cell_angle_gamma 147.765635
_cell_volume 661.664767
_symmetry_space_group_name_H-M "P -1"
_symmetry_group_IT_number 2
_symmetry_cell_setting 'triclinic'
loop_
_space_group_symop_operation_xyz
x,y,z
-x,-y,-z
loop_
_atom_site_type_symbol
_atom_site_label
_atom_site_fract_x
_atom_site_fract_y
_atom_site_fract_z
Si Si1 0.543788 0.326611 0.207636
Si Si2 0.181733 0.331552 0.488304
Si Si3 0.464373 0.620854 0.191238
Si Si4 0.893370 0.842587 0.679623
Si Si5 0.615446 0.132208 0.736875
Si Si6 0.000000 0.500000 0.500000
Si Si7 0.649838 0.940182 0.067904
Si Si8 0.667914 0.000078 0.570770
O O1 0.343795 0.266647 0.254947
O O2 0.777967 0.431585 0.337022
O O3 0.421452 0.153489 0.261320
O O4 0.596116 0.411315 0.992130
O O5 0.251256 0.482497 0.324957
O O6 0.365437 0.377211 0.662568
O O7 0.169102 0.266659 0.384430
O O8 0.932327 0.178015 0.571860
O O9 0.591710 0.795497 0.129557
O O10 0.000000 0.000000 0.500000
O O11 0.097510 0.919523 0.839758
O O12 0.833920 0.310948 0.619007
O O13 0.563845 0.143356 0.864655
O O14 0.380805 0.037589 0.602905
O O15 0.650699 0.032370 0.855563
O O16 0.500000 0.000000 0.500000
#
# Coordination Sequence:
#
# PCOD9038266 Si02
#       8
#     2   2   2   2   2   1   2   2
#     4  11  25  44  70 100 136 181 235 285 347 412
#     4  11  25  46  69 104 142 183 229 288 348 411
#     4  11  26  43  68 108 142 173 232 296 350 395
#     4  12  21  45  77  93 137 189 236 280 341 419
#     4  10  23  41  67  98 131 185 232 269 346 411
#     4  10  24  44  62 100 140 168 226 292 334 406
#     4  11  22  42  71  96 135 184 229 280 336 425
#     4  11  22  42  67  96 137 182 228 279 346 410
#
# _framework density 22.670090999999999
#
# number of rings (size 3 to 8) (size 9 to 14) (size 15 to 20)
#    0.000    1.067    4.000    1.600    1.867    5.867 
#    4.800    2.000    0.000    0.000    0.000    0.000 
#    0.000    0.000    0.000    0.000    0.000    0.000 
#
# Total GULP energy -83542.413437 kJ/mol
# GULP energy per Si atom -5569.494229 kJ/mol
# Density = 2.261849 g / cm^3
# Si number density = 22.670091 Si / 1000 Ang^3
#
#
#
# Elastic Constant Matrix: (Units=GPa)
#
#
# Indices 1 2 3 4 5 6 
#
# 1 61.6126 13.2974 7.9289 4.3660 5.4370 -1.6523
# 2 13.2974 115.4524 44.4642 5.1079 14.8551 15.1516
# 3 7.9289 44.4642 148.3442 -6.1811 19.9798 3.3181
# 4 4.3660 5.1079 -6.1811 35.5268 -1.7670 7.3131
# 5 5.4370 14.8551 19.9798 -1.7670 21.8565 2.5278
# 6 -1.6523 15.1516 3.3181 7.3131 2.5278 25.7072
#
#
#
# Elastic Compliance Matrix: (Units=1/GPa)
#
#
# Indices 1 2 3 4 5 6 
#
# 1 0.017230 -0.001804 -0.000085 -0.002733 -0.003586 0.003312
# 2 -0.001804 0.011201 -0.002605 -0.000873 -0.004192 -0.005721
# 3 -0.000085 -0.002605 0.008353 0.001423 -0.005801 0.000617
# 4 -0.002733 -0.000873 0.001423 0.030878 0.003507 -0.008974
# 5 -0.003586 -0.004192 -0.005801 0.003507 0.055481 -0.003464
# 6 0.003312 -0.005721 0.000617 -0.008974 -0.003464 0.045298
#
#
# Mechanical properties :
#
#
# Convention : Reuss Voigt Hill
#
# Bulk Modulus (GPa) = 35.97596 50.75447 43.36522
# Shear Modulus (GPa) = 26.78160 33.93267 30.35714
#
# Velocity S-wave (km/s) = 3.44082 3.87305 3.66332
# Velocity P-wave (km/s) = 5.62934 6.51442 6.08798
#
# Compressibility (1/GPa) = 0.02779634
#
# Stress axis : x y z
#
# Youngs Moduli (GPa) = 58.03937 89.27458 119.71555
#
# Poissons Ratio (x) = 0.16105 0.01019
# Poissons Ratio (y) = 0.10470 0.31184
# Poissons Ratio (z) = 0.00494 0.23254
#
# Static dielectric constant tensor:
#      x y z
#    x 1.901350 -0.039710 -0.071540 
#    y -0.039710 1.851460 0.010090 
#    z -0.071540 0.010090 1.875360 
# 
# From -- ./inp_files/279125.got.cif
#   From: 2010.05.17/outbox.cif.g08.bks.cpg/sg2_140_cif.got.tgz:279125.got - 2010.06.03 11:33:40.
