data_PCOD9038081
_publ_section_title
;
Structure prediction by ZEFSAII (Michael W. Deem and Ramdas Pophale) SiO2 
 PCOD9038081
Probable space group: P -1
;
_chemical_formula_sum "Si O2"
_cell_formula_units_Z 16
_cell_length_a 20.228353
_cell_length_b 16.924830
_cell_length_c 8.520746
_cell_angle_alpha 139.770489
_cell_angle_beta 139.729095
_cell_angle_gamma 22.406660
_cell_volume 698.526718
_symmetry_space_group_name_H-M "P -1"
_symmetry_group_IT_number 2
_symmetry_cell_setting 'triclinic'
loop_
_space_group_symop_operation_xyz
x,y,z
-x,-y,-z
loop_
_atom_site_type_symbol
_atom_site_label
_atom_site_fract_x
_atom_site_fract_y
_atom_site_fract_z
Si Si1 0.866435 0.039872 0.909391
Si Si2 0.302228 0.220373 0.917843
Si Si3 0.801776 0.577900 0.263364
Si Si4 0.090321 0.119023 0.933734
Si Si5 0.000870 0.340616 0.563686
Si Si6 0.187052 0.596929 0.393491
Si Si7 0.527631 0.406197 0.652597
Si Si8 0.538147 0.268378 0.131962
O O1 0.673923 0.262244 0.833815
O O2 0.896157 0.870833 0.653826
O O3 0.896834 0.997766 0.086523
O O4 0.000000 0.000000 0.000000
O O5 0.265879 0.246014 0.703317
O O6 0.149408 0.286600 0.818687
O O7 0.265799 0.397155 0.155034
O O8 0.500000 0.000000 0.000000
O O9 0.871634 0.534531 0.499114
O O10 0.634832 0.647975 0.071324
O O11 0.972689 0.344600 0.136852
O O12 0.972306 0.196227 0.687998
O O13 0.286069 0.957243 0.976182
O O14 0.884938 0.382613 0.543522
O O15 0.344384 0.538516 0.593549
O O16 0.572983 0.271413 0.382176
O O17 0.507334 0.559775 0.775386
#
# Coordination Sequence:
#
# PCOD9038081 Si02
#       8
#     2   2   2   2   2   2   2   2
#     4  11  25  42  65  99 137 170 222 270 328 391
#     4  11  23  44  69  93 130 173 222 279 326 390
#     4  10  23  47  64  98 135 167 222 276 325 394
#     4  10  23  41  66  91 135 172 215 266 330 382
#     4  11  24  42  69  94 132 177 218 272 335 385
#     4  11  24  43  66  98 133 171 227 267 329 396
#     4  11  23  40  64  97 135 172 223 270 322 395
#     4  11  23  41  69  94 133 178 220 267 330 389
#
# _framework density 22.905352000000001
#
# number of rings (size 3 to 8) (size 9 to 14) (size 15 to 20)
#    0.000    1.250    2.500    3.750    7.000    1.000 
#    0.000    0.625    0.000    0.000    0.000    0.000 
#    0.000    0.000    0.000    0.000    0.000    0.000 
#
# Total GULP energy -89470.746992 kJ/mol
# GULP energy per Si atom -5591.921687 kJ/mol
# Density = 2.285322 g / cm^3
# Si number density = 22.905352 Si / 1000 Ang^3
#
#
#
# Elastic Constant Matrix: (Units=GPa)
#
#
# Indices 1 2 3 4 5 6 
#
# 1 135.7273 61.1377 22.5942 -13.6330 -4.1376 -11.0526
# 2 61.1377 143.0233 36.8462 -26.0972 -11.8184 -4.6077
# 3 22.5942 36.8462 42.1716 -16.0628 8.9929 -1.2637
# 4 -13.6330 -26.0972 -16.0628 23.8420 2.6470 2.8561
# 5 -4.1376 -11.8184 8.9929 2.6470 44.3243 -16.2828
# 6 -11.0526 -4.6077 -1.2637 2.8561 -16.2828 44.6303
#
#
#
# Elastic Compliance Matrix: (Units=1/GPa)
#
#
# Indices 1 2 3 4 5 6 
#
# 1 0.009476 -0.003233 -0.002635 -0.000363 0.001501 0.002509
# 2 -0.003233 0.011658 -0.007375 0.005257 0.004546 0.001516
# 3 -0.002635 -0.007375 0.042774 0.021711 -0.014749 -0.006973
# 4 -0.000363 0.005257 0.021711 0.063901 -0.009196 -0.006377
# 5 0.001501 0.004546 -0.014749 -0.009196 0.032133 0.012735
# 6 0.002509 0.001516 -0.006973 -0.006377 0.012735 0.028041
#
#
# Mechanical properties :
#
#
# Convention : Reuss Voigt Hill
#
# Bulk Modulus (GPa) = 26.72308 62.45315 44.58811
# Shear Modulus (GPa) = 22.03196 35.91560 28.97378
#
# Velocity S-wave (km/s) = 3.10477 3.96409 3.56045
# Velocity P-wave (km/s) = 4.95427 6.94816 6.03415
#
# Compressibility (1/GPa) = 0.03742084
#
# Stress axis : x y z
#
# Youngs Moduli (GPa) = 105.52474 85.78088 23.37883
#
# Poissons Ratio (x) = 0.27736 0.06161
# Poissons Ratio (y) = 0.34120 0.17242
# Poissons Ratio (z) = 0.27808 0.63262
#
# Static dielectric constant tensor:
#      x y z
#    x 1.889540 -0.015680 -0.068290 
#    y -0.015680 1.831660 0.023600 
#    z -0.068290 0.023600 1.953190 
# 
# From -- ./inp_files/348966.got.cif
#   From: 2010.05.17/outbox.cif.g08.bks.cpg/sg2_175_cif.got.tgz:348966.got - 2010.06.03 11:33:40.
