data_PCOD9038575
_publ_section_title
;
Structure prediction by ZEFSAII (Michael W. Deem and Ramdas Pophale) SiO2 
 PCOD9038575
Probable space group: P -1
;
_chemical_formula_sum "Si O2"
_cell_formula_units_Z 16
_cell_length_a 8.046723
_cell_length_b 12.218837
_cell_length_c 7.962926
_cell_angle_alpha 61.868726
_cell_angle_beta 109.869092
_cell_angle_gamma 111.376332
_cell_volume 629.341481
_symmetry_space_group_name_H-M "P -1"
_symmetry_group_IT_number 2
_symmetry_cell_setting 'triclinic'
loop_
_space_group_symop_operation_xyz
x,y,z
-x,-y,-z
loop_
_atom_site_type_symbol
_atom_site_label
_atom_site_fract_x
_atom_site_fract_y
_atom_site_fract_z
Si Si1 0.663401 0.105012 0.665797
Si Si2 0.363315 0.868770 0.764511
Si Si3 0.079447 0.002160 0.710783
Si Si4 0.813093 0.766702 0.892118
Si Si5 0.129643 0.631129 0.015914
Si Si6 0.534087 0.677188 0.565118
Si Si7 0.238325 0.481469 0.463718
Si Si8 0.062671 0.243628 0.717758
O O1 0.683138 0.117955 0.458773
O O2 0.528565 0.195624 0.602026
O O3 0.861260 0.168995 0.761876
O O4 0.567617 0.958090 0.784798
O O5 0.295433 0.720208 0.901714
O O6 0.249307 0.940773 0.794154
O O7 0.124396 0.144645 0.689499
O O8 0.000000 0.000000 0.500000
O O9 0.909481 0.917319 0.816203
O O10 0.646454 0.718943 0.744409
O O11 0.979844 0.712551 0.921191
O O12 0.791800 0.723109 0.107153
O O13 0.207020 0.585918 0.245694
O O14 0.000000 0.500000 0.000000
O O15 0.351691 0.562334 0.595383
O O16 0.650941 0.610899 0.526063
O O17 0.058682 0.377145 0.534234
#
# Coordination Sequence:
#
# PCOD9038575 Si02
#       8
#     2   2   2   2   2   2   2   2
#     4  11  23  43  70 105 141 176 231 289 355 396
#     4  10  23  41  71 104 138 182 227 291 345 410
#     4  11  21  44  74  97 138 186 231 281 347 415
#     4  11  25  43  70 105 138 179 236 289 345 402
#     4  11  22  44  74 101 138 187 236 276 342 421
#     4  11  25  47  69 100 144 182 230 292 341 414
#     4  11  25  48  72 101 138 191 236 271 353 420
#     4  12  25  44  75 105 138 184 232 289 341 421
#
# _framework density 25.423397000000001
#
# number of rings (size 3 to 8) (size 9 to 14) (size 15 to 20)
#    0.000    1.000    2.500    4.125    1.750    3.500 
#    4.500    6.875    0.000    0.000    0.000    0.000 
#    0.000    0.000    0.000    0.000    0.000    0.000 
#
# Total GULP energy -89495.655146 kJ/mol
# GULP energy per Si atom -5593.478447 kJ/mol
# Density = 2.536553 g / cm^3
# Si number density = 25.423397 Si / 1000 Ang^3
#
#
#
# Elastic Constant Matrix: (Units=GPa)
#
#
# Indices 1 2 3 4 5 6 
#
# 1 102.5662 45.4700 23.6741 -7.8073 6.8606 16.0736
# 2 45.4700 184.0873 60.1685 -15.2023 -8.9442 46.1811
# 3 23.6741 60.1685 92.0958 -14.5118 -6.9196 33.1226
# 4 -7.8073 -15.2023 -14.5118 47.2618 10.1787 -4.6388
# 5 6.8606 -8.9442 -6.9196 10.1787 28.6423 -6.4297
# 6 16.0736 46.1811 33.1226 -4.6388 -6.4297 36.4994
#
#
#
# Elastic Compliance Matrix: (Units=1/GPa)
#
#
# Indices 1 2 3 4 5 6 
#
# 1 0.011712 -0.002112 -0.000880 0.001800 -0.004836 -0.002310
# 2 -0.002112 0.008758 -0.002108 0.000903 0.000611 -0.008016
# 3 -0.000880 -0.002108 0.017422 0.003357 -0.000208 -0.012366
# 4 0.001800 0.000903 0.003357 0.024326 -0.008753 -0.003432
# 5 -0.004836 0.000611 -0.000208 -0.008753 0.041043 0.007662
# 6 -0.002310 -0.008016 -0.012366 -0.003432 0.007662 0.050693
#
#
# Mechanical properties :
#
#
# Convention : Reuss Voigt Hill
#
# Bulk Modulus (GPa) = 36.11016 70.81937 53.46476
# Shear Modulus (GPa) = 28.83787 39.10981 33.97384
#
# Velocity S-wave (km/s) = 3.37160 3.92642 3.65954
# Velocity P-wave (km/s) = 5.42137 6.96220 6.23953
#
# Compressibility (1/GPa) = 0.02769304
#
# Stress axis : x y z
#
# Youngs Moduli (GPa) = 85.38508 114.18217 57.39741
#
# Poissons Ratio (x) = 0.24116 0.05048
# Poissons Ratio (y) = 0.18034 0.12098
# Poissons Ratio (z) = 0.07510 0.24067
#
# Static dielectric constant tensor:
#      x y z
#    x 2.075540 0.001550 -0.033720 
#    y 0.001550 2.006960 -0.039090 
#    z -0.033720 -0.039090 1.925230 
# 
# From -- ./inp_files/185252.got.cif
#   From: 2010.05.17/outbox.cif.g08.bks.cpg/sg2_93_cif.got.tgz:185252.got - 2010.06.03 11:33:40.
