data_PCOD9038434
_publ_section_title
;
Structure prediction by ZEFSAII (Michael W. Deem and Ramdas Pophale) SiO2 
 PCOD9038434
Probable space group: P -1
;
_chemical_formula_sum "Si O2"
_cell_formula_units_Z 16
_cell_length_a 12.209536
_cell_length_b 12.702717
_cell_length_c 5.106806
_cell_angle_alpha 109.495678
_cell_angle_beta 103.881934
_cell_angle_gamma 103.105795
_cell_volume 682.866975
_symmetry_space_group_name_H-M "P -1"
_symmetry_group_IT_number 2
_symmetry_cell_setting 'triclinic'
loop_
_space_group_symop_operation_xyz
x,y,z
-x,-y,-z
loop_
_atom_site_type_symbol
_atom_site_label
_atom_site_fract_x
_atom_site_fract_y
_atom_site_fract_z
Si Si1 0.925975 0.719675 0.580183
Si Si2 0.641180 0.679495 0.835323
Si Si3 0.119408 0.116504 0.946650
Si Si4 0.715308 0.226647 0.719405
Si Si5 0.674239 0.549050 0.227706
Si Si6 0.035521 0.582828 0.842513
Si Si7 0.114454 0.888094 0.502142
Si Si8 0.402755 0.719132 0.832214
O O1 0.816392 0.613280 0.318471
O O2 0.958610 0.669621 0.828885
O O3 0.046075 0.766897 0.520194
O O4 0.887877 0.833637 0.724865
O O5 0.640734 0.622866 0.503398
O O6 0.540199 0.739298 0.859237
O O7 0.771414 0.778215 0.031491
O O8 0.617801 0.574274 0.947296
O O9 0.988954 0.097325 0.732964
O O10 0.146586 0.996238 0.814724
O O11 0.773085 0.126719 0.594440
O O12 0.664540 0.265249 0.457146
O O13 0.828182 0.334715 0.982437
O O14 0.620353 0.201383 0.879825
O O15 0.644485 0.415739 0.195487
O O16 0.000000 0.500000 0.500000
O O17 0.000000 0.500000 0.000000
#
# Coordination Sequence:
#
# PCOD9038434 Si02
#       8
#     2   2   2   2   2   2   2   2
#     4  11  21  38  63  97 133 164 216 269 331 395
#     4  11  23  44  67  98 127 172 226 276 314 382
#     4  10  23  41  69  93 124 168 227 285 335 373
#     4  12  25  42  62  95 134 177 213 262 329 403
#     4  11  22  39  67  98 129 171 218 268 324 381
#     4  12  24  38  61  94 137 175 204 253 321 403
#     4  11  22  43  65  96 128 170 217 285 337 387
#     4  12  25  43  65  94 137 179 217 261 321 394
#
# _framework density 23.430624000000002
#
# number of rings (size 3 to 8) (size 9 to 14) (size 15 to 20)
#    0.000    0.750    2.500    6.375    0.000    1.000 
#    0.000    1.250    0.000    0.000    0.000    0.000 
#    0.000    0.000    0.000    0.000    0.000    0.000 
#
# Total GULP energy -89560.462602 kJ/mol
# GULP energy per Si atom -5597.528913 kJ/mol
# Density = 2.337730 g / cm^3
# Si number density = 23.430624 Si / 1000 Ang^3
#
#
#
# Elastic Constant Matrix: (Units=GPa)
#
#
# Indices 1 2 3 4 5 6 
#
# 1 129.5781 26.0763 25.2490 -0.0267 -13.6000 -29.1683
# 2 26.0763 57.8046 22.4104 -3.6038 -3.8569 -8.8960
# 3 25.2490 22.4104 76.7201 -8.1064 -13.7225 -8.5091
# 4 -0.0267 -3.6038 -8.1064 39.2815 -10.3332 -7.3193
# 5 -13.6000 -3.8569 -13.7225 -10.3332 40.3743 0.6103
# 6 -29.1683 -8.8960 -8.5091 -7.3193 0.6103 33.9968
#
#
#
# Elastic Compliance Matrix: (Units=1/GPa)
#
#
# Indices 1 2 3 4 5 6 
#
# 1 0.010776 -0.002808 -0.000929 0.002079 0.003447 0.008664
# 2 -0.002808 0.020825 -0.004858 0.001209 -0.000330 0.002090
# 3 -0.000929 -0.004858 0.016773 0.005237 0.006217 0.003146
# 4 0.002079 0.001209 0.005237 0.031252 0.010444 0.009952
# 5 0.003447 -0.000330 0.006217 0.010444 0.030591 0.006126
# 6 0.008664 0.002090 0.003146 0.009952 0.006126 0.040215
#
#
# Mechanical properties :
#
#
# Convention : Reuss Voigt Hill
#
# Bulk Modulus (GPa) = 32.06839 45.73044 38.89942
# Shear Modulus (GPa) = 28.08718 35.42167 31.75442
#
# Velocity S-wave (km/s) = 3.46604 3.89236 3.68537
# Velocity P-wave (km/s) = 5.45290 6.30559 5.89468
#
# Compressibility (1/GPa) = 0.03118335
#
# Stress axis : x y z
#
# Youngs Moduli (GPa) = 92.79944 48.01920 59.61803
#
# Poissons Ratio (x) = 0.13484 0.05539
# Poissons Ratio (y) = 0.26058 0.28965
# Poissons Ratio (z) = 0.08621 0.23330
#
# Static dielectric constant tensor:
#      x y z
#    x 1.948940 -0.035290 -0.032340 
#    y -0.035290 1.920490 0.008210 
#    z -0.032340 0.008210 1.891910 
# 
# From -- ./inp_files/72018.got.cif
#   From: 2010.05.17/outbox.cif.g08.bks.cpg/sg2_37_cif.got.tgz:72018.got - 2010.06.03 11:33:40.
