data_PCOD9038304
_publ_section_title
;
Structure prediction by ZEFSAII (Michael W. Deem and Ramdas Pophale) SiO2 
 PCOD9038304
Probable space group: P -1
;
_chemical_formula_sum "Si O2"
_cell_formula_units_Z 14
_cell_length_a 11.886986
_cell_length_b 8.943717
_cell_length_c 26.213766
_cell_angle_alpha 41.436142
_cell_angle_beta 158.233176
_cell_angle_gamma 123.932455
_cell_volume 565.503099
_symmetry_space_group_name_H-M "P -1"
_symmetry_group_IT_number 2
_symmetry_cell_setting 'triclinic'
loop_
_space_group_symop_operation_xyz
x,y,z
-x,-y,-z
loop_
_atom_site_type_symbol
_atom_site_label
_atom_site_fract_x
_atom_site_fract_y
_atom_site_fract_z
Si Si1 0.468861 0.263276 0.617278
Si Si2 0.870850 0.674595 0.185210
Si Si3 0.030512 0.365164 0.600630
Si Si4 0.547628 0.166334 0.415182
Si Si5 0.339725 0.789854 0.022918
Si Si6 0.137758 0.436729 0.264859
Si Si7 0.586201 0.194824 0.302354
O O1 0.704190 0.385342 0.697343
O O2 0.209039 0.400148 0.423881
O O3 0.190762 0.390158 0.515371
O O4 0.630696 0.944942 0.766777
O O5 0.531793 0.761205 0.057396
O O6 0.791565 0.600955 0.114927
O O7 0.984194 0.892055 0.189668
O O8 0.429380 0.201039 0.834744
O O9 0.000000 0.500000 0.500000
O O10 0.850909 0.195716 0.563304
O O11 0.173893 0.394468 0.229918
O O12 0.588461 0.197670 0.364458
O O13 0.629272 0.872953 0.537406
O O14 0.369690 0.510646 0.113847
O O15 0.000000 0.000000 0.500000
#
# Coordination Sequence:
#
# PCOD9038304 Si02
#       7
#     2   2   2   2   2   2   2
#     4  10  20  32  61  80 105 144 189 219 266 322
#     4  10  19  36  54  82 113 144 174 227 280 321
#     4  10  17  33  53  82 108 138 178 231 269 318
#     4  10  20  31  57  81 108 137 191 222 264 314
#     4  10  21  33  57  84 113 138 178 231 282 313
#     4  10  20  36  54  81 109 149 182 223 263 333
#     4  12  18  34  57  87 102 140 186 232 259 320
#
# _framework density 24.756715
#
# number of rings (size 3 to 8) (size 9 to 14) (size 15 to 20)
#    0.000    1.714    5.714    0.429    0.000    0.000 
#    0.000    2.143    0.000    5.143    0.000    0.000 
#    0.000    0.000    0.000    0.000    0.000    0.000 
#
# Total GULP energy -78045.801492 kJ/mol
# GULP energy per Si atom -5574.700107 kJ/mol
# Density = 2.470037 g / cm^3
# Si number density = 24.756715 Si / 1000 Ang^3
#
#
#
# Elastic Constant Matrix: (Units=GPa)
#
#
# Indices 1 2 3 4 5 6 
#
# 1 151.4800 41.7848 34.6754 -20.2669 9.5487 -29.9743
# 2 41.7848 163.8172 36.5346 -48.0463 -8.5279 0.9267
# 3 34.6754 36.5346 48.1444 -30.9566 4.5491 -7.2282
# 4 -20.2669 -48.0463 -30.9566 55.6619 -5.1328 -5.1287
# 5 9.5487 -8.5279 4.5491 -5.1328 27.8869 -21.0055
# 6 -29.9743 0.9267 -7.2282 -5.1287 -21.0055 46.3560
#
#
#
# Elastic Compliance Matrix: (Units=1/GPa)
#
#
# Indices 1 2 3 4 5 6 
#
# 1 0.009136 -0.001037 -0.004671 0.000602 0.002117 0.006226
# 2 -0.001037 0.009351 -0.001600 0.007740 0.007153 0.002991
# 3 -0.004671 -0.001600 0.038358 0.019177 0.003393 0.006652
# 4 0.000602 0.007740 0.019177 0.038619 0.017896 0.015607
# 5 0.002117 0.007153 0.003393 0.017896 0.065093 0.033231
# 6 0.006226 0.002991 0.006652 0.015607 0.033231 0.043360
#
#
# Mechanical properties :
#
#
# Convention : Reuss Voigt Hill
#
# Bulk Modulus (GPa) = 23.68009 65.49236 44.58622
# Shear Modulus (GPa) = 21.49529 42.67741 32.08635
#
# Velocity S-wave (km/s) = 2.94982 4.15646 3.60400
# Velocity P-wave (km/s) = 4.60302 7.03894 5.94704
#
# Compressibility (1/GPa) = 0.04222957
#
# Stress axis : x y z
#
# Youngs Moduli (GPa) = 109.45840 106.94090 26.07015
#
# Poissons Ratio (x) = 0.11088 0.12178
# Poissons Ratio (y) = 0.11349 0.04170
# Poissons Ratio (z) = 0.51130 0.17107
#
# Static dielectric constant tensor:
#      x y z
#    x 2.072430 0.130390 0.034200 
#    y 0.130390 1.941990 0.049870 
#    z 0.034200 0.049870 2.025110 
# 
# From -- ./inp_files/179180.got.cif
#   From: 2010.05.17/outbox.cif.g08.bks.cpg/sg2_90_cif.got.tgz:179180.got - 2010.06.03 11:33:40.
