data_PCOD9038991
_publ_section_title
;
Structure prediction by ZEFSAII (Michael W. Deem and Ramdas Pophale) SiO2 
 PCOD9038991
Probable space group: P -1
;
_chemical_formula_sum "Si O2"
_cell_formula_units_Z 14
_cell_length_a 8.008477
_cell_length_b 23.835352
_cell_length_c 14.550159
_cell_angle_alpha 161.256845
_cell_angle_beta 44.911684
_cell_angle_gamma 137.008311
_cell_volume 607.025936
_symmetry_space_group_name_H-M "P -1"
_symmetry_group_IT_number 2
_symmetry_cell_setting 'triclinic'
loop_
_space_group_symop_operation_xyz
x,y,z
-x,-y,-z
loop_
_atom_site_type_symbol
_atom_site_label
_atom_site_fract_x
_atom_site_fract_y
_atom_site_fract_z
Si Si1 0.191212 0.541500 0.750535
Si Si2 0.359691 0.005006 0.921017
Si Si3 0.003541 0.780869 0.554366
Si Si4 0.403093 0.831690 0.344594
Si Si5 0.881566 0.314851 0.352731
Si Si6 0.749592 0.050258 0.694249
Si Si7 0.359632 0.418627 0.248033
O O1 0.031620 0.421613 0.708011
O O2 0.464254 0.528195 0.650121
O O3 0.042843 0.449183 0.575376
O O4 0.222426 0.754320 0.059941
O O5 0.303190 0.850352 0.780556
O O6 0.183028 0.917514 0.767984
O O7 0.631860 0.058711 0.854607
O O8 0.249859 0.163174 0.248905
O O9 0.123911 0.800511 0.437746
O O10 0.500000 0.000000 0.500000
O O11 0.556716 0.891959 0.470378
O O12 0.477864 0.662421 0.010423
O O13 0.739324 0.424531 0.515649
O O14 0.106308 0.267055 0.136833
O O15 0.000000 0.000000 0.500000
#
# Coordination Sequence:
#
# PCOD9038991 Si02
#       7
#     2   2   2   2   2   2   2
#     4  11  23  41  68  92 126 168 217 264 311 379
#     4   9  20  40  64  91 126 167 212 259 316 381
#     4   9  21  37  65  94 119 169 216 253 319 379
#     4  11  21  41  61  88 131 166 203 262 319 378
#     4  10  23  42  65  94 130 167 215 264 311 383
#     4  11  24  40  64  95 125 169 213 260 321 378
#     4  11  23  39  66  96 129 168 213 260 324 374
#
# _framework density 23.063265000000001
#
# number of rings (size 3 to 8) (size 9 to 14) (size 15 to 20)
#    0.000    1.714    1.429    2.143    8.000    1.714 
#    2.571    5.000    0.000    0.000    0.000    0.000 
#    0.000    0.000    0.000    0.000    0.000    0.000 
#
# Total GULP energy -78158.286001 kJ/mol
# GULP energy per Si atom -5582.734714 kJ/mol
# Density = 2.301077 g / cm^3
# Si number density = 23.063265 Si / 1000 Ang^3
#
#
#
# Elastic Constant Matrix: (Units=GPa)
#
#
# Indices 1 2 3 4 5 6 
#
# 1 108.3607 40.9096 43.7303 -4.4716 -17.4030 10.0497
# 2 40.9096 173.6926 69.9654 -36.1753 -25.1996 -1.4235
# 3 43.7303 69.9654 100.5711 -15.5709 -13.0738 -0.3182
# 4 -4.4716 -36.1753 -15.5709 35.1483 4.0397 -2.7487
# 5 -17.4030 -25.1996 -13.0738 4.0397 39.2443 4.0122
# 6 10.0497 -1.4235 -0.3182 -2.7487 4.0122 31.5563
#
#
#
# Elastic Compliance Matrix: (Units=1/GPa)
#
#
# Indices 1 2 3 4 5 6 
#
# 1 0.012454 -0.001040 -0.004539 -0.002339 0.004072 -0.004780
# 2 -0.001040 0.010122 -0.004928 0.007777 0.003497 0.000971
# 3 -0.004539 -0.004928 0.015525 0.001384 -0.000305 0.001539
# 4 -0.002339 0.007777 0.001384 0.037090 0.000158 0.004320
# 5 0.004072 0.003497 -0.000305 0.000158 0.029919 -0.004932
# 6 -0.004780 0.000971 0.001539 0.004320 -0.004932 0.034275
#
#
# Mechanical properties :
#
#
# Convention : Reuss Voigt Hill
#
# Bulk Modulus (GPa) = 58.52852 76.87055 67.69953
# Shear Modulus (GPa) = 30.10332 36.39107 33.24719
#
# Velocity S-wave (km/s) = 3.61674 3.97656 3.80091
# Velocity P-wave (km/s) = 6.54779 7.38151 6.97712
#
# Compressibility (1/GPa) = 0.01708569
#
# Stress axis : x y z
#
# Youngs Moduli (GPa) = 80.29605 98.79205 64.41367
#
# Poissons Ratio (x) = 0.10277 0.29240
# Poissons Ratio (y) = 0.08353 0.31742
# Poissons Ratio (z) = 0.36450 0.48683
#
# Static dielectric constant tensor:
#      x y z
#    x 1.905710 0.023470 0.055990 
#    y 0.023470 1.958480 -0.022840 
#    z 0.055990 -0.022840 1.866020 
# 
# From -- ./inp_files/190146.got.cif
#   From: 2010.05.17/outbox.cif.g08.bks.cpg/sg2_96_cif.got.tgz:190146.got - 2010.06.03 11:33:40.
