data_PCOD9038034
_publ_section_title
;
Structure prediction by ZEFSAII (Michael W. Deem and Ramdas Pophale) SiO2 
 PCOD9038034
Probable space group: P -1
;
_chemical_formula_sum "Si O2"
_cell_formula_units_Z 12
_cell_length_a 12.156115
_cell_length_b 8.450873
_cell_length_c 5.092145
_cell_angle_alpha 98.459750
_cell_angle_beta 93.735292
_cell_angle_gamma 80.318763
_cell_volume 509.616166
_symmetry_space_group_name_H-M "P -1"
_symmetry_group_IT_number 2
_symmetry_cell_setting 'triclinic'
loop_
_space_group_symop_operation_xyz
x,y,z
-x,-y,-z
loop_
_atom_site_type_symbol
_atom_site_label
_atom_site_fract_x
_atom_site_fract_y
_atom_site_fract_z
Si Si1 0.027845 0.651087 0.881639
Si Si2 0.380398 0.607894 0.093030
Si Si3 0.238926 0.528542 0.566348
Si Si4 0.925874 0.063496 0.747998
Si Si5 0.211356 0.187904 0.345233
Si Si6 0.572667 0.025424 0.771864
O O1 0.110062 0.610151 0.634894
O O2 0.904529 0.739775 0.798263
O O3 0.089909 0.751030 0.126337
O O4 0.000000 0.500000 0.000000
O O5 0.309163 0.547405 0.313047
O O6 0.398034 0.792898 0.189509
O O7 0.500000 0.500000 0.000000
O O8 0.306545 0.599439 0.821651
O O9 0.234633 0.336444 0.562917
O O10 0.817327 0.989169 0.628804
O O11 0.000000 0.000000 0.500000
O O12 0.000000 0.000000 0.000000
O O13 0.325206 0.122548 0.205056
O O14 0.500000 0.000000 0.500000
O O15 0.500000 0.000000 0.000000
#
# Coordination Sequence:
#
# PCOD9038034 Si02
#       6
#     2   2   2   2   2   2
#     4  11  24  45  72 108 149 193 242 298 361 434
#     4  12  26  48  74 104 142 188 242 301 360 427
#     4  12  25  44  71 105 141 189 241 296 358 432
#     4  10  23  41  65  98 138 184 231 285 351 422
#     4  11  25  44  69 101 144 186 234 295 358 425
#     4  12  27  48  73 104 139 186 240 299 362 428
#
# _framework density 23.547135000000001
#
# number of rings (size 3 to 8) (size 9 to 14) (size 15 to 20)
#    0.000    0.667    0.000    7.000    0.000   12.000 
#    0.000    0.000    0.000    0.000    0.000    0.000 
#    0.000    0.000    0.000    0.000    0.000    0.000 
#
# Total GULP energy -66860.500238 kJ/mol
# GULP energy per Si atom -5571.708353 kJ/mol
# Density = 2.349354 g / cm^3
# Si number density = 23.547135 Si / 1000 Ang^3
#
#
#
# Elastic Constant Matrix: (Units=GPa)
#
#
# Indices 1 2 3 4 5 6 
#
# 1 159.6565 52.3658 59.7251 14.7411 -32.9161 -23.5571
# 2 52.3658 109.4086 43.6941 42.5804 -2.3164 11.7006
# 3 59.7251 43.6941 154.0461 9.9777 -28.0146 11.1390
# 4 14.7411 42.5804 9.9777 53.6848 10.4649 6.5201
# 5 -32.9161 -2.3164 -28.0146 10.4649 54.1541 23.9950
# 6 -23.5571 11.7006 11.1390 6.5201 23.9950 60.4372
#
#
#
# Elastic Compliance Matrix: (Units=1/GPa)
#
#
# Indices 1 2 3 4 5 6 
#
# 1 0.009595 -0.003990 -0.002370 -0.000031 0.002726 0.003870
# 2 -0.003990 0.016780 -0.001996 -0.011619 0.001111 -0.003623
# 3 -0.002370 -0.001996 0.009216 0.000041 0.005128 -0.004277
# 4 -0.000031 -0.011619 0.000041 0.028966 -0.006911 0.001849
# 5 0.002726 0.001111 0.005128 -0.006911 0.028968 -0.010853
# 6 0.003870 -0.003623 -0.004277 0.001849 -0.010853 0.023654
#
#
# Mechanical properties :
#
#
# Convention : Reuss Voigt Hill
#
# Bulk Modulus (GPa) = 52.97119 81.63126 67.30123
# Shear Modulus (GPa) = 35.66763 51.47696 43.57230
#
# Velocity S-wave (km/s) = 3.89618 4.68067 4.30633
# Velocity P-wave (km/s) = 6.54102 7.99713 7.30544
#
# Compressibility (1/GPa) = 0.01887819
#
# Stress axis : x y z
#
# Youngs Moduli (GPa) = 104.22420 59.59572 108.50754
#
# Poissons Ratio (x) = 0.23777 0.25720
# Poissons Ratio (y) = 0.41583 0.21658
# Poissons Ratio (z) = 0.24705 0.11895
#
# Static dielectric constant tensor:
#      x y z
#    x 1.235010 0.115130 0.254840 
#    y 0.115130 2.120190 -0.029050 
#    z 0.254840 -0.029050 1.744680 
# 
# From -- ./inp_files/59927.got.cif
#   From: 2010.05.17/outbox.cif.g08.bks.cpg/sg2_30_cif.got.tgz:59927.got - 2010.06.03 11:33:40.
