data_PCOD9038440
_publ_section_title
;
Structure prediction by ZEFSAII (Michael W. Deem and Ramdas Pophale) SiO2 
 PCOD9038440
Probable space group: P -1
;
_chemical_formula_sum "Si O2"
_cell_formula_units_Z 16
_cell_length_a 14.451098
_cell_length_b 12.014765
_cell_length_c 15.314916
_cell_angle_alpha 146.955040
_cell_angle_beta 26.999415
_cell_angle_gamma 138.283310
_cell_volume 658.265676
_symmetry_space_group_name_H-M "P -1"
_symmetry_group_IT_number 2
_symmetry_cell_setting 'triclinic'
loop_
_space_group_symop_operation_xyz
x,y,z
-x,-y,-z
loop_
_atom_site_type_symbol
_atom_site_label
_atom_site_fract_x
_atom_site_fract_y
_atom_site_fract_z
Si Si1 0.449667 0.806716 0.974425
Si Si2 0.289588 0.456261 0.770904
Si Si3 0.047907 0.117276 0.251334
Si Si4 0.130613 0.684827 0.901895
Si Si5 0.297210 0.730465 0.242012
Si Si6 0.735531 0.054832 0.323803
Si Si7 0.291436 0.568609 0.517245
Si Si8 0.295931 0.278869 0.004145
O O1 0.286759 0.665463 0.967226
O O2 0.649661 0.659474 0.709517
O O3 0.366379 0.826513 0.155430
O O4 0.500000 0.000000 0.000000
O O5 0.499496 0.354742 0.559083
O O6 0.090495 0.330396 0.877884
O O7 0.274008 0.530987 0.734130
O O8 0.920228 0.192740 0.490619
O O9 0.876205 0.028967 0.271607
O O10 0.167945 0.288371 0.207891
O O11 0.193552 0.921286 0.013762
O O12 0.125277 0.604093 0.754532
O O13 0.290856 0.483089 0.085204
O O14 0.473799 0.768715 0.190567
O O15 0.748697 0.288381 0.436117
O O16 0.500000 0.000000 0.500000
O O17 0.793681 0.906094 0.097718
#
# Coordination Sequence:
#
# PCOD9038440 Si02
#       8
#     2   2   2   2   2   2   2   2
#     4  10  25  45  69  93 133 188 227 275 339 409
#     4   9  24  42  66  96 130 169 235 278 336 385
#     4  12  26  41  72 105 139 178 227 283 343 415
#     4  11  22  43  67 102 127 173 223 296 331 387
#     4  11  26  46  65  98 147 182 226 280 342 415
#     4  12  22  42  69 102 135 174 224 279 341 395
#     4  10  23  41  69  95 129 173 225 280 326 400
#     4  11  25  44  69 100 141 187 224 276 347 412
#
# _framework density 24.306294999999999
#
# number of rings (size 3 to 8) (size 9 to 14) (size 15 to 20)
#    0.750    0.500    2.500    2.625    5.250    2.000 
#    2.250    1.250    0.000    0.000    0.000    0.000 
#    0.000    0.000    0.000    0.000    0.000    0.000 
#
# Total GULP energy -89509.285597 kJ/mol
# GULP energy per Si atom -5594.330350 kJ/mol
# Density = 2.425097 g / cm^3
# Si number density = 24.306295 Si / 1000 Ang^3
#
#
#
# Elastic Constant Matrix: (Units=GPa)
#
#
# Indices 1 2 3 4 5 6 
#
# 1 62.7347 26.8384 3.5108 -4.2369 -1.4262 -12.0830
# 2 26.8384 113.1380 32.6725 5.3020 -3.0739 -34.1297
# 3 3.5108 32.6725 102.1707 -11.1100 10.9074 -22.6385
# 4 -4.2369 5.3020 -11.1100 38.2874 -1.1088 -2.2171
# 5 -1.4262 -3.0739 10.9074 -1.1088 31.6628 -7.3168
# 6 -12.0830 -34.1297 -22.6385 -2.2171 -7.3168 47.8128
#
#
#
# Elastic Compliance Matrix: (Units=1/GPa)
#
#
# Indices 1 2 3 4 5 6 
#
# 1 0.018371 -0.004139 0.001571 0.003235 0.000616 0.002676
# 2 -0.004139 0.013161 -0.003137 -0.002658 0.003769 0.007317
# 3 0.001571 -0.003137 0.012398 0.004318 -0.003500 0.003693
# 4 0.003235 -0.002658 0.004318 0.028226 -0.000089 0.002260
# 5 0.000616 0.003769 -0.003500 -0.000089 0.034679 0.006492
# 6 0.002676 0.007317 0.003693 0.002260 0.006492 0.029661
#
#
# Mechanical properties :
#
#
# Convention : Reuss Voigt Hill
#
# Bulk Modulus (GPa) = 30.74951 44.89855 37.82403
# Shear Modulus (GPa) = 31.49713 37.88737 34.69225
#
# Velocity S-wave (km/s) = 3.60369 3.95238 3.78205
# Velocity P-wave (km/s) = 5.47665 6.27220 5.88788
#
# Compressibility (1/GPa) = 0.03252085
#
# Stress axis : x y z
#
# Youngs Moduli (GPa) = 54.43381 75.98430 80.65764
#
# Poissons Ratio (x) = 0.31452 -0.12674
# Poissons Ratio (y) = 0.22532 0.25298
# Poissons Ratio (z) = -0.08554 0.23833
#
# Static dielectric constant tensor:
#      x y z
#    x 1.947850 0.035090 0.005570 
#    y 0.035090 1.929450 -0.003580 
#    z 0.005570 -0.003580 1.964090 
# 
# From -- ./inp_files/532002.got.cif
#   From: 2010.05.17/outbox.cif.g08.bks.cpg/sg2_267_cif.got.tgz:532002.got - 2010.06.03 11:33:40.
