data_PCOD9038104
_publ_section_title
;
Structure prediction by ZEFSAII (Michael W. Deem and Ramdas Pophale) SiO2 
 PCOD9038104
Probable space group: P -1
;
_chemical_formula_sum "Si O2"
_cell_formula_units_Z 14
_cell_length_a 8.528968
_cell_length_b 12.588510
_cell_length_c 11.856255
_cell_angle_alpha 58.705240
_cell_angle_beta 114.539534
_cell_angle_gamma 67.211670
_cell_volume 624.335350
_symmetry_space_group_name_H-M "P -1"
_symmetry_group_IT_number 2
_symmetry_cell_setting 'triclinic'
loop_
_space_group_symop_operation_xyz
x,y,z
-x,-y,-z
loop_
_atom_site_type_symbol
_atom_site_label
_atom_site_fract_x
_atom_site_fract_y
_atom_site_fract_z
Si Si1 0.256559 0.949769 0.606792
Si Si2 0.492769 0.512850 0.626143
Si Si3 0.631407 0.149738 0.556104
Si Si4 0.676020 0.700192 0.053781
Si Si5 0.614198 0.016564 0.849966
Si Si6 0.967551 0.701649 0.498281
Si Si7 0.200523 0.892368 0.974980
O O1 0.343355 0.923258 0.518711
O O2 0.525400 0.750519 0.863253
O O3 0.000000 0.000000 0.500000
O O4 0.142126 0.130487 0.543003
O O5 0.500000 0.500000 0.500000
O O6 0.545988 0.624875 0.618203
O O7 0.206417 0.621184 0.533597
O O8 0.712223 0.294425 0.861155
O O9 0.566363 0.088771 0.668031
O O10 0.923503 0.040756 0.742370
O O11 0.743987 0.807994 0.009836
O O12 0.911139 0.478722 0.291478
O O13 0.430371 0.818183 0.002991
O O14 0.789932 0.021138 0.963811
O O15 0.303947 0.186441 0.712568
#
# Coordination Sequence:
#
# PCOD9038104 Si02
#       7
#     2   2   2   2   2   2   2
#     4  11  21  43  70  91 127 167 216 267 309 378
#     4  11  23  40  63  95 127 164 215 261 313 377
#     4  12  24  42  66  97 129 168 216 264 315 372
#     4  10  23  41  66  95 122 172 213 258 324 376
#     4  11  24  41  62  96 133 171 204 265 321 381
#     4  10  24  43  65  96 128 168 214 260 323 379
#     4  11  23  41  65  93 129 172 211 259 321 381
#
# _framework density 22.423846999999999
#
# number of rings (size 3 to 8) (size 9 to 14) (size 15 to 20)
#    0.000    1.143    4.286    1.714    0.000    8.571 
#    0.000    1.429    0.000    0.000    0.000    0.000 
#    0.000    0.000    0.000    0.000    0.000    0.000 
#
# Total GULP energy -78336.147840 kJ/mol
# GULP energy per Si atom -5595.439131 kJ/mol
# Density = 2.237281 g / cm^3
# Si number density = 22.423847 Si / 1000 Ang^3
#
#
#
# Elastic Constant Matrix: (Units=GPa)
#
#
# Indices 1 2 3 4 5 6 
#
# 1 73.9152 35.2005 31.6487 -11.1390 -21.3929 12.2396
# 2 35.2005 99.2472 38.8723 12.3099 -11.2052 -10.9604
# 3 31.6487 38.8723 120.9594 -6.9606 -20.3450 16.9396
# 4 -11.1390 12.3099 -6.9606 40.3844 2.7420 -9.3024
# 5 -21.3929 -11.2052 -20.3450 2.7420 51.9577 3.3602
# 6 12.2396 -10.9604 16.9396 -9.3024 3.3602 35.7346
#
#
#
# Elastic Compliance Matrix: (Units=1/GPa)
#
#
# Indices 1 2 3 4 5 6 
#
# 1 0.022523 -0.008932 -0.000049 0.006214 0.007616 -0.009529
# 2 -0.008932 0.016756 -0.005086 -0.006165 -0.002327 0.009223
# 3 -0.000049 -0.005086 0.011627 0.001676 0.003798 -0.006975
# 4 0.006214 -0.006165 0.001676 0.029277 0.000160 0.002792
# 5 0.007616 -0.002327 0.003798 0.000160 0.023833 -0.007322
# 6 -0.009529 0.009223 -0.006975 0.002792 -0.007322 0.038799
#
#
# Mechanical properties :
#
#
# Convention : Reuss Voigt Hill
#
# Bulk Modulus (GPa) = 43.91504 56.17386 50.04445
# Shear Modulus (GPa) = 28.00516 38.17538 33.09027
#
# Velocity S-wave (km/s) = 3.53781 4.13055 3.84562
# Velocity P-wave (km/s) = 6.02617 6.91765 6.48724
#
# Compressibility (1/GPa) = 0.02277124
#
# Stress axis : x y z
#
# Youngs Moduli (GPa) = 44.39996 59.67874 86.00915
#
# Poissons Ratio (x) = 0.53306 0.00425
# Poissons Ratio (y) = 0.39658 0.43741
# Poissons Ratio (z) = 0.00219 0.30351
#
# Static dielectric constant tensor:
#      x y z
#    x 1.881150 -0.020380 -0.005000 
#    y -0.020380 1.827960 0.000010 
#    z -0.005000 0.000010 1.843770 
# 
# From -- ./inp_files/397074.got.cif
#   From: 2010.05.17/outbox.cif.g08.bks.cpg/sg2_199_cif.got.tgz:397074.got - 2010.06.03 11:33:40.
