data_PCOD9038407
_publ_section_title
;
Structure prediction by ZEFSAII (Michael W. Deem and Ramdas Pophale) SiO2 
 PCOD9038407
Probable space group: P -1
;
_chemical_formula_sum "Si O2"
_cell_formula_units_Z 16
_cell_length_a 24.051722
_cell_length_b 4.886172
_cell_length_c 13.595594
_cell_angle_alpha 105.043830
_cell_angle_beta 24.231315
_cell_angle_gamma 103.730233
_cell_volume 633.282119
_symmetry_space_group_name_H-M "P -1"
_symmetry_group_IT_number 2
_symmetry_cell_setting 'triclinic'
loop_
_space_group_symop_operation_xyz
x,y,z
-x,-y,-z
loop_
_atom_site_type_symbol
_atom_site_label
_atom_site_fract_x
_atom_site_fract_y
_atom_site_fract_z
Si Si1 0.235386 0.598882 0.326753
Si Si2 0.413600 0.129123 0.062517
Si Si3 0.260996 0.306303 0.052683
Si Si4 0.549943 0.260294 0.508735
Si Si5 0.655103 0.251393 0.541732
Si Si6 0.785776 0.318445 0.004856
Si Si7 0.828387 0.779506 0.296585
Si Si8 0.997735 0.447356 0.830789
O O1 0.099079 0.607098 0.608840
O O2 0.294489 0.897758 0.223849
O O3 0.222789 0.909643 0.616883
O O4 0.223325 0.404671 0.231092
O O5 0.342869 0.436142 0.209654
O O6 0.516838 0.166390 0.809649
O O7 0.500000 0.000000 0.000000
O O8 0.417696 0.397056 0.784889
O O9 0.174629 0.460018 0.122068
O O10 0.248035 0.973085 0.023485
O O11 0.640322 0.155402 0.444307
O O12 0.651709 0.429848 0.289725
O O13 0.500000 0.000000 0.500000
O O14 0.694906 0.581188 0.505017
O O15 0.897923 0.278837 0.903718
O O16 0.917488 0.741358 0.246484
O O17 0.910900 0.654799 0.059742
#
# Coordination Sequence:
#
# PCOD9038407 Si02
#       8
#     2   2   2   2   2   2   2   2
#     4  12  26  45  70 100 145 186 225 284 342 414
#     4  12  25  44  71 103 139 182 230 283 350 411
#     4  11  25  44  68 103 138 176 231 287 343 412
#     4  10  23  41  69 103 135 174 225 296 345 403
#     4  12  24  45  73 104 135 179 229 294 351 403
#     4  11  25  43  70  99 136 184 228 282 348 402
#     4  11  27  45  72 104 138 180 238 289 339 407
#     4  11  27  48  70 101 143 188 233 281 339 419
#
# _framework density 25.265203
#
# number of rings (size 3 to 8) (size 9 to 14) (size 15 to 20)
#    0.000    0.750    2.500    3.750    5.250    6.000 
#    0.000    0.000    0.000    0.000    0.000    0.000 
#    0.000    0.000    0.000    0.000    0.000    0.000 
#
# Total GULP energy -89710.899700 kJ/mol
# GULP energy per Si atom -5606.931231 kJ/mol
# Density = 2.520770 g / cm^3
# Si number density = 25.265203 Si / 1000 Ang^3
#
#
#
# Elastic Constant Matrix: (Units=GPa)
#
#
# Indices 1 2 3 4 5 6 
#
# 1 114.4803 14.6249 27.1028 -4.6111 19.6249 11.4288
# 2 14.6249 90.1383 30.6708 -1.5430 5.9494 -7.7053
# 3 27.1028 30.6708 146.8671 -15.4245 36.0505 5.5688
# 4 -4.6111 -1.5430 -15.4245 25.8773 0.7718 2.0818
# 5 19.6249 5.9494 36.0505 0.7718 39.8755 -1.2569
# 6 11.4288 -7.7053 5.5688 2.0818 -1.2569 37.7981
#
#
#
# Elastic Compliance Matrix: (Units=1/GPa)
#
#
# Indices 1 2 3 4 5 6 
#
# 1 0.010251 -0.001631 0.000052 0.002210 -0.005009 -0.003728
# 2 -0.001631 0.012577 -0.003112 -0.001748 0.001890 0.003675
# 3 0.000052 -0.003112 0.010537 0.006613 -0.009306 -0.002876
# 4 0.002210 -0.001748 0.006613 0.043482 -0.007794 -0.004653
# 5 -0.005009 0.001890 -0.009306 -0.007794 0.035980 0.004896
# 6 -0.003728 0.003675 -0.002876 -0.004653 0.004896 0.029176
#
#
# Mechanical properties :
#
#
# Convention : Reuss Voigt Hill
#
# Bulk Modulus (GPa) = 41.69739 55.14255 48.41997
# Shear Modulus (GPa) = 31.37145 39.31599 35.34372
#
# Velocity S-wave (km/s) = 3.52758 3.94906 3.74426
# Velocity P-wave (km/s) = 5.75599 6.53195 6.15621
#
# Compressibility (1/GPa) = 0.02398232
#
# Stress axis : x y z
#
# Youngs Moduli (GPa) = 97.55103 79.50904 94.90145
#
# Poissons Ratio (x) = 0.12969 -0.00492
# Poissons Ratio (y) = 0.15912 0.29536
# Poissons Ratio (z) = -0.00505 0.24745
#
# Static dielectric constant tensor:
#      x y z
#    x 2.009210 0.016950 -0.040850 
#    y 0.016950 1.935830 -0.015590 
#    z -0.040850 -0.015590 1.987830 
# 
# From -- ./inp_files/473485.got.cif
#   From: 2010.05.17/outbox.cif.g08.bks.cpg/sg2_237_cif.got.tgz:473485.got - 2010.06.03 11:33:40.
