data_PCOD9038849
_publ_section_title
;
Structure prediction by ZEFSAII (Michael W. Deem and Ramdas Pophale) SiO2 
 PCOD9038849
Probable space group: P -1
;
_chemical_formula_sum "Si O2"
_cell_formula_units_Z 16
_cell_length_a 11.905124
_cell_length_b 14.039606
_cell_length_c 8.339715
_cell_angle_alpha 96.182440
_cell_angle_beta 84.523232
_cell_angle_gamma 32.116215
_cell_volume 689.283281
_symmetry_space_group_name_H-M "P -1"
_symmetry_group_IT_number 2
_symmetry_cell_setting 'triclinic'
loop_
_space_group_symop_operation_xyz
x,y,z
-x,-y,-z
loop_
_atom_site_type_symbol
_atom_site_label
_atom_site_fract_x
_atom_site_fract_y
_atom_site_fract_z
Si Si1 0.062750 0.599920 0.939221
Si Si2 0.486690 0.359103 0.650334
Si Si3 0.664486 0.396273 0.810126
Si Si4 0.183275 0.560627 0.422207
Si Si5 0.085151 0.971020 0.808473
Si Si6 0.316496 0.964058 0.939451
Si Si7 0.839046 0.599495 0.797941
Si Si8 0.117791 0.051713 0.327124
O O1 0.973941 0.598296 0.805117
O O2 0.293210 0.479415 0.830132
O O3 0.869640 0.819602 0.040622
O O4 0.107712 0.500668 0.067355
O O5 0.559023 0.414729 0.680996
O O6 0.368002 0.426691 0.512007
O O7 0.703766 0.133479 0.616824
O O8 0.711860 0.467565 0.757153
O O9 0.896094 0.175328 0.787968
O O10 0.500000 0.500000 0.000000
O O11 0.103514 0.513672 0.376278
O O12 0.988677 0.776572 0.547030
O O13 0.079286 0.878484 0.687160
O O14 0.284661 0.896358 0.814379
O O15 0.000000 0.000000 0.000000
O O16 0.250470 0.981201 0.132762
O O17 0.570386 0.815117 0.868729
#
# Coordination Sequence:
#
# PCOD9038849 Si02
#       8
#     2   2   2   2   2   2   2   2
#     4  11  23  46  71  95 130 172 228 277 321 384
#     4  11  23  43  66  94 137 176 212 271 330 385
#     4  11  24  40  64  97 133 171 215 264 326 395
#     4  12  26  42  65  99 136 172 220 267 332 391
#     4   9  21  36  65  95 130 170 215 258 321 393
#     4  11  20  42  70  95 130 174 222 268 329 381
#     4  11  26  42  70 101 126 173 230 274 320 392
#     4  10  23  42  63  98 138 175 209 268 328 393
#
# _framework density 23.212517999999999
#
# number of rings (size 3 to 8) (size 9 to 14) (size 15 to 20)
#    0.000    1.250    2.500    3.000    5.250    5.500 
#    0.000    0.625    0.000    0.000    0.000    0.000 
#    0.000    0.000    0.000    0.000    0.000    0.000 
#
# Total GULP energy -89592.326064 kJ/mol
# GULP energy per Si atom -5599.520379 kJ/mol
# Density = 2.315969 g / cm^3
# Si number density = 23.212518 Si / 1000 Ang^3
#
#
#
# Elastic Constant Matrix: (Units=GPa)
#
#
# Indices 1 2 3 4 5 6 
#
# 1 109.5798 14.9875 8.5469 12.8018 30.4343 -17.1065
# 2 14.9875 114.8904 23.7222 11.4351 9.1330 -2.6179
# 3 8.5469 23.7222 64.3972 18.5510 15.8968 -6.4261
# 4 12.8018 11.4351 18.5510 37.2393 8.7017 8.7232
# 5 30.4343 9.1330 15.8968 8.7017 41.2414 -9.0990
# 6 -17.1065 -2.6179 -6.4261 8.7232 -9.0990 29.2920
#
#
#
# Elastic Compliance Matrix: (Units=1/GPa)
#
#
# Indices 1 2 3 4 5 6 
#
# 1 0.012956 -0.000952 0.002846 -0.005516 -0.007657 0.007370
# 2 -0.000952 0.009572 -0.003102 -0.001045 -0.000018 -0.000075
# 3 0.002846 -0.003102 0.021741 -0.011347 -0.005685 0.007767
# 4 -0.005516 -0.001045 -0.011347 0.040097 -0.003972 -0.018979
# 5 -0.007657 -0.000018 -0.005685 -0.003972 0.034279 0.006111
# 6 0.007370 -0.000075 0.007767 -0.018979 0.006111 0.047690
#
#
# Mechanical properties :
#
#
# Convention : Reuss Voigt Hill
#
# Bulk Modulus (GPa) = 23.89341 42.59784 33.24562
# Shear Modulus (GPa) = 27.36687 37.66192 32.51439
#
# Velocity S-wave (km/s) = 3.43734 4.03238 3.74669
# Velocity P-wave (km/s) = 5.10582 6.33018 5.75068
#
# Compressibility (1/GPa) = 0.04185254
#
# Stress axis : x y z
#
# Youngs Moduli (GPa) = 77.18729 104.46783 45.99613
#
# Poissons Ratio (x) = 0.09946 -0.13090
# Poissons Ratio (y) = 0.07348 0.14268
# Poissons Ratio (z) = -0.21966 0.32405
#
# Static dielectric constant tensor:
#      x y z
#    x 1.772730 -0.061590 0.074100 
#    y -0.061590 1.782580 0.058500 
#    z 0.074100 0.058500 1.852890 
# 
# From -- ./inp_files/273389.got.cif
#   From: 2010.05.17/outbox.cif.g08.bks.cpg/sg2_137_cif.got.tgz:273389.got - 2010.06.03 11:33:40.
