data_PCOD9038294
_publ_section_title
;
Structure prediction by ZEFSAII (Michael W. Deem and Ramdas Pophale) SiO2 
 PCOD9038294
Probable space group: P -1
;
_chemical_formula_sum "Si O2"
_cell_formula_units_Z 16
_cell_length_a 20.029829
_cell_length_b 13.269073
_cell_length_c 14.713480
_cell_angle_alpha 42.327980
_cell_angle_beta 17.598990
_cell_angle_gamma 36.348796
_cell_volume 691.909158
_symmetry_space_group_name_H-M "P -1"
_symmetry_group_IT_number 2
_symmetry_cell_setting 'triclinic'
loop_
_space_group_symop_operation_xyz
x,y,z
-x,-y,-z
loop_
_atom_site_type_symbol
_atom_site_label
_atom_site_fract_x
_atom_site_fract_y
_atom_site_fract_z
Si Si1 0.325693 0.088183 0.806361
Si Si2 0.070856 0.216937 0.220221
Si Si3 0.164005 0.190636 0.405603
Si Si4 0.615696 0.509969 0.692757
Si Si5 0.121899 0.097732 0.876882
Si Si6 0.909447 0.238775 0.879333
Si Si7 0.371881 0.731043 0.023541
Si Si8 0.310609 0.908460 0.265265
O O1 0.601933 0.012419 0.455409
O O2 0.145142 0.158309 0.906127
O O3 0.312812 0.923789 0.972169
O O4 0.256697 0.206042 0.905696
O O5 0.898746 0.406990 0.356829
O O6 0.858786 0.179507 0.473933
O O7 0.207269 0.070014 0.219017
O O8 0.107479 0.247180 0.546497
O O9 0.879071 0.277575 0.676768
O O10 0.267733 0.994991 0.362955
O O11 0.390520 0.217051 0.056328
O O12 0.562824 0.364561 0.902593
O O13 0.382740 0.627574 0.851684
O O14 0.579704 0.634323 0.741060
O O15 0.962549 0.240670 0.914594
O O16 0.037503 0.953357 0.087440
#
# Coordination Sequence:
#
# PCOD9038294 Si02
#       8
#     2   2   2   2   2   2   2   2
#     4  11  20  37  61  81 104 145 195 232 260 310
#     4  11  19  34  51  86 112 145 174 229 274 326
#     4  10  17  33  53  82 106 145 181 223 265 321
#     4  10  20  33  56  81 119 145 165 218 300 334
#     4  10  21  37  62  78  99 148 206 230 250 312
#     4  10  20  38  56  81 109 145 187 229 268 319
#     4  10  18  36  56  82 114 148 173 221 276 341
#     4  10  19  29  55  80 118 140 181 215 273 338
#
# _framework density 23.124421999999999
#
# number of rings (size 3 to 8) (size 9 to 14) (size 15 to 20)
#    0.000    1.750    5.000    1.500    0.000    0.000 
#    0.000    8.125    0.000    0.000    0.000    0.000 
#    0.000    0.000    0.000    0.000    0.000    0.000 
#
# Total GULP energy -89296.334361 kJ/mol
# GULP energy per Si atom -5581.020898 kJ/mol
# Density = 2.307179 g / cm^3
# Si number density = 23.124422 Si / 1000 Ang^3
#
#
#
# Elastic Constant Matrix: (Units=GPa)
#
#
# Indices 1 2 3 4 5 6 
#
# 1 78.7314 22.1467 -0.1560 11.9815 18.0321 -21.3498
# 2 22.1467 25.6374 13.7141 13.3498 7.6709 -9.2670
# 3 -0.1560 13.7141 69.4592 17.7218 17.9550 3.7134
# 4 11.9815 13.3498 17.7218 28.0638 16.5305 1.0445
# 5 18.0321 7.6709 17.9550 16.5305 40.1415 1.2161
# 6 -21.3498 -9.2670 3.7134 1.0445 1.2161 29.2524
#
#
#
# Elastic Compliance Matrix: (Units=1/GPa)
#
#
# Indices 1 2 3 4 5 6 
#
# 1 0.022120 -0.014565 0.004885 -0.000421 -0.009508 0.011320
# 2 -0.014565 0.074883 -0.010549 -0.028039 0.008041 0.015098
# 3 0.004885 -0.010549 0.019721 -0.005525 -0.006670 -0.001805
# 4 -0.000421 -0.028039 -0.005525 0.063518 -0.017835 -0.010015
# 5 -0.009508 0.008041 -0.006670 -0.017835 0.038110 -0.004493
# 6 0.011320 0.015098 -0.001805 -0.010015 -0.004493 0.048003
#
#
# Mechanical properties :
#
#
# Convention : Reuss Voigt Hill
#
# Bulk Modulus (GPa) = 13.11223 27.24861 20.18042
# Shear Modulus (GPa) = 15.04955 28.69976 21.87466
#
# Velocity S-wave (km/s) = 2.55386 3.52675 3.07897
# Velocity P-wave (km/s) = 3.79195 5.32851 4.62449
#
# Compressibility (1/GPa) = 0.07626465
#
# Stress axis : x y z
#
# Youngs Moduli (GPa) = 45.20898 13.35420 50.70703
#
# Poissons Ratio (x) = 0.19451 -0.24773
# Poissons Ratio (y) = 0.65849 0.53493
# Poissons Ratio (z) = -0.22087 0.14088
#
# Static dielectric constant tensor:
#      x y z
#    x 1.934460 -0.008840 0.015540 
#    y -0.008840 1.883160 0.013000 
#    z 0.015540 0.013000 1.934200 
# 
# From -- ./inp_files/406612.got.cif
#   From: 2010.05.17/outbox.cif.g08.bks.cpg/sg2_204_cif.got.tgz:406612.got - 2010.06.03 11:33:40.
