data_PCOD9038919
_publ_section_title
;
Structure prediction by ZEFSAII (Michael W. Deem and Ramdas Pophale) SiO2 
 PCOD9038919
Probable space group: P -1
;
_chemical_formula_sum "Si O2"
_cell_formula_units_Z 12
_cell_length_a 8.999226
_cell_length_b 4.970430
_cell_length_c 13.254652
_cell_angle_alpha 98.059388
_cell_angle_beta 125.649101
_cell_angle_gamma 80.258906
_cell_volume 474.189260
_symmetry_space_group_name_H-M "P -1"
_symmetry_group_IT_number 2
_symmetry_cell_setting 'triclinic'
loop_
_space_group_symop_operation_xyz
x,y,z
-x,-y,-z
loop_
_atom_site_type_symbol
_atom_site_label
_atom_site_fract_x
_atom_site_fract_y
_atom_site_fract_z
Si Si1 0.639746 0.785595 0.328174
Si Si2 0.969491 0.917124 0.336341
Si Si3 0.880256 0.755220 0.918797
Si Si4 0.075504 0.613036 0.805947
Si Si5 0.620896 0.317080 0.456806
Si Si6 0.398275 0.898367 0.050848
O O1 0.838618 0.869998 0.376479
O O2 0.650708 0.518920 0.386535
O O3 0.529771 0.746685 0.179424
O O4 0.545678 0.042942 0.369273
O O5 0.902555 0.710703 0.214784
O O6 0.180428 0.800965 0.427424
O O7 0.941793 0.222967 0.297821
O O8 0.889631 0.702069 0.800567
O O9 0.695404 0.840730 0.909652
O O10 0.000000 0.500000 0.000000
O O11 0.000000 0.000000 0.000000
O O12 0.246056 0.715109 0.938687
O O13 0.500000 0.500000 0.500000
O O14 0.500000 0.000000 0.000000
#
# Coordination Sequence:
#
# PCOD9038919 Si02
#       6
#     2   2   2   2   2   2
#     4  12  27  48  75 108 146 192 236 303 361 428
#     4  12  25  47  77 100 148 190 246 290 368 422
#     4  10  23  42  64  96 144 189 231 275 347 423
#     4  11  24  44  73 108 142 198 228 297 362 437
#     4  12  29  50  77 105 141 191 253 304 352 418
#     4  11  25  46  73 112 152 183 241 291 364 438
#
# _framework density 25.306353000000001
#
# number of rings (size 3 to 8) (size 9 to 14) (size 15 to 20)
#    0.000    0.667    1.667    5.500    4.667    4.667 
#    0.000    0.000    0.000    0.000    0.000    0.000 
#    0.000    0.000    0.000    0.000    0.000    0.000 
#
# Total GULP energy -67262.590035 kJ/mol
# GULP energy per Si atom -5605.215836 kJ/mol
# Density = 2.524875 g / cm^3
# Si number density = 25.306353 Si / 1000 Ang^3
#
#
#
# Elastic Constant Matrix: (Units=GPa)
#
#
# Indices 1 2 3 4 5 6 
#
# 1 100.1082 1.3467 23.0905 -5.6628 -14.8058 -20.8500
# 2 1.3467 87.1217 3.4614 3.3744 -2.9303 9.9971
# 3 23.0905 3.4614 117.3953 -15.1364 13.6512 6.6698
# 4 -5.6628 3.3744 -15.1364 51.4629 -0.2526 -17.2557
# 5 -14.8058 -2.9303 13.6512 -0.2526 42.9460 -5.8934
# 6 -20.8500 9.9971 6.6698 -17.2557 -5.8934 42.4442
#
#
#
# Elastic Compliance Matrix: (Units=1/GPa)
#
#
# Indices 1 2 3 4 5 6 
#
# 1 0.014477 -0.001216 -0.003764 0.004210 0.007606 0.010757
# 2 -0.001216 0.012104 -0.000164 -0.002468 -0.000166 -0.004449
# 3 -0.003764 -0.000164 0.010231 0.001389 -0.005040 -0.003553
# 4 0.004210 -0.002468 0.001389 0.024803 0.002757 0.012898
# 5 0.007606 -0.000166 -0.005040 0.002757 0.028844 0.009693
# 6 0.010757 -0.004449 -0.003553 0.012898 0.009693 0.037040
#
#
# Mechanical properties :
#
#
# Convention : Reuss Voigt Hill
#
# Bulk Modulus (GPa) = 37.70236 40.04693 38.87465
# Shear Modulus (GPa) = 34.09949 45.81908 39.95929
#
# Velocity S-wave (km/s) = 3.67477 4.25970 3.97800
# Velocity P-wave (km/s) = 5.73899 6.32871 6.04105
#
# Compressibility (1/GPa) = 0.02652354
#
# Stress axis : x y z
#
# Youngs Moduli (GPa) = 69.07358 82.61718 97.74552
#
# Poissons Ratio (x) = 0.10045 0.36796
# Poissons Ratio (y) = 0.08398 0.01602
# Poissons Ratio (z) = 0.26003 0.01354
#
# Static dielectric constant tensor:
#      x y z
#    x 2.056120 -0.052170 0.012710 
#    y -0.052170 1.937680 0.057010 
#    z 0.012710 0.057010 2.040200 
# 
# From -- ./inp_files/131364.got.cif
#   From: 2010.05.17/outbox.cif.g08.bks.cpg/sg2_66_cif.got.tgz:131364.got - 2010.06.03 11:33:40.
