data_PCOD9038471
_publ_section_title
;
Structure prediction by ZEFSAII (Michael W. Deem and Ramdas Pophale) SiO2 
 PCOD9038471
Probable space group: P -1
;
_chemical_formula_sum "Si O2"
_cell_formula_units_Z 14
_cell_length_a 12.452721
_cell_length_b 5.327891
_cell_length_c 13.972276
_cell_angle_alpha 62.844052
_cell_angle_beta 136.119896
_cell_angle_gamma 117.941769
_cell_volume 556.893210
_symmetry_space_group_name_H-M "P -1"
_symmetry_group_IT_number 2
_symmetry_cell_setting 'triclinic'
loop_
_space_group_symop_operation_xyz
x,y,z
-x,-y,-z
loop_
_atom_site_type_symbol
_atom_site_label
_atom_site_fract_x
_atom_site_fract_y
_atom_site_fract_z
Si Si1 0.413562 0.663790 0.989635
Si Si2 0.880434 0.063408 0.553834
Si Si3 0.775375 0.940759 0.768029
Si Si4 0.915526 0.164576 0.025787
Si Si5 0.915263 0.352703 0.321674
Si Si6 0.622724 0.326749 0.834580
Si Si7 0.471865 0.172947 0.575539
O O1 0.234263 0.620495 0.843637
O O2 0.500000 0.500000 0.000000
O O3 0.434784 0.545060 0.130010
O O4 0.500000 0.000000 0.000000
O O5 0.854493 0.152205 0.410768
O O6 0.991424 0.347324 0.623298
O O7 0.715786 0.977071 0.523741
O O8 0.967573 0.797078 0.640778
O O9 0.707292 0.599403 0.778587
O O10 0.949385 0.988794 0.821906
O O11 0.617773 0.065236 0.637899
O O12 0.839371 0.023914 0.902681
O O13 0.758518 0.166101 0.985118
O O14 0.000000 0.500000 0.000000
O O15 0.500631 0.150904 0.712466
O O16 0.500000 0.500000 0.500000
#
# Coordination Sequence:
#
# PCOD9038471 Si02
#       7
#     2   2   2   2   2   2   2
#     4  12  27  45  75 113 142 178 241 313 378 438
#     4  10  23  46  74  97 146 190 241 301 353 434
#     4   9  19  38  65  92 130 186 232 291 352 427
#     4   8  16  37  60  93 127 176 222 283 351 422
#     4  10  23  47  72 105 135 190 244 296 366 429
#     4  10  23  41  69  98 140 185 233 302 370 428
#     4  11  25  44  67 105 146 197 249 299 368 443
#
# _framework density 25.139472000000001
#
# number of rings (size 3 to 8) (size 9 to 14) (size 15 to 20)
#    0.000    2.000    0.000    1.714    8.000    1.714 
#   15.429    0.000    0.000    0.000    0.000    0.000 
#    0.000    0.000    0.000    0.000    0.000    0.000 
#
# Total GULP energy -78182.642718 kJ/mol
# GULP energy per Si atom -5584.474480 kJ/mol
# Density = 2.508225 g / cm^3
# Si number density = 25.139472 Si / 1000 Ang^3
#
#
#
# Elastic Constant Matrix: (Units=GPa)
#
#
# Indices 1 2 3 4 5 6 
#
# 1 140.3004 25.8035 53.9829 -1.7492 19.9879 -20.3742
# 2 25.8035 79.3744 40.7173 21.0625 23.0006 -14.4026
# 3 53.9829 40.7173 172.9912 14.8277 32.9109 -16.5377
# 4 -1.7492 21.0625 14.8277 43.1187 -4.3989 2.7422
# 5 19.9879 23.0006 32.9109 -4.3989 45.8849 -4.1592
# 6 -20.3742 -14.4026 -16.5377 2.7422 -4.1592 48.7175
#
#
#
# Elastic Compliance Matrix: (Units=1/GPa)
#
#
# Indices 1 2 3 4 5 6 
#
# 1 0.008711 -0.001362 -0.002051 0.001443 -0.001289 0.002353
# 2 -0.001362 0.019993 -0.001165 -0.010660 -0.009183 0.004762
# 3 -0.002051 -0.001165 0.007871 -0.002741 -0.004317 0.001256
# 4 0.001443 -0.010660 -0.002741 0.030621 0.009217 -0.004415
# 5 -0.001289 -0.009183 -0.004317 0.009217 0.030701 -0.002617
# 6 0.002353 0.004762 0.001256 -0.004415 -0.002617 0.023369
#
#
# Mechanical properties :
#
#
# Convention : Reuss Voigt Hill
#
# Bulk Modulus (GPa) = 36.47136 70.40817 53.43976
# Shear Modulus (GPa) = 35.82644 45.68839 40.75742
#
# Velocity S-wave (km/s) = 3.77915 4.26772 4.03085
# Velocity P-wave (km/s) = 5.79498 7.23549 6.55493
#
# Compressibility (1/GPa) = 0.02741878
#
# Stress axis : x y z
#
# Youngs Moduli (GPa) = 114.80357 50.01843 127.04560
#
# Poissons Ratio (x) = 0.06812 0.26059
# Poissons Ratio (y) = 0.15636 0.14796
# Poissons Ratio (z) = 0.23548 0.05825
#
# Static dielectric constant tensor:
#      x y z
#    x 2.176520 -0.011110 0.028390 
#    y -0.011110 1.999700 -0.045670 
#    z 0.028390 -0.045670 2.115310 
# 
# From -- ./inp_files/510856.got.cif
#   From: 2010.05.17/outbox.cif.g08.bks.cpg/sg2_256_cif.got.tgz:510856.got - 2010.06.03 11:33:40.
