data_PCOD9038456
_publ_section_title
;
Structure prediction by ZEFSAII (Michael W. Deem and Ramdas Pophale) SiO2 
 PCOD9038456
Probable space group: P -1
;
_chemical_formula_sum "Si O2"
_cell_formula_units_Z 15
_cell_length_a 9.035855
_cell_length_b 9.901950
_cell_length_c 16.095325
_cell_angle_alpha 125.027226
_cell_angle_beta 57.999603
_cell_angle_gamma 75.121278
_cell_volume 589.575687
_symmetry_space_group_name_H-M "P -1"
_symmetry_group_IT_number 2
_symmetry_cell_setting 'triclinic'
loop_
_space_group_symop_operation_xyz
x,y,z
-x,-y,-z
loop_
_atom_site_type_symbol
_atom_site_label
_atom_site_fract_x
_atom_site_fract_y
_atom_site_fract_z
Si Si1 0.740040 0.333753 0.941552
Si Si2 0.052638 0.376632 0.529653
Si Si3 0.181579 0.818645 0.727478
Si Si4 0.000000 0.000000 0.000000
Si Si5 0.362212 0.951298 0.418038
Si Si6 0.033527 0.424959 0.821619
Si Si7 0.812769 0.798144 0.878387
Si Si8 0.586404 0.442843 0.709786
O O1 0.875154 0.410569 0.918837
O O2 0.500000 0.500000 0.000000
O O3 0.554212 0.446220 0.118564
O O4 0.014838 0.997409 0.755723
O O5 0.037683 0.540620 0.656307
O O6 0.782016 0.455588 0.646976
O O7 0.000000 0.500000 0.500000
O O8 0.310078 0.063120 0.380545
O O9 0.500000 0.500000 0.500000
O O10 0.938441 0.889142 0.878990
O O11 0.170513 0.965785 0.852987
O O12 0.680774 0.343325 0.199503
O O13 0.705902 0.688095 0.245723
O O14 0.243742 0.860648 0.445226
O O15 0.195330 0.199104 0.619267
O O16 0.822453 0.706493 0.932151
O O17 0.500000 0.000000 0.000000
#
# Coordination Sequence:
#
# PCOD9038456 Si02
#       8
#     2   2   2   1   2   2   2   2
#     4  11  24  43  68 100 139 180 230 284 349 437
#     4  11  26  41  65  98 137 176 233 286 339 424
#     4  11  26  42  74 106 136 196 236 291 366 429
#     4  10  24  44  68 100 146 168 240 296 336 434
#     4  10  23  42  66  96 133 174 227 286 338 406
#     4  10  23  41  69  97 130 175 228 282 337 423
#     4  11  23  45  67  99 140 181 230 287 366 415
#     4  11  24  45  66  97 137 181 221 288 355 405
#
# _framework density 25.442025999999998
#
# number of rings (size 3 to 8) (size 9 to 14) (size 15 to 20)
#    0.000    1.333    0.000    5.200    9.333    3.733 
#    0.000    0.000    0.000    0.000    0.000    0.000 
#    0.000    0.000    0.000    0.000    0.000    0.000 
#
# Total GULP energy -83658.305644 kJ/mol
# GULP energy per Si atom -5577.220376 kJ/mol
# Density = 2.538412 g / cm^3
# Si number density = 25.442026 Si / 1000 Ang^3
#
#
#
# Elastic Constant Matrix: (Units=GPa)
#
#
# Indices 1 2 3 4 5 6 
#
# 1 70.7205 52.9620 23.3368 4.9344 -20.1021 -8.3624
# 2 52.9620 225.7552 46.0882 1.3758 -31.1926 -19.5369
# 3 23.3368 46.0882 83.9820 11.7064 -14.1667 -15.3100
# 4 4.9344 1.3758 11.7064 51.8513 -2.7479 -12.5933
# 5 -20.1021 -31.1926 -14.1667 -2.7479 37.0686 0.9154
# 6 -8.3624 -19.5369 -15.3100 -12.5933 0.9154 53.6171
#
#
#
# Elastic Compliance Matrix: (Units=1/GPa)
#
#
# Indices 1 2 3 4 5 6 
#
# 1 0.019288 -0.003007 -0.002259 -0.000632 0.006995 0.001000
# 2 -0.003007 0.006015 -0.001894 0.001035 0.002749 0.001378
# 3 -0.002259 -0.001894 0.014810 -0.002309 0.002605 0.002599
# 4 -0.000632 0.001035 -0.002309 0.020999 0.001090 0.004532
# 5 0.006995 0.002749 0.002605 0.001090 0.034098 0.002510
# 6 0.001000 0.001378 0.002599 0.004532 0.002510 0.021073
#
#
# Mechanical properties :
#
#
# Convention : Reuss Voigt Hill
#
# Bulk Modulus (GPa) = 38.77302 69.47019 54.12161
# Shear Modulus (GPa) = 35.91950 45.71210 40.81580
#
# Velocity S-wave (km/s) = 3.76149 4.24337 4.00968
# Velocity P-wave (km/s) = 5.84277 7.16748 6.53876
#
# Compressibility (1/GPa) = 0.02579113
#
# Stress axis : x y z
#
# Youngs Moduli (GPa) = 51.84552 166.26427 67.52204
#
# Poissons Ratio (x) = 0.49994 0.15256
# Poissons Ratio (y) = 0.15590 0.12792
# Poissons Ratio (z) = 0.11714 0.31498
#
# Static dielectric constant tensor:
#      x y z
#    x 1.580430 -0.006450 0.025060 
#    y -0.006450 2.091100 0.042700 
#    z 0.025060 0.042700 2.128910 
# 
# From -- ./inp_files/557422.got.cif
#   From: 2010.05.17/outbox.cif.g08.bks.cpg/sg2_279_cif.got.tgz:557422.got - 2010.06.03 11:33:40.
