data_PCOD9038842
_publ_section_title
;
Structure prediction by ZEFSAII (Michael W. Deem and Ramdas Pophale) SiO2 
 PCOD9038842
Probable space group: P -1
;
_chemical_formula_sum "Si O2"
_cell_formula_units_Z 14
_cell_length_a 9.040062
_cell_length_b 7.848511
_cell_length_c 12.563270
_cell_angle_alpha 73.278040
_cell_angle_beta 119.230385
_cell_angle_gamma 128.296722
_cell_volume 610.338484
_symmetry_space_group_name_H-M "P -1"
_symmetry_group_IT_number 2
_symmetry_cell_setting 'triclinic'
loop_
_space_group_symop_operation_xyz
x,y,z
-x,-y,-z
loop_
_atom_site_type_symbol
_atom_site_label
_atom_site_fract_x
_atom_site_fract_y
_atom_site_fract_z
Si Si1 0.939645 0.673566 0.462982
Si Si2 0.510118 0.893782 0.817166
Si Si3 0.487106 0.458888 0.251505
Si Si4 0.355721 0.558111 0.992854
Si Si5 0.737852 0.524401 0.640927
Si Si6 0.080804 0.652226 0.104616
Si Si7 0.612994 0.954840 0.454749
O O1 0.730156 0.594374 0.339994
O O2 0.874024 0.664703 0.563932
O O3 0.000000 0.500000 0.500000
O O4 0.143292 0.906053 0.460738
O O5 0.561502 0.747807 0.793687
O O6 0.399773 0.952402 0.680927
O O7 0.720365 0.110615 0.889261
O O8 0.382123 0.754501 0.900137
O O9 0.430213 0.595428 0.134321
O O10 0.339951 0.383796 0.315209
O O11 0.500000 0.500000 0.000000
O O12 0.120147 0.355837 0.933889
O O13 0.861889 0.447035 0.762529
O O14 0.527721 0.303060 0.564611
O O15 0.000000 0.500000 0.000000
O O16 0.500000 0.000000 0.500000
#
# Coordination Sequence:
#
# PCOD9038842 Si02
#       7
#     2   2   2   2   2   2   2
#     4  12  23  42  71  95 127 180 217 265 340 388
#     4  10  23  42  70  93 133 176 218 263 333 384
#     4  11  23  43  65 100 136 171 219 279 320 392
#     4  10  23  42  63  97 135 170 220 267 318 391
#     4  11  24  43  65  98 137 164 224 277 320 390
#     4  11  23  44  68  96 130 174 217 267 330 386
#     4  11  22  41  68  99 126 174 222 267 325 395
#
# _framework density 22.938092999999999
#
# number of rings (size 3 to 8) (size 9 to 14) (size 15 to 20)
#    0.000    1.143    4.286    1.286    2.000    3.429 
#    2.571    2.857    0.000    0.000    0.000    0.000 
#    0.000    0.000    0.000    0.000    0.000    0.000 
#
# Total GULP energy -78301.949887 kJ/mol
# GULP energy per Si atom -5592.996420 kJ/mol
# Density = 2.288588 g / cm^3
# Si number density = 22.938093 Si / 1000 Ang^3
#
#
#
# Elastic Constant Matrix: (Units=GPa)
#
#
# Indices 1 2 3 4 5 6 
#
# 1 102.9201 20.1482 27.1837 16.5010 0.2982 18.2510
# 2 20.1482 81.2897 27.9103 18.6266 -7.2245 22.1368
# 3 27.1837 27.9103 122.9105 -5.8624 1.8429 16.9635
# 4 16.5010 18.6266 -5.8624 46.7077 2.5892 2.2199
# 5 0.2982 -7.2245 1.8429 2.5892 43.6514 6.8952
# 6 18.2510 22.1368 16.9635 2.2199 6.8952 30.6591
#
#
#
# Elastic Compliance Matrix: (Units=1/GPa)
#
#
# Indices 1 2 3 4 5 6 
#
# 1 0.012024 0.000690 -0.002166 -0.004567 0.001413 -0.006445
# 2 0.000690 0.019169 -0.003145 -0.007979 0.005867 -0.013254
# 3 -0.002166 -0.003145 0.009765 0.003381 -0.000818 -0.001904
# 4 -0.004567 -0.007979 0.003381 0.026581 -0.003887 0.005558
# 5 0.001413 0.005867 -0.000818 -0.003887 0.025736 -0.010131
# 6 -0.006445 -0.013254 -0.001904 0.005558 -0.010131 0.048953
#
#
# Mechanical properties :
#
#
# Convention : Reuss Voigt Hill
#
# Bulk Modulus (GPa) = 31.52730 50.84499 41.18614
# Shear Modulus (GPa) = 30.85646 39.66217 35.25931
#
# Velocity S-wave (km/s) = 3.67168 4.16275 3.92491
# Velocity P-wave (km/s) = 5.63466 6.73194 6.20759
#
# Compressibility (1/GPa) = 0.03171854
#
# Stress axis : x y z
#
# Youngs Moduli (GPa) = 83.16585 52.16703 102.40213
#
# Poissons Ratio (x) = -0.03602 0.22176
# Poissons Ratio (y) = -0.05742 0.32205
# Poissons Ratio (z) = 0.18011 0.16406
#
# Static dielectric constant tensor:
#      x y z
#    x 1.926670 -0.042700 -0.016410 
#    y -0.042700 1.868920 -0.060280 
#    z -0.016410 -0.060280 1.929030 
# 
# From -- ./inp_files/176945.got.cif
#   From: 2010.05.17/outbox.cif.g08.bks.cpg/sg2_89_cif.got.tgz:176945.got - 2010.06.03 11:33:40.
