data_PCOD9038715
_publ_section_title
;
Structure prediction by ZEFSAII (Michael W. Deem and Ramdas Pophale) SiO2 
 PCOD9038715
Probable space group: P -1
;
_chemical_formula_sum "Si O2"
_cell_formula_units_Z 12
_cell_length_a 9.018295
_cell_length_b 9.129461
_cell_length_c 13.659611
_cell_angle_alpha 52.354970
_cell_angle_beta 42.609689
_cell_angle_gamma 45.055436
_cell_volume 529.116802
_symmetry_space_group_name_H-M "P -1"
_symmetry_group_IT_number 2
_symmetry_cell_setting 'triclinic'
loop_
_space_group_symop_operation_xyz
x,y,z
-x,-y,-z
loop_
_atom_site_type_symbol
_atom_site_label
_atom_site_fract_x
_atom_site_fract_y
_atom_site_fract_z
Si Si1 0.913588 0.099104 0.320480
Si Si2 0.089732 0.414314 0.099996
Si Si3 0.297324 0.704349 0.394767
Si Si4 0.972966 0.213801 0.878776
Si Si5 0.639284 0.216905 0.881588
Si Si6 0.409755 0.260294 0.575259
O O1 0.628922 0.153376 0.432290
O O2 0.927370 0.307167 0.259710
O O3 0.041291 0.913984 0.413013
O O4 0.109645 0.003884 0.173950
O O5 0.061353 0.609635 0.097927
O O6 0.380760 0.232091 0.034582
O O7 0.000000 0.500000 0.000000
O O8 0.422002 0.668089 0.240875
O O9 0.262214 0.505333 0.518106
O O10 0.454288 0.744398 0.385759
O O11 0.224263 0.166688 0.717748
O O12 0.739921 0.310065 0.878472
O O13 0.000000 0.000000 0.000000
#
# Coordination Sequence:
#
# PCOD9038715 Si02
#       6
#     2   2   2   2   2   2
#     4  10  23  41  75 100 128 176 227 285 327 392
#     4  12  23  44  74  97 135 179 230 281 328 403
#     4   9  22  41  70 103 128 173 233 278 330 389
#     4  12  28  43  65  98 141 183 219 276 344 408
#     4  10  24  44  63 105 137 173 222 271 348 400
#     4  11  21  44  68 102 134 174 230 280 331 399
#
# _framework density 22.679300999999999
#
# number of rings (size 3 to 8) (size 9 to 14) (size 15 to 20)
#    1.000    0.333    0.000    6.500    2.333    1.333 
#    3.000    0.000    0.000    0.000    0.000    0.000 
#    0.000    0.000    0.000    0.000    0.000    0.000 
#
# Total GULP energy -66991.804750 kJ/mol
# GULP energy per Si atom -5582.650396 kJ/mol
# Density = 2.262768 g / cm^3
# Si number density = 22.679301 Si / 1000 Ang^3
#
#
#
# Elastic Constant Matrix: (Units=GPa)
#
#
# Indices 1 2 3 4 5 6 
#
# 1 75.1965 16.9286 19.5400 6.6458 -6.4649 11.2849
# 2 16.9286 88.7103 33.4972 -1.7506 -2.9304 -3.7117
# 3 19.5400 33.4972 127.4657 5.4149 -37.3663 -1.7706
# 4 6.6458 -1.7506 5.4149 44.8411 2.0163 5.7403
# 5 -6.4649 -2.9304 -37.3663 2.0163 40.4559 3.1825
# 6 11.2849 -3.7117 -1.7706 5.7403 3.1825 31.4498
#
#
#
# Elastic Compliance Matrix: (Units=1/GPa)
#
#
# Indices 1 2 3 4 5 6 
#
# 1 0.015365 -0.002715 -0.001147 -0.001582 0.001733 -0.005785
# 2 -0.002715 0.013373 -0.004164 0.001274 -0.003567 0.002446
# 3 -0.001147 -0.004164 0.012462 -0.001980 0.011135 -0.000144
# 4 -0.001582 0.001274 -0.001980 0.023386 -0.002889 -0.003369
# 5 0.001733 -0.003567 0.011135 -0.002889 0.035439 -0.003475
# 6 -0.005785 0.002446 -0.000144 -0.003369 -0.003475 0.035120
#
#
# Mechanical properties :
#
#
# Convention : Reuss Voigt Hill
#
# Bulk Modulus (GPa) = 39.76551 47.92267 43.84409
# Shear Modulus (GPa) = 31.33278 38.10981 34.72130
#
# Velocity S-wave (km/s) = 3.72096 4.10369 3.91700
# Velocity P-wave (km/s) = 6.00272 6.60531 6.31121
#
# Compressibility (1/GPa) = 0.02514742
#
# Stress axis : x y z
#
# Youngs Moduli (GPa) = 65.08423 74.77906 80.24622
#
# Poissons Ratio (x) = 0.20302 0.09204
# Poissons Ratio (y) = 0.17670 0.33414
# Poissons Ratio (z) = 0.07465 0.31137
#
# Static dielectric constant tensor:
#      x y z
#    x 1.814950 0.034790 0.038470 
#    y 0.034790 1.874650 0.086900 
#    z 0.038470 0.086900 1.882410 
# 
# From -- ./inp_files/489026.got.cif
#   From: 2010.05.17/outbox.cif.g08.bks.cpg/sg2_245_cif.got.tgz:489026.got - 2010.06.03 11:33:40.
