data_PCOD9038580
_publ_section_title
;
Structure prediction by ZEFSAII (Michael W. Deem and Ramdas Pophale) SiO2 
 PCOD9038580
Probable space group: P -1
;
_chemical_formula_sum "Si O2"
_cell_formula_units_Z 14
_cell_length_a 9.037999
_cell_length_b 10.737580
_cell_length_c 9.483945
_cell_angle_alpha 112.103695
_cell_angle_beta 44.057818
_cell_angle_gamma 132.215054
_cell_volume 463.754462
_symmetry_space_group_name_H-M "P -1"
_symmetry_group_IT_number 2
_symmetry_cell_setting 'triclinic'
loop_
_space_group_symop_operation_xyz
x,y,z
-x,-y,-z
loop_
_atom_site_type_symbol
_atom_site_label
_atom_site_fract_x
_atom_site_fract_y
_atom_site_fract_z
Si Si1 0.535844 0.421822 0.793673
Si Si2 0.193387 0.043246 0.473298
Si Si3 0.172402 0.819662 0.221352
Si Si4 0.982379 0.116036 0.166968
Si Si5 0.666274 0.432891 0.413125
Si Si6 0.236438 0.564686 0.085181
Si Si7 0.715146 0.194700 0.167579
O O1 0.435989 0.531421 0.864444
O O2 0.286295 0.288574 0.011785
O O3 0.551719 0.344106 0.608571
O O4 0.778382 0.481016 0.759075
O O5 0.091193 0.948806 0.651802
O O6 0.490795 0.237305 0.362038
O O7 0.398152 0.993431 0.250154
O O8 0.374809 0.761509 0.039519
O O9 0.941091 0.626620 0.362585
O O10 0.996090 0.096900 0.592781
O O11 0.123336 0.803170 0.074889
O O12 0.775719 0.138623 0.246171
O O13 0.000000 0.000000 0.000000
O O14 0.500000 0.500000 0.500000
O O15 0.934562 0.420133 0.156738
#
# Coordination Sequence:
#
# PCOD9038580 Si02
#       7
#     2   2   2   2   2   2   2
#     4  11  22  40  70 105 144 181 234 290 350 424
#     4  12  29  47  72 101 139 193 244 284 358 428
#     4  10  25  44  73  98 144 184 237 284 356 414
#     4  12  27  44  71 103 143 185 241 290 359 421
#     4  10  23  41  71 105 140 182 231 291 352 408
#     4   9  23  39  67 104 146 175 235 283 356 411
#     4  12  25  49  68 103 147 183 234 305 349 413
#
# _framework density 30.188389999999998
#
# number of rings (size 3 to 8) (size 9 to 14) (size 15 to 20)
#    0.857    0.286    1.429    3.429   10.000    0.000 
#    0.000    2.143    0.000    0.000    0.000    0.000 
#    0.000    0.000    0.000    0.000    0.000    0.000 
#
# Total GULP energy -78231.042107 kJ/mol
# GULP energy per Si atom -5587.931579 kJ/mol
# Density = 3.011968 g / cm^3
# Si number density = 30.188390 Si / 1000 Ang^3
#
#
#
# Elastic Constant Matrix: (Units=GPa)
#
#
# Indices 1 2 3 4 5 6 
#
# 1 240.5345 92.8056 114.3047 5.5592 -5.7922 7.6170
# 2 92.8056 286.0991 95.0277 49.7497 26.7243 24.2447
# 3 114.3047 95.0277 179.5313 22.9582 30.4509 6.1937
# 4 5.5592 49.7497 22.9582 60.3294 11.5150 16.9149
# 5 -5.7922 26.7243 30.4509 11.5150 81.9953 3.5935
# 6 7.6170 24.2447 6.1937 16.9149 3.5935 62.5745
#
#
#
# Elastic Compliance Matrix: (Units=1/GPa)
#
#
# Indices 1 2 3 4 5 6 
#
# 1 0.006631 -0.001234 -0.004141 0.001706 0.002191 -0.000506
# 2 -0.001234 0.005017 -0.001310 -0.003166 -0.000758 -0.000765
# 3 -0.004141 -0.001310 0.009653 -0.001799 -0.003229 0.000728
# 4 0.001706 -0.003166 -0.001799 0.021148 -0.000954 -0.004465
# 5 0.002191 -0.000758 -0.003229 -0.000954 0.013939 -0.000196
# 6 -0.000506 -0.000765 0.000728 -0.004465 -0.000196 0.017485
#
#
# Mechanical properties :
#
#
# Convention : Reuss Voigt Hill
#
# Bulk Modulus (GPa) = 126.09776 145.60453 135.85114
# Shear Modulus (GPa) = 55.62673 67.91496 61.77085
#
# Velocity S-wave (km/s) = 4.29727 4.74825 4.52838
# Velocity P-wave (km/s) = 8.15371 8.85426 8.51119
#
# Compressibility (1/GPa) = 0.00793036
#
# Stress axis : x y z
#
# Youngs Moduli (GPa) = 150.81611 199.33210 103.59918
#
# Poissons Ratio (x) = 0.24596 0.42898
# Poissons Ratio (y) = 0.18609 0.13572
# Poissons Ratio (z) = 0.62450 0.26114
#
# Static dielectric constant tensor:
#      x y z
#    x 2.604810 0.005470 -0.404120 
#    y 0.005470 2.660660 0.236240 
#    z -0.404120 0.236240 2.698210 
# 
# From -- ./inp_files/389664.got.cif
#   From: 2010.05.17/outbox.cif.g08.bks.cpg/sg2_195_cif.got.tgz:389664.got - 2010.06.03 11:33:40.
