data_PCOD9038726
_publ_section_title
;
Structure prediction by ZEFSAII (Michael W. Deem and Ramdas Pophale) SiO2 
 PCOD9038726
Probable space group: P -1
;
_chemical_formula_sum "Si O2"
_cell_formula_units_Z 12
_cell_length_a 9.135857
_cell_length_b 7.743010
_cell_length_c 11.187406
_cell_angle_alpha 118.354238
_cell_angle_beta 128.560807
_cell_angle_gamma 93.268662
_cell_volume 467.441090
_symmetry_space_group_name_H-M "P -1"
_symmetry_group_IT_number 2
_symmetry_cell_setting 'triclinic'
loop_
_space_group_symop_operation_xyz
x,y,z
-x,-y,-z
loop_
_atom_site_type_symbol
_atom_site_label
_atom_site_fract_x
_atom_site_fract_y
_atom_site_fract_z
Si Si1 0.651403 0.961890 0.154984
Si Si2 0.320626 0.658974 0.543337
Si Si3 0.509537 0.309243 0.806712
Si Si4 0.132526 0.175569 0.411951
Si Si5 0.741274 0.014544 0.800556
Si Si6 0.837700 0.555473 0.862441
O O1 0.734376 0.167277 0.362637
O O2 0.875348 0.008439 0.229454
O O3 0.503209 0.718035 0.064965
O O4 0.500000 0.000000 0.000000
O O5 0.197879 0.420374 0.470926
O O6 0.585596 0.789187 0.724908
O O7 0.264167 0.608430 0.357872
O O8 0.261139 0.218200 0.614309
O O9 0.660079 0.515521 0.860510
O O10 0.601988 0.140403 0.767036
O O11 0.235159 0.067948 0.343083
O O12 0.987104 0.198017 0.023670
O O13 0.000000 0.500000 0.000000
#
# Coordination Sequence:
#
# PCOD9038726 Si02
#       6
#     2   2   2   2   2   2
#     4  11  28  49  72 100 146 197 236 287 359 428
#     4  11  25  46  73 102 151 180 237 296 353 414
#     4  10  23  47  70 104 144 183 237 295 351 415
#     4  12  24  44  73 109 142 189 235 291 360 420
#     4  10  23  43  75 104 146 179 235 290 354 413
#     4  10  23  41  76 108 136 187 237 289 360 408
#
# _framework density 25.671685
#
# number of rings (size 3 to 8) (size 9 to 14) (size 15 to 20)
#    0.000    1.333    1.667    2.000   14.000    2.000 
#    0.000    1.667    0.000    0.000    0.000    0.000 
#    0.000    0.000    0.000    0.000    0.000    0.000 
#
# Total GULP energy -67088.458491 kJ/mol
# GULP energy per Si atom -5590.704874 kJ/mol
# Density = 2.561325 g / cm^3
# Si number density = 25.671685 Si / 1000 Ang^3
#
#
#
# Elastic Constant Matrix: (Units=GPa)
#
#
# Indices 1 2 3 4 5 6 
#
# 1 90.5229 43.2898 16.0337 1.7833 24.6325 21.0199
# 2 43.2898 143.7296 44.9505 2.6736 11.6122 25.9702
# 3 16.0337 44.9505 93.9991 9.0932 10.0574 5.1365
# 4 1.7833 2.6736 9.0932 43.6164 -5.2740 1.4395
# 5 24.6325 11.6122 10.0574 -5.2740 23.7277 -10.1677
# 6 21.0199 25.9702 5.1365 1.4395 -10.1677 27.2431
#
#
#
# Elastic Compliance Matrix: (Units=1/GPa)
#
#
# Indices 1 2 3 4 5 6 
#
# 1 0.057148 0.006351 0.004781 -0.013573 -0.106000 -0.089894
# 2 0.006351 0.012151 -0.003001 -0.002254 -0.022069 -0.024035
# 3 0.004781 -0.003001 0.013593 -0.004235 -0.013755 -0.008301
# 4 -0.013573 -0.002254 -0.004235 0.027765 0.033666 0.024518
# 5 -0.106000 -0.022069 -0.013755 0.033666 0.262730 0.201694
# 6 -0.089894 -0.024035 -0.008301 0.024518 0.201694 0.204524
#
#
# Mechanical properties :
#
#
# Convention : Reuss Voigt Hill
#
# Bulk Modulus (GPa) = 10.08520 59.64439 34.86479
# Shear Modulus (GPa) = 8.40761 33.84929 21.12845
#
# Velocity S-wave (km/s) = 1.81167 3.63512 2.87195
# Velocity P-wave (km/s) = 2.88327 6.39553 4.96065
#
# Compressibility (1/GPa) = 0.09915523
#
# Stress axis : x y z
#
# Youngs Moduli (GPa) = 17.49843 82.29830 73.56739
#
# Poissons Ratio (x) = -0.52272 -0.35176
# Poissons Ratio (y) = -0.11114 0.22080
# Poissons Ratio (z) = -0.08367 0.24700
#
# Static dielectric constant tensor:
#      x y z
#    x 2.002910 0.033730 -0.026420 
#    y 0.033730 2.112440 0.079270 
#    z -0.026420 0.079270 2.053770 
# 
# From -- ./inp_files/375131.got.cif
#   From: 2010.05.17/outbox.cif.g08.bks.cpg/sg2_188_cif.got.tgz:375131.got - 2010.06.03 11:33:40.
