data_PCOD9038700
_publ_section_title
;
Structure prediction by ZEFSAII (Michael W. Deem and Ramdas Pophale) SiO2 
 PCOD9038700
Probable space group: P -1
;
_chemical_formula_sum "Si O2"
_cell_formula_units_Z 13
_cell_length_a 8.967148
_cell_length_b 9.382851
_cell_length_c 7.764909
_cell_angle_alpha 98.675134
_cell_angle_beta 59.833308
_cell_angle_gamma 78.462985
_cell_volume 528.505573
_symmetry_space_group_name_H-M "P -1"
_symmetry_group_IT_number 2
_symmetry_cell_setting 'triclinic'
loop_
_space_group_symop_operation_xyz
x,y,z
-x,-y,-z
loop_
_atom_site_type_symbol
_atom_site_label
_atom_site_fract_x
_atom_site_fract_y
_atom_site_fract_z
Si Si1 0.170395 0.885633 0.777480
Si Si2 0.653651 0.208989 0.997475
Si Si3 0.849540 0.431133 0.876097
Si Si4 0.743238 0.647761 0.284033
Si Si5 0.244705 0.359698 0.346661
Si Si6 0.500000 0.000000 0.500000
Si Si7 0.910184 0.902693 0.653088
O O1 0.287681 0.779131 0.836986
O O2 0.300733 0.970455 0.634683
O O3 0.066753 0.820801 0.683899
O O4 0.000000 0.000000 0.000000
O O5 0.438818 0.275298 0.128504
O O6 0.752384 0.309651 0.857021
O O7 0.737372 0.032656 0.862288
O O8 0.863756 0.523998 0.713911
O O9 0.045821 0.354528 0.836272
O O10 0.730815 0.546134 0.109689
O O11 0.722114 0.581896 0.473782
O O12 0.601325 0.815714 0.382844
O O13 0.162004 0.223936 0.408780
O O14 0.000000 0.000000 0.500000
#
# Coordination Sequence:
#
# PCOD9038700 Si02
#       7
#     2   2   2   2   2   1   2
#     4  10  23  41  74 103 152 191 248 314 379 440
#     4  11  24  47  69 108 150 193 258 309 377 461
#     4  11  27  47  76 106 158 202 243 315 396 451
#     4  11  26  46  75 109 149 199 257 307 384 455
#     4  12  25  47  74 109 148 198 253 310 380 463
#     4  12  22  46  78 112 146 202 260 318 368 468
#     4  11  25  43  72 110 148 194 253 318 382 449
#
# _framework density 24.597657000000002
#
# number of rings (size 3 to 8) (size 9 to 14) (size 15 to 20)
#    0.000    0.923    1.538    5.077    8.615    3.077 
#    0.000    0.000    0.000    0.000    0.000    0.000 
#    0.000    0.000    0.000    0.000    0.000    0.000 
#
# Total GULP energy -72494.581086 kJ/mol
# GULP energy per Si atom -5576.506237 kJ/mol
# Density = 2.454167 g / cm^3
# Si number density = 24.597657 Si / 1000 Ang^3
#
#
#
# Elastic Constant Matrix: (Units=GPa)
#
#
# Indices 1 2 3 4 5 6 
#
# 1 56.4745 17.8068 31.5564 9.8390 -17.1112 1.1810
# 2 17.8068 103.6151 32.1403 16.7882 5.3941 -1.3023
# 3 31.5564 32.1403 81.6198 17.1154 3.4905 0.1055
# 4 9.8390 16.7882 17.1154 37.1285 -2.1862 -15.2902
# 5 -17.1112 5.3941 3.4905 -2.1862 55.5094 -3.8317
# 6 1.1810 -1.3023 0.1055 -15.2902 -3.8317 33.1079
#
#
#
# Elastic Compliance Matrix: (Units=1/GPa)
#
#
# Indices 1 2 3 4 5 6 
#
# 1 0.026642 -0.001807 -0.009642 -0.001555 0.008886 -0.000681
# 2 -0.001807 0.011620 -0.002918 -0.004200 -0.001779 -0.001615
# 3 -0.009642 -0.002918 0.018642 -0.006311 -0.004334 -0.003246
# 4 -0.001555 -0.004200 -0.006311 0.040081 0.003201 0.018792
# 5 0.008886 -0.001779 -0.004334 0.003201 0.021574 0.003602
# 6 -0.000681 -0.001615 -0.003246 0.018792 0.003602 0.039271
#
#
# Mechanical properties :
#
#
# Convention : Reuss Voigt Hill
#
# Bulk Modulus (GPa) = 35.49943 44.96849 40.23396
# Shear Modulus (GPa) = 25.51622 35.82956 30.67289
#
# Velocity S-wave (km/s) = 3.22428 3.82072 3.53510
# Velocity P-wave (km/s) = 5.32209 6.14696 5.74934
#
# Compressibility (1/GPa) = 0.02816947
#
# Stress axis : x y z
#
# Youngs Moduli (GPa) = 37.53436 86.06151 53.64287
#
# Poissons Ratio (x) = 0.15550 0.51723
# Poissons Ratio (y) = 0.06782 0.15654
# Poissons Ratio (z) = 0.36191 0.25114
#
# Static dielectric constant tensor:
#      x y z
#    x 1.969510 -0.005100 -0.006470 
#    y -0.005100 1.907950 -0.033150 
#    z -0.006470 -0.033150 2.018860 
# 
# From -- ./inp_files/155152.got.cif
#   From: 2010.05.17/outbox.cif.g08.bks.cpg/sg2_78_cif.got.tgz:155152.got - 2010.06.03 11:33:40.
