data_PCOD9038988
_publ_section_title
;
Structure prediction by ZEFSAII (Michael W. Deem and Ramdas Pophale) SiO2 
 PCOD9038988
Probable space group: P -1
;
_chemical_formula_sum "Si O2"
_cell_formula_units_Z 16
_cell_length_a 10.447196
_cell_length_b 10.487827
_cell_length_c 8.471288
_cell_angle_alpha 47.619645
_cell_angle_beta 88.192491
_cell_angle_gamma 73.901495
_cell_volume 642.773594
_symmetry_space_group_name_H-M "P -1"
_symmetry_group_IT_number 2
_symmetry_cell_setting 'triclinic'
loop_
_space_group_symop_operation_xyz
x,y,z
-x,-y,-z
loop_
_atom_site_type_symbol
_atom_site_label
_atom_site_fract_x
_atom_site_fract_y
_atom_site_fract_z
Si Si1 0.391662 0.088211 0.290823
Si Si2 0.096482 0.078622 0.831902
Si Si3 0.826743 0.606598 0.756216
Si Si4 0.669616 0.267708 0.410189
Si Si5 0.092914 0.611156 0.602734
Si Si6 0.287930 0.269846 0.692704
Si Si7 0.247027 0.749565 0.923546
Si Si8 0.501383 0.314152 0.844249
O O1 0.259851 0.246210 0.236547
O O2 0.500000 0.000000 0.500000
O O3 0.351459 0.916329 0.377533
O O4 0.456324 0.189425 0.077801
O O5 0.236271 0.100019 0.870102
O O6 0.999401 0.284420 0.626296
O O7 0.139618 0.953653 0.777850
O O8 0.000000 0.000000 0.000000
O O9 0.751416 0.675472 0.532585
O O10 0.817567 0.407859 0.952571
O O11 0.983033 0.591414 0.746184
O O12 0.820717 0.267042 0.442795
O O13 0.570387 0.466013 0.308543
O O14 0.661245 0.268978 0.218874
O O15 0.199206 0.424130 0.689395
O O16 0.440971 0.257566 0.735508
O O17 0.340911 0.717658 0.103218
#
# Coordination Sequence:
#
# PCOD9038988 Si02
#       8
#     2   2   2   2   2   2   2   2
#     4  12  24  42  69  94 134 174 215 270 322 380
#     4  11  23  40  63  94 126 172 215 266 325 383
#     4  11  23  43  66  95 130 175 214 269 327 381
#     4  11  23  43  67  99 129 171 215 270 325 384
#     4  10  23  42  65  93 130 165 220 269 323 386
#     4  10  23  44  65  92 131 169 216 271 321 384
#     4  12  23  41  68  94 134 170 216 267 325 387
#     4  11  25  45  65 100 133 169 218 268 323 387
#
# _framework density 24.892123999999999
#
# number of rings (size 3 to 8) (size 9 to 14) (size 15 to 20)
#    0.000    1.000    2.500    5.625    1.750    3.500 
#    0.000    0.000    0.000    0.000    0.000    0.000 
#    0.000    0.000    0.000    0.000    0.000    0.000 
#
# Total GULP energy -89571.898134 kJ/mol
# GULP energy per Si atom -5598.243633 kJ/mol
# Density = 2.483547 g / cm^3
# Si number density = 24.892124 Si / 1000 Ang^3
#
#
#
# Elastic Constant Matrix: (Units=GPa)
#
#
# Indices 1 2 3 4 5 6 
#
# 1 92.7607 48.4827 17.5817 -18.6020 -16.8255 19.6650
# 2 48.4827 115.2152 26.4414 -33.4614 -17.5131 15.4454
# 3 17.5817 26.4414 72.1971 -15.7239 -28.6817 15.9136
# 4 -18.6020 -33.4614 -15.7239 43.8797 12.6221 -3.3937
# 5 -16.8255 -17.5131 -28.6817 12.6221 46.7295 -4.9168
# 6 19.6650 15.4454 15.9136 -3.3937 -4.9168 42.0053
#
#
#
# Elastic Compliance Matrix: (Units=1/GPa)
#
#
# Indices 1 2 3 4 5 6 
#
# 1 0.015192 -0.004936 0.000854 0.001680 0.003152 -0.005116
# 2 -0.004936 0.013526 -0.001819 0.007460 0.000017 -0.001369
# 3 0.000854 -0.001819 0.020551 0.002749 0.010864 -0.006023
# 4 0.001680 0.007460 0.002749 0.031004 -0.003548 -0.002481
# 5 0.003152 0.000017 0.010864 -0.003548 0.029917 -0.002382
# 6 -0.005116 -0.001369 -0.006023 -0.002481 -0.002382 0.028508
#
#
# Mechanical properties :
#
#
# Convention : Reuss Voigt Hill
#
# Bulk Modulus (GPa) = 26.68939 51.68718 39.18829
# Shear Modulus (GPa) = 30.67717 39.03404 34.85560
#
# Velocity S-wave (km/s) = 3.51437 3.96426 3.74607
# Velocity P-wave (km/s) = 5.21661 6.46245 5.87266
#
# Compressibility (1/GPa) = 0.03746807
#
# Stress axis : x y z
#
# Youngs Moduli (GPa) = 65.82617 73.92917 48.65918
#
# Poissons Ratio (x) = 0.36489 -0.04155
# Poissons Ratio (y) = 0.32490 0.08850
# Poissons Ratio (z) = -0.05621 0.13446
#
# Static dielectric constant tensor:
#      x y z
#    x 2.012650 0.037950 0.040120 
#    y 0.037950 1.948160 0.055140 
#    z 0.040120 0.055140 1.999620 
# 
# From -- ./inp_files/242065.got.cif
#   From: 2010.05.17/outbox.cif.g08.bks.cpg/sg2_122_cif.got.tgz:242065.got - 2010.06.03 11:33:40.
