data_PCOD9038252
_publ_section_title
;
Structure prediction by ZEFSAII (Michael W. Deem and Ramdas Pophale) SiO2 
 PCOD9038252
Probable space group: P -1
;
_chemical_formula_sum "Si O2"
_cell_formula_units_Z 14
_cell_length_a 13.009694
_cell_length_b 11.329174
_cell_length_c 7.900817
_cell_angle_alpha 123.400280
_cell_angle_beta 61.015311
_cell_angle_gamma 146.689114
_cell_volume 533.134230
_symmetry_space_group_name_H-M "P -1"
_symmetry_group_IT_number 2
_symmetry_cell_setting 'triclinic'
loop_
_space_group_symop_operation_xyz
x,y,z
-x,-y,-z
loop_
_atom_site_type_symbol
_atom_site_label
_atom_site_fract_x
_atom_site_fract_y
_atom_site_fract_z
Si Si1 0.214677 0.178747 0.683904
Si Si2 0.619839 0.921984 0.328547
Si Si3 0.278194 0.523588 0.069527
Si Si4 0.784538 0.708051 0.721842
Si Si5 0.371231 0.702039 0.670701
Si Si6 0.328391 0.130208 0.208179
Si Si7 0.098845 0.694301 0.843415
O O1 0.316640 0.173977 0.735971
O O2 0.269843 0.160762 0.447793
O O3 0.264938 0.389695 0.831905
O O4 0.993816 0.952582 0.707271
O O5 0.472778 0.772026 0.173654
O O6 0.508507 0.879280 0.545882
O O7 0.802119 0.172524 0.310216
O O8 0.216047 0.371835 0.162758
O O9 0.122771 0.498045 0.144627
O O10 0.706605 0.521157 0.504962
O O11 0.657554 0.728075 0.824719
O O12 0.497918 0.802384 0.814494
O O13 0.194321 0.638336 0.777096
O O14 0.170438 0.879132 0.064174
#
# Coordination Sequence:
#
# PCOD9038252 Si02
#       7
#     2   2   2   2   2   2   2
#     4  11  21  42  64  98 132 162 218 268 315 374
#     4  10  23  41  67  97 127 166 214 269 316 376
#     4  11  23  40  69 101 125 165 215 266 323 376
#     4  11  21  40  67  95 125 168 212 266 317 371
#     4  10  25  43  64  96 129 170 216 259 320 382
#     4  11  24  41  66  90 132 174 212 263 316 376
#     4  12  23  45  66  94 135 168 209 265 319 384
#
# _framework density 26.259803000000002
#
# number of rings (size 3 to 8) (size 9 to 14) (size 15 to 20)
#    0.000    1.143    2.857    3.429    0.000    5.714 
#    5.143    0.714    0.000    0.000    0.000    0.000 
#    0.000    0.000    0.000    0.000    0.000    0.000 
#
# Total GULP energy -78541.275393 kJ/mol
# GULP energy per Si atom -5610.091100 kJ/mol
# Density = 2.620003 g / cm^3
# Si number density = 26.259803 Si / 1000 Ang^3
#
#
#
# Elastic Constant Matrix: (Units=GPa)
#
#
# Indices 1 2 3 4 5 6 
#
# 1 150.4090 14.0641 59.2803 -10.1021 -12.8840 31.1460
# 2 14.0641 77.3986 -3.3111 -2.2573 -2.2121 23.1717
# 3 59.2803 -3.3111 77.4671 -1.7041 5.0465 -3.3285
# 4 -10.1021 -2.2573 -1.7041 31.2406 -4.8215 0.1059
# 5 -12.8840 -2.2121 5.0465 -4.8215 55.6679 -9.0440
# 6 31.1460 23.1717 -3.3285 0.1059 -9.0440 46.6462
#
#
#
# Elastic Compliance Matrix: (Units=1/GPa)
#
#
# Indices 1 2 3 4 5 6 
#
# 1 0.013234 0.000062 -0.010612 0.004186 0.002917 -0.009068
# 2 0.000062 0.015244 0.000334 0.001078 -0.000568 -0.007703
# 3 -0.010612 0.000334 0.021538 -0.002779 -0.003367 0.007810
# 4 0.004186 0.001078 -0.002779 0.033875 0.003729 -0.002883
# 5 0.002917 -0.000568 -0.003367 0.003729 0.019549 0.001876
# 6 -0.009068 -0.007703 0.007810 -0.002883 0.001876 0.032247
#
#
# Mechanical properties :
#
#
# Convention : Reuss Voigt Hill
#
# Bulk Modulus (GPa) = 33.80259 49.48234 41.64246
# Shear Modulus (GPa) = 30.12393 42.39367 36.25880
#
# Velocity S-wave (km/s) = 3.39063 4.02231 3.71991
# Velocity P-wave (km/s) = 5.31308 6.36052 5.86025
#
# Compressibility (1/GPa) = 0.02958353
#
# Stress axis : x y z
#
# Youngs Moduli (GPa) = 75.56218 65.59755 46.43061
#
# Poissons Ratio (x) = -0.00404 0.49273
# Poissons Ratio (y) = -0.00465 -0.01552
# Poissons Ratio (z) = 0.80187 -0.02192
#
# Static dielectric constant tensor:
#      x y z
#    x 2.035720 -0.005550 0.017720 
#    y -0.005550 2.084090 -0.102880 
#    z 0.017720 -0.102880 2.072570 
# 
# From -- ./inp_files/155609.got.cif
#   From: 2010.05.17/outbox.cif.g08.bks.cpg/sg2_78_cif.got.tgz:155609.got - 2010.06.03 11:33:40.
