data_PCOD9038194
_publ_section_title
;
Structure prediction by ZEFSAII (Michael W. Deem and Ramdas Pophale) SiO2 
 PCOD9038194
Probable space group: P -1
;
_chemical_formula_sum "Si O2"
_cell_formula_units_Z 16
_cell_length_a 24.836472
_cell_length_b 19.594258
_cell_length_c 8.917619
_cell_angle_alpha 140.910578
_cell_angle_beta 148.710612
_cell_angle_gamma 18.996778
_cell_volume 720.543756
_symmetry_space_group_name_H-M "P -1"
_symmetry_group_IT_number 2
_symmetry_cell_setting 'triclinic'
loop_
_space_group_symop_operation_xyz
x,y,z
-x,-y,-z
loop_
_atom_site_type_symbol
_atom_site_label
_atom_site_fract_x
_atom_site_fract_y
_atom_site_fract_z
Si Si1 0.275953 0.009319 0.275106
Si Si2 0.255468 0.400283 0.309164
Si Si3 0.927356 0.807784 0.429455
Si Si4 0.328886 0.786147 0.659890
Si Si5 0.884713 0.293723 0.703535
Si Si6 0.274620 0.168499 0.802010
Si Si7 0.774783 0.361078 0.904198
Si Si8 0.314642 0.735365 0.890381
O O1 0.507600 0.828156 0.466925
O O2 0.198154 0.170980 0.479848
O O3 0.277372 0.884739 0.134051
O O4 0.105980 0.150134 0.983830
O O5 0.264288 0.493914 0.377470
O O6 0.094389 0.580763 0.358632
O O7 0.180780 0.363580 0.974887
O O8 0.750908 0.893831 0.231071
O O9 0.826352 0.984314 0.378369
O O10 0.053230 0.754468 0.769200
O O11 0.557752 0.609840 0.852507
O O12 0.261873 0.734368 0.333600
O O13 0.349076 0.739098 0.805124
O O14 0.824968 0.339224 0.812991
O O15 0.867792 0.188651 0.414876
O O16 0.500000 0.000000 0.000000
O O17 0.500000 0.500000 0.000000
#
# Coordination Sequence:
#
# PCOD9038194 Si02
#       8
#     2   2   2   2   2   2   2   2
#     4  11  22  43  65 101 137 181 236 277 347 413
#     4  11  25  43  70  99 143 179 240 293 344 404
#     4  12  23  46  71 101 140 187 228 296 349 408
#     4  10  24  41  67 104 147 182 230 280 356 422
#     4  11  23  41  68 105 138 188 229 284 351 423
#     4  10  25  45  72 101 134 189 242 292 344 407
#     4  10  23  41  67 105 145 182 231 280 348 427
#     4  11  22  41  68 104 144 182 224 288 351 423
#
# _framework density 22.205451
#
# number of rings (size 3 to 8) (size 9 to 14) (size 15 to 20)
#    0.000    1.250    2.500    2.625    3.500    2.500 
#    0.000    0.000    0.000    5.250    0.000    0.000 
#    0.000    0.000    0.000    0.000    0.000    0.000 
#
# Total GULP energy -89335.879362 kJ/mol
# GULP energy per Si atom -5583.492460 kJ/mol
# Density = 2.215491 g / cm^3
# Si number density = 22.205451 Si / 1000 Ang^3
#
#
#
# Elastic Constant Matrix: (Units=GPa)
#
#
# Indices 1 2 3 4 5 6 
#
# 1 94.4184 19.5383 29.4554 -8.8945 6.0294 -10.9734
# 2 19.5383 61.6016 30.3735 0.2420 2.7991 -15.8166
# 3 29.4554 30.3735 117.5295 13.9097 13.4971 -8.6186
# 4 -8.8945 0.2420 13.9097 44.6904 0.7140 5.0163
# 5 6.0294 2.7991 13.4971 0.7140 21.8864 4.5993
# 6 -10.9734 -15.8166 -8.6186 5.0163 4.5993 25.5684
#
#
#
# Elastic Compliance Matrix: (Units=1/GPa)
#
#
# Indices 1 2 3 4 5 6 
#
# 1 0.012567 -0.001802 -0.002508 0.002961 -0.002474 0.003298
# 2 -0.001802 0.021972 -0.004015 -0.000536 -0.002340 0.011991
# 3 -0.002508 -0.004015 0.011565 -0.004235 -0.006272 0.002297
# 4 0.002961 -0.000536 -0.004235 0.024899 0.002267 -0.005781
# 5 -0.002474 -0.002340 -0.006272 0.002267 0.053555 -0.014702
# 6 0.003298 0.011991 0.002297 -0.005781 -0.014702 0.052497
#
#
# Mechanical properties :
#
#
# Convention : Reuss Voigt Hill
#
# Bulk Modulus (GPa) = 33.95257 48.03154 40.99206
# Shear Modulus (GPa) = 24.56746 31.37454 27.97100
#
# Velocity S-wave (km/s) = 3.32982 3.76296 3.55300
# Velocity P-wave (km/s) = 5.48699 6.36846 5.94409
#
# Compressibility (1/GPa) = 0.02945285
#
# Stress axis : x y z
#
# Youngs Moduli (GPa) = 79.57562 45.51308 86.47033
#
# Poissons Ratio (x) = 0.08199 0.21690
# Poissons Ratio (y) = 0.14336 0.34719
# Poissons Ratio (z) = 0.19960 0.18274
#
# Static dielectric constant tensor:
#      x y z
#    x 1.812590 -0.065370 0.017950 
#    y -0.065370 1.875520 0.018770 
#    z 0.017950 0.018770 1.847660 
# 
# From -- ./inp_files/357752.got.cif
#   From: 2010.05.17/outbox.cif.g08.bks.cpg/sg2_179_cif.got.tgz:357752.got - 2010.06.03 11:33:40.
