data_PCOD9038220
_publ_section_title
;
Structure prediction by ZEFSAII (Michael W. Deem and Ramdas Pophale) SiO2 
 PCOD9038220
Probable space group: P -1
;
_chemical_formula_sum "Si O2"
_cell_formula_units_Z 14
_cell_length_a 6.455058
_cell_length_b 15.317379
_cell_length_c 15.674587
_cell_angle_alpha 27.287301
_cell_angle_beta 81.299629
_cell_angle_gamma 71.905776
_cell_volume 647.115200
_symmetry_space_group_name_H-M "P -1"
_symmetry_group_IT_number 2
_symmetry_cell_setting 'triclinic'
loop_
_space_group_symop_operation_xyz
x,y,z
-x,-y,-z
loop_
_atom_site_type_symbol
_atom_site_label
_atom_site_fract_x
_atom_site_fract_y
_atom_site_fract_z
Si Si1 0.108410 0.172151 0.148180
Si Si2 0.395604 0.528379 0.076557
Si Si3 0.476858 0.808351 0.975144
Si Si4 0.512540 0.088693 0.514466
Si Si5 0.582669 0.194064 0.828534
Si Si6 0.160685 0.584842 0.466823
Si Si7 0.888053 0.853956 0.384944
O O1 0.267419 0.206139 0.035974
O O2 0.279214 0.072886 0.303617
O O3 0.021554 0.997224 0.276244
O O4 0.880106 0.376942 0.999382
O O5 0.519324 0.310306 0.305035
O O6 0.500000 0.500000 0.000000
O O7 0.442413 0.686551 0.000405
O O8 0.296664 0.040873 0.769180
O O9 0.416272 0.746196 0.124021
O O10 0.272452 0.143575 0.529057
O O11 0.500000 0.000000 0.500000
O O12 0.386712 0.381845 0.632802
O O13 0.802172 0.216278 0.749878
O O14 0.500000 0.000000 0.000000
O O15 0.000000 0.500000 0.500000
O O16 0.064664 0.645771 0.515420
#
# Coordination Sequence:
#
# PCOD9038220 Si02
#       7
#     2   2   2   2   2   2   2
#     4  10  23  43  66  94 136 172 223 281 341 395
#     4  11  25  42  65  99 132 174 229 275 339 414
#     4  10  23  41  67  94 128 176 225 277 338 410
#     4  11  25  42  66  97 134 175 225 280 337 409
#     4  11  25  44  67 100 140 182 234 285 354 416
#     4  11  26  42  68 100 139 180 233 291 348 416
#     4  10  23  42  65  96 128 174 227 275 342 407
#
# _framework density 21.634478999999999
#
# number of rings (size 3 to 8) (size 9 to 14) (size 15 to 20)
#    0.000    1.429    0.000    4.286    6.000   10.286 
#    0.000    0.000    0.000    0.000    0.000    0.000 
#    0.000    0.000    0.000    0.000    0.000    0.000 
#
# Total GULP energy -78069.540368 kJ/mol
# GULP energy per Si atom -5576.395741 kJ/mol
# Density = 2.158524 g / cm^3
# Si number density = 21.634479 Si / 1000 Ang^3
#
#
#
# Elastic Constant Matrix: (Units=GPa)
#
#
# Indices 1 2 3 4 5 6 
#
# 1 76.8130 40.7554 12.5299 8.1735 -5.1665 -17.2658
# 2 40.7554 93.4267 7.6833 17.6929 -12.9025 -0.0024
# 3 12.5299 7.6833 78.7192 3.3110 -9.7206 -3.0133
# 4 8.1735 17.6929 3.3110 36.4415 -3.1688 -6.3032
# 5 -5.1665 -12.9025 -9.7206 -3.1688 24.0440 -0.3472
# 6 -17.2658 -0.0024 -3.0133 -6.3032 -0.3472 28.2541
#
#
#
# Elastic Compliance Matrix: (Units=1/GPa)
#
#
# Indices 1 2 3 4 5 6 
#
# 1 0.021116 -0.009611 -0.002138 0.002318 -0.000989 0.013180
# 2 -0.009611 0.017016 0.000661 -0.006871 0.006323 -0.007256
# 3 -0.002138 0.000661 0.013667 -0.000604 0.005342 0.000082
# 4 0.002318 -0.006871 -0.000604 0.031854 0.000887 0.008469
# 5 -0.000989 0.006323 0.005342 0.000887 0.047058 0.000742
# 6 0.013180 -0.007256 0.000082 0.008469 0.000742 0.045354
#
#
# Mechanical properties :
#
#
# Convention : Reuss Voigt Hill
#
# Bulk Modulus (GPa) = 33.75676 41.21068 37.48372
# Shear Modulus (GPa) = 24.02502 30.28059 27.15281
#
# Velocity S-wave (km/s) = 3.33603 3.74524 3.54654
# Velocity P-wave (km/s) = 5.52050 6.14755 5.84244
#
# Compressibility (1/GPa) = 0.02962369
#
# Stress axis : x y z
#
# Youngs Moduli (GPa) = 47.35729 58.76819 73.16649
#
# Poissons Ratio (x) = 0.56481 0.15644
# Poissons Ratio (y) = 0.45514 -0.04836
# Poissons Ratio (z) = 0.10126 -0.03884
#
# Static dielectric constant tensor:
#      x y z
#    x 1.989830 0.315800 -0.104840 
#    y 0.315800 2.659590 -0.212720 
#    z -0.104840 -0.212720 1.883040 
# 
# From -- ./inp_files/50943.got.cif
#   From: 2010.05.17/outbox.cif.g08.bks.cpg/sg2_26_cif.got.tgz:50943.got - 2010.06.03 11:33:40.
