data_PCOD9038855
_publ_section_title
;
Structure prediction by ZEFSAII (Michael W. Deem and Ramdas Pophale) SiO2 
 PCOD9038855
Probable space group: P -1
;
_chemical_formula_sum "Si O2"
_cell_formula_units_Z 14
_cell_length_a 14.855853
_cell_length_b 11.685332
_cell_length_c 9.637964
_cell_angle_alpha 141.561905
_cell_angle_beta 140.176570
_cell_angle_gamma 35.820217
_cell_volume 566.662825
_symmetry_space_group_name_H-M "P -1"
_symmetry_group_IT_number 2
_symmetry_cell_setting 'triclinic'
loop_
_space_group_symop_operation_xyz
x,y,z
-x,-y,-z
loop_
_atom_site_type_symbol
_atom_site_label
_atom_site_fract_x
_atom_site_fract_y
_atom_site_fract_z
Si Si1 0.118974 0.962852 0.475573
Si Si2 0.209020 0.495080 0.129687
Si Si3 0.564744 0.449740 0.871540
Si Si4 0.561122 0.160938 0.104010
Si Si5 0.087265 0.565231 0.365084
Si Si6 0.811245 0.579331 0.364316
Si Si7 0.457393 0.962334 0.570465
O O1 0.182356 0.724806 0.268411
O O2 0.281716 0.949393 0.715453
O O3 0.000000 0.000000 0.500000
O O4 0.004281 0.180817 0.461064
O O5 0.389208 0.296530 0.113157
O O6 0.178589 0.517156 0.280253
O O7 0.060144 0.478954 0.873982
O O8 0.445541 0.651104 0.821988
O O9 0.570098 0.234220 0.631307
O O10 0.500000 0.500000 0.000000
O O11 0.735495 0.447987 0.082492
O O12 0.568130 0.986385 0.839859
O O13 0.211173 0.423066 0.498106
O O14 0.714984 0.812258 0.401804
O O15 0.000000 0.500000 0.500000
O O16 0.500000 0.000000 0.500000
#
# Coordination Sequence:
#
# PCOD9038855 Si02
#       7
#     2   2   2   2   2   2   2
#     4  10  24  41  65 100 132 185 226 281 344 408
#     4  10  23  42  63  99 137 182 227 283 336 412
#     4  11  24  45  73 104 130 185 231 288 352 404
#     4  11  24  43  68 102 140 172 241 287 342 418
#     4  10  23  43  67  99 140 180 225 276 353 409
#     4  11  25  45  71 108 143 175 232 293 345 415
#     4  11  24  43  72 103 134 187 232 285 350 412
#
# _framework density 24.706047999999999
#
# number of rings (size 3 to 8) (size 9 to 14) (size 15 to 20)
#    0.000    1.429    2.857    2.143    4.000    9.143 
#    0.000    1.429    0.000    0.000    0.000    0.000 
#    0.000    0.000    0.000    0.000    0.000    0.000 
#
# Total GULP energy -78434.445989 kJ/mol
# GULP energy per Si atom -5602.460428 kJ/mol
# Density = 2.464982 g / cm^3
# Si number density = 24.706048 Si / 1000 Ang^3
#
#
#
# Elastic Constant Matrix: (Units=GPa)
#
#
# Indices 1 2 3 4 5 6 
#
# 1 93.3328 29.2468 34.5608 12.7625 -4.8816 -3.4608
# 2 29.2468 100.3180 59.5674 6.7128 11.2530 14.5112
# 3 34.5608 59.5674 148.0842 36.5213 18.7959 -4.6782
# 4 12.7625 6.7128 36.5213 45.6435 6.2392 11.3748
# 5 -4.8816 11.2530 18.7959 6.2392 46.6385 -0.8846
# 6 -3.4608 14.5112 -4.6782 11.3748 -0.8846 51.8687
#
#
#
# Elastic Compliance Matrix: (Units=1/GPa)
#
#
# Indices 1 2 3 4 5 6 
#
# 1 0.012966 -0.003657 -0.001057 -0.003315 0.003158 0.002574
# 2 -0.003657 0.016074 -0.007094 0.006359 -0.002382 -0.006816
# 3 -0.001057 -0.007094 0.012709 -0.009834 -0.002107 0.005181
# 4 -0.003315 0.006359 -0.009834 0.032620 -0.002473 -0.010083
# 5 0.003158 -0.002382 -0.002107 -0.002473 0.023558 0.001631
# 6 0.002574 -0.006816 0.005181 -0.010083 0.001631 0.024064
#
#
# Mechanical properties :
#
#
# Convention : Reuss Voigt Hill
#
# Bulk Modulus (GPa) = 55.14471 65.38721 60.26596
# Shear Modulus (GPa) = 32.97052 43.38748 38.17900
#
# Velocity S-wave (km/s) = 3.65706 4.19519 3.93533
# Velocity P-wave (km/s) = 6.34042 7.07034 6.71530
#
# Compressibility (1/GPa) = 0.01813410
#
# Stress axis : x y z
#
# Youngs Moduli (GPa) = 77.12737 62.21147 78.68246
#
# Poissons Ratio (x) = 0.22752 0.08316
# Poissons Ratio (y) = 0.28206 0.55814
# Poissons Ratio (z) = 0.08151 0.44130
#
# Static dielectric constant tensor:
#      x y z
#    x 2.082220 -0.017240 -0.018970 
#    y -0.017240 1.936670 0.030020 
#    z -0.018970 0.030020 1.946590 
# 
# From -- ./inp_files/465984.got.cif
#   From: 2010.05.17/outbox.cif.g08.bks.cpg/sg2_233_cif.got.tgz:465984.got - 2010.06.03 11:33:40.
