data_PCOD9038275
_publ_section_title
;
Structure prediction by ZEFSAII (Michael W. Deem and Ramdas Pophale) SiO2 
 PCOD9038275
Probable space group: P -1
;
_chemical_formula_sum "Si O2"
_cell_formula_units_Z 14
_cell_length_a 10.380686
_cell_length_b 4.843377
_cell_length_c 13.410780
_cell_angle_alpha 92.418331
_cell_angle_beta 119.785149
_cell_angle_gamma 106.048907
_cell_volume 549.199012
_symmetry_space_group_name_H-M "P -1"
_symmetry_group_IT_number 2
_symmetry_cell_setting 'triclinic'
loop_
_space_group_symop_operation_xyz
x,y,z
-x,-y,-z
loop_
_atom_site_type_symbol
_atom_site_label
_atom_site_fract_x
_atom_site_fract_y
_atom_site_fract_z
Si Si1 0.135994 0.693657 0.201958
Si Si2 0.807934 0.777404 0.121233
Si Si3 0.636938 0.166497 0.133130
Si Si4 0.851788 0.761664 0.488713
Si Si5 0.741253 0.187333 0.543796
Si Si6 0.248632 0.284825 0.134518
Si Si7 0.447540 0.150397 0.699323
O O1 0.240748 0.681898 0.338321
O O2 0.109535 0.401961 0.121508
O O3 0.976396 0.735115 0.179758
O O4 0.227023 0.980685 0.175906
O O5 0.787958 0.065305 0.166312
O O6 0.690222 0.507985 0.134318
O O7 0.754440 0.756537 0.985246
O O8 0.574007 0.059712 0.217052
O O9 0.500000 0.000000 0.000000
O O10 0.849068 0.445646 0.516439
O O11 0.703278 0.740570 0.361975
O O12 0.809385 0.920986 0.571159
O O13 0.000000 0.000000 0.500000
O O14 0.579608 0.043951 0.416623
O O15 0.402430 0.558684 0.227298
#
# Coordination Sequence:
#
# PCOD9038275 Si02
#       7
#     2   2   2   2   2   2   2
#     4  12  27  45  73  99 138 193 233 285 338 401
#     4  12  27  46  73 102 142 176 242 284 347 407
#     4  12  26  44  74 106 138 177 224 289 357 419
#     4  10  23  41  67  98 143 177 221 279 349 409
#     4  10  25  42  65 102 136 173 238 267 350 399
#     4  12  26  47  70  98 141 185 241 284 337 406
#     4  10  28  41  74 100 145 176 226 286 355 408
#
# _framework density 25.491668000000001
#
# number of rings (size 3 to 8) (size 9 to 14) (size 15 to 20)
#    0.857    0.000    1.429    4.286    8.000    1.143 
#    0.000    0.000    0.000    0.000    0.000    0.000 
#    0.000    0.000    0.000    0.000    0.000    0.000 
#
# Total GULP energy -78371.432475 kJ/mol
# GULP energy per Si atom -5597.959462 kJ/mol
# Density = 2.543365 g / cm^3
# Si number density = 25.491668 Si / 1000 Ang^3
#
#
#
# Elastic Constant Matrix: (Units=GPa)
#
#
# Indices 1 2 3 4 5 6 
#
# 1 56.4408 -5.0453 9.5961 -4.5206 8.5578 3.0040
# 2 -5.0453 155.2174 36.4131 -19.4656 1.4259 6.5268
# 3 9.5961 36.4131 103.9735 -19.4173 -17.6489 14.7404
# 4 -4.5206 -19.4656 -19.4173 34.0278 7.4865 -0.4765
# 5 8.5578 1.4259 -17.6489 7.4865 36.9531 4.5782
# 6 3.0040 6.5268 14.7404 -0.4765 4.5782 41.0866
#
#
#
# Elastic Compliance Matrix: (Units=1/GPa)
#
#
# Indices 1 2 3 4 5 6 
#
# 1 0.019683 0.001828 -0.002980 0.003451 -0.006768 0.000134
# 2 0.001828 0.007601 -0.002586 0.003707 -0.002694 -0.000070
# 3 -0.002980 -0.002586 0.013468 0.004205 0.006982 -0.004932
# 4 0.003451 0.003707 0.004205 0.035670 -0.006003 -0.001267
# 5 -0.006768 -0.002694 0.006982 -0.006003 0.033957 -0.005435
# 6 0.000134 -0.000070 -0.004932 -0.001267 -0.005435 0.026701
#
#
# Mechanical properties :
#
#
# Convention : Reuss Voigt Hill
#
# Bulk Modulus (GPa) = 30.05062 44.17328 37.11195
# Shear Modulus (GPa) = 32.12382 40.72467 36.42425
#
# Velocity S-wave (km/s) = 3.55374 4.00129 3.78414
# Velocity P-wave (km/s) = 5.35282 6.22200 5.80371
#
# Compressibility (1/GPa) = 0.03327719
#
# Stress axis : x y z
#
# Youngs Moduli (GPa) = 50.80450 131.55712 74.24927
#
# Poissons Ratio (x) = -0.24053 0.22128
# Poissons Ratio (y) = -0.09289 0.19199
# Poissons Ratio (z) = 0.15141 0.34018
#
# Static dielectric constant tensor:
#      x y z
#    x 2.096170 -0.014360 0.042010 
#    y -0.014360 1.883530 0.019290 
#    z 0.042010 0.019290 1.999980 
# 
# From -- ./inp_files/511001.got.cif
#   From: 2010.05.17/outbox.cif.g08.bks.cpg/sg2_256_cif.got.tgz:511001.got - 2010.06.03 11:33:40.
