data_PCOD9038138
_publ_section_title
;
Structure prediction by ZEFSAII (Michael W. Deem and Ramdas Pophale) SiO2 
 PCOD9038138
Probable space group: P -1
;
_chemical_formula_sum "Si O2"
_cell_formula_units_Z 16
_cell_length_a 18.750993
_cell_length_b 11.109913
_cell_length_c 23.147846
_cell_angle_alpha 29.131881
_cell_angle_beta 163.620580
_cell_angle_gamma 152.218358
_cell_volume 622.557353
_symmetry_space_group_name_H-M "P -1"
_symmetry_group_IT_number 2
_symmetry_cell_setting 'triclinic'
loop_
_space_group_symop_operation_xyz
x,y,z
-x,-y,-z
loop_
_atom_site_type_symbol
_atom_site_label
_atom_site_fract_x
_atom_site_fract_y
_atom_site_fract_z
Si Si1 0.877511 0.777307 0.182121
Si Si2 0.379690 0.351668 0.129745
Si Si3 0.479319 0.170717 0.818767
Si Si4 0.700486 0.192529 0.279206
Si Si5 0.833665 0.010014 0.786155
Si Si6 0.160724 0.783179 0.814653
Si Si7 0.416393 0.607740 0.508064
Si Si8 0.771469 0.066480 0.511707
O O1 0.888963 0.493624 0.293157
O O2 0.104506 0.990300 0.232632
O O3 0.943883 0.836366 0.275630
O O4 0.589613 0.786575 0.938549
O O5 0.634766 0.284724 0.333065
O O6 0.321043 0.257667 0.189776
O O7 0.341011 0.632153 0.983801
O O8 0.130309 0.146213 0.987418
O O9 0.532486 0.434333 0.712308
O O10 0.363199 0.962617 0.764293
O O11 0.240713 0.064504 0.726203
O O12 0.736714 0.190916 0.050449
O O13 0.784279 0.063224 0.454325
O O14 0.679338 0.203947 0.603419
O O15 0.857911 0.593843 0.648812
O O16 0.593218 0.789784 0.518094
#
# Coordination Sequence:
#
# PCOD9038138 Si02
#       8
#     2   2   2   2   2   2   2   2
#     4  11  24  40  67  93 126 170 216 263 324 368
#     4   9  18  36  65  94 129 150 206 272 319 362
#     4  11  25  43  65  93 130 176 213 250 316 389
#     4  11  25  45  60  91 136 171 214 259 309 386
#     4   9  18  36  64  96 124 159 199 272 323 358
#     4  10  23  42  66  97 126 170 210 263 319 375
#     4  10  23  41  66  98 131 162 211 267 320 376
#     4  11  24  40  67 100 124 167 213 268 322 373
#
# _framework density 25.700444000000001
#
# number of rings (size 3 to 8) (size 9 to 14) (size 15 to 20)
#    0.000    1.750    1.250    3.000    5.250    2.500 
#    2.250    1.250    0.000    0.000    0.000    0.000 
#    0.000    0.000    0.000    0.000    0.000    0.000 
#
# Total GULP energy -89536.675574 kJ/mol
# GULP energy per Si atom -5596.042223 kJ/mol
# Density = 2.564195 g / cm^3
# Si number density = 25.700444 Si / 1000 Ang^3
#
#
#
# Elastic Constant Matrix: (Units=GPa)
#
#
# Indices 1 2 3 4 5 6 
#
# 1 120.2447 28.0771 31.7367 -15.2908 -47.8459 6.5881
# 2 28.0771 100.4899 23.5377 -13.6111 -24.1193 13.3914
# 3 31.7367 23.5377 83.1523 -2.3797 -47.2108 1.7238
# 4 -15.2908 -13.6111 -2.3797 42.6460 1.3395 -11.5626
# 5 -47.8459 -24.1193 -47.2108 1.3395 50.3924 -1.7824
# 6 6.5881 13.3914 1.7238 -11.5626 -1.7824 44.4070
#
#
#
# Elastic Compliance Matrix: (Units=1/GPa)
#
#
# Indices 1 2 3 4 5 6 
#
# 1 0.015264 -0.000164 0.005282 0.005019 0.019218 -0.000342
# 2 -0.000164 0.012049 -0.000259 0.002894 0.005198 -0.002637
# 3 0.005282 -0.000259 0.027544 0.002408 0.030636 0.000082
# 4 0.005019 0.002894 0.002408 0.027632 0.007878 0.005800
# 5 0.019218 0.005198 0.030636 0.007878 0.069043 -0.000785
# 6 -0.000342 -0.002637 0.000082 0.005800 -0.000785 0.024840
#
#
# Mechanical properties :
#
#
# Convention : Reuss Voigt Hill
#
# Bulk Modulus (GPa) = 15.48578 52.28776 33.88677
# Shear Modulus (GPa) = 26.57033 42.19144 34.38088
#
# Velocity S-wave (km/s) = 3.21884 4.05614 3.66150
# Velocity P-wave (km/s) = 4.45568 6.50581 5.57578
#
# Compressibility (1/GPa) = 0.06457539
#
# Stress axis : x y z
#
# Youngs Moduli (GPa) = 65.51215 82.99568 36.30506
#
# Poissons Ratio (x) = 0.01363 -0.19178
# Poissons Ratio (y) = 0.01076 0.00941
# Poissons Ratio (z) = -0.34606 0.02152
#
# Static dielectric constant tensor:
#      x y z
#    x 2.018160 -0.036710 0.004470 
#    y -0.036710 2.058070 -0.032220 
#    z 0.004470 -0.032220 2.107020 
# 
# From -- ./inp_files/600045.got.cif
#   From: 2010.05.17/outbox.cif.g08.bks.cpg/sg2_301_cif.got.tgz:600045.got - 2010.06.03 11:33:40.
