data_PCOD9038840
_publ_section_title
;
Structure prediction by ZEFSAII (Michael W. Deem and Ramdas Pophale) SiO2 
 PCOD9038840
Probable space group: P -1
;
_chemical_formula_sum "Si O2"
_cell_formula_units_Z 16
_cell_length_a 13.572248
_cell_length_b 10.857169
_cell_length_c 13.539330
_cell_angle_alpha 127.364897
_cell_angle_beta 149.405040
_cell_angle_gamma 45.422941
_cell_volume 723.284314
_symmetry_space_group_name_H-M "P -1"
_symmetry_group_IT_number 2
_symmetry_cell_setting 'triclinic'
loop_
_space_group_symop_operation_xyz
x,y,z
-x,-y,-z
loop_
_atom_site_type_symbol
_atom_site_label
_atom_site_fract_x
_atom_site_fract_y
_atom_site_fract_z
Si Si1 0.514460 0.470287 0.229067
Si Si2 0.031479 0.599376 0.920916
Si Si3 0.602954 0.331833 0.442089
Si Si4 0.860877 0.601203 0.561574
Si Si5 0.644381 0.146354 0.062416
Si Si6 0.259444 0.252375 0.665758
Si Si7 0.208556 0.246413 0.013494
Si Si8 0.931088 0.976988 0.540470
O O1 0.648861 0.390971 0.405570
O O2 0.662892 0.549526 0.347749
O O3 0.499681 0.307850 0.084919
O O4 0.265341 0.594608 0.099329
O O5 0.890752 0.644220 0.721271
O O6 0.920370 0.720480 0.978090
O O7 0.075668 0.405897 0.902504
O O8 0.500000 0.500000 0.500000
O O9 0.418914 0.271334 0.234426
O O10 0.811091 0.166728 0.576765
O O11 0.803973 0.751164 0.504328
O O12 0.089482 0.440739 0.650435
O O13 0.512580 0.199558 0.873374
O O14 0.874586 0.142613 0.279103
O O15 0.705788 0.948275 0.046795
O O16 0.223815 0.115454 0.637291
O O17 0.000000 0.000000 0.500000
#
# Coordination Sequence:
#
# PCOD9038840 Si02
#       8
#     2   2   2   2   2   2   2   2
#     4  11  23  38  65  98 122 171 216 264 325 381
#     4  10  23  42  63  97 132 170 218 265 330 388
#     4  11  23  40  64  98 136 168 211 267 330 397
#     4  11  23  43  69  90 132 176 224 263 319 390
#     4  12  24  40  64  96 134 164 216 277 325 387
#     4  11  25  43  63 100 130 176 218 268 322 385
#     4  10  24  39  65  99 136 168 210 275 337 381
#     4  12  25  40  66 101 134 167 216 268 335 381
#
# _framework density 22.121316
#
# number of rings (size 3 to 8) (size 9 to 14) (size 15 to 20)
#    0.000    1.000    5.000    0.750    8.750    4.000 
#    0.000    0.625    0.000    1.500    0.000    0.000 
#    0.000    0.000    0.000    0.000    0.000    0.000 
#
# Total GULP energy -89251.694372 kJ/mol
# GULP energy per Si atom -5578.230898 kJ/mol
# Density = 2.207097 g / cm^3
# Si number density = 22.121316 Si / 1000 Ang^3
#
#
#
# Elastic Constant Matrix: (Units=GPa)
#
#
# Indices 1 2 3 4 5 6 
#
# 1 78.4965 25.0689 34.5518 -10.5583 -11.6371 3.1076
# 2 25.0689 49.3801 13.9789 -7.9846 -1.5608 1.3297
# 3 34.5518 13.9789 99.5209 -20.2865 -12.6022 3.4555
# 4 -10.5583 -7.9846 -20.2865 35.8822 3.6965 0.0416
# 5 -11.6371 -1.5608 -12.6022 3.6965 39.4572 -5.0853
# 6 3.1076 1.3297 3.4555 0.0416 -5.0853 14.9679
#
#
#
# Elastic Compliance Matrix: (Units=1/GPa)
#
#
# Indices 1 2 3 4 5 6 
#
# 1 0.017736 -0.007490 -0.004522 0.000654 0.003320 -0.000847
# 2 -0.007490 0.024664 -0.000390 0.003252 -0.001814 -0.001171
# 3 -0.004522 -0.000390 0.013176 0.005813 0.002140 -0.001357
# 4 0.000654 0.003252 0.005813 0.032190 -0.001126 -0.002239
# 5 0.003320 -0.001814 0.002140 -0.001126 0.028141 0.008542
# 6 -0.000847 -0.001171 -0.001357 -0.002239 0.008542 0.070311
#
#
# Mechanical properties :
#
#
# Convention : Reuss Voigt Hill
#
# Bulk Modulus (GPa) = 32.49842 41.62188 37.06015
# Shear Modulus (GPa) = 22.59580 28.31466 25.45523
#
# Velocity S-wave (km/s) = 3.19948 3.58155 3.39589
# Velocity P-wave (km/s) = 5.32652 5.99662 5.67147
#
# Compressibility (1/GPa) = 0.03077073
#
# Stress axis : x y z
#
# Youngs Moduli (GPa) = 56.38312 40.54476 75.89581
#
# Poissons Ratio (x) = 0.30369 0.34322
# Poissons Ratio (y) = 0.42232 0.02960
# Poissons Ratio (z) = 0.25498 0.01581
#
# Static dielectric constant tensor:
#      x y z
#    x 1.864470 -0.028340 0.000870 
#    y -0.028340 1.869330 0.071340 
#    z 0.000870 0.071340 1.946030 
# 
# From -- ./inp_files/531968.got.cif
#   From: 2010.05.17/outbox.cif.g08.bks.cpg/sg2_266_cif.got.tgz:531968.got - 2010.06.03 11:33:40.
