data_PCOD9038963
_publ_section_title
;
Structure prediction by ZEFSAII (Michael W. Deem and Ramdas Pophale) SiO2 
 PCOD9038963
Probable space group: P -1
;
_chemical_formula_sum "Si O2"
_cell_formula_units_Z 14
_cell_length_a 8.157791
_cell_length_b 12.627433
_cell_length_c 8.824063
_cell_angle_alpha 79.247440
_cell_angle_beta 119.602834
_cell_angle_gamma 131.321343
_cell_volume 579.832849
_symmetry_space_group_name_H-M "P -1"
_symmetry_group_IT_number 2
_symmetry_cell_setting 'triclinic'
loop_
_space_group_symop_operation_xyz
x,y,z
-x,-y,-z
loop_
_atom_site_type_symbol
_atom_site_label
_atom_site_fract_x
_atom_site_fract_y
_atom_site_fract_z
Si Si1 0.174931 0.349090 0.008220
Si Si2 0.310231 0.834245 0.348735
Si Si3 0.352765 0.147141 0.724844
Si Si4 0.979062 0.909856 0.152176
Si Si5 0.592995 0.587966 0.361839
Si Si6 0.133863 0.653363 0.931780
Si Si7 0.092424 0.648450 0.561397
O O1 0.425731 0.495960 0.158653
O O2 0.007845 0.289367 0.101613
O O3 0.218603 0.254788 0.964478
O O4 0.948420 0.315592 0.808964
O O5 0.559280 0.906938 0.343807
O O6 0.220566 0.924010 0.285460
O O7 0.318472 0.778632 0.527836
O O8 0.105062 0.063211 0.738272
O O9 0.395108 0.280860 0.637306
O O10 0.578407 0.225443 0.926286
O O11 0.000000 0.000000 0.000000
O O12 0.500000 0.500000 0.500000
O O13 0.870716 0.651066 0.439583
O O14 0.128806 0.642866 0.754907
O O15 0.000000 0.500000 0.000000
O O16 0.000000 0.500000 0.500000
#
# Coordination Sequence:
#
# PCOD9038963 Si02
#       7
#     2   2   2   2   2   2   2
#     4   9  20  36  57  87 124 155 207 248 307 363
#     4   9  22  39  56  92 120 161 207 255 308 363
#     4  11  22  39  64  88 127 163 200 258 316 376
#     4  10  23  42  65  88 116 166 227 264 299 355
#     4  12  20  34  60  94 128 164 195 242 322 389
#     4  11  20  37  57  93 137 160 191 245 317 385
#     4  12  23  32  56  93 137 164 193 245 305 393
#
# _framework density 24.144888000000002
#
# number of rings (size 3 to 8) (size 9 to 14) (size 15 to 20)
#    0.857    0.571    4.286    2.571    2.000    1.714 
#    0.000    0.000    0.000    4.286    0.000    0.000 
#    0.000    0.000    0.000    0.000    0.000    0.000 
#
# Total GULP energy -77984.645098 kJ/mol
# GULP energy per Si atom -5570.331793 kJ/mol
# Density = 2.408993 g / cm^3
# Si number density = 24.144888 Si / 1000 Ang^3
#
#
#
# Elastic Constant Matrix: (Units=GPa)
#
#
# Indices 1 2 3 4 5 6 
#
# 1 168.0076 29.4241 31.6236 -20.5017 -20.0850 2.8989
# 2 29.4241 56.2876 37.5958 -10.3091 -6.9730 3.7135
# 3 31.6236 37.5958 98.3861 -13.1726 -31.7807 3.1099
# 4 -20.5017 -10.3091 -13.1726 42.4151 8.1584 -3.1364
# 5 -20.0850 -6.9730 -31.7807 8.1584 42.9477 -8.3013
# 6 2.8989 3.7135 3.1099 -3.1364 -8.3013 17.8772
#
#
#
# Elastic Compliance Matrix: (Units=1/GPa)
#
#
# Indices 1 2 3 4 5 6 
#
# 1 0.007047 -0.003014 -0.000013 0.002254 0.002576 0.001077
# 2 -0.003014 0.026596 -0.010845 0.002500 -0.006719 -0.005830
# 3 -0.000013 -0.010845 0.018361 0.001011 0.012613 0.005095
# 4 0.002254 0.002500 0.001011 0.026211 -0.002294 0.002473
# 5 0.002576 -0.006719 0.012613 -0.002294 0.036094 0.015141
# 6 0.001077 -0.005830 0.005095 0.002473 0.015141 0.063552
#
#
# Mechanical properties :
#
#
# Convention : Reuss Voigt Hill
#
# Bulk Modulus (GPa) = 41.22338 57.77426 49.49882
# Shear Modulus (GPa) = 23.39820 35.58386 29.49103
#
# Velocity S-wave (km/s) = 3.11637 3.84313 3.49867
# Velocity P-wave (km/s) = 5.48265 6.60855 6.07175
#
# Compressibility (1/GPa) = 0.02425808
#
# Stress axis : x y z
#
# Youngs Moduli (GPa) = 141.90625 37.60028 54.46331
#
# Poissons Ratio (x) = 0.11333 0.00073
# Poissons Ratio (y) = 0.42770 0.59067
# Poissons Ratio (z) = 0.00190 0.40779
#
# Static dielectric constant tensor:
#      x y z
#    x 2.019710 0.039550 -0.028010 
#    y 0.039550 1.995160 0.080540 
#    z -0.028010 0.080540 2.000090 
# 
# From -- ./inp_files/196332.got.cif
#   From: 2010.05.17/outbox.cif.g08.bks.cpg/sg2_99_cif.got.tgz:196332.got - 2010.06.03 11:33:40.
