data_PCOD9038922
_publ_section_title
;
Structure prediction by ZEFSAII (Michael W. Deem and Ramdas Pophale) SiO2 
 PCOD9038922
Probable space group: P -1
;
_chemical_formula_sum "Si O2"
_cell_formula_units_Z 16
_cell_length_a 11.887598
_cell_length_b 25.051008
_cell_length_c 19.806428
_cell_angle_alpha 15.108779
_cell_angle_beta 37.589133
_cell_angle_gamma 28.872635
_cell_volume 673.272889
_symmetry_space_group_name_H-M "P -1"
_symmetry_group_IT_number 2
_symmetry_cell_setting 'triclinic'
loop_
_space_group_symop_operation_xyz
x,y,z
-x,-y,-z
loop_
_atom_site_type_symbol
_atom_site_label
_atom_site_fract_x
_atom_site_fract_y
_atom_site_fract_z
Si Si1 0.067915 0.583148 0.776392
Si Si2 0.811630 0.751316 0.561863
Si Si3 0.078093 0.201450 0.776942
Si Si4 0.642089 0.222674 0.962360
Si Si5 0.779431 0.831350 0.104284
Si Si6 0.050063 0.168201 0.112097
Si Si7 0.655498 0.125627 0.386137
Si Si8 0.787617 0.992943 0.626112
O O1 0.936289 0.765979 0.547750
O O2 0.874345 0.786481 0.680208
O O3 0.338356 0.479474 0.788726
O O4 0.111043 0.313600 0.063747
O O5 0.001857 0.448463 0.803221
O O6 0.697685 0.007879 0.253707
O O7 0.584418 0.771263 0.667637
O O8 0.980575 0.487528 0.439867
O O9 0.239051 0.084786 0.911851
O O10 0.813549 0.288195 0.814371
O O11 0.248554 0.949188 0.950108
O O12 0.884071 0.905483 0.907393
O O13 0.500000 0.000000 0.000000
O O14 0.249928 0.962874 0.329240
O O15 0.797562 0.225899 0.177239
O O16 0.585016 0.180952 0.432139
O O17 0.000000 0.000000 0.500000
#
# Coordination Sequence:
#
# PCOD9038922 Si02
#       8
#     2   2   2   2   2   2   2   2
#     4  11  24  40  67  98 131 177 221 272 329 389
#     4  11  23  41  66  95 135 176 219 266 331 407
#     4  10  26  47  67 103 127 176 222 284 338 393
#     4  11  24  45  70  92 140 172 223 275 339 398
#     4  11  25  45  73  99 133 167 231 283 333 395
#     4  10  23  42  64  97 130 179 216 265 342 396
#     4  11  22  41  65  99 138 170 224 271 324 401
#     4   9  20  39  62  92 132 174 216 259 327 394
#
# _framework density 23.764509
#
# number of rings (size 3 to 8) (size 9 to 14) (size 15 to 20)
#    0.000    1.500    2.500    1.125    7.000    0.000 
#    0.000    3.750    0.000    0.000    0.000    0.000 
#    0.000    0.000    0.000    0.000    0.000    0.000 
#
# Total GULP energy -89339.353359 kJ/mol
# GULP energy per Si atom -5583.709585 kJ/mol
# Density = 2.371042 g / cm^3
# Si number density = 23.764509 Si / 1000 Ang^3
#
#
#
# Elastic Constant Matrix: (Units=GPa)
#
#
# Indices 1 2 3 4 5 6 
#
# 1 138.8348 24.3470 49.5845 15.8859 38.2332 7.1114
# 2 24.3470 52.6001 19.3771 14.3217 15.3360 0.0975
# 3 49.5845 19.3771 79.9183 20.7261 14.2544 7.9723
# 4 15.8859 14.3217 20.7261 34.9560 4.5455 5.2593
# 5 38.2332 15.3360 14.2544 4.5455 50.7907 4.8756
# 6 7.1114 0.0975 7.9723 5.2593 4.8756 27.1652
#
#
#
# Elastic Compliance Matrix: (Units=1/GPa)
#
#
# Indices 1 2 3 4 5 6 
#
# 1 0.011172 -0.001150 -0.005332 -0.000587 -0.006506 -0.000074
# 2 -0.001150 0.024118 -0.002530 -0.007676 -0.005347 0.003402
# 3 -0.005332 -0.002530 0.018471 -0.007147 0.000495 -0.002721
# 4 -0.000587 -0.007676 -0.007147 0.036782 0.001972 -0.005196
# 5 -0.006506 -0.005347 0.000495 0.001972 0.026222 -0.003511
# 6 -0.000074 0.003402 -0.002721 -0.005196 -0.003511 0.039254
#
#
# Mechanical properties :
#
#
# Convention : Reuss Voigt Hill
#
# Bulk Modulus (GPa) = 27.98188 50.88561 39.43374
# Shear Modulus (GPa) = 26.88832 34.45201 30.67017
#
# Velocity S-wave (km/s) = 3.36735 3.81166 3.59637
# Velocity P-wave (km/s) = 5.18835 6.38988 5.82020
#
# Compressibility (1/GPa) = 0.03573742
#
# Stress axis : x y z
#
# Youngs Moduli (GPa) = 89.51303 41.46318 54.13798
#
# Poissons Ratio (x) = 0.04767 0.28869
# Poissons Ratio (y) = 0.10291 0.13694
# Poissons Ratio (z) = 0.47732 0.10488
#
# Static dielectric constant tensor:
#      x y z
#    x 1.919490 0.013760 -0.006350 
#    y 0.013760 1.924710 0.006720 
#    z -0.006350 0.006720 2.024310 
# 
# From -- ./inp_files/308724.got.cif
#   From: 2010.05.17/outbox.cif.g08.bks.cpg/sg2_155_cif.got.tgz:308724.got - 2010.06.03 11:33:40.
