data_PCOD9038346
_publ_section_title
;
Structure prediction by ZEFSAII (Michael W. Deem and Ramdas Pophale) SiO2 
 PCOD9038346
Probable space group: P -1
;
_chemical_formula_sum "Si O2"
_cell_formula_units_Z 14
_cell_length_a 9.133021
_cell_length_b 8.353865
_cell_length_c 8.801229
_cell_angle_alpha 102.720805
_cell_angle_beta 77.997561
_cell_angle_gamma 110.899567
_cell_volume 605.720433
_symmetry_space_group_name_H-M "P -1"
_symmetry_group_IT_number 2
_symmetry_cell_setting 'triclinic'
loop_
_space_group_symop_operation_xyz
x,y,z
-x,-y,-z
loop_
_atom_site_type_symbol
_atom_site_label
_atom_site_fract_x
_atom_site_fract_y
_atom_site_fract_z
Si Si1 0.169128 0.619790 0.430073
Si Si2 0.602648 0.879850 0.997525
Si Si3 0.798661 0.680775 0.840123
Si Si4 0.097250 0.822238 0.993298
Si Si5 0.684614 0.406163 0.033970
Si Si6 0.015279 0.167755 0.639177
Si Si7 0.337876 0.508802 0.606842
O O1 0.225105 0.487031 0.289524
O O2 0.283419 0.651368 0.554953
O O3 0.000000 0.500000 0.500000
O O4 0.128283 0.766520 0.376246
O O5 0.696051 0.798968 0.837950
O O6 0.461263 0.717568 0.057584
O O7 0.500000 0.000000 0.000000
O O8 0.758111 0.014423 0.064628
O O9 0.735029 0.597664 0.998711
O O10 0.979723 0.771325 0.865213
O O11 0.017572 0.859288 0.176702
O O12 0.171720 0.672595 0.995800
O O13 0.628365 0.419323 0.217257
O O14 0.185468 0.325552 0.608531
O O15 0.000000 0.000000 0.500000
O O16 0.500000 0.500000 0.500000
#
# Coordination Sequence:
#
# PCOD9038346 Si02
#       7
#     2   2   2   2   2   2   2
#     4  10  23  41  68  96 127 175 219 262 328 389
#     4  10  25  40  59  99 137 163 203 276 334 370
#     4  12  21  42  73  94 125 174 228 264 311 396
#     4  11  22  42  66  99 128 168 222 270 323 382
#     4  11  22  43  69  94 131 170 223 270 314 390
#     4  11  24  43  65  94 136 170 214 274 329 383
#     4  11  24  44  66  97 131 174 217 267 327 390
#
# _framework density 23.112971999999999
#
# number of rings (size 3 to 8) (size 9 to 14) (size 15 to 20)
#    0.000    1.143    2.857    3.857    6.000    0.000 
#    5.143    0.714    0.000    0.000    0.000    0.000 
#    0.000    0.000    0.000    0.000    0.000    0.000 
#
# Total GULP energy -77974.070470 kJ/mol
# GULP energy per Si atom -5569.576462 kJ/mol
# Density = 2.306037 g / cm^3
# Si number density = 23.112972 Si / 1000 Ang^3
#
#
#
# Elastic Constant Matrix: (Units=GPa)
#
#
# Indices 1 2 3 4 5 6 
#
# 1 104.4532 39.6186 4.7953 2.7203 -21.3000 9.9198
# 2 39.6186 78.5923 3.6478 17.3978 1.1542 15.0927
# 3 4.7953 3.6478 77.1839 -0.9128 -16.2839 -4.0460
# 4 2.7203 17.3978 -0.9128 26.7144 -7.6158 -4.4330
# 5 -21.3000 1.1542 -16.2839 -7.6158 35.8746 15.7497
# 6 9.9198 15.0927 -4.0460 -4.4330 15.7497 52.1420
#
#
#
# Elastic Compliance Matrix: (Units=1/GPa)
#
#
# Indices 1 2 3 4 5 6 
#
# 1 0.016157 -0.009537 0.002374 0.008113 0.014358 -0.003776
# 2 -0.009537 0.022194 -0.002906 -0.016936 -0.009841 -0.003303
# 3 0.002374 -0.002906 0.015011 0.004784 0.009767 -0.000989
# 4 0.008113 -0.016936 0.004784 0.053293 0.017547 0.002960
# 5 0.014358 -0.009841 0.009767 0.017547 0.050537 -0.012898
# 6 -0.003776 -0.003303 -0.000989 0.002960 -0.012898 0.024924
#
#
# Mechanical properties :
#
#
# Convention : Reuss Voigt Hill
#
# Bulk Modulus (GPa) = 30.09790 39.59474 34.84632
# Shear Modulus (GPa) = 23.43804 37.09070 30.26437
#
# Velocity S-wave (km/s) = 3.18789 4.01029 3.62250
# Velocity P-wave (km/s) = 5.15757 6.21380 5.71016
#
# Compressibility (1/GPa) = 0.03322491
#
# Stress axis : x y z
#
# Youngs Moduli (GPa) = 61.89261 45.05721 66.61713
#
# Poissons Ratio (x) = 0.42970 -0.15815
# Poissons Ratio (y) = 0.59025 0.19359
# Poissons Ratio (z) = -0.14693 0.13094
#
# Static dielectric constant tensor:
#      x y z
#    x 1.916140 -0.012850 0.003890 
#    y -0.012850 1.926800 0.016510 
#    z 0.003890 0.016510 1.865800 
# 
# From -- ./inp_files/157333.got.cif
#   From: 2010.05.17/outbox.cif.g08.bks.cpg/sg2_79_cif.got.tgz:157333.got - 2010.06.03 11:33:40.
