data_PCOD9038856
_publ_section_title
;
Structure prediction by ZEFSAII (Michael W. Deem and Ramdas Pophale) SiO2 
 PCOD9038856
Probable space group: P -1
;
_chemical_formula_sum "Si O2"
_cell_formula_units_Z 16
_cell_length_a 9.006662
_cell_length_b 15.491384
_cell_length_c 13.119697
_cell_angle_alpha 50.557614
_cell_angle_beta 104.172537
_cell_angle_gamma 61.178783
_cell_volume 718.518017
_symmetry_space_group_name_H-M "P -1"
_symmetry_group_IT_number 2
_symmetry_cell_setting 'triclinic'
loop_
_space_group_symop_operation_xyz
x,y,z
-x,-y,-z
loop_
_atom_site_type_symbol
_atom_site_label
_atom_site_fract_x
_atom_site_fract_y
_atom_site_fract_z
Si Si1 0.849176 0.090022 0.067141
Si Si2 0.373235 0.811364 0.505741
Si Si3 0.303461 0.416906 0.864697
Si Si4 0.949293 0.406901 0.797092
Si Si5 0.735817 0.864460 0.749570
Si Si6 0.885839 0.834974 0.588938
Si Si7 0.153178 0.727641 0.249676
Si Si8 0.352255 0.712401 0.790790
O O1 0.517870 0.294416 0.896858
O O2 0.880775 0.168653 0.930800
O O3 0.055298 0.985089 0.277113
O O4 0.972210 0.900252 0.179200
O O5 0.608281 0.636670 0.589814
O O6 0.434347 0.705345 0.698187
O O7 0.393298 0.931034 0.436222
O O8 0.120781 0.416945 0.821049
O O9 0.071171 0.661490 0.661009
O O10 0.516819 0.293757 0.091935
O O11 0.975351 0.312643 0.773825
O O12 0.068718 0.266749 0.020653
O O13 0.911997 0.741830 0.765750
O O14 0.457783 0.957487 0.645169
O O15 0.015707 0.876220 0.604754
O O16 0.500000 0.500000 0.500000
O O17 0.500000 0.500000 0.000000
#
# Coordination Sequence:
#
# PCOD9038856 Si02
#       8
#     2   2   2   2   2   2   2   2
#     4  11  26  46  75 104 131 177 235 289 349 413
#     4  12  24  44  72 102 141 186 227 279 341 415
#     4  11  25  44  67 105 144 179 227 283 338 410
#     4  12  25  43  70 101 138 181 228 288 349 404
#     4  11  24  41  65 100 144 188 230 275 335 410
#     4  10  23  42  63  99 145 189 227 276 329 407
#     4  11  25  49  75 100 131 176 235 293 354 411
#     4  10  24  40  64 101 144 182 225 269 330 405
#
# _framework density 22.268055
#
# number of rings (size 3 to 8) (size 9 to 14) (size 15 to 20)
#    0.000    1.000    3.750    2.250    8.750    2.500 
#    0.000    0.625    0.000    0.000    0.000    0.000 
#    0.000    0.000    0.000    0.000    0.000    0.000 
#
# Total GULP energy -89456.211259 kJ/mol
# GULP energy per Si atom -5591.013204 kJ/mol
# Density = 2.221737 g / cm^3
# Si number density = 22.268055 Si / 1000 Ang^3
#
#
#
# Elastic Constant Matrix: (Units=GPa)
#
#
# Indices 1 2 3 4 5 6 
#
# 1 121.0100 45.3546 8.8025 -8.1120 18.5999 18.7536
# 2 45.3546 121.4539 4.1952 -12.4799 16.3721 12.7407
# 3 8.8025 4.1952 57.1574 -1.8755 10.5345 6.7776
# 4 -8.1120 -12.4799 -1.8755 30.2275 -2.2991 9.9261
# 5 18.5999 16.3721 10.5345 -2.2991 39.3110 1.1521
# 6 18.7536 12.7407 6.7776 9.9261 1.1521 39.1341
#
#
#
# Elastic Compliance Matrix: (Units=1/GPa)
#
#
# Indices 1 2 3 4 5 6 
#
# 1 0.010826 -0.002704 -0.000105 0.003141 -0.003639 -0.004979
# 2 -0.002704 0.010410 0.000719 0.004470 -0.002892 -0.003267
# 3 -0.000105 0.000719 0.018934 0.002341 -0.005072 -0.003908
# 4 0.003141 0.004470 0.002341 0.040271 -0.001223 -0.013544
# 5 -0.003639 -0.002892 -0.005072 -0.001223 0.029564 0.003004
# 6 -0.004979 -0.003267 -0.003908 -0.013544 0.003004 0.033027
#
#
# Mechanical properties :
#
#
# Convention : Reuss Voigt Hill
#
# Bulk Modulus (GPa) = 27.78369 46.25843 37.02106
# Shear Modulus (GPa) = 31.40559 37.81912 34.61236
#
# Velocity S-wave (km/s) = 3.75953 4.12558 3.94680
# Velocity P-wave (km/s) = 5.59905 6.59640 6.11808
#
# Compressibility (1/GPa) = 0.03599233
#
# Stress axis : x y z
#
# Youngs Moduli (GPa) = 92.36816 96.05982 52.81524
#
# Poissons Ratio (x) = 0.25971 0.00553
# Poissons Ratio (y) = 0.24973 -0.03799
# Poissons Ratio (z) = 0.00967 -0.06910
#
# Static dielectric constant tensor:
#      x y z
#    x 1.830380 0.002920 -0.001110 
#    y 0.002920 1.854600 -0.042970 
#    z -0.001110 -0.042970 1.869810 
# 
# From -- ./inp_files/398810.got.cif
#   From: 2010.05.17/outbox.cif.g08.bks.cpg/sg2_200_cif.got.tgz:398810.got - 2010.06.03 11:33:40.
