data_PCOD9038672
_publ_section_title
;
Structure prediction by ZEFSAII (Michael W. Deem and Ramdas Pophale) SiO2 
 PCOD9038672
Probable space group: P -1
;
_chemical_formula_sum "Si O2"
_cell_formula_units_Z 16
_cell_length_a 12.104357
_cell_length_b 6.795168
_cell_length_c 11.718222
_cell_angle_alpha 137.230120
_cell_angle_beta 116.777215
_cell_angle_gamma 77.520069
_cell_volume 573.774105
_symmetry_space_group_name_H-M "P -1"
_symmetry_group_IT_number 2
_symmetry_cell_setting 'triclinic'
loop_
_space_group_symop_operation_xyz
x,y,z
-x,-y,-z
loop_
_atom_site_type_symbol
_atom_site_label
_atom_site_fract_x
_atom_site_fract_y
_atom_site_fract_z
Si Si1 0.781314 0.061154 0.186647
Si Si2 0.671559 0.479864 0.487291
Si Si3 0.613190 0.623679 0.187257
Si Si4 0.686385 0.082196 0.605896
Si Si5 0.545678 0.617364 0.790374
Si Si6 0.873344 0.580932 0.271203
Si Si7 0.083627 0.295698 0.216062
Si Si8 0.949678 0.025141 0.698364
O O1 0.744649 0.249097 0.357053
O O2 0.833298 0.296551 0.212786
O O3 0.660270 0.854043 0.989999
O O4 0.899023 0.895660 0.194309
O O5 0.523070 0.329556 0.338023
O O6 0.912769 0.847452 0.489620
O O7 0.766690 0.589242 0.684785
O O8 0.666117 0.797687 0.559586
O O9 0.646412 0.940598 0.401569
O O10 0.569829 0.412814 0.185989
O O11 0.738626 0.600491 0.166206
O O12 0.500000 0.500000 0.000000
O O13 0.836914 0.205355 0.742089
O O14 0.599361 0.314730 0.690279
O O15 0.997668 0.532141 0.244219
O O16 0.079030 0.219143 0.316144
O O17 0.000000 0.000000 0.000000
#
# Coordination Sequence:
#
# PCOD9038672 Si02
#       8
#     2   2   2   2   2   2   2   2
#     4  11  17  32  60  81 102 135 186 222 256 311
#     4  10  17  33  54  77 104 137 179 218 249 321
#     4  10  20  34  56  76 103 144 181 210 257 329
#     4   9  19  35  54  76 105 141 182 218 254 307
#     4  11  22  32  54  85 110 136 175 222 273 304
#     4  10  17  34  55  78  99 140 188 218 249 310
#     4  10  18  28  52  83 100 130 178 228 260 294
#     4   9  17  34  57  74 101 142 188 216 250 313
#
# _framework density 27.885539000000001
#
# number of rings (size 3 to 8) (size 9 to 14) (size 15 to 20)
#    0.000    2.000    6.250    2.625    0.000    3.500 
#    0.000    0.000    5.500    6.750    0.000    0.000 
#    0.000    0.000    0.000    0.000    0.000    0.000 
#
# Total GULP energy -89373.507726 kJ/mol
# GULP energy per Si atom -5585.844233 kJ/mol
# Density = 2.782207 g / cm^3
# Si number density = 27.885539 Si / 1000 Ang^3
#
#
#
# Elastic Constant Matrix: (Units=GPa)
#
#
# Indices 1 2 3 4 5 6 
#
# 1 112.9803 46.3710 33.1131 -12.4629 39.5999 -24.0931
# 2 46.3710 142.0085 58.8636 -7.5517 16.3249 -50.2196
# 3 33.1131 58.8636 192.8267 -16.1062 46.3672 -35.4933
# 4 -12.4629 -7.5517 -16.1062 39.5297 -16.2630 5.3255
# 5 39.5999 16.3249 46.3672 -16.2630 50.4154 -12.6905
# 6 -24.0931 -50.2196 -35.4933 5.3255 -12.6905 59.3226
#
#
#
# Elastic Compliance Matrix: (Units=1/GPa)
#
#
# Indices 1 2 3 4 5 6 
#
# 1 0.013924 -0.003470 0.001525 -0.000354 -0.011000 0.001308
# 2 -0.003470 0.011436 -0.002211 0.000448 0.003107 0.007574
# 3 0.001525 -0.002211 0.007624 0.000030 -0.007030 0.001802
# 4 -0.000354 0.000448 0.000030 0.029215 0.009442 -0.000350
# 5 -0.011000 0.003107 -0.007030 0.009442 0.037252 0.001078
# 6 0.001308 0.007574 0.001802 -0.000350 0.001078 0.025140
#
#
# Mechanical properties :
#
#
# Convention : Reuss Voigt Hill
#
# Bulk Modulus (GPa) = 40.53300 80.50123 60.51711
# Shear Modulus (GPa) = 35.42858 50.48474 42.95666
#
# Velocity S-wave (km/s) = 3.56827 4.25953 3.92913
# Velocity P-wave (km/s) = 5.61639 7.28852 6.50640
#
# Compressibility (1/GPa) = 0.02467126
#
# Stress axis : x y z
#
# Youngs Moduli (GPa) = 71.81736 87.43943 131.16888
#
# Poissons Ratio (x) = 0.30345 -0.19999
# Poissons Ratio (y) = 0.24924 0.28999
# Poissons Ratio (z) = -0.10950 0.19331
#
# Static dielectric constant tensor:
#      x y z
#    x 2.306950 0.106570 -0.024020 
#    y 0.106570 2.327460 -0.067440 
#    z -0.024020 -0.067440 2.189220 
# 
# From -- ./inp_files/568372.got.cif
#   From: 2010.05.17/outbox.cif.g08.bks.cpg/sg2_285_cif.got.tgz:568372.got - 2010.06.03 11:33:40.
