data_PCOD9038459
_publ_section_title
;
Structure prediction by ZEFSAII (Michael W. Deem and Ramdas Pophale) SiO2 
 PCOD9038459
Probable space group: P -1
;
_chemical_formula_sum "Si O2"
_cell_formula_units_Z 16
_cell_length_a 15.372625
_cell_length_b 5.287581
_cell_length_c 24.201431
_cell_angle_alpha 97.798730
_cell_angle_beta 20.103694
_cell_angle_gamma 102.071136
_cell_volume 650.343869
_symmetry_space_group_name_H-M "P -1"
_symmetry_group_IT_number 2
_symmetry_cell_setting 'triclinic'
loop_
_space_group_symop_operation_xyz
x,y,z
-x,-y,-z
loop_
_atom_site_type_symbol
_atom_site_label
_atom_site_fract_x
_atom_site_fract_y
_atom_site_fract_z
Si Si1 0.286812 0.907382 0.418134
Si Si2 0.351839 0.697364 0.127463
Si Si3 0.211906 0.454214 0.595029
Si Si4 0.648291 0.834392 0.289599
Si Si5 0.267875 0.225058 0.233478
Si Si6 0.959895 0.451647 0.957121
Si Si7 0.644135 0.622465 0.692274
Si Si8 0.311679 0.738133 0.652321
O O1 0.549670 0.965021 0.299551
O O2 0.274162 0.645063 0.381266
O O3 0.034824 0.861128 0.606818
O O4 0.284912 0.162385 0.391476
O O5 0.346725 0.536400 0.182579
O O6 0.071148 0.658763 0.264515
O O7 0.419394 0.014334 0.110815
O O8 0.500000 0.500000 0.000000
O O9 0.407847 0.579104 0.431984
O O10 0.174069 0.637480 0.674644
O O11 0.397140 0.296458 0.511120
O O12 0.942651 0.815931 0.109408
O O13 0.647682 0.955488 0.353899
O O14 0.258869 0.223599 0.304753
O O15 0.138099 0.612138 0.805963
O O16 0.667710 0.451508 0.118618
O O17 0.000000 0.500000 0.000000
#
# Coordination Sequence:
#
# PCOD9038459 Si02
#       8
#     2   2   2   2   2   2   2   2
#     4  12  24  44  73 100 139 185 235 283 343 417
#     4  12  27  47  74 103 140 180 232 297 353 411
#     4  10  23  44  66 101 131 179 238 284 343 410
#     4  11  22  40  70  96 136 184 226 280 349 414
#     4  12  26  49  72 100 139 185 238 282 353 415
#     4  11  24  41  62 101 143 177 223 278 354 411
#     4  12  27  43  70 105 141 183 233 289 342 417
#     4  10  23  41  69  97 137 181 233 283 341 417
#
# _framework density 24.602367999999998
#
# number of rings (size 3 to 8) (size 9 to 14) (size 15 to 20)
#    0.000    0.750    2.500    4.500    5.250    2.000 
#    0.000    0.000    0.000    0.000    0.000    0.000 
#    0.000    0.000    0.000    0.000    0.000    0.000 
#
# Total GULP energy -89113.493372 kJ/mol
# GULP energy per Si atom -5569.593336 kJ/mol
# Density = 2.454637 g / cm^3
# Si number density = 24.602368 Si / 1000 Ang^3
#
#
#
# Elastic Constant Matrix: (Units=GPa)
#
#
# Indices 1 2 3 4 5 6 
#
# 1 76.5701 24.8816 -15.6783 8.1932 6.2576 6.1044
# 2 24.8816 100.8955 11.4342 28.5284 -3.0076 16.6243
# 3 -15.6783 11.4342 79.1551 21.4693 -13.0457 8.6220
# 4 8.1932 28.5284 21.4693 40.1152 -2.7966 15.2921
# 5 6.2576 -3.0076 -13.0457 -2.7966 26.6779 4.9245
# 6 6.1044 16.6243 8.6220 15.2921 4.9245 36.3153
#
#
#
# Elastic Compliance Matrix: (Units=1/GPa)
#
#
# Indices 1 2 3 4 5 6 
#
# 1 0.015541 -0.003477 0.004025 -0.002834 -0.002279 -0.000474
# 2 -0.003477 0.013444 0.000096 -0.007769 0.002044 -0.002598
# 3 0.004025 0.000096 0.017170 -0.008830 0.006910 -0.002016
# 4 -0.002834 -0.007769 -0.008830 0.040057 0.001695 -0.010968
# 5 -0.002279 0.002044 0.006910 0.001695 0.043429 -0.008796
# 6 -0.000474 -0.002598 -0.002016 -0.010968 -0.008796 0.035096
#
#
# Mechanical properties :
#
#
# Convention : Reuss Voigt Hill
#
# Bulk Modulus (GPa) = 21.07784 33.09952 27.08868
# Shear Modulus (GPa) = 27.89203 36.35391 32.12297
#
# Velocity S-wave (km/s) = 3.37072 3.84820 3.61735
# Velocity P-wave (km/s) = 4.87186 5.76436 5.33680
#
# Compressibility (1/GPa) = 0.04744320
#
# Stress axis : x y z
#
# Youngs Moduli (GPa) = 64.34463 74.38496 58.24102
#
# Poissons Ratio (x) = 0.25866 -0.23443
# Poissons Ratio (y) = 0.22375 -0.00561
# Poissons Ratio (z) = -0.25900 -0.00716
#
# Static dielectric constant tensor:
#      x y z
#    x 1.916930 -0.036480 0.427500 
#    y -0.036480 2.203790 0.054840 
#    z 0.427500 0.054840 0.990310 
# 
# From -- ./inp_files/68545.got.cif
#   From: 2010.05.17/outbox.cif.g08.bks.cpg/sg2_35_cif.got.tgz:68545.got - 2010.06.03 11:33:40.
