data_PCOD9038005
_publ_section_title
;
Structure prediction by ZEFSAII (Michael W. Deem and Ramdas Pophale) SiO2 
 PCOD9038005
Probable space group: P -1
;
_chemical_formula_sum "Si O2"
_cell_formula_units_Z 16
_cell_length_a 12.333525
_cell_length_b 11.496996
_cell_length_c 14.639951
_cell_angle_alpha 105.488654
_cell_angle_beta 152.981207
_cell_angle_gamma 91.687205
_cell_volume 719.667233
_symmetry_space_group_name_H-M "P -1"
_symmetry_group_IT_number 2
_symmetry_cell_setting 'triclinic'
loop_
_space_group_symop_operation_xyz
x,y,z
-x,-y,-z
loop_
_atom_site_type_symbol
_atom_site_label
_atom_site_fract_x
_atom_site_fract_y
_atom_site_fract_z
Si Si1 0.756815 0.960349 0.730410
Si Si2 0.399619 0.918074 0.207973
Si Si3 0.058203 0.074706 0.459249
Si Si4 0.734269 0.920206 0.005416
Si Si5 0.845246 0.365835 0.782681
Si Si6 0.495381 0.582554 0.100622
Si Si7 0.955446 0.579165 0.745977
Si Si8 0.594322 0.607929 0.830449
O O1 0.490966 0.781273 0.482423
O O2 0.608899 0.030125 0.685413
O O3 0.956562 0.020027 0.802342
O O4 0.000000 0.000000 0.000000
O O5 0.680460 0.921949 0.393464
O O6 0.104611 0.743044 0.937356
O O7 0.404470 0.024901 0.156939
O O8 0.196709 0.249327 0.616564
O O9 0.000000 0.000000 0.500000
O O10 0.795320 0.989161 0.167662
O O11 0.555560 0.739211 0.839216
O O12 0.851838 0.446884 0.712932
O O13 0.000000 0.500000 0.000000
O O14 0.070695 0.321884 0.936820
O O15 0.437770 0.475967 0.118854
O O16 0.500000 0.500000 0.000000
O O17 0.225071 0.597293 0.896207
O O18 0.663859 0.520760 0.456749
#
# Coordination Sequence:
#
# PCOD9038005 Si02
#       8
#     2   2   2   2   2   2   2   2
#     4  10  23  41  65  96 134 176 215 269 329 392
#     4  10  23  42  66  95 131 169 219 269 324 396
#     4  11  24  42  67  94 125 170 217 274 330 388
#     4  11  24  41  66  94 130 170 218 265 331 390
#     4  11  26  40  63  96 132 174 222 267 326 391
#     4  10  23  43  66  95 128 167 221 277 332 397
#     4  10  23  42  65  95 132 173 218 271 331 393
#     4  11  24  41  65  94 130 175 216 271 331 391
#
# _framework density 22.232496999999999
#
# number of rings (size 3 to 8) (size 9 to 14) (size 15 to 20)
#    0.000    1.500    0.000    3.750   10.500    5.500 
#    0.000    0.000    0.000    0.000    0.000    0.000 
#    0.000    0.000    0.000    0.000    0.000    0.000 
#
# Total GULP energy -89456.997076 kJ/mol
# GULP energy per Si atom -5591.062317 kJ/mol
# Density = 2.218189 g / cm^3
# Si number density = 22.232497 Si / 1000 Ang^3
#
#
#
# Elastic Constant Matrix: (Units=GPa)
#
#
# Indices 1 2 3 4 5 6 
#
# 1 87.9313 -0.6480 23.3601 13.0284 -30.6610 0.3635
# 2 -0.6480 86.2761 13.7531 19.9343 -10.4441 -3.3211
# 3 23.3601 13.7531 95.2394 19.9992 -14.1534 2.5630
# 4 13.0284 19.9343 19.9992 45.9417 2.4559 -4.3806
# 5 -30.6610 -10.4441 -14.1534 2.4559 30.3934 6.9754
# 6 0.3635 -3.3211 2.5630 -4.3806 6.9754 27.9365
#
#
#
# Elastic Compliance Matrix: (Units=1/GPa)
#
#
# Indices 1 2 3 4 5 6 
#
# 1 0.022853 0.005843 0.000366 -0.011484 0.028101 -0.008453
# 2 0.005843 0.015162 0.000296 -0.009320 0.012667 -0.002925
# 3 0.000366 0.000296 0.013109 -0.006778 0.008100 -0.004257
# 4 -0.011484 -0.009320 -0.006778 0.034291 -0.023201 0.010833
# 5 0.028101 0.012667 0.008100 -0.023201 0.076369 -0.022310
# 6 -0.008453 -0.002925 -0.004257 0.010833 -0.022310 0.043217
#
#
# Mechanical properties :
#
#
# Convention : Reuss Voigt Hill
#
# Bulk Modulus (GPa) = 15.59263 38.04192 26.81728
# Shear Modulus (GPa) = 23.43339 36.38644 29.90992
#
# Velocity S-wave (km/s) = 3.25008 4.04992 3.67185
# Velocity P-wave (km/s) = 4.59486 6.24638 5.48315
#
# Compressibility (1/GPa) = 0.06413286
#
# Stress axis : x y z
#
# Youngs Moduli (GPa) = 43.75720 65.95568 76.28392
#
# Poissons Ratio (x) = -0.38538 -0.02790
# Poissons Ratio (y) = -0.25567 -0.02256
# Poissons Ratio (z) = -0.01601 -0.01950
#
# Static dielectric constant tensor:
#      x y z
#    x 1.735270 -0.063150 0.013240 
#    y -0.063150 1.831020 -0.029970 
#    z 0.013240 -0.029970 1.876420 
# 
# From -- ./inp_files/519882.got.cif
#   From: 2010.05.17/outbox.cif.g08.bks.cpg/sg2_260_cif.got.tgz:519882.got - 2010.06.03 11:33:40.
