data_PCOD9038315
_publ_section_title
;
Structure prediction by ZEFSAII (Michael W. Deem and Ramdas Pophale) SiO2 
 PCOD9038315
Probable space group: P -1
;
_chemical_formula_sum "Si O2"
_cell_formula_units_Z 12
_cell_length_a 4.800816
_cell_length_b 9.127407
_cell_length_c 17.611816
_cell_angle_alpha 137.853789
_cell_angle_beta 98.606157
_cell_angle_gamma 92.871872
_cell_volume 496.706478
_symmetry_space_group_name_H-M "P -1"
_symmetry_group_IT_number 2
_symmetry_cell_setting 'triclinic'
loop_
_space_group_symop_operation_xyz
x,y,z
-x,-y,-z
loop_
_atom_site_type_symbol
_atom_site_label
_atom_site_fract_x
_atom_site_fract_y
_atom_site_fract_z
Si Si1 0.669031 0.659472 0.754379
Si Si2 0.172800 0.126107 0.737724
Si Si3 0.113949 0.456765 0.746562
Si Si4 0.277043 0.882951 0.012037
Si Si5 0.249546 0.722857 0.111376
Si Si6 0.687639 0.343487 0.411967
O O1 0.891103 0.502235 0.691376
O O2 0.461769 0.696097 0.691993
O O3 0.439005 0.529858 0.756804
O O4 0.848927 0.906930 0.884822
O O5 0.475506 0.305089 0.839598
O O6 0.054550 0.215775 0.690906
O O7 0.928399 0.121681 0.790490
O O8 0.276141 0.896623 0.648893
O O9 0.095876 0.643284 0.881805
O O10 0.389177 0.817769 0.072919
O O11 0.500000 0.000000 0.000000
O O12 0.000000 0.500000 0.000000
O O13 0.500000 0.500000 0.500000
O O14 0.000000 0.500000 0.500000
#
# Coordination Sequence:
#
# PCOD9038315 Si02
#       6
#     2   2   2   2   2   2
#     4  11  24  44  68 100 143 184 231 286 348 418
#     4  12  26  46  70 105 145 188 239 302 351 424
#     4  11  24  42  67 105 146 184 220 276 359 440
#     4  10  23  41  68 105 154 190 226 271 355 435
#     4  12  24  40  71 107 153 188 236 280 352 436
#     4  12  27  50  75  99 131 186 254 310 355 405
#
# _framework density 24.159136
#
# number of rings (size 3 to 8) (size 9 to 14) (size 15 to 20)
#    0.000    0.667    3.333    4.000    2.333    1.333 
#    0.000    5.000    0.000    0.000    0.000    0.000 
#    0.000    0.000    0.000    0.000    0.000    0.000 
#
# Total GULP energy -66957.577721 kJ/mol
# GULP energy per Si atom -5579.798143 kJ/mol
# Density = 2.410415 g / cm^3
# Si number density = 24.159136 Si / 1000 Ang^3
#
#
#
# Elastic Constant Matrix: (Units=GPa)
#
#
# Indices 1 2 3 4 5 6 
#
# 1 133.8459 25.0173 24.2361 11.3801 6.5604 -19.2361
# 2 25.0173 146.7464 34.8541 26.4826 -8.7672 -17.5884
# 3 24.2361 34.8541 73.8140 18.9902 -1.0829 -1.7658
# 4 11.3801 26.4826 18.9902 25.5461 -7.3181 -7.5411
# 5 6.5604 -8.7672 -1.0829 -7.3181 37.1494 0.8009
# 6 -19.2361 -17.5884 -1.7658 -7.5411 0.8009 44.7549
#
#
#
# Elastic Compliance Matrix: (Units=1/GPa)
#
#
# Indices 1 2 3 4 5 6 
#
# 1 0.008641 -0.000426 -0.002237 -0.001363 -0.002030 0.003265
# 2 -0.000426 0.008910 -0.002346 -0.006448 0.000793 0.002125
# 3 -0.002237 -0.002346 0.018271 -0.011592 -0.001843 -0.003083
# 4 -0.001363 -0.006448 -0.011592 0.059790 0.010023 0.006318
# 5 -0.002030 0.000793 -0.001843 0.010023 0.029373 0.000530
# 6 0.003265 0.002125 -0.003083 0.006318 0.000530 0.025516
#
#
# Mechanical properties :
#
#
# Convention : Reuss Voigt Hill
#
# Bulk Modulus (GPa) = 38.75335 58.06901 48.41118
# Shear Modulus (GPa) = 29.56476 39.51000 34.53738
#
# Velocity S-wave (km/s) = 3.50201 4.04840 3.78508
# Velocity P-wave (km/s) = 5.69454 6.77798 6.25974
#
# Compressibility (1/GPa) = 0.02580422
#
# Stress axis : x y z
#
# Youngs Moduli (GPa) = 115.73337 112.23197 54.73071
#
# Poissons Ratio (x) = 0.04779 0.12244
# Poissons Ratio (y) = 0.04928 0.12840
# Poissons Ratio (z) = 0.25891 0.26329
#
# Static dielectric constant tensor:
#      x y z
#    x 1.877550 0.108230 -0.239790 
#    y 0.108230 1.499850 0.917530 
#    z -0.239790 0.917530 0.131710 
# 
# From -- ./inp_files/547641.got.cif
#   From: 2010.05.17/outbox.cif.g08.bks.cpg/sg2_274_cif.got.tgz:547641.got - 2010.06.03 11:33:40.
