data_PCOD9038954
_publ_section_title
;
Structure prediction by ZEFSAII (Michael W. Deem and Ramdas Pophale) SiO2 
 PCOD9038954
Probable space group: P -1
;
_chemical_formula_sum "Si O2"
_cell_formula_units_Z 16
_cell_length_a 16.269049
_cell_length_b 4.873308
_cell_length_c 27.443367
_cell_angle_alpha 94.422807
_cell_angle_beta 162.204394
_cell_angle_gamma 87.665348
_cell_volume 659.173167
_symmetry_space_group_name_H-M "P -1"
_symmetry_group_IT_number 2
_symmetry_cell_setting 'triclinic'
loop_
_space_group_symop_operation_xyz
x,y,z
-x,-y,-z
loop_
_atom_site_type_symbol
_atom_site_label
_atom_site_fract_x
_atom_site_fract_y
_atom_site_fract_z
Si Si1 0.977677 0.730085 0.690816
Si Si2 0.072864 0.282860 0.997967
Si Si3 0.542608 0.920280 0.722980
Si Si4 0.368701 0.790835 0.519419
Si Si5 0.765574 0.538210 0.261787
Si Si6 0.985254 0.897117 0.545518
Si Si7 0.919233 0.155470 0.806026
Si Si8 0.170056 0.641508 0.901684
O O1 0.713032 0.514942 0.550446
O O2 0.113212 0.601424 0.718971
O O3 0.166524 0.728860 0.844438
O O4 0.877208 0.024402 0.626040
O O5 0.371446 0.214676 0.180076
O O6 0.000000 0.500000 0.000000
O O7 0.833820 0.037362 0.868229
O O8 0.025242 0.338417 0.915508
O O9 0.331479 0.138746 0.618200
O O10 0.419299 0.746509 0.605290
O O11 0.629640 0.978056 0.648211
O O12 0.862035 0.365455 0.359574
O O13 0.448745 0.536791 0.074301
O O14 0.879267 0.852746 0.341292
O O15 0.000000 0.000000 0.500000
O O16 0.944287 0.382040 0.780748
O O17 0.111092 0.914943 0.901429
#
# Coordination Sequence:
#
# PCOD9038954 Si02
#       8
#     2   2   2   2   2   2   2   2
#     4  12  24  47  73 101 130 191 237 290 342 409
#     4  10  25  40  73  99 137 186 222 272 344 433
#     4  10  23  42  65 103 135 176 229 272 346 408
#     4  11  24  43  75 100 142 174 237 285 348 418
#     4  12  26  49  70 101 138 189 237 279 341 414
#     4  12  27  44  71 105 138 181 224 290 346 406
#     4  11  27  45  68 108 142 181 223 293 355 409
#     4  12  28  46  70  99 145 181 235 295 346 401
#
# _framework density 24.272832999999999
#
# number of rings (size 3 to 8) (size 9 to 14) (size 15 to 20)
#    0.000    0.750    2.500    3.000   14.000    3.000 
#    0.000    3.750    0.000    0.000    0.000    0.000 
#    0.000    0.000    0.000    0.000    0.000    0.000 
#
# Total GULP energy -89485.699467 kJ/mol
# GULP energy per Si atom -5592.856217 kJ/mol
# Density = 2.421759 g / cm^3
# Si number density = 24.272833 Si / 1000 Ang^3
#
#
#
# Elastic Constant Matrix: (Units=GPa)
#
#
# Indices 1 2 3 4 5 6 
#
# 1 80.1214 -1.8048 24.4159 -9.7746 -7.5012 5.6865
# 2 -1.8048 92.4806 4.3454 -12.1085 3.4795 2.7423
# 3 24.4159 4.3454 86.9220 -22.7503 -1.1397 -1.9616
# 4 -9.7746 -12.1085 -22.7503 30.9548 2.1090 -1.8225
# 5 -7.5012 3.4795 -1.1397 2.1090 25.5127 -4.6763
# 6 5.6865 2.7423 -1.9616 -1.8225 -4.6763 29.5292
#
#
#
# Elastic Compliance Matrix: (Units=1/GPa)
#
#
# Indices 1 2 3 4 5 6 
#
# 1 0.014291 0.000620 -0.003601 0.001737 0.003371 -0.002408
# 2 0.000620 0.011591 0.000557 0.005209 -0.002016 -0.001157
# 3 -0.003601 0.000557 0.015271 0.010495 -0.000925 0.002157
# 4 0.001737 0.005209 0.010495 0.042924 -0.002900 0.002069
# 5 0.003371 -0.002016 -0.000925 -0.002900 0.041744 0.005908
# 6 -0.002408 -0.001157 0.002157 0.002069 0.005908 0.035642
#
#
# Mechanical properties :
#
#
# Convention : Reuss Voigt Hill
#
# Bulk Modulus (GPa) = 27.54325 34.82634 31.18480
# Shear Modulus (GPa) = 28.02496 32.70383 30.36440
#
# Velocity S-wave (km/s) = 3.40160 3.67460 3.54073
# Velocity P-wave (km/s) = 5.17686 5.69057 5.43978
#
# Compressibility (1/GPa) = 0.03630653
#
# Stress axis : x y z
#
# Youngs Moduli (GPa) = 69.97542 86.27289 65.48147
#
# Poissons Ratio (x) = -0.05350 0.23577
# Poissons Ratio (y) = -0.04339 -0.03648
# Poissons Ratio (z) = 0.25195 -0.04806
#
# Static dielectric constant tensor:
#      x y z
#    x 1.985640 0.025230 -0.017800 
#    y 0.025230 1.578410 -0.405560 
#    z -0.017800 -0.405560 1.435460 
# 
# From -- ./inp_files/611312.got.cif
#   From: 2010.05.17/outbox.cif.g08.bks.cpg/sg2_306_cif.got.tgz:611312.got - 2010.06.03 11:33:40.
