data_PCOD9038930
_publ_section_title
;
Structure prediction by ZEFSAII (Michael W. Deem and Ramdas Pophale) SiO2 
 PCOD9038930
Probable space group: P -1
;
_chemical_formula_sum "Si O2"
_cell_formula_units_Z 16
_cell_length_a 11.443226
_cell_length_b 9.933268
_cell_length_c 9.907460
_cell_angle_alpha 116.871462
_cell_angle_beta 56.755083
_cell_angle_gamma 74.431006
_cell_volume 606.574596
_symmetry_space_group_name_H-M "P -1"
_symmetry_group_IT_number 2
_symmetry_cell_setting 'triclinic'
loop_
_space_group_symop_operation_xyz
x,y,z
-x,-y,-z
loop_
_atom_site_type_symbol
_atom_site_label
_atom_site_fract_x
_atom_site_fract_y
_atom_site_fract_z
Si Si1 0.942600 0.698037 0.203623
Si Si2 0.604910 0.375650 0.673444
Si Si3 0.198755 0.768329 0.812685
Si Si4 0.824225 0.673548 0.788975
Si Si5 0.389552 0.932166 0.570958
Si Si6 0.261516 0.581783 0.147747
Si Si7 0.409864 0.865673 0.848129
Si Si8 0.811569 0.546850 0.381651
O O1 0.797616 0.726019 0.414795
O O2 0.093695 0.674045 0.187805
O O3 0.829085 0.888342 0.259713
O O4 0.000000 0.500000 0.000000
O O5 0.681243 0.329760 0.450685
O O6 0.531476 0.257776 0.659673
O O7 0.773062 0.296839 0.636183
O O8 0.416756 0.572753 0.964375
O O9 0.290679 0.799247 0.887865
O O10 0.212894 0.580556 0.756996
O O11 0.000000 0.000000 0.000000
O O12 0.717697 0.605601 0.885189
O O13 0.000000 0.500000 0.500000
O O14 0.966185 0.637269 0.797461
O O15 0.692026 0.909963 0.928824
O O16 0.412916 0.888679 0.694124
O O17 0.500000 0.000000 0.500000
O O18 0.633861 0.673817 0.659231
#
# Coordination Sequence:
#
# PCOD9038930 Si02
#       8
#     2   2   2   2   2   2   2   2
#     4  11  23  37  66  95 133 172 227 283 330 409
#     4  10  23  42  68  94 135 178 223 281 347 410
#     4  11  23  42  69  98 136 178 225 286 351 406
#     4  11  23  42  68  94 139 180 228 281 339 412
#     4  11  20  39  66  95 127 170 222 280 338 395
#     4  10  23  42  64  98 133 181 225 278 347 405
#     4  11  23  40  67  97 131 175 227 287 339 403
#     4  11  23  42  64 101 131 172 230 282 343 410
#
# _framework density 26.377628000000001
#
# number of rings (size 3 to 8) (size 9 to 14) (size 15 to 20)
#    0.000    1.250    2.500    4.125    3.500    1.000 
#    0.000    0.000    2.750    0.000    0.000    0.000 
#    0.000    0.000    0.000    0.000    0.000    0.000 
#
# Total GULP energy -89182.282109 kJ/mol
# GULP energy per Si atom -5573.892632 kJ/mol
# Density = 2.631759 g / cm^3
# Si number density = 26.377628 Si / 1000 Ang^3
#
#
#
# Elastic Constant Matrix: (Units=GPa)
#
#
# Indices 1 2 3 4 5 6 
#
# 1 129.9907 22.7656 8.9784 -7.9267 8.6952 6.0411
# 2 22.7656 73.7713 15.8771 -5.0875 -0.1727 1.2124
# 3 8.9784 15.8771 85.2618 -3.6904 -5.5550 5.6458
# 4 -7.9267 -5.0875 -3.6904 33.8644 -4.3010 4.4088
# 5 8.6952 -0.1727 -5.5550 -4.3010 46.1224 4.5393
# 6 6.0411 1.2124 5.6458 4.4088 4.5393 40.7984
#
#
#
# Elastic Compliance Matrix: (Units=1/GPa)
#
#
# Indices 1 2 3 4 5 6 
#
# 1 0.008375 -0.002380 -0.000388 0.001532 -0.001381 -0.001128
# 2 -0.002380 0.014916 -0.002445 0.001454 0.000340 0.000053
# 3 -0.000388 -0.002445 0.012540 0.001406 0.001899 -0.001968
# 4 0.001532 0.001454 0.001406 0.031213 0.003210 -0.004195
# 5 -0.001381 0.000340 0.001899 0.003210 0.022761 -0.002948
# 6 -0.001128 0.000053 -0.001968 -0.004195 -0.002948 0.025730
#
#
# Mechanical properties :
#
#
# Convention : Reuss Voigt Hill
#
# Bulk Modulus (GPa) = 39.36310 42.69623 41.02966
# Shear Modulus (GPa) = 37.19425 40.25056 38.72241
#
# Velocity S-wave (km/s) = 3.75916 3.91056 3.83561
# Velocity P-wave (km/s) = 5.81352 6.05076 5.93332
#
# Compressibility (1/GPa) = 0.02540450
#
# Stress axis : x y z
#
# Youngs Moduli (GPa) = 119.40840 67.04052 79.74670
#
# Poissons Ratio (x) = 0.15956 0.03091
# Poissons Ratio (y) = 0.28419 0.19501
# Poissons Ratio (z) = 0.04629 0.16394
#
# Static dielectric constant tensor:
#      x y z
#    x 2.212420 -0.031320 -0.017890 
#    y -0.031320 2.398540 -0.142190 
#    z -0.017890 -0.142190 2.214890 
# 
# From -- ./inp_files/428886.got.cif
#   From: 2010.05.17/outbox.cif.g08.bks.cpg/sg2_215_cif.got.tgz:428886.got - 2010.06.03 11:33:40.
