data_PCOD9038567
_publ_section_title
;
Structure prediction by ZEFSAII (Michael W. Deem and Ramdas Pophale) SiO2 
 PCOD9038567
Probable space group: P -1
;
_chemical_formula_sum "Si O2"
_cell_formula_units_Z 16
_cell_length_a 8.474885
_cell_length_b 9.947187
_cell_length_c 15.857962
_cell_angle_alpha 71.585131
_cell_angle_beta 144.286571
_cell_angle_gamma 111.913625
_cell_volume 723.771967
_symmetry_space_group_name_H-M "P -1"
_symmetry_group_IT_number 2
_symmetry_cell_setting 'triclinic'
loop_
_space_group_symop_operation_xyz
x,y,z
-x,-y,-z
loop_
_atom_site_type_symbol
_atom_site_label
_atom_site_fract_x
_atom_site_fract_y
_atom_site_fract_z
Si Si1 0.318962 0.892692 0.875208
Si Si2 0.703160 0.142306 0.794257
Si Si3 0.673627 0.826323 0.882313
Si Si4 0.580424 0.528894 0.823489
Si Si5 0.112929 0.079761 0.619680
Si Si6 0.006045 0.359485 0.585596
Si Si7 0.998178 0.416737 0.147548
Si Si8 0.727514 0.401842 0.626327
O O1 0.523187 0.848354 0.901043
O O2 0.141641 0.750883 0.870645
O O3 0.107864 0.970181 0.716719
O O4 0.500000 0.000000 0.000000
O O5 0.441957 0.145310 0.739663
O O6 0.667655 0.253322 0.683441
O O7 0.676681 0.970656 0.799757
O O8 0.007886 0.184491 0.959551
O O9 0.521441 0.681056 0.799287
O O10 0.321936 0.397633 0.746296
O O11 0.708343 0.551513 0.780585
O O12 0.808021 0.491680 0.991849
O O13 0.961556 0.209166 0.547543
O O14 0.000000 0.000000 0.500000
O O15 0.000000 0.500000 0.500000
O O16 0.810208 0.359140 0.579231
O O17 0.030754 0.492752 0.237429
O O18 0.500000 0.500000 0.500000
#
# Coordination Sequence:
#
# PCOD9038567 Si02
#       8
#     2   2   2   2   2   2   2   2
#     4  11  26  42  70 102 142 182 238 290 354 418
#     4  10  23  43  70  97 140 179 233 284 357 413
#     4  10  23  41  71 101 139 185 225 299 352 419
#     4  11  24  43  70 105 141 178 237 290 360 410
#     4  11  27  48  70 102 146 189 230 292 360 425
#     4  12  28  46  75  99 141 189 240 287 357 426
#     4  11  25  41  70 103 139 182 230 298 349 420
#     4  12  26  46  71 104 141 185 235 298 349 424
#
# _framework density 22.106408999999999
#
# number of rings (size 3 to 8) (size 9 to 14) (size 15 to 20)
#    0.000    1.000    1.250    3.750   17.500    1.000 
#    0.000    0.625    0.000    0.000    0.000    0.000 
#    0.000    0.000    0.000    0.000    0.000    0.000 
#
# Total GULP energy -89458.303888 kJ/mol
# GULP energy per Si atom -5591.143993 kJ/mol
# Density = 2.205609 g / cm^3
# Si number density = 22.106409 Si / 1000 Ang^3
#
#
#
# Elastic Constant Matrix: (Units=GPa)
#
#
# Indices 1 2 3 4 5 6 
#
# 1 80.1166 50.7754 18.8233 -17.3633 3.5866 -15.5893
# 2 50.7754 149.8364 43.0151 -28.4378 -24.2266 -12.7472
# 3 18.8233 43.0151 91.1521 -21.2670 -5.5188 -14.8803
# 4 -17.3633 -28.4378 -21.2670 42.1442 2.9105 -10.3797
# 5 3.5866 -24.2266 -5.5188 2.9105 29.7438 1.1078
# 6 -15.5893 -12.7472 -14.8803 -10.3797 1.1078 44.7396
#
#
#
# Elastic Compliance Matrix: (Units=1/GPa)
#
#
# Indices 1 2 3 4 5 6 
#
# 1 0.019443 -0.006414 0.001211 0.006610 -0.008255 0.007088
# 2 -0.006414 0.011941 -0.002760 0.003565 0.009607 0.000839
# 3 0.001211 -0.002760 0.014831 0.007735 -0.000637 0.006379
# 4 0.006610 0.003565 0.007735 0.036328 -0.000546 0.014334
# 5 -0.008255 0.009607 -0.000637 -0.000546 0.042433 -0.001528
# 6 0.007088 0.000839 0.006379 0.014334 -0.001528 0.030545
#
#
# Mechanical properties :
#
#
# Convention : Reuss Voigt Hill
#
# Bulk Modulus (GPa) = 33.01479 60.70363 46.85921
# Shear Modulus (GPa) = 27.54154 37.22494 32.38324
#
# Velocity S-wave (km/s) = 3.53351 4.10798 3.83153
# Velocity P-wave (km/s) = 5.62267 7.07249 6.38884
#
# Compressibility (1/GPa) = 0.03028946
#
# Stress axis : x y z
#
# Youngs Moduli (GPa) = 51.43160 83.74412 67.42815
#
# Poissons Ratio (x) = 0.53710 -0.08165
# Poissons Ratio (y) = 0.32986 0.18611
# Poissons Ratio (z) = -0.06228 0.23115
#
# Static dielectric constant tensor:
#      x y z
#    x 1.866870 0.041960 0.087940 
#    y 0.041960 1.861410 0.041700 
#    z 0.087940 0.041700 1.931350 
# 
# From -- ./inp_files/494775.got.cif
#   From: 2010.05.17/outbox.cif.g08.bks.cpg/sg2_248_cif.got.tgz:494775.got - 2010.06.03 11:33:40.
