data_PCOD9038678
_publ_section_title
;
Structure prediction by ZEFSAII (Michael W. Deem and Ramdas Pophale) SiO2 
 PCOD9038678
Probable space group: P -1
;
_chemical_formula_sum "Si O2"
_cell_formula_units_Z 16
_cell_length_a 12.742195
_cell_length_b 9.805954
_cell_length_c 15.211616
_cell_angle_alpha 51.667190
_cell_angle_beta 147.403848
_cell_angle_gamma 141.710489
_cell_volume 629.648154
_symmetry_space_group_name_H-M "P -1"
_symmetry_group_IT_number 2
_symmetry_cell_setting 'triclinic'
loop_
_space_group_symop_operation_xyz
x,y,z
-x,-y,-z
loop_
_atom_site_type_symbol
_atom_site_label
_atom_site_fract_x
_atom_site_fract_y
_atom_site_fract_z
Si Si1 0.633149 0.323655 0.164015
Si Si2 0.371367 0.440151 0.185820
Si Si3 0.097384 0.027783 0.460393
Si Si4 0.966193 0.385237 0.805649
Si Si5 0.343073 0.081945 0.884671
Si Si6 0.361706 0.569219 0.317812
Si Si7 0.002714 0.308053 0.616924
Si Si8 0.514717 0.884667 0.663872
O O1 0.529854 0.177850 0.237988
O O2 0.881794 0.422584 0.238951
O O3 0.759850 0.568906 0.200045
O O4 0.418626 0.172591 0.001211
O O5 0.559607 0.700968 0.190847
O O6 0.288118 0.440793 0.225276
O O7 0.462767 0.292624 0.295987
O O8 0.159514 0.361299 0.996984
O O9 0.393324 0.173107 0.622557
O O10 0.004951 0.814449 0.424305
O O11 0.000000 0.000000 0.500000
O O12 0.950545 0.094782 0.272899
O O13 0.846882 0.443299 0.771738
O O14 0.747885 0.138896 0.719529
O O15 0.500000 0.000000 0.000000
O O16 0.500000 0.500000 0.500000
O O17 0.727329 0.142491 0.527513
O O18 0.000000 0.500000 0.500000
#
# Coordination Sequence:
#
# PCOD9038678 Si02
#       8
#     2   2   2   2   2   2   2   2
#     4  10  26  44  76 109 150 187 261 293 381 442
#     4  11  26  48  74 108 154 194 250 311 378 444
#     4  12  26  46  74 106 145 194 249 301 372 442
#     4  11  26  49  74 110 152 196 246 317 373 448
#     4  11  26  42  75 110 146 198 245 316 369 447
#     4  12  29  46  73 107 151 197 249 307 376 449
#     4  10  23  41  73 106 144 191 242 310 364 440
#     4  11  24  46  78 110 148 203 242 314 382 437
#
# _framework density 25.411017999999999
#
# number of rings (size 3 to 8) (size 9 to 14) (size 15 to 20)
#    0.000    1.000    2.500    2.250   10.500    7.000 
#    0.000    0.000    0.000    0.000    0.000    0.000 
#    0.000    0.000    0.000    0.000    0.000    0.000 
#
# Total GULP energy -89273.980468 kJ/mol
# GULP energy per Si atom -5579.623779 kJ/mol
# Density = 2.535318 g / cm^3
# Si number density = 25.411018 Si / 1000 Ang^3
#
#
#
# Elastic Constant Matrix: (Units=GPa)
#
#
# Indices 1 2 3 4 5 6 
#
# 1 180.4508 50.2848 34.5286 -6.9582 -29.6307 -20.5546
# 2 50.2848 90.8715 16.3222 5.9088 -4.7886 -29.4019
# 3 34.5286 16.3222 94.8548 25.3361 -24.2360 -10.1756
# 4 -6.9582 5.9088 25.3361 41.6922 -9.1329 6.9197
# 5 -29.6307 -4.7886 -24.2360 -9.1329 54.8558 3.5268
# 6 -20.5546 -29.4019 -10.1756 6.9197 3.5268 56.9967
#
#
#
# Elastic Compliance Matrix: (Units=1/GPa)
#
#
# Indices 1 2 3 4 5 6 
#
# 1 0.007852 -0.004152 -0.002417 0.004223 0.003545 -0.000474
# 2 -0.004152 0.015860 0.000368 -0.004836 -0.001980 0.007459
# 3 -0.002417 0.000368 0.015093 -0.009311 0.003657 0.002917
# 4 0.004223 -0.004836 -0.009311 0.032978 0.003677 -0.006866
# 5 0.003545 -0.001980 0.003657 0.003677 0.022258 -0.000914
# 6 -0.000474 0.007459 0.002917 -0.006866 -0.000914 0.022633
#
#
# Mechanical properties :
#
#
# Convention : Reuss Voigt Hill
#
# Bulk Modulus (GPa) = 37.87330 63.16092 50.51711
# Shear Modulus (GPa) = 36.26442 48.37839 42.32141
#
# Velocity S-wave (km/s) = 3.78181 4.36803 4.08545
# Velocity P-wave (km/s) = 5.83148 7.09572 6.49444
#
# Compressibility (1/GPa) = 0.02640383
#
# Stress axis : x y z
#
# Youngs Moduli (GPa) = 127.35571 63.05361 66.25545
#
# Poissons Ratio (x) = 0.26179 0.16013
# Poissons Ratio (y) = 0.52877 -0.02441
# Poissons Ratio (z) = 0.30780 -0.02323
#
# Static dielectric constant tensor:
#      x y z
#    x 2.454960 -0.127040 0.567650 
#    y -0.127040 3.048200 -0.598590 
#    z 0.567650 -0.598590 2.942790 
# 
# From -- ./inp_files/515448.got.cif
#   From: 2010.05.17/outbox.cif.g08.bks.cpg/sg2_258_cif.got.tgz:515448.got - 2010.06.03 11:33:40.
