data_PCOD9038035
_publ_section_title
;
Structure prediction by ZEFSAII (Michael W. Deem and Ramdas Pophale) SiO2 
 PCOD9038035
Probable space group: P -1
;
_chemical_formula_sum "Si O2"
_cell_formula_units_Z 15
_cell_length_a 9.140173
_cell_length_b 8.678585
_cell_length_c 14.937049
_cell_angle_alpha 54.049245
_cell_angle_beta 58.885879
_cell_angle_gamma 48.427925
_cell_volume 701.578288
_symmetry_space_group_name_H-M "P -1"
_symmetry_group_IT_number 2
_symmetry_cell_setting 'triclinic'
loop_
_space_group_symop_operation_xyz
x,y,z
-x,-y,-z
loop_
_atom_site_type_symbol
_atom_site_label
_atom_site_fract_x
_atom_site_fract_y
_atom_site_fract_z
Si Si1 0.182857 0.003784 0.395600
Si Si2 0.007425 0.256463 0.177420
Si Si3 0.553613 0.450896 0.289552
Si Si4 0.500000 0.500000 0.500000
Si Si5 0.957266 0.343248 0.899871
Si Si6 0.311468 0.848271 0.925059
Si Si7 0.629746 0.111975 0.910447
Si Si8 0.672365 0.678275 0.730200
O O1 0.251545 0.155007 0.372763
O O2 0.108173 0.119730 0.283298
O O3 0.364758 0.754031 0.418556
O O4 0.000000 0.000000 0.500000
O O5 0.779601 0.320732 0.225008
O O6 0.015464 0.481644 0.109840
O O7 0.146532 0.087178 0.114443
O O8 0.565361 0.412561 0.404477
O O9 0.413142 0.378783 0.309399
O O10 0.458374 0.705653 0.201158
O O11 0.852234 0.468559 0.797223
O O12 0.812474 0.270911 0.015667
O O13 0.160997 0.114741 0.889036
O O14 0.491368 0.787670 0.822305
O O15 0.386347 0.773759 0.028437
O O16 0.500000 0.000000 0.000000
#
# Coordination Sequence:
#
# PCOD9038035 Si02
#       8
#     2   2   2   1   2   2   2   2
#     4  11  24  48  74  98 132 181 238 300 352 413
#     4  11  25  42  70 103 140 185 234 285 348 417
#     4  12  27  45  72 105 140 185 240 294 350 416
#     4  12  26  50  74  98 136 178 240 302 358 404
#     4  10  23  41  65  98 147 190 222 278 338 418
#     4  11  24  41  67 103 149 183 228 280 345 425
#     4  12  25  41  69 109 145 188 233 280 347 422
#     4  11  26  44  72 103 142 185 232 288 357 418
#
# _framework density 21.380365000000001
#
# number of rings (size 3 to 8) (size 9 to 14) (size 15 to 20)
#    0.000    0.800    4.000    2.800    7.467    1.600 
#    0.000    0.667    0.000    0.000    0.000    0.000 
#    0.000    0.000    0.000    0.000    0.000    0.000 
#
# Total GULP energy -83690.571443 kJ/mol
# GULP energy per Si atom -5579.371430 kJ/mol
# Density = 2.133170 g / cm^3
# Si number density = 21.380365 Si / 1000 Ang^3
#
#
#
# Elastic Constant Matrix: (Units=GPa)
#
#
# Indices 1 2 3 4 5 6 
#
# 1 81.1214 4.5204 36.5176 -0.4604 -3.8842 -2.3874
# 2 4.5204 80.9442 38.3159 -15.1111 5.9357 -15.1520
# 3 36.5176 38.3159 102.1134 2.9083 1.5870 6.3295
# 4 -0.4604 -15.1111 2.9083 47.0012 6.0943 10.5895
# 5 -3.8842 5.9357 1.5870 6.0943 37.3265 -9.7205
# 6 -2.3874 -15.1520 6.3295 10.5895 -9.7205 24.8728
#
#
#
# Elastic Compliance Matrix: (Units=1/GPa)
#
#
# Indices 1 2 3 4 5 6 
#
# 1 0.015892 0.003752 -0.007576 -0.000190 0.003257 0.007093
# 2 0.003752 0.020039 -0.009824 0.003961 0.000511 0.013581
# 3 -0.007576 -0.009824 0.016984 -0.001330 -0.002736 -0.011537
# 4 -0.000190 0.003961 -0.001330 0.026247 -0.007879 -0.011521
# 5 0.003257 0.000511 -0.002736 -0.007879 0.033030 0.017583
# 6 0.007093 0.013581 -0.011537 -0.011521 0.017583 0.063871
#
#
# Mechanical properties :
#
#
# Convention : Reuss Voigt Hill
#
# Bulk Modulus (GPa) = 39.03197 46.98742 43.00970
# Shear Modulus (GPa) = 23.59625 34.16178 28.87901
#
# Velocity S-wave (km/s) = 3.32571 4.00160 3.67921
# Velocity P-wave (km/s) = 5.74829 6.58597 6.18133
#
# Compressibility (1/GPa) = 0.02562002
#
# Stress axis : x y z
#
# Youngs Moduli (GPa) = 62.92386 49.90279 58.87899
#
# Poissons Ratio (x) = -0.18725 0.44608
# Poissons Ratio (y) = -0.23610 0.57841
# Poissons Ratio (z) = 0.47672 0.49023
#
# Static dielectric constant tensor:
#      x y z
#    x 1.829720 0.036010 0.011860 
#    y 0.036010 1.795340 -0.006940 
#    z 0.011860 -0.006940 1.745870 
# 
# From -- ./inp_files/491973.got.cif
#   From: 2010.05.17/outbox.cif.g08.bks.cpg/sg2_246_cif.got.tgz:491973.got - 2010.06.03 11:33:40.
