data_PCOD9038204
_publ_section_title
;
Structure prediction by ZEFSAII (Michael W. Deem and Ramdas Pophale) SiO2 
 PCOD9038204
Probable space group: P -1
;
_chemical_formula_sum "Si O2"
_cell_formula_units_Z 16
_cell_length_a 10.859652
_cell_length_b 14.021525
_cell_length_c 8.272576
_cell_angle_alpha 48.703413
_cell_angle_beta 59.578876
_cell_angle_gamma 87.939742
_cell_volume 724.493327
_symmetry_space_group_name_H-M "P -1"
_symmetry_group_IT_number 2
_symmetry_cell_setting 'triclinic'
loop_
_space_group_symop_operation_xyz
x,y,z
-x,-y,-z
loop_
_atom_site_type_symbol
_atom_site_label
_atom_site_fract_x
_atom_site_fract_y
_atom_site_fract_z
Si Si1 0.795198 0.818969 0.269764
Si Si2 0.782631 0.405710 0.114311
Si Si3 0.624340 0.847551 0.802035
Si Si4 0.645608 0.652688 0.277694
Si Si5 0.858916 0.070777 0.178849
Si Si6 0.669029 0.612376 0.834359
Si Si7 0.842162 0.481633 0.338839
Si Si8 0.716546 0.274055 0.960140
O O1 0.640993 0.712563 0.390944
O O2 0.807924 0.707130 0.510274
O O3 0.788210 0.946608 0.228267
O O4 0.954383 0.888342 0.978380
O O5 0.741376 0.537340 0.985567
O O6 0.691319 0.313744 0.117732
O O7 0.968094 0.453950 0.890934
O O8 0.762989 0.373475 0.357199
O O9 0.631755 0.728409 0.814592
O O10 0.762517 0.000926 0.484871
O O11 0.648888 0.781608 0.024904
O O12 0.451150 0.835328 0.890252
O O13 0.500000 0.500000 0.500000
O O14 0.790342 0.608765 0.228504
O O15 0.830288 0.200181 0.992535
O O16 0.500000 0.500000 0.000000
O O17 0.789743 0.403236 0.635907
#
# Coordination Sequence:
#
# PCOD9038204 Si02
#       8
#     2   2   2   2   2   2   2   2
#     4  10  23  41  67  90 124 176 215 269 317 382
#     4  11  23  38  62  97 131 170 209 271 337 385
#     4  11  23  38  64  90 127 168 213 265 316 390
#     4  12  22  41  66  98 130 155 216 280 332 382
#     4  10  24  45  61  91 125 178 228 243 319 402
#     4  11  19  37  64  93 125 163 213 269 326 380
#     4  11  24  38  62 100 130 166 215 270 339 389
#     4  12  22  42  64  90 134 171 213 271 319 392
#
# _framework density 22.084401
#
# number of rings (size 3 to 8) (size 9 to 14) (size 15 to 20)
#    0.000    1.000    3.750    3.750    0.000    0.500 
#    2.250    0.625    0.000    0.000    0.000    0.000 
#    0.000    0.000    0.000    0.000    0.000    0.000 
#
# Total GULP energy -89173.862756 kJ/mol
# GULP energy per Si atom -5573.366422 kJ/mol
# Density = 2.203414 g / cm^3
# Si number density = 22.084401 Si / 1000 Ang^3
#
#
#
# Elastic Constant Matrix: (Units=GPa)
#
#
# Indices 1 2 3 4 5 6 
#
# 1 67.5287 9.5611 1.0619 0.4785 17.5779 -6.6366
# 2 9.5611 76.8701 7.3270 -0.3602 12.7035 19.3621
# 3 1.0619 7.3270 51.0024 12.1963 18.9661 11.0391
# 4 0.4785 -0.3602 12.1963 16.5373 0.0388 -0.2091
# 5 17.5779 12.7035 18.9661 0.0388 33.2351 8.3720
# 6 -6.6366 19.3621 11.0391 -0.2091 8.3720 30.3724
#
#
#
# Elastic Compliance Matrix: (Units=1/GPa)
#
#
# Indices 1 2 3 4 5 6 
#
# 1 0.019529 -0.002634 0.004164 -0.003558 -0.013760 0.008202
# 2 -0.002634 0.016381 0.001225 -0.000599 -0.002878 -0.010675
# 3 0.004164 0.001225 0.034693 -0.025719 -0.020687 -0.006955
# 4 -0.003558 -0.000599 -0.025719 0.079558 0.015369 0.005264
# 5 -0.013760 -0.002878 -0.020687 0.015369 0.052257 -0.007952
# 6 0.008202 -0.010675 -0.006955 0.005264 -0.007952 0.046278
#
#
# Mechanical properties :
#
#
# Convention : Reuss Voigt Hill
#
# Bulk Modulus (GPa) = 13.13825 25.70015 19.41920
# Shear Modulus (GPa) = 18.61810 27.85904 23.23857
#
# Velocity S-wave (km/s) = 2.90667 3.55559 3.24738
# Velocity P-wave (km/s) = 4.15054 5.34030 4.78256
#
# Compressibility (1/GPa) = 0.07611365
#
# Stress axis : x y z
#
# Youngs Moduli (GPa) = 51.20568 61.04488 28.82463
#
# Poissons Ratio (x) = 0.16082 -0.12004
# Poissons Ratio (y) = 0.13490 -0.03532
# Poissons Ratio (z) = -0.21324 -0.07480
#
# Static dielectric constant tensor:
#      x y z
#    x 1.861240 0.037500 0.009150 
#    y 0.037500 1.872550 0.076210 
#    z 0.009150 0.076210 1.919320 
# 
# From -- ./inp_files/269555.got.cif
#   From: 2010.05.17/outbox.cif.g08.bks.cpg/sg2_135_cif.got.tgz:269555.got - 2010.06.03 11:33:40.
