data_PCOD9038751
_publ_section_title
;
Structure prediction by ZEFSAII (Michael W. Deem and Ramdas Pophale) SiO2 
 PCOD9038751
Probable space group: P -1
;
_chemical_formula_sum "Si O2"
_cell_formula_units_Z 14
_cell_length_a 12.521494
_cell_length_b 21.980558
_cell_length_c 6.274275
_cell_angle_alpha 116.891551
_cell_angle_beta 56.806348
_cell_angle_gamma 155.828216
_cell_volume 586.091488
_symmetry_space_group_name_H-M "P -1"
_symmetry_group_IT_number 2
_symmetry_cell_setting 'triclinic'
loop_
_space_group_symop_operation_xyz
x,y,z
-x,-y,-z
loop_
_atom_site_type_symbol
_atom_site_label
_atom_site_fract_x
_atom_site_fract_y
_atom_site_fract_z
Si Si1 0.033681 0.064316 0.301669
Si Si2 0.571367 0.269753 0.543573
Si Si3 0.673865 0.616739 0.184494
Si Si4 0.894808 0.649682 0.382195
Si Si5 0.012177 0.451759 0.720014
Si Si6 0.952419 0.144617 0.190476
Si Si7 0.658941 0.914220 0.853695
O O1 0.057501 0.137365 0.228610
O O2 0.753599 0.885482 0.276068
O O3 0.931374 0.047281 0.610048
O O4 0.710646 0.865049 0.829108
O O5 0.771784 0.350412 0.648579
O O6 0.576252 0.210545 0.267487
O O7 0.697769 0.395783 0.485073
O O8 0.878037 0.665776 0.180531
O O9 0.430727 0.520662 0.463781
O O10 0.500000 0.500000 0.000000
O O11 0.848877 0.751098 0.063381
O O12 0.033445 0.777509 0.570744
O O13 0.029400 0.642428 0.286280
O O14 0.000000 0.500000 0.000000
O O15 0.674656 0.980671 0.118550
#
# Coordination Sequence:
#
# PCOD9038751 Si02
#       7
#     2   2   2   2   2   2   2
#     4   9  20  38  62  98 132 155 203 256 311 383
#     4   9  23  42  63  93 122 158 220 257 303 372
#     4   9  21  38  60  93 128 163 200 252 319 365
#     4  10  23  42  60  94 129 163 213 259 304 377
#     4  11  25  45  66  83 124 174 219 258 300 365
#     4  11  20  36  66  97 128 160 195 257 331 376
#     4   9  20  37  63  97 130 159 197 258 320 373
#
# _framework density 23.887056999999999
#
# number of rings (size 3 to 8) (size 9 to 14) (size 15 to 20)
#    0.857    1.429    0.000    1.286    4.000    8.000 
#    5.143    1.429    0.000    0.000    0.000    0.000 
#    0.000    0.000    0.000    0.000    0.000    0.000 
#
# Total GULP energy -77996.494232 kJ/mol
# GULP energy per Si atom -5571.178159 kJ/mol
# Density = 2.383269 g / cm^3
# Si number density = 23.887057 Si / 1000 Ang^3
#
#
#
# Elastic Constant Matrix: (Units=GPa)
#
#
# Indices 1 2 3 4 5 6 
#
# 1 109.2275 61.4070 84.7396 14.0309 27.9168 -30.3950
# 2 61.4070 117.0186 47.3807 25.5975 11.3665 -16.6421
# 3 84.7396 47.3807 116.6675 34.2642 36.4155 -21.6361
# 4 14.0309 25.5975 34.2642 70.1379 -5.3289 10.3736
# 5 27.9168 11.3665 36.4155 -5.3289 42.9650 0.2402
# 6 -30.3950 -16.6421 -21.6361 10.3736 0.2402 39.1514
#
#
#
# Elastic Compliance Matrix: (Units=1/GPa)
#
#
# Indices 1 2 3 4 5 6 
#
# 1 0.029116 -0.007811 -0.016564 0.003573 -0.002421 0.009199
# 2 -0.007811 0.013108 0.002581 -0.004905 -0.001201 0.002241
# 3 -0.016564 0.002581 0.032556 -0.016615 -0.019635 0.010752
# 4 0.003573 -0.004905 -0.016615 0.027034 0.016499 -0.015757
# 5 -0.002421 -0.001201 -0.019635 0.016499 0.043954 -0.017882
# 6 0.009199 0.002241 0.010752 -0.015757 -0.017882 0.043862
#
#
# Mechanical properties :
#
#
# Convention : Reuss Voigt Hill
#
# Bulk Modulus (GPa) = 32.05840 81.10759 56.58299
# Shear Modulus (GPa) = 20.52414 40.40995 30.46705
#
# Velocity S-wave (km/s) = 2.93442 4.11750 3.57524
# Velocity P-wave (km/s) = 4.99310 7.52552 6.38610
#
# Compressibility (1/GPa) = 0.03119307
#
# Stress axis : x y z
#
# Youngs Moduli (GPa) = 34.34499 76.29098 30.71588
#
# Poissons Ratio (x) = 0.59589 0.50877
# Poissons Ratio (y) = 0.26826 -0.07927
# Poissons Ratio (z) = 0.56889 -0.19690
#
# Static dielectric constant tensor:
#      x y z
#    x 2.003050 0.007130 0.107460 
#    y 0.007130 2.104460 -0.112250 
#    z 0.107460 -0.112250 2.254540 
# 
# From -- ./inp_files/83274.got.cif
#   From: 2010.05.17/outbox.cif.g08.bks.cpg/sg2_42_cif.got.tgz:83274.got - 2010.06.03 11:33:40.
