data_PCOD9038425
_publ_section_title
;
Structure prediction by ZEFSAII (Michael W. Deem and Ramdas Pophale) SiO2 
 PCOD9038425
Probable space group: P -1
;
_chemical_formula_sum "Si O2"
_cell_formula_units_Z 12
_cell_length_a 9.707625
_cell_length_b 10.723774
_cell_length_c 7.202148
_cell_angle_alpha 122.390560
_cell_angle_beta 133.793570
_cell_angle_gamma 63.467143
_cell_volume 453.438250
_symmetry_space_group_name_H-M "P -1"
_symmetry_group_IT_number 2
_symmetry_cell_setting 'triclinic'
loop_
_space_group_symop_operation_xyz
x,y,z
-x,-y,-z
loop_
_atom_site_type_symbol
_atom_site_label
_atom_site_fract_x
_atom_site_fract_y
_atom_site_fract_z
Si Si1 0.899290 0.586050 0.295951
Si Si2 0.209726 0.922242 0.062722
Si Si3 0.979641 0.240085 0.771035
Si Si4 0.744850 0.759504 0.630509
Si Si5 0.596199 0.389072 0.842194
Si Si6 0.282309 0.963429 0.753441
O O1 0.034727 0.633139 0.297564
O O2 0.078495 0.270151 0.084023
O O3 0.000000 0.500000 0.500000
O O4 0.790313 0.720278 0.426030
O O5 0.295034 0.763669 0.094677
O O6 0.325392 0.065213 0.295740
O O7 0.215809 0.893917 0.827068
O O8 0.000000 0.000000 0.000000
O O9 0.748620 0.488732 0.980999
O O10 0.790960 0.154768 0.551997
O O11 0.144968 0.118103 0.738937
O O12 0.582822 0.662940 0.473914
O O13 0.500000 0.500000 0.000000
O O14 0.500000 0.000000 0.000000
#
# Coordination Sequence:
#
# PCOD9038425 Si02
#       6
#     2   2   2   2   2   2
#     4  11  23  44  70  99 148 197 236 304 384 441
#     4  11  22  44  74 108 145 195 256 316 370 446
#     4  10  23  45  67 103 148 188 250 308 373 452
#     4  10  23  43  67 104 142 189 252 306 363 442
#     4  10  23  41  69 108 148 197 248 307 381 457
#     4  10  23  43  72 106 149 194 243 316 384 432
#
# _framework density 26.464466000000002
#
# number of rings (size 3 to 8) (size 9 to 14) (size 15 to 20)
#    0.000    1.667    0.000    3.500    4.667    1.333 
#   24.000    0.000    0.000    0.000    0.000    0.000 
#    0.000    0.000    0.000    0.000    0.000    0.000 
#
# Total GULP energy -67049.496265 kJ/mol
# GULP energy per Si atom -5587.458022 kJ/mol
# Density = 2.640423 g / cm^3
# Si number density = 26.464466 Si / 1000 Ang^3
#
#
#
# Elastic Constant Matrix: (Units=GPa)
#
#
# Indices 1 2 3 4 5 6 
#
# 1 122.5069 38.6177 64.2115 -10.3072 5.7719 -2.3766
# 2 38.6177 107.4430 38.4735 5.7886 -5.1840 -1.4076
# 3 64.2115 38.4735 204.9439 9.9858 36.8821 2.5850
# 4 -10.3072 5.7886 9.9858 44.4611 2.2953 6.2491
# 5 5.7719 -5.1840 36.8821 2.2953 53.4605 -7.0017
# 6 -2.3766 -1.4076 2.5850 6.2491 -7.0017 29.5626
#
#
#
# Elastic Compliance Matrix: (Units=1/GPa)
#
#
# Indices 1 2 3 4 5 6 
#
# 1 0.011060 -0.002988 -0.003196 0.003580 0.000622 0.000417
# 2 -0.002988 0.011222 -0.001589 -0.002160 0.002804 0.001554
# 3 -0.003196 -0.001589 0.007166 -0.001640 -0.004915 -0.001777
# 4 0.003580 -0.002160 -0.001640 0.024763 -0.001208 -0.005192
# 5 0.000622 0.002804 -0.004915 -0.001208 0.023186 0.006360
# 6 0.000417 0.001554 -0.001777 -0.005192 0.006360 0.036693
#
#
# Mechanical properties :
#
#
# Convention : Reuss Voigt Hill
#
# Bulk Modulus (GPa) = 71.93583 79.72214 75.82898
# Shear Modulus (GPa) = 37.23807 45.06957 41.15382
#
# Velocity S-wave (km/s) = 3.75520 4.13125 3.94770
# Velocity P-wave (km/s) = 6.78550 7.27639 7.03523
#
# Compressibility (1/GPa) = 0.01390128
#
# Stress axis : x y z
#
# Youngs Moduli (GPa) = 90.41701 89.10717 139.55001
#
# Poissons Ratio (x) = 0.26627 0.44598
# Poissons Ratio (y) = 0.27019 0.22180
# Poissons Ratio (z) = 0.28896 0.14163
#
# Static dielectric constant tensor:
#      x y z
#    x 2.343950 -0.039290 0.004710 
#    y -0.039290 2.162540 0.048690 
#    z 0.004710 0.048690 2.197320 
# 
# From -- ./inp_files/191011.got.cif
#   From: 2010.05.17/outbox.cif.g08.bks.cpg/sg2_96_cif.got.tgz:191011.got - 2010.06.03 11:33:40.
