data_PCOD9038332
_publ_section_title
;
Structure prediction by ZEFSAII (Michael W. Deem and Ramdas Pophale) SiO2 
 PCOD9038332
Probable space group: P -1
;
_chemical_formula_sum "Si O2"
_cell_formula_units_Z 14
_cell_length_a 11.867966
_cell_length_b 8.908599
_cell_length_c 6.290248
_cell_angle_alpha 95.264349
_cell_angle_beta 94.417561
_cell_angle_gamma 102.232071
_cell_volume 644.021549
_symmetry_space_group_name_H-M "P -1"
_symmetry_group_IT_number 2
_symmetry_cell_setting 'triclinic'
loop_
_space_group_symop_operation_xyz
x,y,z
-x,-y,-z
loop_
_atom_site_type_symbol
_atom_site_label
_atom_site_fract_x
_atom_site_fract_y
_atom_site_fract_z
Si Si1 0.178834 0.828692 0.926047
Si Si2 0.587036 0.171840 0.267608
Si Si3 0.567983 0.845153 0.412827
Si Si4 0.577483 0.668245 0.005565
Si Si5 0.070219 0.599549 0.214308
Si Si6 0.241074 0.144056 0.223890
Si Si7 0.949745 0.706258 0.594823
O O1 0.283261 0.799039 0.792343
O O2 0.062657 0.777108 0.763657
O O3 0.166863 0.724339 0.123741
O O4 0.199960 0.005523 0.032354
O O5 0.549565 0.237494 0.493895
O O6 0.508513 0.231137 0.091228
O O7 0.551231 0.989856 0.291266
O O8 0.665343 0.903326 0.611537
O O9 0.614329 0.730131 0.252196
O O10 0.688532 0.705390 0.873858
O O11 0.500000 0.500000 0.000000
O O12 0.102311 0.469848 0.355471
O O13 0.992108 0.688898 0.358287
O O14 0.000000 0.500000 0.000000
O O15 0.140339 0.188668 0.353852
#
# Coordination Sequence:
#
# PCOD9038332 Si02
#       7
#     2   2   2   2   2   2   2
#     4  11  23  40  68  99 128 176 217 263 327 381
#     4  10  23  41  68  94 126 169 220 265 317 398
#     4  10  23  43  66  93 133 171 218 267 325 384
#     4  11  25  45  65  97 131 171 215 274 332 379
#     4   9  22  43  63  90 128 174 218 260 320 384
#     4  11  25  41  67 101 131 168 221 271 324 384
#     4  10  23  45  64  97 135 170 217 264 326 392
#
# _framework density 21.738401
#
# number of rings (size 3 to 8) (size 9 to 14) (size 15 to 20)
#    0.000    1.714    1.429    0.857    8.000    5.143 
#   10.286    0.000    0.000    0.000    0.000    0.000 
#    0.000    0.000    0.000    0.000    0.000    0.000 
#
# Total GULP energy -78134.234935 kJ/mol
# GULP energy per Si atom -5581.016781 kJ/mol
# Density = 2.168892 g / cm^3
# Si number density = 21.738401 Si / 1000 Ang^3
#
#
#
# Elastic Constant Matrix: (Units=GPa)
#
#
# Indices 1 2 3 4 5 6 
#
# 1 126.6240 32.5532 42.6956 -3.8653 -28.7213 -3.3677
# 2 32.5532 54.2544 43.2170 -6.9955 -4.9201 21.7887
# 3 42.6956 43.2170 97.7001 -0.9384 -17.0450 5.7529
# 4 -3.8653 -6.9955 -0.9384 31.7011 10.5159 -8.5722
# 5 -28.7213 -4.9201 -17.0450 10.5159 27.7683 0.1198
# 6 -3.3677 21.7887 5.7529 -8.5722 0.1198 24.7861
#
#
#
# Elastic Compliance Matrix: (Units=1/GPa)
#
#
# Indices 1 2 3 4 5 6 
#
# 1 0.014641 -0.014650 0.001807 -0.002583 0.014576 0.013485
# 2 -0.014650 0.065034 -0.022497 0.003903 -0.018691 -0.052498
# 3 0.001807 -0.022497 0.020687 -0.004511 0.012230 0.013601
# 4 -0.002583 0.003903 -0.004511 0.042053 -0.020726 0.011909
# 5 0.014576 -0.018691 0.012230 -0.020726 0.063098 0.008100
# 6 0.013485 -0.052498 0.013601 0.011909 0.008100 0.089250
#
#
# Mechanical properties :
#
#
# Convention : Reuss Voigt Hill
#
# Bulk Modulus (GPa) = 33.69305 57.27891 45.48598
# Shear Modulus (GPa) = 13.32132 27.52529 20.42330
#
# Velocity S-wave (km/s) = 2.47817 3.56224 3.06846
# Velocity P-wave (km/s) = 4.87046 6.58223 5.78996
#
# Compressibility (1/GPa) = 0.02967971
#
# Stress axis : x y z
#
# Youngs Moduli (GPa) = 68.30290 15.37652 48.33957
#
# Poissons Ratio (x) = 0.22527 -0.08733
# Poissons Ratio (y) = 1.00066 1.08751
# Poissons Ratio (z) = -0.12340 0.34593
#
# Static dielectric constant tensor:
#      x y z
#    x 1.781430 0.002820 -0.029130 
#    y 0.002820 1.815250 0.009240 
#    z -0.029130 0.009240 1.830950 
# 
# From -- ./inp_files/52021.got.cif
#   From: 2010.05.17/outbox.cif.g08.bks.cpg/sg2_27_cif.got.tgz:52021.got - 2010.06.03 11:33:40.
