data_PCOD9038301
_publ_section_title
;
Structure prediction by ZEFSAII (Michael W. Deem and Ramdas Pophale) SiO2 
 PCOD9038301
Probable space group: P -1
;
_chemical_formula_sum "Si O2"
_cell_formula_units_Z 13
_cell_length_a 17.124913
_cell_length_b 11.698512
_cell_length_c 6.890729
_cell_angle_alpha 64.089758
_cell_angle_beta 80.012215
_cell_angle_gamma 27.945961
_cell_volume 502.499642
_symmetry_space_group_name_H-M "P -1"
_symmetry_group_IT_number 2
_symmetry_cell_setting 'triclinic'
loop_
_space_group_symop_operation_xyz
x,y,z
-x,-y,-z
loop_
_atom_site_type_symbol
_atom_site_label
_atom_site_fract_x
_atom_site_fract_y
_atom_site_fract_z
Si Si1 0.000000 0.500000 0.500000
Si Si2 0.412556 0.317610 0.803005
Si Si3 0.058076 0.657965 0.614573
Si Si4 0.038192 0.606379 0.114403
Si Si5 0.636882 0.335725 0.246063
Si Si6 0.366218 0.303282 0.248845
Si Si7 0.623203 0.079237 0.544364
O O1 0.094204 0.484914 0.591533
O O2 0.124826 0.208175 0.812787
O O3 0.398530 0.484482 0.751678
O O4 0.586227 0.057156 0.771933
O O5 0.224100 0.522672 0.645087
O O6 0.433927 0.212814 0.068431
O O7 0.866516 0.005454 0.356448
O O8 0.021559 0.653213 0.855728
O O9 0.149036 0.571890 0.154516
O O10 0.180335 0.272341 0.365488
O O11 0.629027 0.219087 0.465099
O O12 0.500000 0.500000 0.000000
O O13 0.435919 0.325908 0.311070
O O14 0.500000 0.000000 0.500000
#
# Coordination Sequence:
#
# PCOD9038301 Si02
#       7
#     1   2   2   2   2   2   2
#     4  12  22  42  68 102 136 176 218 292 350 386
#     4  11  24  45  71  99 141 185 222 279 347 406
#     4  11  26  46  69 104 137 179 232 283 347 403
#     4  10  23  41  68 101 139 173 227 290 337 408
#     4  12  25  47  69  98 143 187 228 282 333 416
#     4   9  20  39  63  99 134 170 221 281 330 398
#     4  11  22  42  69 104 134 177 234 275 342 407
#
# _framework density 25.870664000000001
#
# number of rings (size 3 to 8) (size 9 to 14) (size 15 to 20)
#    0.000    1.231    3.077    2.308    0.000    9.231 
#    2.769    0.769    0.000    0.000    0.000    0.000 
#    0.000    0.000    0.000    0.000    0.000    0.000 
#
# Total GULP energy -72411.695027 kJ/mol
# GULP energy per Si atom -5570.130387 kJ/mol
# Density = 2.581178 g / cm^3
# Si number density = 25.870664 Si / 1000 Ang^3
#
#
#
# Elastic Constant Matrix: (Units=GPa)
#
#
# Indices 1 2 3 4 5 6 
#
# 1 215.3714 42.9726 44.4992 -6.0692 27.0116 11.6053
# 2 42.9726 68.2354 26.8299 -3.0919 10.9719 1.4374
# 3 44.4992 26.8299 87.6538 9.6363 10.0348 -13.8771
# 4 -6.0692 -3.0919 9.6363 32.4113 -4.9782 -1.6588
# 5 27.0116 10.9719 10.0348 -4.9782 46.7365 4.6726
# 6 11.6053 1.4374 -13.8771 -1.6588 4.6726 39.3517
#
#
#
# Elastic Compliance Matrix: (Units=1/GPa)
#
#
# Indices 1 2 3 4 5 6 
#
# 1 0.006074 -0.002355 -0.002642 0.001268 -0.002021 -0.002344
# 2 -0.002355 0.018387 -0.004737 0.002414 -0.001545 -0.001362
# 3 -0.002642 -0.004737 0.016121 -0.005721 -0.002096 0.006645
# 4 0.001268 0.002414 -0.005721 0.033506 0.003648 -0.001500
# 5 -0.002021 -0.001545 -0.002096 0.003648 0.024045 -0.002788
# 6 -0.002344 -0.001362 0.006645 -0.001500 -0.002788 0.028764
#
#
# Mechanical properties :
#
#
# Convention : Reuss Voigt Hill
#
# Bulk Modulus (GPa) = 47.36019 66.65156 57.00587
# Shear Modulus (GPa) = 32.59404 40.83049 36.71227
#
# Velocity S-wave (km/s) = 3.55334 3.97703 3.77114
# Velocity P-wave (km/s) = 5.93137 6.84897 6.40662
#
# Compressibility (1/GPa) = 0.02111478
#
# Stress axis : x y z
#
# Youngs Moduli (GPa) = 164.62523 54.38559 62.03238
#
# Poissons Ratio (x) = 0.12807 0.16389
# Poissons Ratio (y) = 0.38766 0.29384
# Poissons Ratio (z) = 0.43495 0.25762
#
# Static dielectric constant tensor:
#      x y z
#    x 2.416430 -0.524290 -0.263290 
#    y -0.524290 2.857350 0.499630 
#    z -0.263290 0.499630 2.485360 
# 
# From -- ./inp_files/108932.got.cif
#   From: 2010.05.17/outbox.cif.g08.bks.cpg/sg2_55_cif.got.tgz:108932.got - 2010.06.03 11:33:40.
