data_PCOD9038228
_publ_section_title
;
Structure prediction by ZEFSAII (Michael W. Deem and Ramdas Pophale) SiO2 
 PCOD9038228
Probable space group: P -1
;
_chemical_formula_sum "Si O2"
_cell_formula_units_Z 12
_cell_length_a 5.205758
_cell_length_b 18.064415
_cell_length_c 6.760001
_cell_angle_alpha 47.206347
_cell_angle_beta 86.428776
_cell_angle_gamma 80.653837
_cell_volume 459.275921
_symmetry_space_group_name_H-M "P -1"
_symmetry_group_IT_number 2
_symmetry_cell_setting 'triclinic'
loop_
_space_group_symop_operation_xyz
x,y,z
-x,-y,-z
loop_
_atom_site_type_symbol
_atom_site_label
_atom_site_fract_x
_atom_site_fract_y
_atom_site_fract_z
Si Si1 0.048463 0.122662 0.052776
Si Si2 0.113411 0.175480 0.505650
Si Si3 0.151238 0.407203 0.032294
Si Si4 0.668466 0.096233 0.428591
Si Si5 0.536221 0.453159 0.368102
Si Si6 0.074585 0.350700 0.684488
O O1 0.757472 0.116710 0.162081
O O2 0.227799 0.022183 0.311633
O O3 0.081490 0.125731 0.810698
O O4 0.124065 0.229384 0.929421
O O5 0.134899 0.294490 0.307806
O O6 0.378451 0.126323 0.470402
O O7 0.857132 0.159692 0.426350
O O8 0.434113 0.444572 0.942690
O O9 0.060020 0.402506 0.811803
O O10 0.000000 0.500000 0.000000
O O11 0.500000 0.500000 0.500000
O O12 0.307543 0.387666 0.484021
O O13 0.810613 0.378631 0.520142
#
# Coordination Sequence:
#
# PCOD9038228 Si02
#       6
#     2   2   2   2   2   2
#     4  11  26  49  80 106 151 196 237 310 373 428
#     4  12  27  48  75 112 149 191 249 301 364 444
#     4  11  24  45  68 105 145 186 242 299 356 429
#     4  11  28  49  76 112 147 191 249 301 368 445
#     4  10  23  41  67  94 136 185 231 285 348 422
#     4  11  24  45  69 102 140 187 238 290 360 430
#
# _framework density 26.128086
#
# number of rings (size 3 to 8) (size 9 to 14) (size 15 to 20)
#    0.000    1.000    1.667    4.000    4.667    9.333 
#    0.000   10.833    0.000    0.000    0.000    0.000 
#    0.000    0.000    0.000    0.000    0.000    0.000 
#
# Total GULP energy -67176.809529 kJ/mol
# GULP energy per Si atom -5598.067461 kJ/mol
# Density = 2.606862 g / cm^3
# Si number density = 26.128086 Si / 1000 Ang^3
#
#
#
# Elastic Constant Matrix: (Units=GPa)
#
#
# Indices 1 2 3 4 5 6 
#
# 1 118.2728 23.6862 36.0632 10.1344 -18.9722 7.5078
# 2 23.6862 116.2871 46.9139 3.3863 -12.0883 1.8389
# 3 36.0632 46.9139 206.8673 2.7376 -30.5711 -7.4114
# 4 10.1344 3.3863 2.7376 66.7349 -1.0787 -20.0222
# 5 -18.9722 -12.0883 -30.5711 -1.0787 38.8796 -4.5252
# 6 7.5078 1.8389 -7.4114 -20.0222 -4.5252 39.5323
#
#
#
# Elastic Compliance Matrix: (Units=1/GPa)
#
#
# Indices 1 2 3 4 5 6 
#
# 1 0.009889 -0.001144 -0.001052 -0.002173 0.003262 -0.002749
# 2 -0.001144 0.009711 -0.001893 -0.000441 0.000878 -0.000712
# 3 -0.001052 -0.001893 0.006107 0.000751 0.003985 0.002269
# 4 -0.002173 -0.000441 0.000751 0.018315 0.001062 0.009972
# 5 0.003262 0.000878 0.003985 0.001062 0.031237 0.004200
# 6 -0.002749 -0.000712 0.002269 0.009972 0.004200 0.031807
#
#
# Mechanical properties :
#
#
# Convention : Reuss Voigt Hill
#
# Bulk Modulus (GPa) = 57.04731 72.75042 64.89886
# Shear Modulus (GPa) = 41.29235 51.34694 46.31965
#
# Velocity S-wave (km/s) = 3.97971 4.43787 4.21502
# Velocity P-wave (km/s) = 6.55733 7.35960 6.97002
#
# Compressibility (1/GPa) = 0.01752931
#
# Stress axis : x y z
#
# Youngs Moduli (GPa) = 101.12344 102.97157 163.74720
#
# Poissons Ratio (x) = 0.11779 0.17229
# Poissons Ratio (y) = 0.11568 0.30996
# Poissons Ratio (z) = 0.10640 0.19492
#
# Static dielectric constant tensor:
#      x y z
#    x 2.152120 -0.011570 0.043650 
#    y -0.011570 2.084080 0.064000 
#    z 0.043650 0.064000 2.125420 
# 
# From -- ./inp_files/140960.got.cif
#   From: 2010.05.17/outbox.cif.g08.bks.cpg/sg2_71_cif.got.tgz:140960.got - 2010.06.03 11:33:40.
