data_PCOD9038212
_publ_section_title
;
Structure prediction by ZEFSAII (Michael W. Deem and Ramdas Pophale) SiO2 
 PCOD9038212
Probable space group: P -1
;
_chemical_formula_sum "Si O2"
_cell_formula_units_Z 16
_cell_length_a 8.894601
_cell_length_b 9.291080
_cell_length_c 17.503978
_cell_angle_alpha 131.305209
_cell_angle_beta 100.182486
_cell_angle_gamma 51.831419
_cell_volume 786.179408
_symmetry_space_group_name_H-M "P -1"
_symmetry_group_IT_number 2
_symmetry_cell_setting 'triclinic'
loop_
_space_group_symop_operation_xyz
x,y,z
-x,-y,-z
loop_
_atom_site_type_symbol
_atom_site_label
_atom_site_fract_x
_atom_site_fract_y
_atom_site_fract_z
Si Si1 0.856172 0.971862 0.672593
Si Si2 0.642498 0.775605 0.550667
Si Si3 0.836619 0.248777 0.125619
Si Si4 0.283559 0.568360 0.418836
Si Si5 0.510842 0.632652 0.117366
Si Si6 0.289362 0.636431 0.675550
Si Si7 0.988816 0.163274 0.649801
Si Si8 0.229014 0.294833 0.765786
O O1 0.808189 0.806839 0.574160
O O2 0.087563 0.814785 0.666374
O O3 0.709944 0.112666 0.782452
O O4 0.821140 0.165278 0.674219
O O5 0.692444 0.596809 0.565959
O O6 0.641510 0.644365 0.429463
O O7 0.420803 0.060680 0.648830
O O8 0.618100 0.426349 0.123874
O O9 0.791870 0.235332 0.203738
O O10 0.888870 0.430846 0.190349
O O11 0.000000 0.000000 0.000000
O O12 0.514587 0.409051 0.351849
O O13 0.123201 0.641504 0.363827
O O14 0.178180 0.862162 0.535822
O O15 0.661352 0.691947 0.147580
O O16 0.500000 0.500000 0.000000
O O17 0.078738 0.244427 0.743811
#
# Coordination Sequence:
#
# PCOD9038212 Si02
#       8
#     2   2   2   2   2   2   2   2
#     4  11  23  37  66  93 134 170 217 263 317 387
#     4  11  22  40  60 101 131 171 215 254 328 381
#     4  10  23  41  67  93 125 165 219 267 323 372
#     4  11  24  37  62  91 144 174 206 259 315 399
#     4   9  20  42  63  90 119 168 211 270 317 376
#     4  12  22  37  65  92 131 173 210 262 317 389
#     4  11  22  41  58  94 134 176 210 258 325 375
#     4   9  22  40  65  89 132 163 210 266 324 380
#
# _framework density 20.351590000000002
#
# number of rings (size 3 to 8) (size 9 to 14) (size 15 to 20)
#    0.750    0.750    2.500    3.000    1.750    1.500 
#    0.000    0.625    5.500    1.500    0.000    0.000 
#    0.000    0.000    0.000    0.000    0.000    0.000 
#
# Total GULP energy -89158.543730 kJ/mol
# GULP energy per Si atom -5572.408983 kJ/mol
# Density = 2.030527 g / cm^3
# Si number density = 20.351590 Si / 1000 Ang^3
#
#
#
# Elastic Constant Matrix: (Units=GPa)
#
#
# Indices 1 2 3 4 5 6 
#
# 1 117.3071 23.3726 39.3586 -6.1694 6.6582 4.7912
# 2 23.3726 49.5523 17.5939 2.8498 -2.7630 3.7595
# 3 39.3586 17.5939 107.2825 -7.1264 4.7874 0.8355
# 4 -6.1694 2.8498 -7.1264 32.9588 -6.9344 -1.8334
# 5 6.6582 -2.7630 4.7874 -6.9344 27.6316 -0.6961
# 6 4.7912 3.7595 0.8355 -1.8334 -0.6961 23.9248
#
#
#
# Elastic Compliance Matrix: (Units=1/GPa)
#
#
# Indices 1 2 3 4 5 6 
#
# 1 0.010580 -0.003993 -0.003044 0.001135 -0.002171 -0.001361
# 2 -0.003993 0.023582 -0.002706 -0.002907 0.002985 -0.002948
# 3 -0.003044 -0.002706 0.011044 0.001894 -0.000956 0.000766
# 4 0.001135 -0.002907 0.001894 0.032943 0.007448 0.002905
# 5 -0.002171 0.002985 -0.000956 0.007448 0.039090 0.001707
# 6 -0.001361 -0.002948 0.000766 0.002905 0.001707 0.042779
#
#
# Mechanical properties :
#
#
# Convention : Reuss Voigt Hill
#
# Bulk Modulus (GPa) = 38.87836 48.31024 43.59430
# Shear Modulus (GPa) = 26.58500 29.82416 28.20458
#
# Velocity S-wave (km/s) = 3.61818 3.83227 3.72676
# Velocity P-wave (km/s) = 6.04978 6.58567 6.32340
#
# Compressibility (1/GPa) = 0.02572125
#
# Stress axis : x y z
#
# Youngs Moduli (GPa) = 94.51901 42.40529 90.54598
#
# Poissons Ratio (x) = 0.16931 0.27560
# Poissons Ratio (y) = 0.37738 0.24501
# Poissons Ratio (z) = 0.28770 0.11475
#
# Static dielectric constant tensor:
#      x y z
#    x 1.751920 0.001130 -0.002150 
#    y 0.001130 1.789310 0.010660 
#    z -0.002150 0.010660 1.766800 
# 
# From -- ./inp_files/556556.got.cif
#   From: 2010.05.17/outbox.cif.g08.bks.cpg/sg2_279_cif.got.tgz:556556.got - 2010.06.03 11:33:40.
