data_PCOD9038661
_publ_section_title
;
Structure prediction by ZEFSAII (Michael W. Deem and Ramdas Pophale) SiO2 
 PCOD9038661
Probable space group: P -1
;
_chemical_formula_sum "Si O2"
_cell_formula_units_Z 16
_cell_length_a 10.411883
_cell_length_b 7.413875
_cell_length_c 23.457081
_cell_angle_alpha 143.052933
_cell_angle_beta 35.022880
_cell_angle_gamma 131.792997
_cell_volume 624.246385
_symmetry_space_group_name_H-M "P -1"
_symmetry_group_IT_number 2
_symmetry_cell_setting 'triclinic'
loop_
_space_group_symop_operation_xyz
x,y,z
-x,-y,-z
loop_
_atom_site_type_symbol
_atom_site_label
_atom_site_fract_x
_atom_site_fract_y
_atom_site_fract_z
Si Si1 0.981165 0.767530 0.397280
Si Si2 0.611027 0.109887 0.547955
Si Si3 0.707660 0.151345 0.927522
Si Si4 0.125086 0.576286 0.894628
Si Si5 0.457564 0.744306 0.163966
Si Si6 0.391129 0.278548 0.237683
Si Si7 0.292888 0.719004 0.628229
Si Si8 0.836838 0.141299 0.168470
O O1 0.875137 0.481750 0.398001
O O2 0.216319 0.689587 0.264751
O O3 0.819799 0.918155 0.445991
O O4 0.000000 0.000000 0.500000
O O5 0.676974 0.456888 0.627270
O O6 0.500000 0.000000 0.500000
O O7 0.398258 0.023034 0.643913
O O8 0.943422 0.304471 0.903802
O O9 0.756746 0.881775 0.798032
O O10 0.589705 0.453107 0.024239
O O11 0.500000 0.000000 0.000000
O O12 0.366760 0.596872 0.842199
O O13 0.159395 0.617349 0.823472
O O14 0.020663 0.896527 0.029110
O O15 0.442162 0.981223 0.179215
O O16 0.608341 0.939905 0.202341
O O17 0.500000 0.500000 0.500000
O O18 0.159653 0.720035 0.735922
#
# Coordination Sequence:
#
# PCOD9038661 Si02
#       8
#     2   2   2   2   2   2   2   2
#     4  11  26  44  76 104 144 197 254 314 382 444
#     4  11  28  49  70 107 152 199 259 317 377 455
#     4  11  26  43  71 111 150 187 250 317 379 458
#     4   9  22  41  68 102 144 190 241 299 384 443
#     4  10  23  43  71 101 144 189 247 304 379 450
#     4  11  26  44  72  99 150 197 247 312 378 455
#     4  10  23  41  72  96 140 193 251 300 374 444
#     4   9  19  41  72  99 136 191 246 300 364 462
#
# _framework density 25.630908000000002
#
# number of rings (size 3 to 8) (size 9 to 14) (size 15 to 20)
#    0.000    1.750    0.000    2.625   17.500    2.000 
#    0.000    0.000    0.000    0.000    0.000    0.000 
#    0.000    0.000    0.000    0.000    0.000    0.000 
#
# Total GULP energy -89239.914304 kJ/mol
# GULP energy per Si atom -5577.494644 kJ/mol
# Density = 2.557257 g / cm^3
# Si number density = 25.630908 Si / 1000 Ang^3
#
#
#
# Elastic Constant Matrix: (Units=GPa)
#
#
# Indices 1 2 3 4 5 6 
#
# 1 43.2336 0.2190 25.4800 19.2512 -7.3367 -9.1552
# 2 0.2190 128.3998 24.2962 20.7174 -5.0039 2.6371
# 3 25.4800 24.2962 90.4078 14.0509 -7.8217 12.4874
# 4 19.2512 20.7174 14.0509 53.1331 6.5396 3.3040
# 5 -7.3367 -5.0039 -7.8217 6.5396 47.7265 -2.7943
# 6 -9.1552 2.6371 12.4874 3.3040 -2.7943 33.7714
#
#
#
# Elastic Compliance Matrix: (Units=1/GPa)
#
#
# Indices 1 2 3 4 5 6 
#
# 1 0.043247 0.004939 -0.012778 -0.016390 0.008393 0.018361
# 2 0.004939 0.009220 -0.003273 -0.004920 0.002009 0.002477
# 3 -0.012778 -0.003273 0.016480 0.002200 -0.000468 -0.009556
# 4 -0.016390 -0.004920 0.002200 0.027452 -0.006912 -0.008130
# 5 0.008393 0.002009 -0.000468 -0.006912 0.023612 0.004921
# 6 0.018361 0.002477 -0.009556 -0.008130 0.004921 0.039131
#
#
# Mechanical properties :
#
#
# Convention : Reuss Voigt Hill
#
# Bulk Modulus (GPa) = 21.40371 40.22575 30.81473
# Shear Modulus (GPa) = 25.38813 41.06260 33.22536
#
# Velocity S-wave (km/s) = 3.15068 4.00693 3.60432
# Velocity P-wave (km/s) = 4.64807 6.09390 5.41942
#
# Compressibility (1/GPa) = 0.04672086
#
# Stress axis : x y z
#
# Youngs Moduli (GPa) = 23.12299 108.45453 60.68094
#
# Poissons Ratio (x) = -0.53563 0.77541
# Poissons Ratio (y) = -0.11420 0.19864
# Poissons Ratio (z) = 0.29548 0.35502
#
# Static dielectric constant tensor:
#      x y z
#    x 2.134670 -0.078320 0.025940 
#    y -0.078320 1.357840 0.101190 
#    z 0.025940 0.101190 2.011360 
# 
# From -- ./inp_files/618234.got.cif
#   From: 2010.05.17/outbox.cif.g08.bks.cpg/sg2_310_cif.got.tgz:618234.got - 2010.06.03 11:33:40.
