data_PCOD9038040
_publ_section_title
;
Structure prediction by ZEFSAII (Michael W. Deem and Ramdas Pophale) SiO2 
 PCOD9038040
Probable space group: P -1
;
_chemical_formula_sum "Si O2"
_cell_formula_units_Z 16
_cell_length_a 8.648636
_cell_length_b 16.555252
_cell_length_c 11.921077
_cell_angle_alpha 149.637369
_cell_angle_beta 52.177358
_cell_angle_gamma 119.100349
_cell_volume 677.591831
_symmetry_space_group_name_H-M "P -1"
_symmetry_group_IT_number 2
_symmetry_cell_setting 'triclinic'
loop_
_space_group_symop_operation_xyz
x,y,z
-x,-y,-z
loop_
_atom_site_type_symbol
_atom_site_label
_atom_site_fract_x
_atom_site_fract_y
_atom_site_fract_z
Si Si1 0.025634 0.189191 0.722901
Si Si2 0.624491 0.278012 0.404624
Si Si3 0.129179 0.411479 0.561562
Si Si4 0.732409 0.719511 0.883751
Si Si5 0.982091 0.150090 0.948497
Si Si6 0.636352 0.395734 0.163320
Si Si7 0.305959 0.534272 0.202264
Si Si8 0.730083 0.860119 0.654010
O O1 0.190945 0.215967 0.591473
O O2 0.056237 0.210023 0.867349
O O3 0.000000 0.000000 0.500000
O O4 0.831672 0.305469 0.912761
O O5 0.476702 0.439375 0.636539
O O6 0.677420 0.301985 0.538935
O O7 0.504049 0.128538 0.247759
O O8 0.822180 0.264222 0.227368
O O9 0.131519 0.370077 0.380066
O O10 0.275207 0.544242 0.687972
O O11 0.217970 0.257529 0.406667
O O12 0.903949 0.449686 0.747029
O O13 0.522021 0.733246 0.930057
O O14 0.708752 0.604248 0.863086
O O15 0.832020 0.867852 0.070469
O O16 0.856699 0.006027 0.797724
O O17 0.500000 0.500000 0.000000
#
# Coordination Sequence:
#
# PCOD9038040 Si02
#       8
#     2   2   2   2   2   2   2   2
#     4  10  24  44  65  92 132 179 216 268 334 394
#     4  10  23  41  66 100 128 171 224 271 328 390
#     4  11  23  42  69  95 136 169 224 276 327 394
#     4  11  24  42  66 102 129 174 219 272 337 389
#     4  11  23  45  67  92 139 177 221 271 325 400
#     4  10  24  38  70  96 129 163 226 268 327 388
#     4  11  25  40  65 102 134 169 211 283 341 389
#     4  10  25  43  64  97 132 180 222 269 331 387
#
# _framework density 23.613036000000001
#
# number of rings (size 3 to 8) (size 9 to 14) (size 15 to 20)
#    0.000    1.500    1.250    1.875   15.750    1.500 
#    0.000    2.500    0.000    0.000    0.000    0.000 
#    0.000    0.000    0.000    0.000    0.000    0.000 
#
# Total GULP energy -89188.103077 kJ/mol
# GULP energy per Si atom -5574.256442 kJ/mol
# Density = 2.355929 g / cm^3
# Si number density = 23.613036 Si / 1000 Ang^3
#
#
#
# Elastic Constant Matrix: (Units=GPa)
#
#
# Indices 1 2 3 4 5 6 
#
# 1 151.7279 28.2360 31.8822 -6.1114 36.5663 39.9888
# 2 28.2360 73.5831 21.9406 -27.6601 15.6255 0.5364
# 3 31.8822 21.9406 72.8969 -24.5535 21.3376 2.2834
# 4 -6.1114 -27.6601 -24.5535 42.8600 11.8487 2.0381
# 5 36.5663 15.6255 21.3376 11.8487 40.8437 7.7082
# 6 39.9888 0.5364 2.2834 2.0381 7.7082 31.1121
#
#
#
# Elastic Compliance Matrix: (Units=1/GPa)
#
#
# Indices 1 2 3 4 5 6 
#
# 1 0.013396 -0.001434 -0.001097 0.003579 -0.009059 -0.015103
# 2 -0.001434 0.026760 0.008238 0.027691 -0.022130 0.004446
# 3 -0.001097 0.008238 0.029127 0.028996 -0.026515 0.003800
# 4 0.003579 0.027691 0.028996 0.072111 -0.049949 0.000446
# 5 -0.009059 -0.022130 -0.026515 -0.049949 0.069393 0.000051
# 6 -0.015103 0.004446 0.003800 0.000446 0.000051 0.051156
#
#
# Mechanical properties :
#
#
# Convention : Reuss Voigt Hill
#
# Bulk Modulus (GPa) = 12.39204 51.36951 31.88078
# Shear Modulus (GPa) = 18.02274 37.37311 27.69792
#
# Velocity S-wave (km/s) = 2.76570 3.98267 3.42861
# Velocity P-wave (km/s) = 3.93169 6.55369 5.40412
#
# Compressibility (1/GPa) = 0.08069699
#
# Stress axis : x y z
#
# Youngs Moduli (GPa) = 74.64913 37.36917 34.33273
#
# Poissons Ratio (x) = 0.05360 0.03766
# Poissons Ratio (y) = 0.10707 -0.28285
# Poissons Ratio (z) = 0.08189 -0.30786
#
# Static dielectric constant tensor:
#      x y z
#    x 1.939140 0.045620 0.032400 
#    y 0.045620 1.929290 0.038040 
#    z 0.032400 0.038040 1.962730 
# 
# From -- ./inp_files/403483.got.cif
#   From: 2010.05.17/outbox.cif.g08.bks.cpg/sg2_202_cif.got.tgz:403483.got - 2010.06.03 11:33:40.
