data_PCOD9038378
_publ_section_title
;
Structure prediction by ZEFSAII (Michael W. Deem and Ramdas Pophale) SiO2 
 PCOD9038378
Probable space group: P -1
;
_chemical_formula_sum "Si O2"
_cell_formula_units_Z 14
_cell_length_a 10.439539
_cell_length_b 20.238608
_cell_length_c 13.028600
_cell_angle_alpha 33.089719
_cell_angle_beta 157.238450
_cell_angle_gamma 140.461434
_cell_volume 581.433293
_symmetry_space_group_name_H-M "P -1"
_symmetry_group_IT_number 2
_symmetry_cell_setting 'triclinic'
loop_
_space_group_symop_operation_xyz
x,y,z
-x,-y,-z
loop_
_atom_site_type_symbol
_atom_site_label
_atom_site_fract_x
_atom_site_fract_y
_atom_site_fract_z
Si Si1 0.652457 0.440103 0.589752
Si Si2 0.486223 0.204009 0.217552
Si Si3 0.782725 0.202210 0.721764
Si Si4 0.180933 0.292995 0.295646
Si Si5 0.763731 0.406273 0.267361
Si Si6 0.538832 0.001062 0.674003
Si Si7 0.881402 0.960682 0.350156
O O1 0.500000 0.500000 0.500000
O O2 0.351229 0.397222 0.352058
O O3 0.897161 0.525729 0.594309
O O4 0.893270 0.334766 0.951256
O O5 0.662334 0.332264 0.185461
O O6 0.646172 0.090970 0.543924
O O7 0.400947 0.137994 0.133192
O O8 0.147317 0.225139 0.002854
O O9 0.485386 0.237762 0.528297
O O10 0.778925 0.297237 0.501396
O O11 0.728636 0.064352 0.825470
O O12 0.077663 0.184219 0.434769
O O13 0.500000 0.500000 0.000000
O O14 0.152448 0.010947 0.406424
O O15 0.000000 0.000000 0.500000
O O16 0.500000 0.000000 0.000000
#
# Coordination Sequence:
#
# PCOD9038378 Si02
#       7
#     2   2   2   2   2   2   2
#     4  12  29  49  70 103 146 186 239 297 354 415
#     4  10  23  41  68  98 138 178 229 296 352 415
#     4  11  22  41  72 100 134 179 237 288 354 419
#     4  12  26  46  74 101 142 188 237 291 352 426
#     4  11  24  43  69  99 134 184 240 286 347 415
#     4  10  23  42  63 104 138 175 231 289 359 417
#     4  12  25  44  72 103 140 185 231 285 354 430
#
# _framework density 24.078430000000001
#
# number of rings (size 3 to 8) (size 9 to 14) (size 15 to 20)
#    0.000    0.857    2.857    3.429    6.000    2.286 
#    0.000    0.000    0.000    0.000    0.000    0.000 
#    0.000    0.000    0.000    0.000    0.000    0.000 
#
# Total GULP energy -78212.834185 kJ/mol
# GULP energy per Si atom -5586.631013 kJ/mol
# Density = 2.402363 g / cm^3
# Si number density = 24.078430 Si / 1000 Ang^3
#
#
#
# Elastic Constant Matrix: (Units=GPa)
#
#
# Indices 1 2 3 4 5 6 
#
# 1 73.1821 20.3951 7.8562 -3.7261 12.1364 2.2180
# 2 20.3951 132.1641 4.6750 -2.4143 -6.5908 3.0715
# 3 7.8562 4.6750 82.4691 2.7862 8.4036 5.0002
# 4 -3.7261 -2.4143 2.7862 32.3185 -1.5849 8.1861
# 5 12.1364 -6.5908 8.4036 -1.5849 36.5757 -2.3816
# 6 2.2180 3.0715 5.0002 8.1861 -2.3816 45.4022
#
#
#
# Elastic Compliance Matrix: (Units=1/GPa)
#
#
# Indices 1 2 3 4 5 6 
#
# 1 0.015482 -0.002577 -0.000767 0.001667 -0.005424 -0.001083
# 2 -0.002577 0.008119 -0.000460 0.000556 0.002425 -0.000346
# 3 -0.000767 -0.000460 0.012629 -0.001026 -0.002858 -0.001287
# 4 0.001667 0.000556 -0.001026 0.032793 0.000821 -0.005876
# 5 -0.005424 0.002425 -0.002858 0.000821 0.030391 0.001862
# 6 -0.001083 -0.000346 -0.001287 -0.005876 0.001862 0.023400
#
#
# Mechanical properties :
#
#
# Convention : Reuss Voigt Hill
#
# Bulk Modulus (GPa) = 34.93632 39.29645 37.11638
# Shear Modulus (GPa) = 35.72391 39.85187 37.78789
#
# Velocity S-wave (km/s) = 3.85599 4.07269 3.96582
# Velocity P-wave (km/s) = 5.86223 6.20253 6.03478
#
# Compressibility (1/GPa) = 0.02862351
#
# Stress axis : x y z
#
# Youngs Moduli (GPa) = 64.59052 123.16181 79.18403
#
# Poissons Ratio (x) = 0.31737 0.06072
# Poissons Ratio (y) = 0.16644 0.03640
# Poissons Ratio (z) = 0.04953 0.05662
#
# Static dielectric constant tensor:
#      x y z
#    x 1.975480 -0.041160 -0.070630 
#    y -0.041160 1.932080 0.001520 
#    z -0.070630 0.001520 2.013360 
# 
# From -- ./inp_files/66986.got.cif
#   From: 2010.05.17/outbox.cif.g08.bks.cpg/sg2_34_cif.got.tgz:66986.got - 2010.06.03 11:33:40.
