data_PCOD9038633
_publ_section_title
;
Structure prediction by ZEFSAII (Michael W. Deem and Ramdas Pophale) SiO2 
 PCOD9038633
Probable space group: P -1
;
_chemical_formula_sum "Si O2"
_cell_formula_units_Z 12
_cell_length_a 8.252824
_cell_length_b 10.820035
_cell_length_c 13.554335
_cell_angle_alpha 36.002275
_cell_angle_beta 134.668976
_cell_angle_gamma 123.522278
_cell_volume 505.585116
_symmetry_space_group_name_H-M "P -1"
_symmetry_group_IT_number 2
_symmetry_cell_setting 'triclinic'
loop_
_space_group_symop_operation_xyz
x,y,z
-x,-y,-z
loop_
_atom_site_type_symbol
_atom_site_label
_atom_site_fract_x
_atom_site_fract_y
_atom_site_fract_z
Si Si1 0.689276 0.161818 0.996783
Si Si2 0.447961 0.237908 0.293481
Si Si3 0.828330 0.926193 0.388873
Si Si4 0.260592 0.390041 0.304632
Si Si5 0.072853 0.556729 0.604232
Si Si6 0.919035 0.701053 0.044572
O O1 0.746957 0.123802 0.160752
O O2 0.601337 0.396984 0.777944
O O3 0.914665 0.135153 0.041399
O O4 0.500000 0.000000 0.000000
O O5 0.255898 0.310658 0.243247
O O6 0.667737 0.372369 0.318026
O O7 0.500000 0.000000 0.500000
O O8 0.337814 0.255258 0.127736
O O9 0.654168 0.789709 0.467049
O O10 0.932125 0.756851 0.463158
O O11 0.000000 0.000000 0.500000
O O12 0.016399 0.481103 0.179101
O O13 0.047082 0.349024 0.794708
O O14 0.000000 0.500000 0.500000
#
# Coordination Sequence:
#
# PCOD9038633 Si02
#       6
#     2   2   2   2   2   2
#     4  10  23  41  72 103 134 178 243 291 346 404
#     4  12  23  43  70 105 140 186 234 290 355 425
#     4  11  23  44  73 101 136 188 240 283 346 433
#     4   9  23  41  70  98 137 175 243 284 339 414
#     4  11  26  43  69 103 148 182 226 299 365 403
#     4   9  22  45  68  94 138 188 233 279 344 428
#
# _framework density 23.734876
#
# number of rings (size 3 to 8) (size 9 to 14) (size 15 to 20)
#    1.000    0.667    0.000    4.000    7.000    2.000 
#    3.000    3.333    0.000    0.000    0.000    0.000 
#    0.000    0.000    0.000    0.000    0.000    0.000 
#
# Total GULP energy -66962.108056 kJ/mol
# GULP energy per Si atom -5580.175671 kJ/mol
# Density = 2.368085 g / cm^3
# Si number density = 23.734876 Si / 1000 Ang^3
#
#
#
# Elastic Constant Matrix: (Units=GPa)
#
#
# Indices 1 2 3 4 5 6 
#
# 1 51.8301 37.6605 54.5419 9.0428 -33.1515 14.7286
# 2 37.6605 113.8782 43.5558 13.5937 -22.5041 16.5902
# 3 54.5419 43.5558 112.9999 15.3679 -51.5233 14.5899
# 4 9.0428 13.5937 15.3679 42.0414 0.3879 -8.4393
# 5 -33.1515 -22.5041 -51.5233 0.3879 47.6321 -7.5824
# 6 14.7286 16.5902 14.5899 -8.4393 -7.5824 46.4562
#
#
#
# Elastic Compliance Matrix: (Units=1/GPa)
#
#
# Indices 1 2 3 4 5 6 
#
# 1 0.053022 -0.007083 -0.012161 -0.006559 0.019097 -0.008536
# 2 -0.007083 0.011965 -0.000745 -0.002535 -0.000433 -0.002324
# 3 -0.012161 -0.000745 0.023602 -0.006272 0.016489 -0.001739
# 4 -0.006559 -0.002535 -0.006272 0.030134 -0.011430 0.008563
# 5 0.019097 -0.000433 0.016489 -0.011430 0.051248 -0.004790
# 6 -0.008536 -0.002324 -0.001739 0.008563 -0.004790 0.026382
#
#
# Mechanical properties :
#
#
# Convention : Reuss Voigt Hill
#
# Bulk Modulus (GPa) = 20.57151 61.13608 40.85380
# Shear Modulus (GPa) = 19.79928 36.75594 28.27761
#
# Velocity S-wave (km/s) = 2.89136 3.93950 3.45540
# Velocity P-wave (km/s) = 4.45339 6.81958 5.75931
#
# Compressibility (1/GPa) = 0.04861092
#
# Stress axis : x y z
#
# Youngs Moduli (GPa) = 18.85994 83.57990 42.36898
#
# Poissons Ratio (x) = 0.59203 0.51523
# Poissons Ratio (y) = 0.13359 0.03157
# Poissons Ratio (z) = 0.22935 0.06228
#
# Static dielectric constant tensor:
#      x y z
#    x 1.990100 0.000630 -0.001230 
#    y 0.000630 1.916260 -0.033400 
#    z -0.001230 -0.033400 1.990650 
# 
# From -- ./inp_files/377825.got.cif
#   From: 2010.05.17/outbox.cif.g08.bks.cpg/sg2_189_cif.got.tgz:377825.got - 2010.06.03 11:33:40.
