data_PCOD9038890
_publ_section_title
;
Structure prediction by ZEFSAII (Michael W. Deem and Ramdas Pophale) SiO2 
 PCOD9038890
Probable space group: P -1
;
_chemical_formula_sum "Si O2"
_cell_formula_units_Z 16
_cell_length_a 8.697727
_cell_length_b 18.154462
_cell_length_c 6.975686
_cell_angle_alpha 63.820460
_cell_angle_beta 52.151880
_cell_angle_gamma 58.418780
_cell_volume 729.101553
_symmetry_space_group_name_H-M "P -1"
_symmetry_group_IT_number 2
_symmetry_cell_setting 'triclinic'
loop_
_space_group_symop_operation_xyz
x,y,z
-x,-y,-z
loop_
_atom_site_type_symbol
_atom_site_label
_atom_site_fract_x
_atom_site_fract_y
_atom_site_fract_z
Si Si1 0.779026 0.540176 0.227376
Si Si2 0.472175 0.876332 0.448013
Si Si3 0.046212 0.907682 0.964058
Si Si4 0.743090 0.819988 0.669386
Si Si5 0.408170 0.545888 0.217530
Si Si6 0.814145 0.961675 0.717196
Si Si7 0.454661 0.261304 0.773840
Si Si8 0.158931 0.731621 0.322291
O O1 0.605539 0.534301 0.216412
O O2 0.739900 0.494454 0.504656
O O3 0.719641 0.642770 0.201098
O O4 0.000000 0.500000 0.000000
O O5 0.258422 0.884396 0.709120
O O6 0.629602 0.869174 0.509154
O O7 0.547643 0.790311 0.358138
O O8 0.397010 0.959425 0.267034
O O9 0.857378 0.923205 0.941633
O O10 0.088736 0.825334 0.163876
O O11 0.000000 0.000000 0.000000
O O12 0.828500 0.883591 0.652379
O O13 0.939584 0.732554 0.569876
O O14 0.584939 0.793858 0.954341
O O15 0.276671 0.650283 0.187754
O O16 0.500000 0.500000 0.000000
O O17 0.000000 0.000000 0.500000
O O18 0.677389 0.270651 0.632930
#
# Coordination Sequence:
#
# PCOD9038890 Si02
#       8
#     2   2   2   2   2   2   2   2
#     4  10  23  45  70 102 141 178 226 286 348 415
#     4  11  24  43  65  98 133 175 228 278 334 400
#     4  11  22  42  71  94 134 184 222 274 343 395
#     4  12  25  43  67 100 132 178 231 278 335 406
#     4  10  24  43  70 104 137 182 230 282 349 418
#     4  10  23  42  64  93 134 177 222 276 335 394
#     4  11  25  44  69  99 137 177 222 283 339 406
#     4  11  23  44  67  98 140 177 225 280 341 406
#
# _framework density 21.944817
#
# number of rings (size 3 to 8) (size 9 to 14) (size 15 to 20)
#    0.000    1.250    1.250    4.875    3.500    2.000 
#    2.250    0.000    0.000    0.000    0.000    0.000 
#    0.000    0.000    0.000    0.000    0.000    0.000 
#
# Total GULP energy -89479.318992 kJ/mol
# GULP energy per Si atom -5592.457437 kJ/mol
# Density = 2.189487 g / cm^3
# Si number density = 21.944817 Si / 1000 Ang^3
#
#
#
# Elastic Constant Matrix: (Units=GPa)
#
#
# Indices 1 2 3 4 5 6 
#
# 1 97.0253 41.9636 34.2299 21.6957 12.0264 -14.3616
# 2 41.9636 157.1443 57.7932 21.1001 21.9022 -2.4310
# 3 34.2299 57.7932 112.6846 15.7946 6.7279 1.2994
# 4 21.6957 21.1001 15.7946 39.5180 1.4870 3.5574
# 5 12.0264 21.9022 6.7279 1.4870 42.6070 12.3716
# 6 -14.3616 -2.4310 1.2994 3.5574 12.3716 30.0817
#
#
#
# Elastic Compliance Matrix: (Units=1/GPa)
#
#
# Indices 1 2 3 4 5 6 
#
# 1 0.016049 -0.001054 -0.002978 -0.007831 -0.006531 0.011317
# 2 -0.001054 0.009032 -0.003681 -0.002835 -0.004400 0.002531
# 3 -0.002978 -0.003681 0.011721 -0.000895 0.001736 -0.002833
# 4 -0.007831 -0.002835 -0.000895 0.032168 0.005601 -0.010037
# 5 -0.006531 -0.004400 0.001736 0.005601 0.032171 -0.017442
# 6 0.011317 0.002531 -0.002833 -0.010037 -0.017442 0.047333
#
#
# Mechanical properties :
#
#
# Convention : Reuss Voigt Hill
#
# Bulk Modulus (GPa) = 46.77968 70.53639 58.65804
# Shear Modulus (GPa) = 29.23561 37.96584 33.60072
#
# Velocity S-wave (km/s) = 3.65394 4.16391 3.91723
# Velocity P-wave (km/s) = 6.25819 7.43841 6.87368
#
# Compressibility (1/GPa) = 0.02137680
#
# Stress axis : x y z
#
# Youngs Moduli (GPa) = 62.31065 110.71901 85.31487
#
# Poissons Ratio (x) = 0.11666 0.25403
# Poissons Ratio (y) = 0.06566 0.31407
# Poissons Ratio (z) = 0.18553 0.40759
#
# Static dielectric constant tensor:
#      x y z
#    x 1.951000 0.046250 -0.329470 
#    y 0.046250 1.805910 -0.126790 
#    z -0.329470 -0.126790 2.399020 
# 
# From -- ./inp_files/46961.got.cif
#   From: 2010.05.17/outbox.cif.g08.bks.cpg/sg2_24_cif.got.tgz:46961.got - 2010.06.03 11:33:40.
