data_PCOD9038149
_publ_section_title
;
Structure prediction by ZEFSAII (Michael W. Deem and Ramdas Pophale) SiO2 
 PCOD9038149
Probable space group: P -1
;
_chemical_formula_sum "Si O2"
_cell_formula_units_Z 14
_cell_length_a 5.523290
_cell_length_b 7.845844
_cell_length_c 13.976823
_cell_angle_alpha 81.417030
_cell_angle_beta 77.704955
_cell_angle_gamma 117.700034
_cell_volume 501.934946
_symmetry_space_group_name_H-M "P -1"
_symmetry_group_IT_number 2
_symmetry_cell_setting 'triclinic'
loop_
_space_group_symop_operation_xyz
x,y,z
-x,-y,-z
loop_
_atom_site_type_symbol
_atom_site_label
_atom_site_fract_x
_atom_site_fract_y
_atom_site_fract_z
Si Si1 0.026908 0.029111 0.107366
Si Si2 0.777952 0.903666 0.663849
Si Si3 0.565746 0.316746 0.113243
Si Si4 0.339646 0.199234 0.680643
Si Si5 0.894460 0.315921 0.898878
Si Si6 0.141079 0.453711 0.297490
Si Si7 0.425673 0.668471 0.530939
O O1 0.258900 0.253703 0.097705
O O2 0.156333 0.884557 0.129695
O O3 0.753208 0.940225 0.206039
O O4 0.000000 0.000000 0.000000
O O5 0.520456 0.813185 0.771253
O O6 0.927154 0.771415 0.683737
O O7 0.646924 0.830043 0.576050
O O8 0.037122 0.123225 0.655135
O O9 0.773266 0.543207 0.109144
O O10 0.722369 0.274852 0.016095
O O11 0.541801 0.418074 0.691995
O O12 0.545537 0.204736 0.578214
O O13 0.843877 0.442506 0.812971
O O14 0.888364 0.441139 0.385725
O O15 0.500000 0.500000 0.500000
#
# Coordination Sequence:
#
# PCOD9038149 Si02
#       7
#     2   2   2   2   2   2   2
#     4  11  24  44  67  99 140 176 225 280 338 406
#     4  11  25  46  67 102 141 177 234 278 339 404
#     4  10  23  41  66  98 136 179 222 280 332 402
#     4  11  25  43  71 102 134 185 223 284 341 394
#     4  11  23  41  69 100 136 182 224 275 345 395
#     4  12  25  45  71 102 137 181 230 278 339 409
#     4  12  24  48  71  97 141 179 229 286 337 404
#
# _framework density 27.892057999999999
#
# number of rings (size 3 to 8) (size 9 to 14) (size 15 to 20)
#    0.000    0.857    2.857    3.857    0.000    7.429 
#    2.571    0.000    0.000    0.000    0.000    0.000 
#    0.000    0.000    0.000    0.000    0.000    0.000 
#
# Total GULP energy -78314.451175 kJ/mol
# GULP energy per Si atom -5593.889370 kJ/mol
# Density = 2.782857 g / cm^3
# Si number density = 27.892058 Si / 1000 Ang^3
#
#
#
# Elastic Constant Matrix: (Units=GPa)
#
#
# Indices 1 2 3 4 5 6 
#
# 1 62.9255 44.6664 51.1930 2.3080 -10.9730 3.7713
# 2 44.6664 125.7390 57.4257 -0.9903 -14.0994 35.4598
# 3 51.1930 57.4257 237.5906 27.5177 -10.0560 6.9326
# 4 2.3080 -0.9903 27.5177 42.4470 8.5406 -6.4453
# 5 -10.9730 -14.0994 -10.0560 8.5406 55.1766 10.5573
# 6 3.7713 35.4598 6.9326 -6.4453 10.5573 61.7071
#
#
#
# Elastic Compliance Matrix: (Units=1/GPa)
#
#
# Indices 1 2 3 4 5 6 
#
# 1 0.024272 -0.007766 -0.003498 0.000968 0.001438 0.003227
# 2 -0.007766 0.013924 -0.001281 -0.000311 0.003357 -0.007990
# 3 -0.003498 -0.001281 0.005735 -0.003714 0.000634 -0.000191
# 4 0.000968 -0.000311 -0.003714 0.027722 -0.005698 0.004407
# 5 0.001438 0.003357 0.000634 -0.005698 0.021481 -0.006359
# 6 0.003227 -0.007990 -0.000191 0.004407 -0.006359 0.022169
#
#
# Mechanical properties :
#
#
# Convention : Reuss Voigt Hill
#
# Bulk Modulus (GPa) = 53.07640 81.42502 67.25071
# Shear Modulus (GPa) = 34.08935 50.06414 42.07674
#
# Velocity S-wave (km/s) = 3.49977 4.24125 3.88823
# Velocity P-wave (km/s) = 5.94994 7.29661 6.65741
#
# Compressibility (1/GPa) = 0.01884077
#
# Stress axis : x y z
#
# Youngs Moduli (GPa) = 41.19981 71.81984 174.37489
#
# Poissons Ratio (x) = 0.55774 0.61000
# Poissons Ratio (y) = 0.31995 0.22335
# Poissons Ratio (z) = 0.14413 0.09199
#
# Static dielectric constant tensor:
#      x y z
#    x 2.237770 -0.045770 0.038780 
#    y -0.045770 2.098850 -0.066990 
#    z 0.038780 -0.066990 2.203870 
# 
# From -- ./inp_files/480516.got.cif
#   From: 2010.05.17/outbox.cif.g08.bks.cpg/sg2_241_cif.got.tgz:480516.got - 2010.06.03 11:33:40.
