data_PCOD9038480
_publ_section_title
;
Structure prediction by ZEFSAII (Michael W. Deem and Ramdas Pophale) SiO2 
 PCOD9038480
Probable space group: P -1
;
_chemical_formula_sum "Si O2"
_cell_formula_units_Z 16
_cell_length_a 5.554455
_cell_length_b 24.982633
_cell_length_c 12.396200
_cell_angle_alpha 27.188961
_cell_angle_beta 112.780184
_cell_angle_gamma 122.536726
_cell_volume 643.778168
_symmetry_space_group_name_H-M "P -1"
_symmetry_group_IT_number 2
_symmetry_cell_setting 'triclinic'
loop_
_space_group_symop_operation_xyz
x,y,z
-x,-y,-z
loop_
_atom_site_type_symbol
_atom_site_label
_atom_site_fract_x
_atom_site_fract_y
_atom_site_fract_z
Si Si1 0.736161 0.850953 0.447141
Si Si2 0.151031 0.940485 0.552132
Si Si3 0.512553 0.567604 0.994367
Si Si4 0.197753 0.155025 0.767247
Si Si5 0.791998 0.133310 0.929146
Si Si6 0.341113 0.532434 0.248867
Si Si7 0.065649 0.361344 0.707190
Si Si8 0.081481 0.663230 0.061500
O O1 0.532416 0.712675 0.719014
O O2 0.796031 0.799430 0.435805
O O3 0.024597 0.926607 0.434290
O O4 0.653648 0.972267 0.196991
O O5 0.050461 0.793305 0.837038
O O6 0.500000 0.000000 0.500000
O O7 0.000000 0.000000 0.500000
O O8 0.801791 0.580453 0.084399
O O9 0.500000 0.500000 0.000000
O O10 0.283708 0.493051 0.185170
O O11 0.526880 0.173915 0.812390
O O12 0.022192 0.187743 0.771019
O O13 0.000000 0.000000 0.000000
O O14 0.988240 0.214301 0.919400
O O15 0.103213 0.437101 0.465033
O O16 0.647398 0.561347 0.306220
O O17 0.340574 0.672176 0.014413
O O18 0.836218 0.358233 0.762714
#
# Coordination Sequence:
#
# PCOD9038480 Si02
#       8
#     2   2   2   2   2   2   2   2
#     4  10  23  43  65  99 139 179 229 291 350 416
#     4  11  26  41  69 104 142 184 229 286 357 429
#     4  10  24  44  65  96 136 184 233 286 347 426
#     4  10  23  43  65 100 141 179 233 281 353 420
#     4  11  24  42  71 106 135 184 231 293 356 424
#     4  10  23  44  67  97 137 183 237 290 353 424
#     4  10  23  41  69  99 137 176 236 296 355 411
#     4  10  23  42  66  99 134 179 238 286 354 419
#
# _framework density 24.853283000000001
#
# number of rings (size 3 to 8) (size 9 to 14) (size 15 to 20)
#    0.000    1.750    0.000    2.625   10.500    5.500 
#    6.750    0.000    0.000    0.000    0.000    0.000 
#    0.000    0.000    0.000    0.000    0.000    0.000 
#
# Total GULP energy -89083.257973 kJ/mol
# GULP energy per Si atom -5567.703623 kJ/mol
# Density = 2.479672 g / cm^3
# Si number density = 24.853283 Si / 1000 Ang^3
#
#
#
# Elastic Constant Matrix: (Units=GPa)
#
#
# Indices 1 2 3 4 5 6 
#
# 1 115.2977 63.1830 29.2494 9.2985 2.4407 -24.5040
# 2 63.1830 168.0457 50.3303 19.8654 -9.2386 -45.5120
# 3 29.2494 50.3303 90.6370 12.2243 -3.8839 -20.9439
# 4 9.2985 19.8654 12.2243 38.4062 -11.8278 -2.7598
# 5 2.4407 -9.2386 -3.8839 -11.8278 31.7785 3.2140
# 6 -24.5040 -45.5120 -20.9439 -2.7598 3.2140 48.7897
#
#
#
# Elastic Compliance Matrix: (Units=1/GPa)
#
#
# Indices 1 2 3 4 5 6 
#
# 1 0.011449 -0.003314 -0.001280 -0.001328 -0.002717 0.002213
# 2 -0.003314 0.010114 -0.002645 -0.002759 0.001198 0.006400
# 3 -0.001280 -0.002645 0.013886 -0.002615 -0.000221 0.002718
# 4 -0.001328 -0.002759 -0.002615 0.031817 0.011156 -0.003298
# 5 -0.002717 0.001198 -0.000221 0.011156 0.036363 -0.002107
# 6 0.002213 0.006400 0.002718 -0.003298 -0.002107 0.028696
#
#
# Mechanical properties :
#
#
# Convention : Reuss Voigt Hill
#
# Bulk Modulus (GPa) = 47.68555 73.27841 60.48198
# Shear Modulus (GPa) = 32.51100 39.20939 35.86020
#
# Velocity S-wave (km/s) = 3.62071 3.97625 3.80264
# Velocity P-wave (km/s) = 6.05870 7.11542 6.60822
#
# Compressibility (1/GPa) = 0.02097072
#
# Stress axis : x y z
#
# Youngs Moduli (GPa) = 87.34244 98.87020 72.01595
#
# Poissons Ratio (x) = 0.32770 0.09220
# Poissons Ratio (y) = 0.28949 0.19045
# Poissons Ratio (z) = 0.11182 0.26147
#
# Static dielectric constant tensor:
#      x y z
#    x 2.215560 -0.019250 -0.062160 
#    y -0.019250 2.036240 0.011050 
#    z -0.062160 0.011050 2.171630 
# 
# From -- ./inp_files/371010.got.cif
#   From: 2010.05.17/outbox.cif.g08.bks.cpg/sg2_186_cif.got.tgz:371010.got - 2010.06.03 11:33:40.
