data_PCOD9038613
_publ_section_title
;
Structure prediction by ZEFSAII (Michael W. Deem and Ramdas Pophale) SiO2 
 PCOD9038613
Probable space group: P -1
;
_chemical_formula_sum "Si O2"
_cell_formula_units_Z 16
_cell_length_a 18.180744
_cell_length_b 23.910388
_cell_length_c 14.164481
_cell_angle_alpha 18.744238
_cell_angle_beta 149.835540
_cell_angle_gamma 159.822535
_cell_volume 665.947184
_symmetry_space_group_name_H-M "P -1"
_symmetry_group_IT_number 2
_symmetry_cell_setting 'triclinic'
loop_
_space_group_symop_operation_xyz
x,y,z
-x,-y,-z
loop_
_atom_site_type_symbol
_atom_site_label
_atom_site_fract_x
_atom_site_fract_y
_atom_site_fract_z
Si Si1 0.753839 0.742444 0.420847
Si Si2 0.179624 0.601245 0.961409
Si Si3 0.028311 0.104187 0.760141
Si Si4 0.541921 0.637779 0.923684
Si Si5 0.041175 0.561349 0.667216
Si Si6 0.215165 0.926093 0.930184
Si Si7 0.659395 0.170951 0.600907
Si Si8 0.638919 0.411360 0.530262
O O1 0.500000 0.500000 0.500000
O O2 0.876052 0.925988 0.170564
O O3 0.793711 0.898406 0.306024
O O4 0.840261 0.622994 0.718610
O O5 0.136453 0.655642 0.726629
O O6 0.426029 0.868791 0.834440
O O7 0.000000 0.500000 0.000000
O O8 0.221709 0.410644 0.507161
O O9 0.786133 0.934873 0.727044
O O10 0.000000 0.000000 0.000000
O O11 0.380032 0.657018 0.720278
O O12 0.500000 0.500000 0.000000
O O13 0.540561 0.492663 0.237387
O O14 0.217926 0.771728 0.450274
O O15 0.816543 0.474379 0.559925
O O16 0.974362 0.303395 0.982365
O O17 0.439473 0.120500 0.809511
O O18 0.211823 0.779881 0.243263
#
# Coordination Sequence:
#
# PCOD9038613 Si02
#       8
#     2   2   2   2   2   2   2   2
#     4  12  24  45  77 105 142 189 245 299 355 435
#     4  12  27  50  75 108 145 194 245 297 361 435
#     4  10  23  41  71  98 135 186 243 284 354 425
#     4  11  26  43  71 105 148 186 239 298 364 427
#     4  12  28  45  75 109 148 187 241 307 364 426
#     4  12  27  47  75 107 149 190 243 298 374 427
#     4  12  26  47  72 109 148 187 246 297 360 431
#     4  11  24  48  73 100 143 199 243 287 365 439
#
# _framework density 24.025929000000001
#
# number of rings (size 3 to 8) (size 9 to 14) (size 15 to 20)
#    0.000    0.500    2.500    4.875    7.000    2.500 
#    0.000    0.000    0.000    0.000    0.000    0.000 
#    0.000    0.000    0.000    0.000    0.000    0.000 
#
# Total GULP energy -89560.974657 kJ/mol
# GULP energy per Si atom -5597.560916 kJ/mol
# Density = 2.397125 g / cm^3
# Si number density = 24.025929 Si / 1000 Ang^3
#
#
#
# Elastic Constant Matrix: (Units=GPa)
#
#
# Indices 1 2 3 4 5 6 
#
# 1 160.6597 30.3210 42.3388 1.6275 -2.0518 19.3978
# 2 30.3210 53.8542 17.6316 -8.0358 -2.8957 -7.8262
# 3 42.3388 17.6316 101.6910 16.1993 10.7436 11.7662
# 4 1.6275 -8.0358 16.1993 50.5661 3.5249 2.5521
# 5 -2.0518 -2.8957 10.7436 3.5249 54.5918 -8.1870
# 6 19.3978 -7.8262 11.7662 2.5521 -8.1870 49.5877
#
#
#
# Elastic Compliance Matrix: (Units=1/GPa)
#
#
# Indices 1 2 3 4 5 6 
#
# 1 0.008008 -0.004271 -0.002206 -0.000066 0.000022 -0.003276
# 2 -0.004271 0.024193 -0.004237 0.004818 0.002648 0.006684
# 3 -0.002206 -0.004237 0.012863 -0.004354 -0.003028 -0.003134
# 4 -0.000066 0.004818 -0.004354 0.021920 -0.000207 0.000657
# 5 0.000022 0.002648 -0.003028 -0.000207 0.019727 0.004396
# 6 -0.003276 0.006684 -0.003134 0.000657 0.004396 0.023938
#
#
# Mechanical properties :
#
#
# Convention : Reuss Voigt Hill
#
# Bulk Modulus (GPa) = 42.30953 55.19864 48.75408
# Shear Modulus (GPa) = 35.72507 46.01004 40.86755
#
# Velocity S-wave (km/s) = 3.86027 4.38084 4.12876
# Velocity P-wave (km/s) = 6.12512 6.97234 6.56241
#
# Compressibility (1/GPa) = 0.02363534
#
# Stress axis : x y z
#
# Youngs Moduli (GPa) = 124.86812 41.33405 77.74262
#
# Poissons Ratio (x) = 0.17655 0.17153
# Poissons Ratio (y) = 0.53336 0.32938
# Poissons Ratio (z) = 0.27551 0.17513
#
# Static dielectric constant tensor:
#      x y z
#    x 1.885150 0.020940 0.017780 
#    y 0.020940 1.883200 0.015440 
#    z 0.017780 0.015440 2.005510 
# 
# From -- ./inp_files/539280.got.cif
#   From: 2010.05.17/outbox.cif.g08.bks.cpg/sg2_270_cif.got.tgz:539280.got - 2010.06.03 11:33:40.
