data_PCOD9038165
_publ_section_title
;
Structure prediction by ZEFSAII (Michael W. Deem and Ramdas Pophale) SiO2 
 PCOD9038165
Probable space group: P -1
;
_chemical_formula_sum "Si O2"
_cell_formula_units_Z 16
_cell_length_a 12.281573
_cell_length_b 11.295950
_cell_length_c 5.304872
_cell_angle_alpha 117.235019
_cell_angle_beta 79.509732
_cell_angle_gamma 107.684748
_cell_volume 622.636120
_symmetry_space_group_name_H-M "P -1"
_symmetry_group_IT_number 2
_symmetry_cell_setting 'triclinic'
loop_
_space_group_symop_operation_xyz
x,y,z
-x,-y,-z
loop_
_atom_site_type_symbol
_atom_site_label
_atom_site_fract_x
_atom_site_fract_y
_atom_site_fract_z
Si Si1 0.099165 0.222839 0.469217
Si Si2 0.422614 0.107077 0.164730
Si Si3 0.481271 0.350038 0.005666
Si Si4 0.280569 0.176167 0.683882
Si Si5 0.165583 0.993545 0.938113
Si Si6 0.911150 0.263995 0.975057
Si Si7 0.162629 0.507742 0.544111
Si Si8 0.727785 0.356586 0.883970
O O1 0.222761 0.247593 0.569671
O O2 0.089644 0.078002 0.201657
O O3 0.111938 0.346325 0.390353
O O4 0.008278 0.235356 0.729692
O O5 0.384335 0.120254 0.479922
O O6 0.299065 0.041469 0.019621
O O7 0.476198 0.263744 0.194536
O O8 0.500000 0.000000 0.000000
O O9 0.345891 0.292285 0.955969
O O10 0.595537 0.308745 0.821399
O O11 0.500000 0.500000 0.000000
O O12 0.180618 0.052639 0.709706
O O13 0.118002 0.836903 0.874019
O O14 0.794843 0.244771 0.837683
O O15 0.929589 0.418348 0.222094
O O16 0.208190 0.569217 0.316946
O O17 0.257419 0.549795 0.773611
#
# Coordination Sequence:
#
# PCOD9038165 Si02
#       8
#     2   2   2   2   2   2   2   2
#     4  11  23  43  67  99 139 181 232 287 352 415
#     4  10  23  42  64  93 136 182 231 282 350 416
#     4  11  24  40  66  98 135 180 228 287 347 417
#     4  10  25  41  67  96 138 182 223 287 349 417
#     4  10  23  41  66  99 137 179 232 285 351 417
#     4  10  24  43  68 102 135 186 231 293 342 421
#     4  10  25  43  70 102 139 181 230 289 349 409
#     4  10  25  43  70 101 139 179 234 285 347 414
#
# _framework density 25.697194
#
# number of rings (size 3 to 8) (size 9 to 14) (size 15 to 20)
#    0.750    1.000    0.000    2.250    8.750    7.500 
#    0.000    0.000    0.000    0.000    0.000    0.000 
#    0.000    0.000    0.000    0.000    0.000    0.000 
#
# Total GULP energy -89198.788054 kJ/mol
# GULP energy per Si atom -5574.924253 kJ/mol
# Density = 2.563871 g / cm^3
# Si number density = 25.697194 Si / 1000 Ang^3
#
#
#
# Elastic Constant Matrix: (Units=GPa)
#
#
# Indices 1 2 3 4 5 6 
#
# 1 120.4151 17.4399 31.5173 13.0356 -18.3875 -9.3727
# 2 17.4399 131.1087 44.0889 -16.3551 -8.7263 -6.5458
# 3 31.5173 44.0889 57.0751 -30.3596 -17.3276 -3.1228
# 4 13.0356 -16.3551 -30.3596 39.4127 -0.6192 -5.8251
# 5 -18.3875 -8.7263 -17.3276 -0.6192 46.6614 -0.1232
# 6 -9.3727 -6.5458 -3.1228 -5.8251 -0.1232 36.0703
#
#
#
# Elastic Compliance Matrix: (Units=1/GPa)
#
#
# Indices 1 2 3 4 5 6 
#
# 1 0.016315 0.002922 -0.024361 -0.023147 -0.002381 -0.001086
# 2 0.002922 0.011243 -0.015457 -0.008230 -0.002595 0.000123
# 3 -0.024361 -0.015457 0.087518 0.070859 0.020976 0.009957
# 4 -0.023147 -0.008230 0.070859 0.086326 0.016832 0.012625
# 5 -0.002381 -0.002595 0.020976 0.016832 0.028029 0.003540
# 6 -0.001086 0.000123 0.009957 0.012625 0.003540 0.030377
#
#
# Mechanical properties :
#
#
# Convention : Reuss Voigt Hill
#
# Bulk Modulus (GPa) = 24.22287 54.96570 39.59428
# Shear Modulus (GPa) = 14.39412 38.79906 26.59659
#
# Velocity S-wave (km/s) = 2.36930 3.88990 3.22063
# Velocity P-wave (km/s) = 4.11479 6.45068 5.41031
#
# Compressibility (1/GPa) = 0.04128330
#
# Stress axis : x y z
#
# Youngs Moduli (GPa) = 61.29157 88.94121 11.42623
#
# Poissons Ratio (x) = -0.25986 0.27836
# Poissons Ratio (y) = -0.17908 0.17662
# Poissons Ratio (z) = 1.49313 1.37480
#
# Static dielectric constant tensor:
#      x y z
#    x 2.161020 0.093290 0.222900 
#    y 0.093290 2.055500 0.097290 
#    z 0.222900 0.097290 2.257740 
# 
# From -- ./inp_files/95245.got.cif
#   From: 2010.05.17/outbox.cif.g08.bks.cpg/sg2_48_cif.got.tgz:95245.got - 2010.06.03 11:33:40.
