data_PCOD9038331
_publ_section_title
;
Structure prediction by ZEFSAII (Michael W. Deem and Ramdas Pophale) SiO2 
 PCOD9038331
Probable space group: P -1
;
_chemical_formula_sum "Si O2"
_cell_formula_units_Z 14
_cell_length_a 12.896387
_cell_length_b 12.897354
_cell_length_c 11.762817
_cell_angle_alpha 101.763283
_cell_angle_beta 112.782223
_cell_angle_gamma 23.598752
_cell_volume 658.961044
_symmetry_space_group_name_H-M "P -1"
_symmetry_group_IT_number 2
_symmetry_cell_setting 'triclinic'
loop_
_space_group_symop_operation_xyz
x,y,z
-x,-y,-z
loop_
_atom_site_type_symbol
_atom_site_label
_atom_site_fract_x
_atom_site_fract_y
_atom_site_fract_z
Si Si1 0.694479 0.368698 0.162789
Si Si2 0.395036 0.802826 0.295968
Si Si3 0.314184 0.835696 0.739172
Si Si4 0.685335 0.672412 0.006542
Si Si5 0.367071 0.088927 0.139150
Si Si6 0.355319 0.179912 0.587714
Si Si7 0.365982 0.499609 0.433281
O O1 0.531157 0.607529 0.212826
O O2 0.725991 0.245353 0.240321
O O3 0.500000 0.500000 0.000000
O O4 0.033465 0.105137 0.212773
O O5 0.498397 0.833127 0.332621
O O6 0.532694 0.647901 0.442268
O O7 0.508892 0.730660 0.889021
O O8 0.491271 0.674411 0.659131
O O9 0.992845 0.172824 0.659130
O O10 0.662691 0.790511 0.936085
O O11 0.036683 0.343722 0.095663
O O12 0.534457 0.845849 0.095500
O O13 0.558274 0.963228 0.297443
O O14 0.000000 0.500000 0.500000
O O15 0.500000 0.000000 0.500000
O O16 0.500000 0.500000 0.500000
#
# Coordination Sequence:
#
# PCOD9038331 Si02
#       7
#     2   2   2   2   2   2   2
#     4  12  26  44  68 101 137 173 221 263 334 405
#     4  12  27  45  69  97 134 180 215 280 326 385
#     4  12  24  40  70  96 128 171 215 265 327 387
#     4  10  23  41  68  94 122 169 212 279 317 383
#     4  10  23  44  64  92 129 163 223 266 330 376
#     4  12  28  46  69  96 133 178 225 270 331 394
#     4  12  23  43  64  96 131 165 216 262 316 388
#
# _framework density 21.245564000000002
#
# number of rings (size 3 to 8) (size 9 to 14) (size 15 to 20)
#    0.000    0.571    2.857    4.286    8.000    0.000 
#    0.000    0.000    0.000    0.000    0.000    0.000 
#    0.000    0.000    0.000    0.000    0.000    0.000 
#
# Total GULP energy -78385.320488 kJ/mol
# GULP energy per Si atom -5598.951463 kJ/mol
# Density = 2.119721 g / cm^3
# Si number density = 21.245564 Si / 1000 Ang^3
#
#
#
# Elastic Constant Matrix: (Units=GPa)
#
#
# Indices 1 2 3 4 5 6 
#
# 1 62.3715 47.9496 25.5884 -1.3198 9.9066 14.4895
# 2 47.9496 223.9245 91.9428 4.0523 11.0625 -42.7221
# 3 25.5884 91.9428 141.7499 -2.1817 -8.0730 -12.1216
# 4 -1.3198 4.0523 -2.1817 48.6239 -0.9996 7.8098
# 5 9.9066 11.0625 -8.0730 -0.9996 45.1713 -0.6224
# 6 14.4895 -42.7221 -12.1216 7.8098 -0.6224 -21.7081
#
#
#
# Elastic Compliance Matrix: (Units=1/GPa)
#
#
# Indices 1 2 3 4 5 6 
#
# 1 0.014914 -0.000149 -0.001886 -0.001484 -0.003455 0.010866
# 2 -0.000149 0.004772 -0.003778 0.000536 -0.001898 -0.007134
# 3 -0.001886 -0.003778 0.010096 0.000671 0.003168 0.000690
# 4 -0.001484 0.000536 0.000671 0.019777 0.000816 0.004673
# 5 -0.003455 -0.001898 0.003168 0.000816 0.023934 -0.000732
# 6 0.010866 -0.007134 0.000690 0.004673 -0.000732 -0.023457
#
#
# Mechanical properties :
#
#
# Convention : Reuss Voigt Hill
#
# Bulk Modulus (GPa) = 55.07994 84.33417 69.70705
# Shear Modulus (GPa) = 73.83893 31.92174 52.88034
#
# Velocity S-wave (km/s) = 5.90173 3.88043 4.99441
# Velocity P-wave (km/s) = 8.51013 7.73680 8.13266
#
# Compressibility (1/GPa) = 0.01815543
#
# Stress axis : x y z
#
# Youngs Moduli (GPa) = 67.05034 209.55559 99.05247
#
# Poissons Ratio (x) = 0.03112 0.18685
# Poissons Ratio (y) = 0.00996 0.37425
# Poissons Ratio (z) = 0.12648 0.79177
#
# Static dielectric constant tensor:
#      x y z
#    x 1.786700 -0.005930 -0.042780 
#    y -0.005930 1.815170 -0.008130 
#    z -0.042780 -0.008130 1.749830 
# 
# From -- ./inp_files/454867.got.cif
#   From: 2010.05.17/outbox.cif.g08.bks.cpg/sg2_228_cif.got.tgz:454867.got - 2010.06.03 11:33:40.
