data_PCOD9038239
_publ_section_title
;
Structure prediction by ZEFSAII (Michael W. Deem and Ramdas Pophale) SiO2 
 PCOD9038239
Probable space group: P -1
;
_chemical_formula_sum "Si O2"
_cell_formula_units_Z 16
_cell_length_a 6.676354
_cell_length_b 9.878360
_cell_length_c 25.917787
_cell_angle_alpha 35.204475
_cell_angle_beta 133.354349
_cell_angle_gamma 120.766597
_cell_volume 711.521992
_symmetry_space_group_name_H-M "P -1"
_symmetry_group_IT_number 2
_symmetry_cell_setting 'triclinic'
loop_
_space_group_symop_operation_xyz
x,y,z
-x,-y,-z
loop_
_atom_site_type_symbol
_atom_site_label
_atom_site_fract_x
_atom_site_fract_y
_atom_site_fract_z
Si Si1 0.765796 0.270626 0.926687
Si Si2 0.437764 0.769645 0.693306
Si Si3 0.178391 0.232916 0.566553
Si Si4 0.389058 0.910642 0.454607
Si Si5 0.916753 0.570957 0.616052
Si Si6 0.308116 0.846403 0.249403
Si Si7 0.107980 0.750976 0.930340
Si Si8 0.623600 0.919000 0.922184
O O1 0.594489 0.528889 0.818814
O O2 0.642430 0.105045 0.914188
O O3 0.780283 0.171817 0.018131
O O4 0.091436 0.260401 0.971590
O O5 0.191355 0.690690 0.638626
O O6 0.288199 0.979053 0.637678
O O7 0.652250 0.881079 0.659313
O O8 0.126794 0.438203 0.450341
O O9 0.414020 0.265857 0.638888
O O10 0.888443 0.203954 0.550248
O O11 0.646940 0.738133 0.533653
O O12 0.500000 0.000000 0.500000
O O13 0.911962 0.339680 0.722226
O O14 0.371062 0.932237 0.176464
O O15 0.166804 0.073570 0.184776
O O16 0.354022 0.782891 0.924321
O O17 0.000000 0.500000 0.000000
#
# Coordination Sequence:
#
# PCOD9038239 Si02
#       8
#     2   2   2   2   2   2   2   2
#     4  10  23  41  67  96 123 168 210 259 314 373
#     4  11  22  38  67  94 123 167 213 260 311 371
#     4  11  23  42  62  92 133 166 212 259 311 375
#     4  11  21  39  63  93 127 165 210 260 309 363
#     4  11  23  40  62  93 129 166 213 261 308 373
#     4  11  26  41  65  95 125 172 208 257 322 373
#     4  11  24  45  67  92 131 163 206 264 319 377
#     4  10  24  44  64  94 129 159 215 262 311 380
#
# _framework density 22.487007999999999
#
# number of rings (size 3 to 8) (size 9 to 14) (size 15 to 20)
#    0.000    1.250    2.500    3.000    1.750   10.500 
#    0.000    0.000    0.000    0.000    0.000    0.000 
#    0.000    0.000    0.000    0.000    0.000    0.000 
#
# Total GULP energy -89412.617487 kJ/mol
# GULP energy per Si atom -5588.288593 kJ/mol
# Density = 2.243583 g / cm^3
# Si number density = 22.487008 Si / 1000 Ang^3
#
#
#
# Elastic Constant Matrix: (Units=GPa)
#
#
# Indices 1 2 3 4 5 6 
#
# 1 126.4992 29.0559 33.6334 -3.4880 -15.0360 31.0943
# 2 29.0559 59.6854 12.2959 1.0654 -10.1083 13.2681
# 3 33.6334 12.2959 90.3205 -0.7949 -1.1566 10.4888
# 4 -3.4880 1.0654 -0.7949 33.7646 0.4466 -3.9442
# 5 -15.0360 -10.1083 -1.1566 0.4466 27.6210 -10.2320
# 6 31.0943 13.2681 10.4888 -3.9442 -10.2320 31.0552
#
#
#
# Elastic Compliance Matrix: (Units=1/GPa)
#
#
# Indices 1 2 3 4 5 6 
#
# 1 0.011759 -0.002811 -0.002934 0.000167 0.001942 -0.008921
# 2 -0.002811 0.020027 -0.001157 -0.001490 0.004240 -0.004143
# 3 -0.002934 -0.001157 0.012465 -0.000117 -0.002039 -0.001465
# 4 0.000167 -0.001490 -0.000117 0.030205 0.000754 0.004594
# 5 0.001942 0.004240 -0.002039 0.000754 0.042844 0.011145
# 6 -0.008921 -0.004143 -0.001465 0.004594 0.011145 0.047653
#
#
# Mechanical properties :
#
#
# Convention : Reuss Voigt Hill
#
# Bulk Modulus (GPa) = 32.84444 47.38615 40.11530
# Shear Modulus (GPa) = 26.46812 31.92283 29.19547
#
# Velocity S-wave (km/s) = 3.43452 3.77186 3.60714
# Velocity P-wave (km/s) = 5.51050 6.33148 5.93520
#
# Compressibility (1/GPa) = 0.03044655
#
# Stress axis : x y z
#
# Youngs Moduli (GPa) = 85.03970 49.93238 80.22665
#
# Poissons Ratio (x) = 0.14036 0.23537
# Poissons Ratio (y) = 0.23905 0.09285
# Poissons Ratio (z) = 0.24949 0.05779
#
# Static dielectric constant tensor:
#      x y z
#    x 1.824600 -0.029510 -0.030700 
#    y -0.029510 1.899200 -0.001300 
#    z -0.030700 -0.001300 1.890190 
# 
# From -- ./inp_files/53075.got.cif
#   From: 2010.05.17/outbox.cif.g08.bks.cpg/sg2_27_cif.got.tgz:53075.got - 2010.06.03 11:33:40.
