data_PCOD9038450
_publ_section_title
;
Structure prediction by ZEFSAII (Michael W. Deem and Ramdas Pophale) SiO2 
 PCOD9038450
Probable space group: P -1
;
_chemical_formula_sum "Si O2"
_cell_formula_units_Z 16
_cell_length_a 13.760191
_cell_length_b 14.381811
_cell_length_c 8.551596
_cell_angle_alpha 43.551857
_cell_angle_beta 139.299560
_cell_angle_gamma 136.074595
_cell_volume 703.301188
_symmetry_space_group_name_H-M "P -1"
_symmetry_group_IT_number 2
_symmetry_cell_setting 'triclinic'
loop_
_space_group_symop_operation_xyz
x,y,z
-x,-y,-z
loop_
_atom_site_type_symbol
_atom_site_label
_atom_site_fract_x
_atom_site_fract_y
_atom_site_fract_z
Si Si1 0.851021 0.406106 0.825601
Si Si2 0.536412 0.170500 0.858969
Si Si3 0.977111 0.631970 0.222122
Si Si4 0.544325 0.817675 0.893892
Si Si5 0.257982 0.887427 0.382188
Si Si6 0.244580 0.251036 0.337773
Si Si7 0.926552 0.037039 0.704141
Si Si8 0.782005 0.684331 0.404053
O O1 0.716842 0.270095 0.910046
O O2 0.927626 0.352730 0.841708
O O3 0.778539 0.526945 0.547832
O O4 0.000000 0.500000 0.000000
O O5 0.414753 0.233276 0.547001
O O6 0.505512 0.191825 0.976025
O O7 0.500000 0.000000 0.000000
O O8 0.081916 0.772663 0.275302
O O9 0.000000 0.500000 0.500000
O O10 0.803347 0.635230 0.964554
O O11 0.384805 0.809102 0.619765
O O12 0.677403 0.977125 0.821295
O O13 0.633142 0.708338 0.110030
O O14 0.238559 0.948294 0.455056
O O15 0.230850 0.293274 0.451023
O O16 0.117281 0.092075 0.319812
O O17 0.053537 0.186713 0.607294
O O18 0.000000 0.000000 0.000000
#
# Coordination Sequence:
#
# PCOD9038450 Si02
#       8
#     2   2   2   2   2   2   2   2
#     4  12  28  47  72 102 141 185 241 286 354 424
#     4  11  26  47  73 103 139 185 243 291 355 414
#     4  12  26  44  67 102 143 187 230 291 356 419
#     4  10  23  41  69  96 138 184 225 294 348 411
#     4  11  23  41  64 104 143 178 236 281 354 421
#     4  11  25  44  70 102 142 182 243 290 349 420
#     4  12  22  39  73 104 142 183 239 282 356 421
#     4  11  24  45  67 102 139 187 238 293 350 412
#
# _framework density 22.749853999999999
#
# number of rings (size 3 to 8) (size 9 to 14) (size 15 to 20)
#    0.000    0.750    3.750    2.625    5.250    6.000 
#    0.000    1.250    0.000    0.000    0.000    0.000 
#    0.000    0.000    0.000    0.000    0.000    0.000 
#
# Total GULP energy -89421.995871 kJ/mol
# GULP energy per Si atom -5588.874742 kJ/mol
# Density = 2.269807 g / cm^3
# Si number density = 22.749854 Si / 1000 Ang^3
#
#
#
# Elastic Constant Matrix: (Units=GPa)
#
#
# Indices 1 2 3 4 5 6 
#
# 1 68.5959 14.3267 13.8330 -10.3475 12.3582 9.3303
# 2 14.3267 59.5581 16.4012 -9.5194 6.4034 6.3057
# 3 13.8330 16.4012 140.0391 -12.0124 34.7930 13.7585
# 4 -10.3475 -9.5194 -12.0124 26.4726 -6.2398 1.8563
# 5 12.3582 6.4034 34.7930 -6.2398 35.2958 -3.2024
# 6 9.3303 6.3057 13.7585 1.8563 -3.2024 39.1946
#
#
#
# Elastic Compliance Matrix: (Units=1/GPa)
#
#
# Indices 1 2 3 4 5 6 
#
# 1 0.017461 -0.002456 0.001036 0.005294 -0.006197 -0.004882
# 2 -0.002456 0.018865 -0.001086 0.005317 -0.000769 -0.002384
# 3 0.001036 -0.001086 0.010444 0.002627 -0.010425 -0.004714
# 4 0.005294 0.005317 0.002627 0.043738 0.001874 -0.004956
# 5 -0.006197 -0.000769 -0.010425 0.001874 0.042029 0.008603
# 6 -0.004882 -0.002384 -0.004714 -0.004956 0.008603 0.029652
#
#
# Mechanical properties :
#
#
# Convention : Reuss Voigt Hill
#
# Bulk Modulus (GPa) = 23.94692 39.70166 31.82429
# Shear Modulus (GPa) = 27.60595 35.10139 31.35367
#
# Velocity S-wave (km/s) = 3.48725 3.93227 3.71643
# Velocity P-wave (km/s) = 5.17335 6.17303 5.69517
#
# Compressibility (1/GPa) = 0.04175903
#
# Stress axis : x y z
#
# Youngs Moduli (GPa) = 57.26978 53.00813 95.74689
#
# Poissons Ratio (x) = 0.13021 -0.09921
# Poissons Ratio (y) = 0.14068 0.10394
# Poissons Ratio (z) = -0.05934 0.05754
#
# Static dielectric constant tensor:
#      x y z
#    x 1.804970 0.134760 0.203460 
#    y 0.134760 1.207690 -0.418580 
#    z 0.203460 -0.418580 1.665190 
# 
# From -- ./inp_files/314509.got.cif
#   From: 2010.05.17/outbox.cif.g08.bks.cpg/sg2_158_cif.got.tgz:314509.got - 2010.06.03 11:33:40.
