data_PCOD9038695
_publ_section_title
;
Structure prediction by ZEFSAII (Michael W. Deem and Ramdas Pophale) SiO2 
 PCOD9038695
Probable space group: P -1
;
_chemical_formula_sum "Si O2"
_cell_formula_units_Z 14
_cell_length_a 8.648363
_cell_length_b 24.631998
_cell_length_c 8.105496
_cell_angle_alpha 140.970562
_cell_angle_beta 50.617575
_cell_angle_gamma 148.527033
_cell_volume 565.619969
_symmetry_space_group_name_H-M "P -1"
_symmetry_group_IT_number 2
_symmetry_cell_setting 'triclinic'
loop_
_space_group_symop_operation_xyz
x,y,z
-x,-y,-z
loop_
_atom_site_type_symbol
_atom_site_label
_atom_site_fract_x
_atom_site_fract_y
_atom_site_fract_z
Si Si1 0.786283 0.220400 0.939210
Si Si2 0.421836 0.380290 0.832918
Si Si3 0.434155 0.576514 0.778359
Si Si4 0.468518 0.119778 0.428081
Si Si5 0.334879 0.181514 0.961746
Si Si6 0.183490 0.640294 0.468345
Si Si7 0.753487 0.041771 0.132991
O O1 0.903484 0.312234 0.233083
O O2 0.645854 0.245384 0.971001
O O3 0.066604 0.256476 0.769415
O O4 0.508028 0.075241 0.847789
O O5 0.618090 0.367448 0.589847
O O6 0.500000 0.500000 0.000000
O O7 0.524826 0.406806 0.015101
O O8 0.500000 0.500000 0.500000
O O9 0.104809 0.489991 0.729861
O O10 0.640132 0.715185 0.886450
O O11 0.275173 0.093779 0.648534
O O12 0.620728 0.249315 0.542223
O O13 0.713843 0.131573 0.360516
O O14 0.309851 0.016266 0.145380
O O15 0.080931 0.109318 0.101498
#
# Coordination Sequence:
#
# PCOD9038695 Si02
#       7
#     2   2   2   2   2   2   2
#     4  11  27  45  66 104 139 177 224 283 335 399
#     4  12  27  43  68 100 136 177 225 280 336 397
#     4  12  25  44  73 100 139 179 229 275 337 408
#     4  10  23  41  73  99 132 175 235 275 336 402
#     4  12  25  43  71 102 136 181 228 276 339 401
#     4  11  24  46  68  99 140 181 222 275 343 400
#     4  10  24  45  71  98 138 177 225 283 339 396
#
# _framework density 24.751601999999998
#
# number of rings (size 3 to 8) (size 9 to 14) (size 15 to 20)
#    0.000    0.857    2.857    3.000    8.000    5.143 
#    0.000    0.000    0.000    0.000    0.000    0.000 
#    0.000    0.000    0.000    0.000    0.000    0.000 
#
# Total GULP energy -78397.699021 kJ/mol
# GULP energy per Si atom -5599.835644 kJ/mol
# Density = 2.469527 g / cm^3
# Si number density = 24.751602 Si / 1000 Ang^3
#
#
#
# Elastic Constant Matrix: (Units=GPa)
#
#
# Indices 1 2 3 4 5 6 
#
# 1 107.6401 40.9883 21.6000 8.0275 -24.5763 8.2929
# 2 40.9883 81.4229 23.8186 -5.4741 -23.4351 19.0325
# 3 21.6000 23.8186 88.5320 -3.5158 -26.2946 1.3767
# 4 8.0275 -5.4741 -3.5158 24.7977 3.4905 -10.0456
# 5 -24.5763 -23.4351 -26.2946 3.4905 52.9092 -1.9937
# 6 8.2929 19.0325 1.3767 -10.0456 -1.9937 47.8431
#
#
#
# Elastic Compliance Matrix: (Units=1/GPa)
#
#
# Indices 1 2 3 4 5 6 
#
# 1 0.012903 -0.005342 -0.000890 -0.006513 0.003566 -0.001305
# 2 -0.005342 0.018281 -0.002194 0.002618 0.004143 -0.005561
# 3 -0.000890 -0.002194 0.013745 0.001465 0.005393 0.001164
# 4 -0.006513 0.002618 0.001465 0.047789 -0.003917 0.009916
# 5 0.003566 0.004143 0.005393 -0.003917 0.025248 -0.002192
# 6 -0.001305 -0.005561 0.001164 0.009916 -0.002192 0.025297
#
#
# Mechanical properties :
#
#
# Convention : Reuss Voigt Hill
#
# Bulk Modulus (GPa) = 35.61686 50.04543 42.83114
# Shear Modulus (GPa) = 29.50323 37.85587 33.67955
#
# Velocity S-wave (km/s) = 3.45624 3.91504 3.69277
# Velocity P-wave (km/s) = 5.50894 6.37963 5.96020
#
# Compressibility (1/GPa) = 0.02807659
#
# Stress axis : x y z
#
# Youngs Moduli (GPa) = 77.49960 54.70241 72.75605
#
# Poissons Ratio (x) = 0.29220 0.06478
# Poissons Ratio (y) = 0.41398 0.15962
# Poissons Ratio (z) = 0.06900 0.12002
#
# Static dielectric constant tensor:
#      x y z
#    x 1.962040 0.040190 0.016570 
#    y 0.040190 1.959640 -0.033830 
#    z 0.016570 -0.033830 1.986440 
# 
# From -- ./inp_files/226605.got.cif
#   From: 2010.05.17/outbox.cif.g08.bks.cpg/sg2_114_cif.got.tgz:226605.got - 2010.06.03 11:33:40.
