data_PCOD9038965
_publ_section_title
;
Structure prediction by ZEFSAII (Michael W. Deem and Ramdas Pophale) SiO2 
 PCOD9038965
Probable space group: P -1
;
_chemical_formula_sum "Si O2"
_cell_formula_units_Z 16
_cell_length_a 12.419133
_cell_length_b 14.286525
_cell_length_c 9.963550
_cell_angle_alpha 120.780338
_cell_angle_beta 93.291011
_cell_angle_gamma 136.294185
_cell_volume 728.373475
_symmetry_space_group_name_H-M "P -1"
_symmetry_group_IT_number 2
_symmetry_cell_setting 'triclinic'
loop_
_space_group_symop_operation_xyz
x,y,z
-x,-y,-z
loop_
_atom_site_type_symbol
_atom_site_label
_atom_site_fract_x
_atom_site_fract_y
_atom_site_fract_z
Si Si1 0.373007 0.541169 0.644908
Si Si2 0.006094 0.611477 0.807201
Si Si3 0.288828 0.856852 0.554410
Si Si4 0.593007 0.591452 0.925656
Si Si5 0.727759 0.097681 0.710309
Si Si6 0.638243 0.959754 0.029028
Si Si7 0.560488 0.359619 0.564523
Si Si8 0.950102 0.033847 0.147641
O O1 0.456196 0.553019 0.792038
O O2 0.489955 0.627076 0.570536
O O3 0.139303 0.276251 0.403086
O O4 0.395360 0.692737 0.779536
O O5 0.236916 0.844657 0.916238
O O6 0.905843 0.403560 0.621496
O O7 0.800937 0.510773 0.681171
O O8 0.067236 0.682774 0.020595
O O9 0.226592 0.862114 0.415506
O O10 0.337933 0.975596 0.772025
O O11 0.519574 0.995479 0.645316
O O12 0.582747 0.466593 0.761024
O O13 0.500000 0.500000 0.000000
O O14 0.841505 0.861406 0.127340
O O15 0.632544 0.897860 0.606184
O O16 0.779529 0.974019 0.037723
O O17 0.000000 0.000000 0.000000
#
# Coordination Sequence:
#
# PCOD9038965 Si02
#       8
#     2   2   2   2   2   2   2   2
#     4  11  23  42  67  90 129 175 209 260 325 383
#     4  11  21  41  66  94 124 168 219 263 320 389
#     4  10  24  42  61  94 128 168 213 269 323 387
#     4  11  26  42  66  99 134 166 215 272 319 378
#     4  10  23  42  65  88 131 171 210 262 333 382
#     4  11  23  38  65  96 126 161 219 269 313 378
#     4  11  22  41  65  94 127 171 220 256 322 398
#     4  11  23  42  67  95 128 169 218 258 315 392
#
# _framework density 21.966753000000001
#
# number of rings (size 3 to 8) (size 9 to 14) (size 15 to 20)
#    0.000    1.250    3.750    1.125    5.250    3.000 
#    2.250    0.000    0.000    0.000    0.000    0.000 
#    0.000    0.000    0.000    0.000    0.000    0.000 
#
# Total GULP energy -89350.558608 kJ/mol
# GULP energy per Si atom -5584.409913 kJ/mol
# Density = 2.191676 g / cm^3
# Si number density = 21.966753 Si / 1000 Ang^3
#
#
#
# Elastic Constant Matrix: (Units=GPa)
#
#
# Indices 1 2 3 4 5 6 
#
# 1 26.6189 31.9561 24.8216 -1.3507 -7.9108 -5.2149
# 2 31.9561 135.5882 66.5316 -18.3450 -13.8369 -0.6273
# 3 24.8216 66.5316 178.9170 2.8861 -22.1558 3.0594
# 4 -1.3507 -18.3450 2.8861 44.8064 -3.0550 -0.6253
# 5 -7.9108 -13.8369 -22.1558 -3.0550 29.9672 -9.3111
# 6 -5.2149 -0.6273 3.0594 -0.6253 -9.3111 16.8923
#
#
#
# Elastic Compliance Matrix: (Units=1/GPa)
#
#
# Indices 1 2 3 4 5 6 
#
# 1 0.067008 -0.012446 -0.002766 -0.001125 0.019559 0.031464
# 2 -0.012446 0.012373 -0.002916 0.004835 -0.000081 -0.002720
# 3 -0.002766 -0.002916 0.007475 -0.001558 0.003082 -0.000675
# 4 -0.001125 0.004835 -0.001558 0.024710 0.004371 0.003438
# 5 0.019559 -0.000081 0.003082 0.004371 0.051852 0.034220
# 6 0.031464 -0.002720 -0.000675 0.003438 0.034220 0.087922
#
#
# Mechanical properties :
#
#
# Convention : Reuss Voigt Hill
#
# Bulk Modulus (GPa) = 19.76265 65.30472 42.53368
# Shear Modulus (GPa) = 16.42236 32.85418 24.63827
#
# Velocity S-wave (km/s) = 2.73720 3.87154 3.35269
# Velocity P-wave (km/s) = 4.35956 7.05539 5.86448
#
# Compressibility (1/GPa) = 0.05060050
#
# Stress axis : x y z
#
# Youngs Moduli (GPa) = 14.92363 80.82331 133.77208
#
# Poissons Ratio (x) = 1.00595 0.36999
# Poissons Ratio (y) = 0.18574 0.39003
# Poissons Ratio (z) = 0.04128 0.23565
#
# Static dielectric constant tensor:
#      x y z
#    x 1.854560 0.040940 0.087820 
#    y 0.040940 1.847870 0.099150 
#    z 0.087820 0.099150 1.905510 
# 
# From -- ./inp_files/313936.got.cif
#   From: 2010.05.17/outbox.cif.g08.bks.cpg/sg2_157_cif.got.tgz:313936.got - 2010.06.03 11:33:40.
