data_PCOD9038642
_publ_section_title
;
Structure prediction by ZEFSAII (Michael W. Deem and Ramdas Pophale) SiO2 
 PCOD9038642
Probable space group: P -1
;
_chemical_formula_sum "Si O2"
_cell_formula_units_Z 10
_cell_length_a 15.641298
_cell_length_b 5.041985
_cell_length_c 14.315920
_cell_angle_alpha 85.694065
_cell_angle_beta 18.947728
_cell_angle_gamma 86.378169
_cell_volume 365.450103
_symmetry_space_group_name_H-M "P -1"
_symmetry_group_IT_number 2
_symmetry_cell_setting 'triclinic'
loop_
_space_group_symop_operation_xyz
x,y,z
-x,-y,-z
loop_
_atom_site_type_symbol
_atom_site_label
_atom_site_fract_x
_atom_site_fract_y
_atom_site_fract_z
Si Si1 0.298819 0.697760 0.021267
Si Si2 0.241486 0.810061 0.275370
Si Si3 0.810699 0.749472 0.191533
Si Si4 0.479945 0.593787 0.363732
Si Si5 0.817698 0.076744 0.468726
O O1 0.256544 0.614353 0.176089
O O2 0.335247 0.468715 0.913814
O O3 0.070063 0.894769 0.220889
O O4 0.568262 0.872595 0.736860
O O5 0.203217 0.727540 0.424404
O O6 0.000000 0.000000 0.500000
O O7 0.500000 0.000000 0.000000
O O8 0.632726 0.749941 0.283065
O O9 0.619922 0.679935 0.477684
O O10 0.000000 0.500000 0.000000
O O11 0.000000 0.000000 0.000000
O O12 0.232940 0.749282 0.574431
#
# Coordination Sequence:
#
# PCOD9038642 Si02
#       5
#     2   2   2   2   2
#     4  10  23  41  72 107 155 196 255 307 378 456
#     4   8  16  37  62 103 149 200 238 306 368 446
#     4  11  30  53  79 108 158 198 260 332 408 464
#     4  11  28  45  76 114 144 203 260 319 388 470
#     4  10  23  41  72 107 155 196 255 307 378 456
#
# _framework density 27.363517000000002
#
# number of rings (size 3 to 8) (size 9 to 14) (size 15 to 20)
#    0.000    2.000    0.000    0.000   11.200    2.400 
#    0.000    3.000    0.000   14.400    0.000    4.200 
#    0.000    0.000    0.000    0.000    0.000    0.000 
#
# Total GULP energy -56167.343925 kJ/mol
# GULP energy per Si atom -5616.734392 kJ/mol
# Density = 2.730124 g / cm^3
# Si number density = 27.363517 Si / 1000 Ang^3
#
#
#
# Elastic Constant Matrix: (Units=GPa)
#
#
# Indices 1 2 3 4 5 6 
#
# 1 207.3067 55.0308 38.8648 -3.3120 -4.1358 -12.5336
# 2 55.0308 126.9314 37.1422 -7.7969 -13.5751 -0.5216
# 3 38.8648 37.1422 145.5565 4.6198 -25.4909 -1.5775
# 4 -3.3120 -7.7969 4.6198 50.6806 3.6842 -7.0862
# 5 -4.1358 -13.5751 -25.4909 3.6842 56.4221 3.3343
# 6 -12.5336 -0.5216 -1.5775 -7.0862 3.3343 29.6704
#
#
#
# Elastic Compliance Matrix: (Units=1/GPa)
#
#
# Indices 1 2 3 4 5 6 
#
# 1 0.005767 -0.002218 -0.001103 0.000552 -0.000797 0.002560
# 2 -0.002218 0.009544 -0.001656 0.001278 0.001344 -0.000703
# 3 -0.001103 -0.001656 0.008215 -0.001430 0.003371 -0.000779
# 4 0.000552 0.001278 -0.001430 0.020997 -0.001989 0.005418
# 5 -0.000797 0.001344 0.003371 -0.001989 0.019809 -0.002835
# 6 0.002560 -0.000703 -0.000779 0.005418 -0.002835 0.036344
#
#
# Mechanical properties :
#
#
# Convention : Reuss Voigt Hill
#
# Bulk Modulus (GPa) = 73.68691 82.43001 78.05846
# Shear Modulus (GPa) = 43.42037 50.60508 47.01273
#
# Velocity S-wave (km/s) = 3.98778 4.30509 4.14947
# Velocity P-wave (km/s) = 6.94194 7.40953 7.17955
#
# Compressibility (1/GPa) = 0.01357093
#
# Stress axis : x y z
#
# Youngs Moduli (GPa) = 173.39617 104.77905 121.73403
#
# Poissons Ratio (x) = 0.23243 0.13429
# Poissons Ratio (y) = 0.38465 0.20158
# Poissons Ratio (z) = 0.19128 0.17351
#
# Static dielectric constant tensor:
#      x y z
#    x 2.146130 0.035820 0.055360 
#    y 0.035820 2.061050 -0.016530 
#    z 0.055360 -0.016530 2.121320 
# 
# From -- ./inp_files/2836.got.cif
#   From: 2010.05.17/outbox.cif.g08.bks.cpg/sg2_2_cif.got.tgz:2836.got - 2010.06.03 11:33:40.
