data_PCOD9038494
_publ_section_title
;
Structure prediction by ZEFSAII (Michael W. Deem and Ramdas Pophale) SiO2 
 PCOD9038494
Probable space group: P -1
;
_chemical_formula_sum "Si O2"
_cell_formula_units_Z 16
_cell_length_a 5.833931
_cell_length_b 15.455704
_cell_length_c 13.394960
_cell_angle_alpha 41.982481
_cell_angle_beta 65.485704
_cell_angle_gamma 85.509568
_cell_volume 680.489640
_symmetry_space_group_name_H-M "P -1"
_symmetry_group_IT_number 2
_symmetry_cell_setting 'triclinic'
loop_
_space_group_symop_operation_xyz
x,y,z
-x,-y,-z
loop_
_atom_site_type_symbol
_atom_site_label
_atom_site_fract_x
_atom_site_fract_y
_atom_site_fract_z
Si Si1 0.562701 0.344078 0.461229
Si Si2 0.174356 0.149139 0.292341
Si Si3 0.009959 0.403530 0.173426
Si Si4 0.257181 0.660078 0.028586
Si Si5 0.742297 0.969690 0.144498
Si Si6 0.087140 0.182268 0.052773
Si Si7 0.376869 0.791977 0.114321
Si Si8 0.008947 0.391307 0.509643
O O1 0.408863 0.189115 0.664502
O O2 0.320928 0.401919 0.435675
O O3 0.717653 0.346781 0.328258
O O4 0.817553 0.405629 0.441285
O O5 0.079715 0.271163 0.243864
O O6 0.136048 0.133659 0.193508
O O7 0.503171 0.220253 0.178120
O O8 0.000000 0.000000 0.500000
O O9 0.226935 0.509692 0.121569
O O10 0.000000 0.500000 0.000000
O O11 0.292686 0.696915 0.109221
O O12 0.980538 0.681479 0.035795
O O13 0.848843 0.058442 0.149686
O O14 0.561941 0.048609 0.061920
O O15 0.000000 0.000000 0.000000
O O16 0.341779 0.221452 0.898780
O O17 0.162555 0.750730 0.277230
O O18 0.000000 0.500000 0.500000
#
# Coordination Sequence:
#
# PCOD9038494 Si02
#       8
#     2   2   2   2   2   2   2   2
#     4  12  30  46  75 114 150 199 263 318 381 467
#     4  11  26  46  73 109 142 195 257 328 389 453
#     4  12  27  49  75 105 149 203 262 325 389 452
#     4  10  23  45  72 104 141 197 254 307 388 467
#     4  11  23  44  69 109 150 196 240 309 393 460
#     4  10  23  41  70 101 143 188 249 301 381 465
#     4  10  23  41  74 103 152 193 241 308 390 468
#     4  12  27  48  74 110 155 196 252 315 385 466
#
# _framework density 23.512483
#
# number of rings (size 3 to 8) (size 9 to 14) (size 15 to 20)
#    0.000    1.000    2.500    2.250   10.500    4.500 
#    0.000    0.000    0.000    0.000    0.000    0.000 
#    0.000    0.000    0.000    0.000    0.000    0.000 
#
# Total GULP energy -89346.622029 kJ/mol
# GULP energy per Si atom -5584.163877 kJ/mol
# Density = 2.345897 g / cm^3
# Si number density = 23.512483 Si / 1000 Ang^3
#
#
#
# Elastic Constant Matrix: (Units=GPa)
#
#
# Indices 1 2 3 4 5 6 
#
# 1 104.6586 45.3160 29.1989 8.2645 -9.7358 -19.7675
# 2 45.3160 119.9070 36.1216 0.6748 -5.8587 -14.5342
# 3 29.1989 36.1216 132.9485 11.9764 -5.7201 -14.5019
# 4 8.2645 0.6748 11.9764 46.5674 -5.5714 -8.2038
# 5 -9.7358 -5.8587 -5.7201 -5.5714 32.8731 6.6666
# 6 -19.7675 -14.5342 -14.5019 -8.2038 6.6666 50.0962
#
#
#
# Elastic Compliance Matrix: (Units=1/GPa)
#
#
# Indices 1 2 3 4 5 6 
#
# 1 0.012388 -0.003866 -0.001161 -0.001079 0.001989 0.002989
# 2 -0.003866 0.010549 -0.001995 0.001289 0.000380 0.001118
# 3 -0.001161 -0.001995 0.008612 -0.001747 0.000273 0.001133
# 4 -0.001079 0.001289 -0.001747 0.022941 0.002924 0.002810
# 5 0.001989 0.000380 0.000273 0.002924 0.032194 -0.002832
# 6 0.002989 0.001118 0.001133 0.002810 -0.002832 0.022630
#
#
# Mechanical properties :
#
#
# Convention : Reuss Voigt Hill
#
# Bulk Modulus (GPa) = 57.13269 64.30968 60.72119
# Shear Modulus (GPa) = 38.70191 42.36586 40.53388
#
# Velocity S-wave (km/s) = 4.06151 4.24942 4.15653
# Velocity P-wave (km/s) = 6.80780 7.17547 6.99405
#
# Compressibility (1/GPa) = 0.01750311
#
# Stress axis : x y z
#
# Youngs Moduli (GPa) = 80.72546 94.79882 116.12351
#
# Poissons Ratio (x) = 0.36652 0.13487
# Poissons Ratio (y) = 0.31210 0.23163
# Poissons Ratio (z) = 0.09376 0.18910
#
# Static dielectric constant tensor:
#      x y z
#    x 1.997740 0.030380 -0.028120 
#    y 0.030380 1.904580 -0.030280 
#    z -0.028120 -0.030280 1.979890 
# 
# From -- ./inp_files/485196.got.cif
#   From: 2010.05.17/outbox.cif.g08.bks.cpg/sg2_243_cif.got.tgz:485196.got - 2010.06.03 11:33:40.
