data_PCOD9038584
_publ_section_title
;
Structure prediction by ZEFSAII (Michael W. Deem and Ramdas Pophale) SiO2 
 PCOD9038584
Probable space group: P -1
;
_chemical_formula_sum "Si O2"
_cell_formula_units_Z 15
_cell_length_a 15.546729
_cell_length_b 11.707961
_cell_length_c 19.541652
_cell_angle_alpha 30.932666
_cell_angle_beta 22.632934
_cell_angle_gamma 27.788328
_cell_volume 621.075724
_symmetry_space_group_name_H-M "P -1"
_symmetry_group_IT_number 2
_symmetry_cell_setting 'triclinic'
loop_
_space_group_symop_operation_xyz
x,y,z
-x,-y,-z
loop_
_atom_site_type_symbol
_atom_site_label
_atom_site_fract_x
_atom_site_fract_y
_atom_site_fract_z
Si Si1 0.385828 0.496491 0.240503
Si Si2 0.856140 0.546403 0.338825
Si Si3 0.418567 0.702868 0.255856
Si Si4 0.242501 0.661966 0.062729
Si Si5 0.000000 0.500000 0.000000
Si Si6 0.100005 0.289129 0.152479
Si Si7 0.592906 0.991375 0.513794
Si Si8 0.922745 0.980963 0.880484
O O1 0.404268 0.558579 0.273160
O O2 0.247073 0.765739 0.167946
O O3 0.276526 0.301488 0.411134
O O4 0.659605 0.341638 0.083685
O O5 0.720791 0.375525 0.544305
O O6 0.634166 0.831459 0.361132
O O7 0.057798 0.536174 0.253774
O O8 0.997442 0.451453 0.211880
O O9 0.262737 0.002147 0.203113
O O10 0.716686 0.641718 0.070061
O O11 0.113568 0.923443 0.063395
O O12 0.500000 0.500000 0.000000
O O13 0.094464 0.657194 0.792615
O O14 0.862132 0.760699 0.018309
O O15 0.500000 0.000000 0.500000
O O16 0.792327 0.092425 0.309755
#
# Coordination Sequence:
#
# PCOD9038584 Si02
#       8
#     2   2   2   2   1   2   2   2
#     4  11  22  43  68 101 138 186 230 290 363 415
#     4  12  24  44  72 111 141 183 246 298 358 423
#     4  11  22  45  74 101 140 193 236 284 362 428
#     4  10  23  41  71 107 138 180 235 299 357 421
#     4  12  26  44  72  96 142 194 226 294 356 422
#     4  11  26  45  71 101 146 191 239 292 351 434
#     4  12  24  40  69 104 136 181 231 301 353 415
#     4  11  24  46  66 100 143 186 239 285 360 428
#
# _framework density 24.151643
#
# number of rings (size 3 to 8) (size 9 to 14) (size 15 to 20)
#    0.000    0.800    5.333    1.600    1.867    1.600 
#    0.000    4.000    2.933    0.000    0.000    0.000 
#    0.000    0.000    0.000    0.000    0.000    0.000 
#
# Total GULP energy -83638.385437 kJ/mol
# GULP energy per Si atom -5575.892362 kJ/mol
# Density = 2.409667 g / cm^3
# Si number density = 24.151643 Si / 1000 Ang^3
#
#
#
# Elastic Constant Matrix: (Units=GPa)
#
#
# Indices 1 2 3 4 5 6 
#
# 1 99.3505 67.6056 38.0254 13.4561 8.4435 24.4073
# 2 67.6056 187.0550 45.1493 -1.8243 8.1770 14.3398
# 3 38.0254 45.1493 99.7887 8.6009 -2.4665 11.7883
# 4 13.4561 -1.8243 8.6009 32.2011 -0.8676 13.3964
# 5 8.4435 8.1770 -2.4665 -0.8676 31.1348 1.0183
# 6 24.4073 14.3398 11.7883 13.3964 1.0183 51.8390
#
#
#
# Elastic Compliance Matrix: (Units=1/GPa)
#
#
# Indices 1 2 3 4 5 6 
#
# 1 0.016580 -0.004732 -0.003342 -0.004527 -0.003497 -0.004499
# 2 -0.004732 0.007588 -0.001882 0.002971 -0.000770 -0.000196
# 3 -0.003342 -0.001882 0.012397 -0.001835 0.002341 -0.000297
# 4 -0.004527 0.002971 -0.001835 0.036910 0.001587 -0.007843
# 5 -0.003497 -0.000770 0.002341 0.001587 0.033490 0.000259
# 6 -0.004499 -0.000196 -0.000297 -0.007843 0.000259 0.023552
#
#
# Mechanical properties :
#
#
# Convention : Reuss Voigt Hill
#
# Bulk Modulus (GPa) = 60.04692 76.41719 68.23206
# Shear Modulus (GPa) = 32.05516 38.72924 35.39220
#
# Velocity S-wave (km/s) = 3.64709 4.00882 3.83223
# Velocity P-wave (km/s) = 6.53081 7.28950 6.92056
#
# Compressibility (1/GPa) = 0.01665364
#
# Stress axis : x y z
#
# Youngs Moduli (GPa) = 60.31336 131.78391 80.66344
#
# Poissons Ratio (x) = 0.62362 0.26956
# Poissons Ratio (y) = 0.28541 0.15181
# Poissons Ratio (z) = 0.20155 0.24802
#
# Static dielectric constant tensor:
#      x y z
#    x 2.277330 -0.100310 -0.062650 
#    y -0.100310 1.951800 0.013810 
#    z -0.062650 0.013810 2.011520 
# 
# From -- ./inp_files/259929.got.cif
#   From: 2010.05.17/outbox.cif.g08.bks.cpg/sg2_130_cif.got.tgz:259929.got - 2010.06.03 11:33:40.
