data_PCOD9038366
_publ_section_title
;
Structure prediction by ZEFSAII (Michael W. Deem and Ramdas Pophale) SiO2 
 PCOD9038366
Probable space group: P -1
;
_chemical_formula_sum "Si O2"
_cell_formula_units_Z 14
_cell_length_a 15.583107
_cell_length_b 14.415616
_cell_length_c 9.137525
_cell_angle_alpha 140.516801
_cell_angle_beta 139.264362
_cell_angle_gamma 31.211411
_cell_volume 645.972606
_symmetry_space_group_name_H-M "P -1"
_symmetry_group_IT_number 2
_symmetry_cell_setting 'triclinic'
loop_
_space_group_symop_operation_xyz
x,y,z
-x,-y,-z
loop_
_atom_site_type_symbol
_atom_site_label
_atom_site_fract_x
_atom_site_fract_y
_atom_site_fract_z
Si Si1 0.446284 0.249451 0.326341
Si Si2 0.344303 0.102356 0.622447
Si Si3 0.373805 0.468366 0.236384
Si Si4 0.988422 0.835545 0.272537
Si Si5 0.452007 0.561855 0.846271
Si Si6 0.695657 0.018711 0.877967
Si Si7 0.851865 0.707978 0.127642
O O1 0.466225 0.269919 0.204022
O O2 0.395358 0.443594 0.566383
O O3 0.590940 0.075773 0.404546
O O4 0.307102 0.221988 0.096811
O O5 0.510234 0.082126 0.767168
O O6 0.200401 0.281101 0.758268
O O7 0.269887 0.088375 0.360806
O O8 0.500000 0.500000 0.500000
O O9 0.388907 0.489471 0.109179
O O10 0.177823 0.633109 0.235345
O O11 0.916429 0.822809 0.315837
O O12 0.000000 0.000000 0.500000
O O13 0.850601 0.890318 0.036785
O O14 0.500000 0.500000 0.000000
O O15 0.323853 0.792370 0.944060
O O16 0.000000 0.500000 0.000000
#
# Coordination Sequence:
#
# PCOD9038366 Si02
#       7
#     2   2   2   2   2   2   2
#     4  11  21  44  70 100 133 181 233 283 338 418
#     4  11  25  46  73 102 142 186 229 287 353 418
#     4  10  23  41  68  97 136 178 227 283 341 405
#     4  12  26  43  69 106 140 181 235 293 342 414
#     4  11  23  42  70 100 137 180 232 277 350 419
#     4  11  25  46  69 107 144 183 231 287 355 415
#     4  12  26  44  67 104 138 181 237 287 346 410
#
# _framework density 21.672744999999999
#
# number of rings (size 3 to 8) (size 9 to 14) (size 15 to 20)
#    0.000    0.857    4.286    3.000    6.000    0.000 
#    2.571    2.143    0.000    0.000    0.000    0.000 
#    0.000    0.000    0.000    0.000    0.000    0.000 
#
# Total GULP energy -78011.561891 kJ/mol
# GULP energy per Si atom -5572.254421 kJ/mol
# Density = 2.162342 g / cm^3
# Si number density = 21.672745 Si / 1000 Ang^3
#
#
#
# Elastic Constant Matrix: (Units=GPa)
#
#
# Indices 1 2 3 4 5 6 
#
# 1 145.5591 30.2017 44.2678 -1.4417 -13.5994 3.8024
# 2 30.2017 63.6137 16.0928 -0.0840 -7.2871 -0.5121
# 3 44.2678 16.0928 108.5148 12.7734 -10.8469 -12.2921
# 4 -1.4417 -0.0840 12.7734 35.6432 5.9770 2.8532
# 5 -13.5994 -7.2871 -10.8469 5.9770 50.6548 8.6458
# 6 3.8024 -0.5121 -12.2921 2.8532 8.6458 37.0949
#
#
#
# Elastic Compliance Matrix: (Units=1/GPa)
#
#
# Indices 1 2 3 4 5 6 
#
# 1 0.008786 -0.003156 -0.003444 0.001547 0.001417 -0.002535
# 2 -0.003156 0.017694 -0.001227 0.000125 0.001452 -0.000187
# 3 -0.003444 -0.001227 0.012023 -0.005024 0.001315 0.004400
# 4 0.001547 0.000125 -0.005024 0.030807 -0.003710 -0.003327
# 5 0.001417 0.001452 0.001315 -0.003710 0.021816 -0.004489
# 6 -0.002535 -0.000187 0.004400 -0.003327 -0.004489 0.029975
#
#
# Mechanical properties :
#
#
# Convention : Reuss Voigt Hill
#
# Bulk Modulus (GPa) = 43.76533 55.42356 49.59445
# Shear Modulus (GPa) = 34.63237 39.82025 37.22631
#
# Velocity S-wave (km/s) = 4.00180 4.29107 4.14896
# Velocity P-wave (km/s) = 6.44904 7.08375 6.77383
#
# Compressibility (1/GPa) = 0.02284914
#
# Stress axis : x y z
#
# Youngs Moduli (GPa) = 113.81436 56.51684 83.17083
#
# Poissons Ratio (x) = 0.17838 0.28642
# Poissons Ratio (y) = 0.35922 0.10207
# Poissons Ratio (z) = 0.39195 0.06936
#
# Static dielectric constant tensor:
#      x y z
#    x 1.860840 -0.042830 0.033570 
#    y -0.042830 1.983570 -0.088000 
#    z 0.033570 -0.088000 2.006900 
# 
# From -- ./inp_files/174119.got.cif
#   From: 2010.05.17/outbox.cif.g08.bks.cpg/sg2_88_cif.got.tgz:174119.got - 2010.06.03 11:33:40.
