data_PCOD9038997
_publ_section_title
;
Structure prediction by ZEFSAII (Michael W. Deem and Ramdas Pophale) SiO2 
 PCOD9038997
Probable space group: P -1
;
_chemical_formula_sum "Si O2"
_cell_formula_units_Z 16
_cell_length_a 8.920985
_cell_length_b 8.555990
_cell_length_c 14.660959
_cell_angle_alpha 78.546541
_cell_angle_beta 68.781734
_cell_angle_gamma 123.836363
_cell_volume 741.860953
_symmetry_space_group_name_H-M "P -1"
_symmetry_group_IT_number 2
_symmetry_cell_setting 'triclinic'
loop_
_space_group_symop_operation_xyz
x,y,z
-x,-y,-z
loop_
_atom_site_type_symbol
_atom_site_label
_atom_site_fract_x
_atom_site_fract_y
_atom_site_fract_z
Si Si1 0.571633 0.730677 0.470464
Si Si2 0.420316 0.037348 0.924243
Si Si3 0.039210 0.202468 0.009047
Si Si4 0.489636 0.528720 0.107774
Si Si5 0.805649 0.135515 0.734795
Si Si6 0.132042 0.608684 0.552539
Si Si7 0.042961 0.090933 0.225517
Si Si8 0.814423 0.008234 0.542643
O O1 0.500000 0.500000 0.500000
O O2 0.381411 0.715505 0.475858
O O3 0.809052 0.915979 0.348013
O O4 0.603469 0.790569 0.563536
O O5 0.471390 0.259804 0.901389
O O6 0.576975 0.069262 0.809273
O O7 0.162545 0.834208 0.982036
O O8 0.500000 0.000000 0.000000
O O9 0.014583 0.164407 0.128112
O O10 0.295766 0.418893 0.906977
O O11 0.000000 0.000000 0.000000
O O12 0.242660 0.307743 0.213723
O O13 0.500000 0.500000 0.000000
O O14 0.798279 0.056471 0.644121
O O15 0.999995 0.398857 0.671490
O O16 0.863042 0.024340 0.799265
O O17 0.130966 0.794955 0.550284
O O18 0.000000 0.500000 0.500000
O O19 0.000000 0.000000 0.500000
#
# Coordination Sequence:
#
# PCOD9038997 Si02
#       8
#     2   2   2   2   2   2   2   2
#     4  12  23  44  68  98 136 182 228 285 339 410
#     4  11  23  42  71  97 138 172 223 289 340 406
#     4   9  20  41  66  96 124 170 220 273 341 405
#     4   9  20  42  66  94 131 173 221 277 339 411
#     4  11  23  42  64  99 138 176 224 281 348 397
#     4  10  23  42  65  94 136 173 226 283 338 401
#     4  11  22  41  69  94 133 177 229 272 349 408
#     4  11  23  44  65  96 137 181 229 283 333 405
#
# _framework density 21.567385999999999
#
# number of rings (size 3 to 8) (size 9 to 14) (size 15 to 20)
#    0.000    1.500    2.500    3.375    5.250    0.000 
#    4.500    5.625    0.000    0.000    0.000    0.000 
#    0.000    0.000    0.000    0.000    0.000    0.000 
#
# Total GULP energy -89321.724382 kJ/mol
# GULP energy per Si atom -5582.607774 kJ/mol
# Density = 2.151830 g / cm^3
# Si number density = 21.567386 Si / 1000 Ang^3
#
#
#
# Elastic Constant Matrix: (Units=GPa)
#
#
# Indices 1 2 3 4 5 6 
#
# 1 174.6824 57.9847 45.0712 -16.5637 -30.8565 13.2090
# 2 57.9847 112.8926 35.5071 -9.9831 -15.3546 2.7126
# 3 45.0712 35.5071 80.8349 -10.2230 -28.8351 8.2080
# 4 -16.5637 -9.9831 -10.2230 39.0399 0.5827 -10.5826
# 5 -30.8565 -15.3546 -28.8351 0.5827 44.8758 -7.4551
# 6 13.2090 2.7126 8.2080 -10.5826 -7.4551 46.6641
#
#
#
# Elastic Compliance Matrix: (Units=1/GPa)
#
#
# Indices 1 2 3 4 5 6 
#
# 1 0.007940 -0.002927 -0.001665 0.001909 0.003224 -0.000836
# 2 -0.002927 0.011492 -0.003429 0.001068 -0.000134 0.000984
# 3 -0.001665 -0.003429 0.018638 0.003049 0.009554 -0.000390
# 4 0.001909 0.001068 0.003049 0.029098 0.004280 0.006144
# 5 0.003224 -0.000134 0.009554 0.004280 0.031095 0.003353
# 6 -0.000836 0.000984 -0.000390 0.006144 0.003353 0.023607
#
#
# Mechanical properties :
#
#
# Convention : Reuss Voigt Hill
#
# Bulk Modulus (GPa) = 45.39300 71.72618 58.55959
# Shear Modulus (GPa) = 34.42232 41.43909 37.93071
#
# Velocity S-wave (km/s) = 3.99938 4.38811 4.19824
# Velocity P-wave (km/s) = 6.51302 7.68134 7.12118
#
# Compressibility (1/GPa) = 0.02202983
#
# Stress axis : x y z
#
# Youngs Moduli (GPa) = 125.95047 87.01463 53.65261
#
# Poissons Ratio (x) = 0.25469 0.08931
# Poissons Ratio (y) = 0.36865 0.18396
# Poissons Ratio (z) = 0.20966 0.29835
#
# Static dielectric constant tensor:
#      x y z
#    x 1.791860 0.013930 0.011990 
#    y 0.013930 1.787050 0.013920 
#    z 0.011990 0.013920 1.890270 
# 
# From -- ./inp_files/494870.got.cif
#   From: 2010.05.17/outbox.cif.g08.bks.cpg/sg2_248_cif.got.tgz:494870.got - 2010.06.03 11:33:40.
