data_PCOD9038052
_publ_section_title
;
Structure prediction by ZEFSAII (Michael W. Deem and Ramdas Pophale) SiO2 
 PCOD9038052
Probable space group: P -1
;
_chemical_formula_sum "Si O2"
_cell_formula_units_Z 16
_cell_length_a 23.336841
_cell_length_b 6.825829
_cell_length_c 9.594531
_cell_angle_alpha 51.142630
_cell_angle_beta 41.600162
_cell_angle_gamma 40.528094
_cell_volume 653.187048
_symmetry_space_group_name_H-M "P -1"
_symmetry_group_IT_number 2
_symmetry_cell_setting 'triclinic'
loop_
_space_group_symop_operation_xyz
x,y,z
-x,-y,-z
loop_
_atom_site_type_symbol
_atom_site_label
_atom_site_fract_x
_atom_site_fract_y
_atom_site_fract_z
Si Si1 0.444655 0.593745 0.706189
Si Si2 0.966992 0.671144 0.333903
Si Si3 0.283343 0.093615 0.641925
Si Si4 0.302815 0.250675 0.958251
Si Si5 0.213077 0.373585 0.376349
Si Si6 0.850816 0.370657 0.160795
Si Si7 0.462758 0.204946 0.318154
Si Si8 0.664513 0.368524 0.875322
O O1 0.500000 0.500000 0.500000
O O2 0.503873 0.712748 0.637243
O O3 0.322230 0.787763 0.788204
O O4 0.426042 0.422923 0.939356
O O5 0.902646 0.546776 0.438774
O O6 0.889856 0.043212 0.302718
O O7 0.000000 0.500000 0.500000
O O8 0.062385 0.625011 0.090714
O O9 0.279404 0.083361 0.488226
O O10 0.183907 0.385972 0.760850
O O11 0.378344 0.120995 0.503213
O O12 0.295036 0.979827 0.031014
O O13 0.247846 0.330681 0.172354
O O14 0.427915 0.072417 0.820650
O O15 0.243666 0.511422 0.831741
O O16 0.241356 0.593214 0.296375
O O17 0.398111 0.511021 0.208180
#
# Coordination Sequence:
#
# PCOD9038052 Si02
#       8
#     2   2   2   2   2   2   2   2
#     4  11  23  37  64 102 148 196 247 292 344 432
#     4  11  26  52  80 110 136 191 254 316 387 441
#     4  11  25  42  65 113 146 191 246 294 369 437
#     4  11  22  45  73 103 154 195 245 301 360 450
#     4  11  27  42  76 104 142 196 246 309 372 440
#     4  11  25  49  80 107 145 190 249 314 382 441
#     4  10  23  41  66 100 150 204 235 289 361 430
#     4  10  24  44  65 107 148 202 246 290 365 438
#
# _framework density 24.495282
#
# number of rings (size 3 to 8) (size 9 to 14) (size 15 to 20)
#    0.000    1.250    3.750    1.875    8.750    2.500 
#    0.000    2.500    0.000    0.000    0.000    0.000 
#    0.000    0.000    0.000    0.000    0.000    0.000 
#
# Total GULP energy -89223.550674 kJ/mol
# GULP energy per Si atom -5576.471917 kJ/mol
# Density = 2.443953 g / cm^3
# Si number density = 24.495282 Si / 1000 Ang^3
#
#
#
# Elastic Constant Matrix: (Units=GPa)
#
#
# Indices 1 2 3 4 5 6 
#
# 1 133.3793 18.3375 44.0410 -10.0491 4.5068 -20.5129
# 2 18.3375 92.8790 29.6799 -10.0064 15.4157 -17.9522
# 3 44.0410 29.6799 87.4408 -13.5423 9.6793 -6.9366
# 4 -10.0491 -10.0064 -13.5423 35.1846 -5.5510 11.5225
# 5 4.5068 15.4157 9.6793 -5.5510 69.7214 -5.1096
# 6 -20.5129 -17.9522 -6.9366 11.5225 -5.1096 30.6811
#
#
#
# Elastic Compliance Matrix: (Units=1/GPa)
#
#
# Indices 1 2 3 4 5 6 
#
# 1 0.009911 0.000682 -0.004891 -0.000875 0.000279 0.006295
# 2 0.000682 0.013691 -0.004232 -0.000232 -0.001969 0.007269
# 3 -0.004891 -0.004232 0.015836 0.004691 -0.000872 -0.004073
# 4 -0.000875 -0.000232 0.004691 0.034129 0.001275 -0.012265
# 5 0.000279 -0.001969 -0.000872 0.001275 0.015046 0.000864
# 6 0.006295 0.007269 -0.004073 -0.012265 0.000864 0.044885
#
#
# Mechanical properties :
#
#
# Convention : Reuss Voigt Hill
#
# Bulk Modulus (GPa) = 44.33078 55.31286 49.82182
# Shear Modulus (GPa) = 31.66592 41.89349 36.77971
#
# Velocity S-wave (km/s) = 3.59936 4.14002 3.87913
# Velocity P-wave (km/s) = 5.95070 6.74412 6.35979
#
# Compressibility (1/GPa) = 0.02255769
#
# Stress axis : x y z
#
# Youngs Moduli (GPa) = 100.89562 73.03880 63.14779
#
# Poissons Ratio (x) = -0.04982 0.30883
# Poissons Ratio (y) = -0.06882 0.26724
# Poissons Ratio (z) = 0.49343 0.30910
#
# Static dielectric constant tensor:
#      x y z
#    x 1.943990 0.071920 -0.013210 
#    y 0.071920 2.322000 -0.077260 
#    z -0.013210 -0.077260 2.054750 
# 
# From -- ./inp_files/342540.got.cif
#   From: 2010.05.17/outbox.cif.g08.bks.cpg/sg2_172_cif.got.tgz:342540.got - 2010.06.03 11:33:40.
