data_PCOD9038573
_publ_section_title
;
Structure prediction by ZEFSAII (Michael W. Deem and Ramdas Pophale) SiO2 
 PCOD9038573
Probable space group: P -1
;
_chemical_formula_sum "Si O2"
_cell_formula_units_Z 16
_cell_length_a 14.202751
_cell_length_b 14.205989
_cell_length_c 9.586094
_cell_angle_alpha 134.722138
_cell_angle_beta 46.853448
_cell_angle_gamma 149.415704
_cell_volume 682.719839
_symmetry_space_group_name_H-M "P -1"
_symmetry_group_IT_number 2
_symmetry_cell_setting 'triclinic'
loop_
_space_group_symop_operation_xyz
x,y,z
-x,-y,-z
loop_
_atom_site_type_symbol
_atom_site_label
_atom_site_fract_x
_atom_site_fract_y
_atom_site_fract_z
Si Si1 0.052239 0.309666 0.052384
Si Si2 0.025225 0.177504 0.650349
Si Si3 0.656710 0.250975 0.771615
Si Si4 0.612232 0.576287 0.615087
Si Si5 0.474095 0.251661 0.609236
Si Si6 0.667834 0.072635 0.806035
Si Si7 0.286297 0.105336 0.948371
Si Si8 0.808588 0.329549 0.431748
O O1 0.890224 0.301998 0.197200
O O2 0.242194 0.531181 0.132740
O O3 0.101040 0.278573 0.827527
O O4 0.930840 0.110842 0.057009
O O5 0.831669 0.112195 0.755447
O O6 0.183562 0.331267 0.536559
O O7 0.000000 0.000000 0.500000
O O8 0.737762 0.251094 0.830964
O O9 0.693068 0.186461 0.532733
O O10 0.433956 0.105764 0.855828
O O11 0.500000 0.500000 0.500000
O O12 0.487425 0.392494 0.651053
O O13 0.674159 0.749959 0.826857
O O14 0.687117 0.361869 0.540670
O O15 0.401122 0.079284 0.404008
O O16 0.357986 0.186092 0.801859
O O17 0.500000 0.000000 0.000000
O O18 0.000000 0.500000 0.500000
#
# Coordination Sequence:
#
# PCOD9038573 Si02
#       8
#     2   2   2   2   2   2   2   2
#     4  11  22  41  70 100 143 186 238 300 370 434
#     4  12  26  45  69 104 146 195 251 303 366 444
#     4  10  23  41  71 103 141 187 240 300 376 436
#     4  12  27  47  77 101 151 200 250 306 375 444
#     4  11  25  45  73 106 143 198 246 307 375 438
#     4  12  27  44  71 109 153 193 249 303 374 449
#     4  11  23  48  73 105 144 192 248 307 366 444
#     4   9  20  40  69 101 141 179 239 299 366 435
#
# _framework density 23.435676999999998
#
# number of rings (size 3 to 8) (size 9 to 14) (size 15 to 20)
#    0.000    1.000    1.250    4.875    7.000    2.500 
#    2.250    1.875    0.000    0.000    0.000    0.000 
#    0.000    0.000    0.000    0.000    0.000    0.000 
#
# Total GULP energy -89209.481156 kJ/mol
# GULP energy per Si atom -5575.592572 kJ/mol
# Density = 2.338234 g / cm^3
# Si number density = 23.435677 Si / 1000 Ang^3
#
#
#
# Elastic Constant Matrix: (Units=GPa)
#
#
# Indices 1 2 3 4 5 6 
#
# 1 70.5986 21.2246 9.3176 -9.4024 11.0643 -3.2152
# 2 21.2246 127.0924 36.5077 2.1350 10.3607 3.1100
# 3 9.3176 36.5077 152.1863 -6.9021 6.7156 2.3051
# 4 -9.4024 2.1350 -6.9021 43.0395 9.6877 3.2648
# 5 11.0643 10.3607 6.7156 9.6877 24.6786 -5.5953
# 6 -3.2152 3.1100 2.3051 3.2648 -5.5953 37.7317
#
#
#
# Elastic Compliance Matrix: (Units=1/GPa)
#
#
# Indices 1 2 3 4 5 6 
#
# 1 0.017024 -0.002242 0.000171 0.005928 -0.009119 -0.000240
# 2 -0.002242 0.009021 -0.001941 -0.000661 -0.002241 -0.001091
# 3 0.000171 -0.001941 0.007213 0.001820 -0.002105 -0.000736
# 4 0.005928 -0.000661 0.001820 0.028566 -0.015054 -0.004256
# 5 -0.009119 -0.002241 -0.002105 -0.015054 0.054040 0.008853
# 6 -0.000240 -0.001091 -0.000736 -0.004256 0.008853 0.028298
#
#
# Mechanical properties :
#
#
# Convention : Reuss Voigt Hill
#
# Bulk Modulus (GPa) = 39.63293 53.77523 46.70408
# Shear Modulus (GPa) = 31.13362 39.94514 35.53938
#
# Velocity S-wave (km/s) = 3.64877 4.13299 3.89841
# Velocity P-wave (km/s) = 5.89063 6.76544 6.34313
#
# Compressibility (1/GPa) = 0.02523154
#
# Stress axis : x y z
#
# Youngs Moduli (GPa) = 58.74055 110.85328 138.64349
#
# Poissons Ratio (x) = 0.24857 -0.02364
# Poissons Ratio (y) = 0.13172 0.26915
# Poissons Ratio (z) = -0.01002 0.21520
#
# Static dielectric constant tensor:
#      x y z
#    x 1.940430 -0.008160 0.072210 
#    y -0.008160 1.943450 0.098800 
#    z 0.072210 0.098800 2.135860 
# 
# From -- ./inp_files/315834.got.cif
#   From: 2010.05.17/outbox.cif.g08.bks.cpg/sg2_158_cif.got.tgz:315834.got - 2010.06.03 11:33:40.
