data_PCOD9038287
_publ_section_title
;
Structure prediction by ZEFSAII (Michael W. Deem and Ramdas Pophale) SiO2 
 PCOD9038287
Probable space group: P -1
;
_chemical_formula_sum "Si O2"
_cell_formula_units_Z 13
_cell_length_a 9.103835
_cell_length_b 11.427165
_cell_length_c 9.139504
_cell_angle_alpha 142.559995
_cell_angle_beta 108.342717
_cell_angle_gamma 85.473385
_cell_volume 524.019049
_symmetry_space_group_name_H-M "P -1"
_symmetry_group_IT_number 2
_symmetry_cell_setting 'triclinic'
loop_
_space_group_symop_operation_xyz
x,y,z
-x,-y,-z
loop_
_atom_site_type_symbol
_atom_site_label
_atom_site_fract_x
_atom_site_fract_y
_atom_site_fract_z
Si Si1 0.128597 0.437324 0.076150
Si Si2 0.140821 0.714010 0.591912
Si Si3 0.492134 0.621723 0.268385
Si Si4 0.000000 0.000000 0.000000
Si Si5 0.599276 0.301502 0.114897
Si Si6 0.741128 0.044188 0.718959
Si Si7 0.228644 0.042847 0.692336
O O1 0.093953 0.495316 0.287253
O O2 0.309502 0.568192 0.214689
O O3 0.133754 0.210106 0.836817
O O4 0.000000 0.500000 0.000000
O O5 0.021129 0.784439 0.729088
O O6 0.308512 0.740009 0.755603
O O7 0.167117 0.870747 0.621453
O O8 0.590842 0.527733 0.322433
O O9 0.580862 0.854858 0.507338
O O10 0.500000 0.500000 0.000000
O O11 0.877052 0.009180 0.833602
O O12 0.414184 0.163500 0.911056
O O13 0.694700 0.241459 0.949552
O O14 0.778437 0.036876 0.553330
#
# Coordination Sequence:
#
# PCOD9038287 Si02
#       7
#     2   2   2   1   2   2   2
#     4  11  25  43  68 103 138 180 230 284 345 405
#     4  11  25  44  64  97 138 185 227 285 344 408
#     4  11  23  42  71 105 136 176 233 283 339 415
#     4  10  26  46  64  98 142 184 228 282 344 412
#     4  10  23  41  68 100 135 182 224 282 347 403
#     4  11  22  43  70 101 139 179 232 282 345 410
#     4  11  23  41  70 101 135 175 235 285 339 414
#
# _framework density 24.808257999999999
#
# number of rings (size 3 to 8) (size 9 to 14) (size 15 to 20)
#    0.000    1.231    3.077    2.769    2.154    8.615 
#    2.769    3.846    0.000    0.000    0.000    0.000 
#    0.000    0.000    0.000    0.000    0.000    0.000 
#
# Total GULP energy -72642.244423 kJ/mol
# GULP energy per Si atom -5587.864956 kJ/mol
# Density = 2.475179 g / cm^3
# Si number density = 24.808258 Si / 1000 Ang^3
#
#
#
# Elastic Constant Matrix: (Units=GPa)
#
#
# Indices 1 2 3 4 5 6 
#
# 1 116.3069 59.2537 45.5716 6.4444 -5.5032 -30.8624
# 2 59.2537 146.0257 40.8048 -4.8789 1.3064 -28.8197
# 3 45.5716 40.8048 97.0768 -16.7504 -26.0772 -10.5850
# 4 6.4444 -4.8789 -16.7504 36.6897 -13.6548 5.8775
# 5 -5.5032 1.3064 -26.0772 -13.6548 42.9832 5.2704
# 6 -30.8624 -28.8197 -10.5850 5.8775 5.2704 58.7288
#
#
#
# Elastic Compliance Matrix: (Units=1/GPa)
#
#
# Indices 1 2 3 4 5 6 
#
# 1 0.016123 -0.002568 -0.010183 -0.012302 -0.008851 0.007403
# 2 -0.002568 0.009590 -0.003927 -0.002095 -0.004064 0.003223
# 3 -0.010183 -0.003927 0.025955 0.022630 0.022596 -0.006893
# 4 -0.012302 -0.002095 0.022630 0.052578 0.030318 -0.011397
# 5 -0.008851 -0.004064 0.022596 0.030318 0.046798 -0.009807
# 6 0.007403 0.003223 -0.006893 -0.011397 -0.009807 0.023278
#
#
# Mechanical properties :
#
#
# Convention : Reuss Voigt Hill
#
# Bulk Modulus (GPa) = 54.60715 72.29665 63.45190
# Shear Modulus (GPa) = 23.38829 41.93228 32.66029
#
# Velocity S-wave (km/s) = 3.07377 4.11573 3.63231
# Velocity P-wave (km/s) = 5.88701 7.19660 6.57450
#
# Compressibility (1/GPa) = 0.01831262
#
# Stress axis : x y z
#
# Youngs Moduli (GPa) = 62.02237 104.27566 38.52806
#
# Poissons Ratio (x) = 0.26776 0.39232
# Poissons Ratio (y) = 0.15926 0.15131
# Poissons Ratio (z) = 0.63156 0.40952
#
# Static dielectric constant tensor:
#      x y z
#    x 1.930550 0.051750 -0.013560 
#    y 0.051750 1.921630 0.017260 
#    z -0.013560 0.017260 1.960400 
# 
# From -- ./inp_files/173853.got.cif
#   From: 2010.05.17/outbox.cif.g08.bks.cpg/sg2_87_cif.got.tgz:173853.got - 2010.06.03 11:33:40.
