data_PCOD9038956
_publ_section_title
;
Structure prediction by ZEFSAII (Michael W. Deem and Ramdas Pophale) SiO2 
 PCOD9038956
Probable space group: P -1
;
_chemical_formula_sum "Si O2"
_cell_formula_units_Z 16
_cell_length_a 22.750198
_cell_length_b 14.743930
_cell_length_c 6.483944
_cell_angle_alpha 87.128286
_cell_angle_beta 93.763883
_cell_angle_gamma 159.899160
_cell_volume 745.417555
_symmetry_space_group_name_H-M "P -1"
_symmetry_group_IT_number 2
_symmetry_cell_setting 'triclinic'
loop_
_space_group_symop_operation_xyz
x,y,z
-x,-y,-z
loop_
_atom_site_type_symbol
_atom_site_label
_atom_site_fract_x
_atom_site_fract_y
_atom_site_fract_z
Si Si1 0.752823 0.717996 0.446320
Si Si2 0.892812 0.379030 0.684324
Si Si3 0.948050 0.862294 0.199209
Si Si4 0.814296 0.114168 0.020317
Si Si5 0.679157 0.369389 0.981658
Si Si6 0.445933 0.617217 0.196767
Si Si7 0.692466 0.744976 0.047295
Si Si8 0.600149 0.096285 0.695780
O O1 0.804921 0.709424 0.314662
O O2 0.580880 0.448835 0.564277
O O3 0.734373 0.777269 0.286828
O O4 0.905494 0.946342 0.621887
O O5 0.732792 0.214033 0.627531
O O6 0.000000 0.500000 0.500000
O O7 0.024719 0.624853 0.832842
O O8 0.825187 0.193480 0.813965
O O9 0.858244 0.645518 0.104532
O O10 0.000000 0.000000 0.000000
O O11 0.638012 0.883233 0.127730
O O12 0.806827 0.996244 0.982651
O O13 0.622106 0.379712 0.854285
O O14 0.691391 0.306273 0.828642
O O15 0.535621 0.142619 0.147325
O O16 0.321565 0.367879 0.072447
O O17 0.500000 0.500000 0.000000
O O18 0.500000 0.000000 0.500000
#
# Coordination Sequence:
#
# PCOD9038956 Si02
#       8
#     2   2   2   2   2   2   2   2
#     4  11  23  38  69 105 139 187 235 273 371 431
#     4  11  26  47  72  99 139 193 236 293 362 420
#     4  11  23  41  64 103 140 188 222 293 357 432
#     4  10  25  45  70  95 142 183 237 296 350 418
#     4  11  24  45  70 101 146 183 233 306 358 421
#     4  11  22  43  74 100 140 187 233 297 359 427
#     4  10  23  42  65 104 139 179 232 289 345 427
#     4  11  28  45  73 108 135 187 249 298 363 433
#
# _framework density 21.464479999999998
#
# number of rings (size 3 to 8) (size 9 to 14) (size 15 to 20)
#    0.000    1.250    3.750    0.000    3.500    9.000 
#    0.000    0.000    0.000    0.000    0.000    0.000 
#    0.000    0.000    0.000    0.000    0.000    0.000 
#
# Total GULP energy -89411.634947 kJ/mol
# GULP energy per Si atom -5588.227184 kJ/mol
# Density = 2.141563 g / cm^3
# Si number density = 21.464480 Si / 1000 Ang^3
#
#
#
# Elastic Constant Matrix: (Units=GPa)
#
#
# Indices 1 2 3 4 5 6 
#
# 1 115.6999 56.3780 65.8408 -14.8098 20.0596 5.1337
# 2 56.3780 88.7503 56.1908 -11.3023 -1.1728 -18.4812
# 3 65.8408 56.1908 122.9029 -7.3873 4.9619 3.0438
# 4 -14.8098 -11.3023 -7.3873 36.0088 6.2796 -3.4299
# 5 20.0596 -1.1728 4.9619 6.2796 31.1346 -5.3757
# 6 5.1337 -18.4812 3.0438 -3.4299 -5.3757 45.2750
#
#
#
# Elastic Compliance Matrix: (Units=1/GPa)
#
#
# Indices 1 2 3 4 5 6 
#
# 1 0.020595 -0.011198 -0.004733 0.005929 -0.015511 -0.007981
# 2 -0.011198 0.025606 -0.006412 0.001448 0.011257 0.013600
# 3 -0.004733 -0.006412 0.013570 -0.001542 0.000428 -0.003059
# 4 0.005929 0.001448 -0.001542 0.032178 -0.009786 0.001298
# 5 -0.015511 0.011257 0.000428 -0.009786 0.046356 0.011088
# 6 -0.007981 0.013600 -0.003059 0.001298 0.011088 0.030164
#
#
# Mechanical properties :
#
#
# Convention : Reuss Voigt Hill
#
# Bulk Modulus (GPa) = 66.29578 76.01915 71.15747
# Shear Modulus (GPa) = 22.91641 32.41323 27.66482
#
# Velocity S-wave (km/s) = 3.27103 3.89020 3.59397
# Velocity P-wave (km/s) = 6.72454 7.46132 7.10249
#
# Compressibility (1/GPa) = 0.01508392
#
# Stress axis : x y z
#
# Youngs Moduli (GPa) = 48.55457 39.05336 73.69366
#
# Poissons Ratio (x) = 0.43732 0.34882
# Poissons Ratio (y) = 0.54371 0.47254
# Poissons Ratio (z) = 0.22982 0.25042
#
# Static dielectric constant tensor:
#      x y z
#    x 2.039760 0.438940 0.044730 
#    y 0.438940 2.721530 0.121780 
#    z 0.044730 0.121780 1.784840 
# 
# From -- ./inp_files/124210.got.cif
#   From: 2010.05.17/outbox.cif.g08.bks.cpg/sg2_63_cif.got.tgz:124210.got - 2010.06.03 11:33:40.
