data_PCOD9038953
_publ_section_title
;
Structure prediction by ZEFSAII (Michael W. Deem and Ramdas Pophale) SiO2 
 PCOD9038953
Probable space group: P -1
;
_chemical_formula_sum "Si O2"
_cell_formula_units_Z 16
_cell_length_a 11.272552
_cell_length_b 9.197475
_cell_length_c 13.616949
_cell_angle_alpha 112.500673
_cell_angle_beta 52.514727
_cell_angle_gamma 141.323836
_cell_volume 687.815931
_symmetry_space_group_name_H-M "P -1"
_symmetry_group_IT_number 2
_symmetry_cell_setting 'triclinic'
loop_
_space_group_symop_operation_xyz
x,y,z
-x,-y,-z
loop_
_atom_site_type_symbol
_atom_site_label
_atom_site_fract_x
_atom_site_fract_y
_atom_site_fract_z
Si Si1 0.735211 0.661780 0.980239
Si Si2 0.468153 0.150463 0.600343
Si Si3 0.855273 0.219792 0.172046
Si Si4 0.444464 0.289580 0.181332
Si Si5 0.287217 0.561481 0.740033
Si Si6 0.849656 0.699119 0.539922
Si Si7 0.269215 0.161273 0.523760
Si Si8 0.872966 0.079188 0.921824
O O1 0.903689 0.648963 0.875312
O O2 0.878370 0.923479 0.942242
O O3 0.500000 0.500000 0.000000
O O4 0.638558 0.556523 0.109767
O O5 0.705511 0.428492 0.554807
O O6 0.311881 0.141301 0.608545
O O7 0.500000 0.000000 0.500000
O O8 0.342911 0.027016 0.734972
O O9 0.819638 0.375748 0.244413
O O10 0.844976 0.181822 0.050272
O O11 0.570870 0.280054 0.193054
O O12 0.268339 0.265221 0.318592
O O13 0.325363 0.101864 0.104820
O O14 0.483625 0.644417 0.597152
O O15 0.091851 0.293481 0.804831
O O16 0.839445 0.769065 0.454454
O O17 0.108093 0.897298 0.493163
#
# Coordination Sequence:
#
# PCOD9038953 Si02
#       8
#     2   2   2   2   2   2   2   2
#     4  10  23  42  65 103 133 174 231 278 341 417
#     4  12  26  47  70 104 139 184 231 283 349 410
#     4  12  25  45  67 100 143 183 225 286 349 405
#     4  10  23  43  69 105 138 175 238 283 346 410
#     4  11  24  45  67 103 144 178 234 285 339 422
#     4  10  24  45  74 101 138 182 229 293 340 402
#     4  10  24  46  71 104 136 182 240 277 346 406
#     4  11  24  42  73  98 141 181 228 286 344 413
#
# _framework density 23.262039000000001
#
# number of rings (size 3 to 8) (size 9 to 14) (size 15 to 20)
#    0.000    1.250    2.500    1.875    7.000    4.000 
#    2.250    0.000    0.000    0.000    0.000    0.000 
#    0.000    0.000    0.000    0.000    0.000    0.000 
#
# Total GULP energy -89333.317628 kJ/mol
# GULP energy per Si atom -5583.332352 kJ/mol
# Density = 2.320909 g / cm^3
# Si number density = 23.262039 Si / 1000 Ang^3
#
#
#
# Elastic Constant Matrix: (Units=GPa)
#
#
# Indices 1 2 3 4 5 6 
#
# 1 70.3100 21.5562 11.9235 -8.2645 5.1366 4.4534
# 2 21.5562 127.0647 37.8864 -41.7019 -2.7059 14.2489
# 3 11.9235 37.8864 106.0644 -29.2393 7.6676 -6.5110
# 4 -8.2645 -41.7019 -29.2393 40.6765 -4.5327 5.9259
# 5 5.1366 -2.7059 7.6676 -4.5327 28.5329 0.2992
# 6 4.4534 14.2489 -6.5110 5.9259 0.2992 40.4285
#
#
#
# Elastic Compliance Matrix: (Units=1/GPa)
#
#
# Indices 1 2 3 4 5 6 
#
# 1 0.015327 -0.002313 -0.000746 0.000041 -0.002761 -0.000979
# 2 -0.002313 0.014552 -0.001628 0.014870 0.004673 -0.007350
# 3 -0.000746 -0.001628 0.012125 0.006396 -0.002280 0.001688
# 4 0.000041 0.014870 0.006396 0.046865 0.007246 -0.011139
# 5 -0.002761 0.004673 -0.002280 0.007246 0.037783 -0.003052
# 6 -0.000979 -0.007350 0.001688 -0.011139 -0.003052 0.029360
#
#
# Mechanical properties :
#
#
# Convention : Reuss Voigt Hill
#
# Bulk Modulus (GPa) = 30.64619 49.57459 40.11039
# Shear Modulus (GPa) = 28.36668 37.39912 32.88290
#
# Velocity S-wave (km/s) = 3.49584 4.01400 3.76385
# Velocity P-wave (km/s) = 5.43115 6.54527 6.01407
#
# Compressibility (1/GPa) = 0.03263049
#
# Stress axis : x y z
#
# Youngs Moduli (GPa) = 65.24428 68.71974 82.47411
#
# Poissons Ratio (x) = 0.15897 0.06151
# Poissons Ratio (y) = 0.15093 0.13423
# Poissons Ratio (z) = 0.04866 0.11185
#
# Static dielectric constant tensor:
#      x y z
#    x 1.899170 0.043960 0.030550 
#    y 0.043960 1.925400 0.055880 
#    z 0.030550 0.055880 1.904390 
# 
# From -- ./inp_files/515880.got.cif
#   From: 2010.05.17/outbox.cif.g08.bks.cpg/sg2_258_cif.got.tgz:515880.got - 2010.06.03 11:33:40.
