data_PCOD9038356
_publ_section_title
;
Structure prediction by ZEFSAII (Michael W. Deem and Ramdas Pophale) SiO2 
 PCOD9038356
Probable space group: P -1
;
_chemical_formula_sum "Si O2"
_cell_formula_units_Z 14
_cell_length_a 8.913677
_cell_length_b 22.254236
_cell_length_c 8.556364
_cell_angle_alpha 61.607414
_cell_angle_beta 48.168861
_cell_angle_gamma 30.740419
_cell_volume 624.802829
_symmetry_space_group_name_H-M "P -1"
_symmetry_group_IT_number 2
_symmetry_cell_setting 'triclinic'
loop_
_space_group_symop_operation_xyz
x,y,z
-x,-y,-z
loop_
_atom_site_type_symbol
_atom_site_label
_atom_site_fract_x
_atom_site_fract_y
_atom_site_fract_z
Si Si1 0.766495 0.757335 0.466601
Si Si2 0.261753 0.473326 0.238963
Si Si3 0.643666 0.506050 0.534794
Si Si4 0.394230 0.329029 0.754621
Si Si5 0.000144 0.952644 0.910101
Si Si6 0.277448 0.733225 0.080054
Si Si7 0.342709 0.877859 0.313290
O O1 0.377815 0.867602 0.675119
O O2 0.679715 0.783370 0.310547
O O3 0.953973 0.636393 0.548194
O O4 0.034303 0.744809 0.321111
O O5 0.454234 0.466680 0.244150
O O6 0.000000 0.500000 0.500000
O O7 0.993050 0.579551 0.163748
O O8 0.537243 0.352511 0.093397
O O9 0.500000 0.500000 0.500000
O O10 0.558987 0.606384 0.414814
O O11 0.438106 0.319171 0.923522
O O12 0.667629 0.196043 0.658707
O O13 0.028066 0.865639 0.037733
O O14 0.666569 0.067365 0.891920
O O15 0.000000 0.000000 0.000000
O O16 0.000000 0.000000 0.500000
#
# Coordination Sequence:
#
# PCOD9038356 Si02
#       7
#     2   2   2   2   2   2   2
#     4  11  25  47  67 101 141 174 231 289 338 414
#     4  10  23  41  68  96 137 182 221 277 351 408
#     4  11  22  42  66 103 140 173 224 288 345 411
#     4  11  21  42  69 102 137 187 222 280 349 415
#     4  11  24  46  70  98 136 185 233 284 339 403
#     4  12  25  44  71 104 137 181 234 282 347 411
#     4  10  23  44  71  95 136 187 233 277 343 404
#
# _framework density 22.407067999999999
#
# number of rings (size 3 to 8) (size 9 to 14) (size 15 to 20)
#    0.000    1.143    4.286    2.143    6.000    1.714 
#    2.571    0.000    0.000    0.000    0.000    0.000 
#    0.000    0.000    0.000    0.000    0.000    0.000 
#
# Total GULP energy -78017.107025 kJ/mol
# GULP energy per Si atom -5572.650502 kJ/mol
# Density = 2.235607 g / cm^3
# Si number density = 22.407068 Si / 1000 Ang^3
#
#
#
# Elastic Constant Matrix: (Units=GPa)
#
#
# Indices 1 2 3 4 5 6 
#
# 1 133.8968 54.3314 31.6703 -7.7379 38.5073 2.4687
# 2 54.3314 143.7287 18.9138 -10.0451 19.7041 13.5667
# 3 31.6703 18.9138 39.9411 -8.5171 1.7675 9.9276
# 4 -7.7379 -10.0451 -8.5171 27.6077 0.0448 17.8510
# 5 38.5073 19.7041 1.7675 0.0448 50.5079 -9.3191
# 6 2.4687 13.5667 9.9276 17.8510 -9.3191 48.0785
#
#
#
# Elastic Compliance Matrix: (Units=1/GPa)
#
#
# Indices 1 2 3 4 5 6 
#
# 1 0.013090 -0.002653 -0.008879 -0.000240 -0.008572 0.000338
# 2 -0.002653 0.009190 0.000541 0.006258 -0.002582 -0.005393
# 3 -0.008879 0.000541 0.039416 0.019238 0.002487 -0.014497
# 4 -0.000240 0.006258 0.019238 0.064723 -0.008794 -0.031461
# 5 -0.008572 -0.002582 0.002487 -0.008794 0.029023 0.009546
# 6 0.000338 -0.005393 -0.014497 -0.031461 0.009546 0.038828
#
#
# Mechanical properties :
#
#
# Convention : Reuss Voigt Hill
#
# Bulk Modulus (GPa) = 25.17995 58.59975 41.88985
# Shear Modulus (GPa) = 21.78732 39.41555 30.60144
#
# Velocity S-wave (km/s) = 3.12162 4.19867 3.69955
# Velocity P-wave (km/s) = 4.92490 7.05084 6.08148
#
# Compressibility (1/GPa) = 0.03971414
#
# Stress axis : x y z
#
# Youngs Moduli (GPa) = 76.39271 108.81830 25.37019
#
# Poissons Ratio (x) = 0.28874 0.22526
# Poissons Ratio (y) = 0.20270 -0.01373
# Poissons Ratio (z) = 0.67829 -0.05891
#
# Static dielectric constant tensor:
#      x y z
#    x 1.690800 0.048160 -0.270180 
#    y 0.048160 1.824270 0.017060 
#    z -0.270180 0.017060 1.548210 
# 
# From -- ./inp_files/222044.got.cif
#   From: 2010.05.17/outbox.cif.g08.bks.cpg/sg2_112_cif.got.tgz:222044.got - 2010.06.03 11:33:40.
