data_PCOD9038940
_publ_section_title
;
Structure prediction by ZEFSAII (Michael W. Deem and Ramdas Pophale) SiO2 
 PCOD9038940
Probable space group: P -1
;
_chemical_formula_sum "Si O2"
_cell_formula_units_Z 16
_cell_length_a 5.775093
_cell_length_b 5.233741
_cell_length_c 20.905428
_cell_angle_alpha 86.983500
_cell_angle_beta 88.207938
_cell_angle_gamma 94.778099
_cell_volume 628.401569
_symmetry_space_group_name_H-M "P -1"
_symmetry_group_IT_number 2
_symmetry_cell_setting 'triclinic'
loop_
_space_group_symop_operation_xyz
x,y,z
-x,-y,-z
loop_
_atom_site_type_symbol
_atom_site_label
_atom_site_fract_x
_atom_site_fract_y
_atom_site_fract_z
Si Si1 0.458337 0.571226 0.100495
Si Si2 0.129048 0.959282 0.617926
Si Si3 0.206574 0.719156 0.983290
Si Si4 0.621921 0.527296 0.430519
Si Si5 0.275733 0.392368 0.332494
Si Si6 0.788341 0.334488 0.783012
Si Si7 0.611920 0.080602 0.254414
Si Si8 0.138540 0.026426 0.862027
O O1 0.574947 0.363388 0.059758
O O2 0.287392 0.482614 0.160957
O O3 0.670274 0.742262 0.127083
O O4 0.324603 0.753415 0.051176
O O5 0.265879 0.734168 0.587065
O O6 0.217681 0.992826 0.689783
O O7 0.863710 0.842741 0.626931
O O8 0.188948 0.228708 0.578786
O O9 0.089961 0.912099 0.934228
O O10 0.000000 0.500000 0.000000
O O11 0.500000 0.500000 0.500000
O O12 0.417242 0.566409 0.380561
O O13 0.106272 0.525088 0.283083
O O14 0.463269 0.291505 0.283921
O O15 0.942432 0.144136 0.821121
O O16 0.569127 0.158944 0.758979
O O17 0.747139 0.160446 0.187061
#
# Coordination Sequence:
#
# PCOD9038940 Si02
#       8
#     2   2   2   2   2   2   2   2
#     4  10  24  41  63  88 130 172 224 282 353 423
#     4  11  25  43  77 105 148 193 246 296 363 428
#     4  11  24  42  61  89 128 173 228 282 352 420
#     4  11  26  48  73 110 152 194 244 300 355 429
#     4  11  25  43  73 102 147 184 240 291 365 421
#     4  11  23  41  66  97 134 175 231 293 361 423
#     4  10  23  42  64  99 139 177 232 291 357 424
#     4  11  24  40  67  94 128 174 227 281 356 421
#
# _framework density 25.461424999999998
#
# number of rings (size 3 to 8) (size 9 to 14) (size 15 to 20)
#    0.000    1.250    1.250    3.000    3.500   12.000 
#    0.000    0.000    0.000    0.000    0.000    0.000 
#    0.000    0.000    0.000    0.000    0.000    0.000 
#
# Total GULP energy -89573.488649 kJ/mol
# GULP energy per Si atom -5598.343041 kJ/mol
# Density = 2.540347 g / cm^3
# Si number density = 25.461425 Si / 1000 Ang^3
#
#
#
# Elastic Constant Matrix: (Units=GPa)
#
#
# Indices 1 2 3 4 5 6 
#
# 1 64.1098 18.1900 13.5894 2.7838 -10.0380 -2.7337
# 2 18.1900 80.9783 28.7866 -10.5506 -7.8268 7.3730
# 3 13.5894 28.7866 146.8828 -2.3502 -29.2174 -8.5126
# 4 2.7838 -10.5506 -2.3502 38.5106 4.2177 -8.0179
# 5 -10.0380 -7.8268 -29.2174 4.2177 19.3185 -7.2007
# 6 -2.7337 7.3730 -8.5126 -8.0179 -7.2007 37.5247
#
#
#
# Elastic Compliance Matrix: (Units=1/GPa)
#
#
# Indices 1 2 3 4 5 6 
#
# 1 0.018869 -0.004471 0.002027 -0.002968 0.013443 0.004658
# 2 -0.004471 0.015080 -0.003460 0.003828 -0.003765 -0.003978
# 3 0.002027 -0.003460 0.011734 -0.001114 0.020306 0.007148
# 4 -0.002968 0.003828 -0.001114 0.028639 -0.006573 0.003637
# 5 0.013443 -0.003765 0.020306 -0.006573 0.098230 0.023771
# 6 0.004658 -0.003978 0.007148 0.003637 0.023771 0.034730
#
#
# Mechanical properties :
#
#
# Convention : Reuss Voigt Hill
#
# Bulk Modulus (GPa) = 29.51885 45.90033 37.70959
# Shear Modulus (GPa) = 21.70301 34.49775 28.10038
#
# Velocity S-wave (km/s) = 2.92274 3.68489 3.32572
# Velocity P-wave (km/s) = 4.79672 6.01424 5.43966
#
# Compressibility (1/GPa) = 0.03387666
#
# Stress axis : x y z
#
# Youngs Moduli (GPa) = 52.99586 66.31199 85.21966
#
# Poissons Ratio (x) = 0.29645 -0.17274
# Poissons Ratio (y) = 0.23692 0.29486
# Poissons Ratio (z) = -0.10742 0.22944
#
# Static dielectric constant tensor:
#      x y z
#    x 2.064130 -0.083290 -0.002200 
#    y -0.083290 2.050010 -0.038150 
#    z -0.002200 -0.038150 1.995220 
# 
# From -- ./inp_files/11027.got.cif
#   From: 2010.05.17/outbox.cif.g08.bks.cpg/sg2_6_cif.got.tgz:11027.got - 2010.06.03 11:33:40.
