data_PCOD9038784
_publ_section_title
;
Structure prediction by ZEFSAII (Michael W. Deem and Ramdas Pophale) SiO2 
 PCOD9038784
Probable space group: P -1
;
_chemical_formula_sum "Si O2"
_cell_formula_units_Z 12
_cell_length_a 14.688735
_cell_length_b 6.653177
_cell_length_c 9.335762
_cell_angle_alpha 33.718511
_cell_angle_beta 72.864370
_cell_angle_gamma 78.295242
_cell_volume 482.443891
_symmetry_space_group_name_H-M "P -1"
_symmetry_group_IT_number 2
_symmetry_cell_setting 'triclinic'
loop_
_space_group_symop_operation_xyz
x,y,z
-x,-y,-z
loop_
_atom_site_type_symbol
_atom_site_label
_atom_site_fract_x
_atom_site_fract_y
_atom_site_fract_z
Si Si1 0.094507 0.551312 0.524165
Si Si2 0.093182 0.363426 0.967267
Si Si3 0.396411 0.604734 0.931736
Si Si4 0.709184 0.520810 0.228588
Si Si5 0.278088 0.643368 0.208925
Si Si6 0.405700 0.462971 0.475294
O O1 0.081495 0.364842 0.796883
O O2 0.189764 0.449968 0.453483
O O3 0.000000 0.500000 0.500000
O O4 0.106545 0.988343 0.267151
O O5 0.192327 0.610368 0.795875
O O6 0.000000 0.500000 0.000000
O O7 0.303433 0.467207 0.151504
O O8 0.500000 0.500000 0.000000
O O9 0.371651 0.500625 0.841731
O O10 0.393254 0.039216 0.691198
O O11 0.667886 0.352578 0.493513
O O12 0.737856 0.931468 0.029261
O O13 0.383596 0.651337 0.227416
O O14 0.500000 0.500000 0.500000
#
# Coordination Sequence:
#
# PCOD9038784 Si02
#       6
#     2   2   2   2   2   2
#     4  11  24  44  70  98 136 174 220 274 337 399
#     4  11  24  44  68 102 132 175 221 275 336 393
#     4  11  24  40  62  96 124 171 224 268 330 393
#     4  10  23  42  62  89 133 167 216 272 328 394
#     4  10  23  42  62  90 129 170 215 268 334 388
#     4  11  22  40  64  89 127 168 212 273 329 390
#
# _framework density 24.873359000000001
#
# number of rings (size 3 to 8) (size 9 to 14) (size 15 to 20)
#    0.000    1.333    1.667    3.000    2.333    8.000 
#    0.000    0.000    0.000    0.000    0.000    0.000 
#    0.000    0.000    0.000    0.000    0.000    0.000 
#
# Total GULP energy -66912.542952 kJ/mol
# GULP energy per Si atom -5576.045246 kJ/mol
# Density = 2.481675 g / cm^3
# Si number density = 24.873359 Si / 1000 Ang^3
#
#
#
# Elastic Constant Matrix: (Units=GPa)
#
#
# Indices 1 2 3 4 5 6 
#
# 1 122.6885 25.6164 -0.8728 10.8196 16.3111 -3.1098
# 2 25.6164 106.7353 26.9113 16.9973 -3.5516 -17.6952
# 3 -0.8728 26.9113 54.6365 10.0870 13.0448 -5.0475
# 4 10.8196 16.9973 10.0870 38.9862 0.8649 5.6796
# 5 16.3111 -3.5516 13.0448 0.8649 33.4868 7.1317
# 6 -3.1098 -17.6952 -5.0475 5.6796 7.1317 50.2976
#
#
#
# Elastic Compliance Matrix: (Units=1/GPa)
#
#
# Indices 1 2 3 4 5 6 
#
# 1 0.009964 -0.002994 0.003839 -0.002476 -0.006858 0.001200
# 2 -0.002994 0.013100 -0.006617 -0.003785 0.004776 0.003510
# 3 0.003839 -0.006617 0.025976 -0.005039 -0.013190 0.002955
# 4 -0.002476 -0.003785 -0.005039 0.030071 0.003236 -0.005845
# 5 -0.006858 0.004776 -0.013190 0.003236 0.040066 -0.006114
# 6 0.001200 0.003510 0.002955 -0.005845 -0.006114 0.023014
#
#
# Mechanical properties :
#
#
# Convention : Reuss Voigt Hill
#
# Bulk Modulus (GPa) = 26.67030 43.04112 34.85571
# Shear Modulus (GPa) = 30.07815 40.04781 35.06298
#
# Velocity S-wave (km/s) = 3.48120 4.01692 3.75862
# Velocity P-wave (km/s) = 5.18691 6.23345 5.73411
#
# Compressibility (1/GPa) = 0.03749489
#
# Stress axis : x y z
#
# Youngs Moduli (GPa) = 100.36408 76.33823 38.49697
#
# Poissons Ratio (x) = 0.22858 -0.14780
# Poissons Ratio (y) = 0.30052 0.25474
# Poissons Ratio (z) = -0.38533 0.50515
#
# Static dielectric constant tensor:
#      x y z
#    x 2.184150 -0.041710 -0.137350 
#    y -0.041710 1.990140 -0.010970 
#    z -0.137350 -0.010970 2.079250 
# 
# From -- ./inp_files/3223.got.cif
#   From: 2010.05.17/outbox.cif.g08.bks.cpg/sg2_2_cif.got.tgz:3223.got - 2010.06.03 11:33:40.
