data_PCOD9038551
_publ_section_title
;
Structure prediction by ZEFSAII (Michael W. Deem and Ramdas Pophale) SiO2 
 PCOD9038551
Probable space group: P -1
;
_chemical_formula_sum "Si O2"
_cell_formula_units_Z 12
_cell_length_a 15.655658
_cell_length_b 24.355585
_cell_length_c 9.048617
_cell_angle_alpha 31.013724
_cell_angle_beta 29.588655
_cell_angle_gamma 20.745332
_cell_volume 584.195276
_symmetry_space_group_name_H-M "P -1"
_symmetry_group_IT_number 2
_symmetry_cell_setting 'triclinic'
loop_
_space_group_symop_operation_xyz
x,y,z
-x,-y,-z
loop_
_atom_site_type_symbol
_atom_site_label
_atom_site_fract_x
_atom_site_fract_y
_atom_site_fract_z
Si Si1 0.489720 0.984722 0.725252
Si Si2 0.865531 0.613720 0.086529
Si Si3 0.357383 0.464774 0.870373
Si Si4 0.542645 0.589688 0.814892
Si Si5 0.271826 0.905799 0.880944
Si Si6 0.028360 0.075144 0.160947
O O1 0.500000 0.000000 0.500000
O O2 0.611181 0.036638 0.489461
O O3 0.660425 0.801982 0.924669
O O4 0.185597 0.100381 0.942086
O O5 0.720178 0.588345 0.456131
O O6 0.000000 0.500000 0.000000
O O7 0.085892 0.567169 0.962673
O O8 0.500000 0.500000 0.500000
O O9 0.344155 0.483133 0.024755
O O10 0.527382 0.280997 0.012014
O O11 0.249379 0.770539 0.847155
O O12 0.500000 0.500000 0.000000
O O13 0.208231 0.949425 0.048735
O O14 0.000000 0.000000 0.000000
O O15 0.000000 0.000000 0.500000
#
# Coordination Sequence:
#
# PCOD9038551 Si02
#       6
#     2   2   2   2   2   2
#     4  10  23  41  70  99 131 182 226 279 340 412
#     4  12  25  46  71 104 142 184 231 286 355 415
#     4  12  27  47  70 104 141 182 237 288 351 416
#     4  12  28  45  70 101 143 186 230 293 346 414
#     4  11  23  44  71  97 137 180 230 287 342 410
#     4  11  23  45  68 101 136 176 236 277 348 413
#
# _framework density 20.541077000000001
#
# number of rings (size 3 to 8) (size 9 to 14) (size 15 to 20)
#    0.000    0.667    3.333    4.500   11.667    0.000 
#    0.000    1.667    0.000    0.000    0.000    0.000 
#    0.000    0.000    0.000    0.000    0.000    0.000 
#
# Total GULP energy -67069.605761 kJ/mol
# GULP energy per Si atom -5589.133813 kJ/mol
# Density = 2.049432 g / cm^3
# Si number density = 20.541077 Si / 1000 Ang^3
#
#
#
# Elastic Constant Matrix: (Units=GPa)
#
#
# Indices 1 2 3 4 5 6 
#
# 1 144.6553 42.6313 75.6603 6.9384 -5.1314 -21.1745
# 2 42.6313 59.5510 33.4751 6.9407 0.7082 -16.6768
# 3 75.6603 33.4751 202.8212 12.7277 -14.7685 -10.4532
# 4 6.9384 6.9407 12.7277 35.1228 -9.2279 -6.2313
# 5 -5.1314 0.7082 -14.7685 -9.2279 41.4298 6.4704
# 6 -21.1745 -16.6768 -10.4532 -6.2313 6.4704 50.0937
#
#
#
# Elastic Compliance Matrix: (Units=1/GPa)
#
#
# Indices 1 2 3 4 5 6 
#
# 1 0.010225 -0.005187 -0.002873 0.000436 0.000110 0.002036
# 2 -0.005187 0.023294 -0.001685 -0.002849 -0.003097 0.005256
# 3 -0.002873 -0.001685 0.006442 -0.001090 0.001852 -0.000806
# 4 0.000436 -0.002849 -0.001090 0.031390 0.006380 0.002089
# 5 0.000110 -0.003097 0.001852 0.006380 0.026795 -0.003265
# 6 0.002036 0.005256 -0.000806 0.002089 -0.003265 0.023086
#
#
# Mechanical properties :
#
#
# Convention : Reuss Voigt Hill
#
# Bulk Modulus (GPa) = 48.85069 78.95123 63.90096
# Shear Modulus (GPa) = 33.88750 42.34665 38.11707
#
# Velocity S-wave (km/s) = 4.06611 4.54537 4.31240
# Velocity P-wave (km/s) = 6.77332 8.12812 7.48145
#
# Compressibility (1/GPa) = 0.02047054
#
# Stress axis : x y z
#
# Youngs Moduli (GPa) = 97.79716 42.92953 155.23106
#
# Poissons Ratio (x) = 0.22269 0.44593
# Poissons Ratio (y) = 0.50730 0.26162
# Poissons Ratio (z) = 0.28094 0.07235
#
# Static dielectric constant tensor:
#      x y z
#    x 1.758410 -0.021360 -0.049150 
#    y -0.021360 1.755110 0.001710 
#    z -0.049150 0.001710 1.710790 
# 
# From -- ./inp_files/146773.got.cif
#   From: 2010.05.17/outbox.cif.g08.bks.cpg/sg2_74_cif.got.tgz:146773.got - 2010.06.03 11:33:40.
