data_PCOD9038189
_publ_section_title
;
Structure prediction by ZEFSAII (Michael W. Deem and Ramdas Pophale) SiO2 
 PCOD9038189
Probable space group: P -1
;
_chemical_formula_sum "Si O2"
_cell_formula_units_Z 15
_cell_length_a 12.361417
_cell_length_b 13.738422
_cell_length_c 5.653204
_cell_angle_alpha 121.602236
_cell_angle_beta 55.761585
_cell_angle_gamma 130.407706
_cell_volume 584.681653
_symmetry_space_group_name_H-M "P -1"
_symmetry_group_IT_number 2
_symmetry_cell_setting 'triclinic'
loop_
_space_group_symop_operation_xyz
x,y,z
-x,-y,-z
loop_
_atom_site_type_symbol
_atom_site_label
_atom_site_fract_x
_atom_site_fract_y
_atom_site_fract_z
Si Si1 0.737765 0.611621 0.376884
Si Si2 0.221405 0.006358 0.143575
Si Si3 0.043249 0.122500 0.375006
Si Si4 0.896233 0.235941 0.348404
Si Si5 0.892081 0.492772 0.339494
Si Si6 0.634423 0.221652 0.518977
Si Si7 0.531914 0.416125 0.044194
Si Si8 0.500000 0.000000 0.000000
O O1 0.876132 0.757885 0.383138
O O2 0.778241 0.536672 0.428372
O O3 0.693914 0.521268 0.087184
O O4 0.594121 0.622877 0.648571
O O5 0.112844 0.993996 0.478760
O O6 0.169573 0.081541 0.116980
O O7 0.156496 0.857747 0.936113
O O8 0.387867 0.053231 0.089280
O O9 0.988534 0.181521 0.311433
O O10 0.723745 0.197315 0.597851
O O11 0.004425 0.392761 0.454526
O O12 0.782794 0.342831 0.364112
O O13 0.000000 0.500000 0.000000
O O14 0.537771 0.288978 0.794501
O O15 0.542899 0.100813 0.304202
O O16 0.500000 0.500000 0.000000
#
# Coordination Sequence:
#
# PCOD9038189 Si02
#       8
#     2   2   2   2   2   2   2   1
#     4  10  24  40  66 105 135 177 239 290 345 425
#     4  10  23  46  68  95 141 181 231 285 346 416
#     4  10  23  43  70  99 134 182 229 292 341 413
#     4  10  23  41  67 104 124 179 232 286 346 406
#     4  11  23  40  70 102 135 176 231 302 349 407
#     4  11  24  45  69  99 146 188 230 290 358 418
#     4  11  23  43  64 100 141 188 228 281 360 422
#     4  10  26  44  68 102 136 192 230 284 348 428
#
# _framework density 25.654986000000001
#
# number of rings (size 3 to 8) (size 9 to 14) (size 15 to 20)
#    0.000    1.600    1.333    1.600   11.200    0.000 
#    9.600    1.333    0.000    0.000    0.000    0.000 
#    0.000    0.000    0.000    0.000    0.000    0.000 
#
# Total GULP energy -83504.878920 kJ/mol
# GULP energy per Si atom -5566.991928 kJ/mol
# Density = 2.559659 g / cm^3
# Si number density = 25.654986 Si / 1000 Ang^3
#
#
#
# Elastic Constant Matrix: (Units=GPa)
#
#
# Indices 1 2 3 4 5 6 
#
# 1 195.7515 32.5075 48.2933 33.6732 -25.1266 4.5511
# 2 32.5075 63.4385 16.1832 21.5210 -0.0510 5.2117
# 3 48.2933 16.1832 80.5344 26.6696 -19.4447 13.8970
# 4 33.6732 21.5210 26.6696 49.7015 7.9802 -9.6489
# 5 -25.1266 -0.0510 -19.4447 7.9802 51.4334 10.5585
# 6 4.5511 5.2117 13.8970 -9.6489 10.5585 37.0316
#
#
#
# Elastic Compliance Matrix: (Units=1/GPa)
#
#
# Indices 1 2 3 4 5 6 
#
# 1 0.007060 -0.001434 -0.000505 -0.005272 0.004731 -0.003199
# 2 -0.001434 0.020309 0.002834 -0.011465 0.003773 -0.007808
# 3 -0.000505 0.002834 0.028253 -0.023378 0.018652 -0.022349
# 4 -0.005272 -0.011465 -0.023378 0.051558 -0.025968 0.031873
# 5 0.004731 0.003773 0.018652 -0.025968 0.038124 -0.025748
# 6 -0.003199 -0.007808 -0.022349 0.031873 -0.025748 0.052529
#
#
# Mechanical properties :
#
#
# Convention : Reuss Voigt Hill
#
# Bulk Modulus (GPa) = 17.41843 59.29917 38.35880
# Shear Modulus (GPa) = 23.23640 43.81598 33.52619
#
# Velocity S-wave (km/s) = 3.01279 4.13715 3.61890
# Velocity P-wave (km/s) = 4.34820 6.78127 5.69616
#
# Compressibility (1/GPa) = 0.05741045
#
# Stress axis : x y z
#
# Youngs Moduli (GPa) = 141.64801 49.23948 35.39495
#
# Poissons Ratio (x) = 0.07060 0.01789
# Poissons Ratio (y) = 0.20308 -0.10030
# Poissons Ratio (z) = 0.07158 -0.13953
#
# Static dielectric constant tensor:
#      x y z
#    x 2.581310 -0.445840 -0.068810 
#    y -0.445840 2.470540 -0.077710 
#    z -0.068810 -0.077710 2.052760 
# 
# From -- ./inp_files/78730.got.cif
#   From: 2010.05.17/outbox.cif.g08.bks.cpg/sg2_40_cif.got.tgz:78730.got - 2010.06.03 11:33:40.
