data_PCOD9038499
_publ_section_title
;
Structure prediction by ZEFSAII (Michael W. Deem and Ramdas Pophale) SiO2 
 PCOD9038499
Probable space group: P -1
;
_chemical_formula_sum "Si O2"
_cell_formula_units_Z 12
_cell_length_a 9.313999
_cell_length_b 5.273551
_cell_length_c 11.319348
_cell_angle_alpha 120.893123
_cell_angle_beta 99.910779
_cell_angle_gamma 78.106924
_cell_volume 465.403797
_symmetry_space_group_name_H-M "P -1"
_symmetry_group_IT_number 2
_symmetry_cell_setting 'triclinic'
loop_
_space_group_symop_operation_xyz
x,y,z
-x,-y,-z
loop_
_atom_site_type_symbol
_atom_site_label
_atom_site_fract_x
_atom_site_fract_y
_atom_site_fract_z
Si Si1 0.255005 0.435451 0.405350
Si Si2 0.268039 0.581084 0.073139
Si Si3 0.434951 0.696101 0.886833
Si Si4 0.766877 0.932717 0.216156
Si Si5 0.092440 0.923376 0.322976
Si Si6 0.458054 0.929309 0.612317
O O1 0.153775 0.643541 0.348543
O O2 0.353130 0.671360 0.528743
O O3 0.390887 0.184358 0.324929
O O4 0.159489 0.234053 0.423336
O O5 0.409945 0.514499 0.163945
O O6 0.147134 0.812907 0.173803
O O7 0.344240 0.667084 0.985826
O O8 0.202200 0.292293 0.944548
O O9 0.321972 0.773526 0.783768
O O10 0.500000 0.000000 0.000000
O O11 0.917051 0.973051 0.311067
O O12 0.648816 0.829438 0.268636
O O13 0.500000 0.000000 0.500000
#
# Coordination Sequence:
#
# PCOD9038499 Si02
#       6
#     2   2   2   2   2   2
#     4  11  27  48  74 101 141 189 238 290 351 414
#     4  10  23  41  70 102 145 184 234 281 352 422
#     4   9  21  39  64 102 133 188 234 278 335 421
#     4  11  26  43  71 105 143 186 234 292 356 419
#     4  12  27  46  71 110 148 184 224 296 361 420
#     4  11  25  51  76 101 136 189 249 293 342 420
#
# _framework density 25.784058999999999
#
# number of rings (size 3 to 8) (size 9 to 14) (size 15 to 20)
#    0.000    1.333    1.667    1.500   14.000    4.667 
#    0.000    0.000    0.000    0.000    0.000    0.000 
#    0.000    0.000    0.000    0.000    0.000    0.000 
#
# Total GULP energy -67031.796445 kJ/mol
# GULP energy per Si atom -5585.983037 kJ/mol
# Density = 2.572537 g / cm^3
# Si number density = 25.784059 Si / 1000 Ang^3
#
#
#
# Elastic Constant Matrix: (Units=GPa)
#
#
# Indices 1 2 3 4 5 6 
#
# 1 168.0831 54.8749 23.9348 -27.2054 17.7156 -29.7878
# 2 54.8749 138.1799 28.6050 -27.9835 7.7264 -5.1387
# 3 23.9348 28.6050 72.5815 -13.0051 -13.1794 -8.9833
# 4 -27.2054 -27.9835 -13.0051 41.6335 -6.8843 7.7060
# 5 17.7156 7.7264 -13.1794 -6.8843 49.7171 -6.5670
# 6 -29.7878 -5.1387 -8.9833 7.7060 -6.5670 36.6568
#
#
#
# Elastic Compliance Matrix: (Units=1/GPa)
#
#
# Indices 1 2 3 4 5 6 
#
# 1 0.008395 -0.002340 -0.001119 0.002249 -0.001899 0.005407
# 2 -0.002340 0.009575 -0.002714 0.004310 -0.001084 -0.002324
# 3 -0.001119 -0.002714 0.017378 0.003288 0.006333 0.003412
# 4 0.002249 0.004310 0.003288 0.030431 0.003274 -0.002573
# 5 -0.001899 -0.001084 0.006333 0.003274 0.023538 0.003386
# 6 0.005407 -0.002324 0.003412 -0.002573 0.003386 0.033331
#
#
# Mechanical properties :
#
#
# Convention : Reuss Voigt Hill
#
# Bulk Modulus (GPa) = 43.47430 65.96376 54.71903
# Shear Modulus (GPa) = 35.04812 43.69680 39.37246
#
# Velocity S-wave (km/s) = 3.69086 4.12117 3.91193
# Velocity P-wave (km/s) = 5.92122 6.94867 6.45542
#
# Compressibility (1/GPa) = 0.02300210
#
# Stress axis : x y z
#
# Youngs Moduli (GPa) = 119.12036 104.43920 57.54428
#
# Poissons Ratio (x) = 0.24434 0.06439
# Poissons Ratio (y) = 0.27868 0.15620
# Poissons Ratio (z) = 0.13329 0.28349
#
# Static dielectric constant tensor:
#      x y z
#    x 2.005500 0.035240 -0.030190 
#    y 0.035240 2.271690 0.118850 
#    z -0.030190 0.118850 2.179440 
# 
# From -- ./inp_files/129744.got.cif
#   From: 2010.05.17/outbox.cif.g08.bks.cpg/sg2_65_cif.got.tgz:129744.got - 2010.06.03 11:33:40.
