data_PCOD9038770
_publ_section_title
;
Structure prediction by ZEFSAII (Michael W. Deem and Ramdas Pophale) SiO2 
 PCOD9038770
Probable space group: P -1
;
_chemical_formula_sum "Si O2"
_cell_formula_units_Z 14
_cell_length_a 9.906302
_cell_length_b 16.587278
_cell_length_c 13.682097
_cell_angle_alpha 156.037684
_cell_angle_beta 75.059556
_cell_angle_gamma 120.513932
_cell_volume 635.555717
_symmetry_space_group_name_H-M "P -1"
_symmetry_group_IT_number 2
_symmetry_cell_setting 'triclinic'
loop_
_space_group_symop_operation_xyz
x,y,z
-x,-y,-z
loop_
_atom_site_type_symbol
_atom_site_label
_atom_site_fract_x
_atom_site_fract_y
_atom_site_fract_z
Si Si1 0.325739 0.745604 0.115675
Si Si2 0.981386 0.870632 0.463188
Si Si3 0.882072 0.432259 0.347054
Si Si4 0.421035 0.633433 0.767627
Si Si5 0.397537 0.199440 0.722166
Si Si6 0.133214 0.021691 0.216887
Si Si7 0.868694 0.970312 0.077211
O O1 0.469319 0.778710 0.200589
O O2 0.344538 0.994901 0.417303
O O3 0.122470 0.443634 0.850321
O O4 0.380697 0.734328 0.982363
O O5 0.865436 0.904848 0.591936
O O6 0.000000 0.000000 0.500000
O O7 0.202277 0.059157 0.659604
O O8 0.679221 0.355222 0.294175
O O9 0.000000 0.500000 0.500000
O O10 0.029164 0.717464 0.575664
O O11 0.840865 0.182625 0.029575
O O12 0.296943 0.312070 0.453781
O O13 0.646499 0.795930 0.900154
O O14 0.500000 0.500000 0.000000
O O15 0.923199 0.878656 0.053705
O O16 0.000000 0.000000 0.000000
#
# Coordination Sequence:
#
# PCOD9038770 Si02
#       7
#     2   2   2   2   2   2   2
#     4  10  23  42  61  95 133 174 217 270 323 390
#     4  11  22  40  65  94 131 177 215 268 325 383
#     4  11  24  44  65 100 129 169 224 273 332 400
#     4  10  25  42  69  95 132 177 217 270 338 393
#     4  11  22  38  63  93 131 172 223 267 319 384
#     4  10  24  44  65  95 136 171 224 273 324 398
#     4  11  23  46  67  96 131 168 216 278 337 392
#
# _framework density 22.027965999999999
#
# number of rings (size 3 to 8) (size 9 to 14) (size 15 to 20)
#    0.000    1.429    2.857    1.286    2.000    5.143 
#    2.571    0.000    0.000    0.000    0.000    0.000 
#    0.000    0.000    0.000    0.000    0.000    0.000 
#
# Total GULP energy -78143.236336 kJ/mol
# GULP energy per Si atom -5581.659738 kJ/mol
# Density = 2.197783 g / cm^3
# Si number density = 22.027966 Si / 1000 Ang^3
#
#
#
# Elastic Constant Matrix: (Units=GPa)
#
#
# Indices 1 2 3 4 5 6 
#
# 1 149.6620 33.9143 46.2865 25.3211 6.6606 10.0902
# 2 33.9143 73.9836 37.9360 -4.3085 -2.6424 7.1019
# 3 46.2865 37.9360 157.9366 7.9291 -23.0032 17.7999
# 4 25.3211 -4.3085 7.9291 30.2369 6.0473 7.5518
# 5 6.6606 -2.6424 -23.0032 6.0473 44.6719 5.6335
# 6 10.0902 7.1019 17.7999 7.5518 5.6335 32.4398
#
#
#
# Elastic Compliance Matrix: (Units=1/GPa)
#
#
# Indices 1 2 3 4 5 6 
#
# 1 0.009509 -0.004084 -0.001755 -0.008024 -0.001609 0.001047
# 2 -0.004084 0.017714 -0.003270 0.007561 -0.000742 -0.002445
# 3 -0.001755 -0.003270 0.008971 -0.001361 0.005412 -0.004284
# 4 -0.008024 0.007561 -0.001361 0.044017 -0.004012 -0.007963
# 5 -0.001609 -0.000742 0.005412 -0.004012 0.026669 -0.006004
# 6 0.001047 -0.002445 -0.004284 -0.007963 -0.006004 0.036283
#
#
# Mechanical properties :
#
#
# Convention : Reuss Voigt Hill
#
# Bulk Modulus (GPa) = 55.63380 68.65064 62.14222
# Shear Modulus (GPa) = 29.87356 39.03275 34.45315
#
# Velocity S-wave (km/s) = 3.68661 4.21404 3.95912
# Velocity P-wave (km/s) = 6.59032 7.41015 7.01223
#
# Compressibility (1/GPa) = 0.01797469
#
# Stress axis : x y z
#
# Youngs Moduli (GPa) = 105.16742 56.45278 111.47158
#
# Poissons Ratio (x) = 0.23056 0.19565
# Poissons Ratio (y) = 0.42951 0.36453
# Poissons Ratio (z) = 0.18459 0.18461
#
# Static dielectric constant tensor:
#      x y z
#    x 1.819160 -0.038860 0.014910 
#    y -0.038860 1.862260 -0.044590 
#    z 0.014910 -0.044590 1.832140 
# 
# From -- ./inp_files/506852.got.cif
#   From: 2010.05.17/outbox.cif.g08.bks.cpg/sg2_254_cif.got.tgz:506852.got - 2010.06.03 11:33:40.
