data_PCOD9038523
_publ_section_title
;
Structure prediction by ZEFSAII (Michael W. Deem and Ramdas Pophale) SiO2 
 PCOD9038523
Probable space group: P -1
;
_chemical_formula_sum "Si O2"
_cell_formula_units_Z 16
_cell_length_a 8.971156
_cell_length_b 6.864163
_cell_length_c 14.370140
_cell_angle_alpha 86.598915
_cell_angle_beta 69.125907
_cell_angle_gamma 93.289960
_cell_volume 822.438806
_symmetry_space_group_name_H-M "P -1"
_symmetry_group_IT_number 2
_symmetry_cell_setting 'triclinic'
loop_
_space_group_symop_operation_xyz
x,y,z
-x,-y,-z
loop_
_atom_site_type_symbol
_atom_site_label
_atom_site_fract_x
_atom_site_fract_y
_atom_site_fract_z
Si Si1 0.541601 0.388305 0.899794
Si Si2 0.409014 0.200862 0.193682
Si Si3 0.188808 0.910260 0.129075
Si Si4 0.164408 0.110256 0.731729
Si Si5 0.118540 0.806228 0.584740
Si Si6 0.294839 0.032853 0.907805
Si Si7 0.313803 0.427230 0.554186
Si Si8 0.775138 0.860240 0.588585
O O1 0.583085 0.565460 0.814626
O O2 0.690272 0.258433 0.883446
O O3 0.393780 0.237981 0.906506
O O4 0.500000 0.500000 0.000000
O O5 0.367586 0.124142 0.307985
O O6 0.273629 0.099197 0.158409
O O7 0.574136 0.125934 0.123777
O O8 0.020135 0.845408 0.215195
O O9 0.179214 0.967713 0.021033
O O10 0.220346 0.052253 0.822776
O O11 0.272253 0.291242 0.657442
O O12 0.163530 0.933229 0.663074
O O13 0.202256 0.606531 0.575583
O O14 0.927069 0.791641 0.613672
O O15 0.180352 0.933412 0.477579
O O16 0.500000 0.500000 0.500000
O O17 0.267071 0.293164 0.479152
#
# Coordination Sequence:
#
# PCOD9038523 Si02
#       8
#     2   2   2   2   2   2   2   2
#     4  11  21  40  65  92 126 163 213 260 305 362
#     4  11  22  39  69  95 122 169 211 256 309 371
#     4  11  22  43  64  93 128 167 214 258 301 375
#     4  11  26  42  63  95 129 169 209 252 320 374
#     4  10  23  46  65  91 128 161 209 266 311 374
#     4  11  24  40  64  93 132 168 211 253 310 372
#     4  11  27  43  64  97 129 159 209 265 316 379
#     4  10  23  41  70  93 120 166 212 254 320 371
#
# _framework density 19.454336999999999
#
# number of rings (size 3 to 8) (size 9 to 14) (size 15 to 20)
#    0.000    1.250    3.750    1.500    7.000    2.000 
#    0.000    0.625    0.000    0.000    0.000    0.000 
#    0.000    0.000    0.000    0.000    0.000    0.000 
#
# Total GULP energy -89393.678095 kJ/mol
# GULP energy per Si atom -5587.104881 kJ/mol
# Density = 1.941006 g / cm^3
# Si number density = 19.454337 Si / 1000 Ang^3
#
#
#
# Elastic Constant Matrix: (Units=GPa)
#
#
# Indices 1 2 3 4 5 6 
#
# 1 40.8894 4.7662 -0.1489 -8.0405 0.8543 4.9853
# 2 4.7662 68.7880 9.8632 -8.0914 0.9364 2.8670
# 3 -0.1489 9.8632 100.9378 0.0319 -5.7962 0.5300
# 4 -8.0405 -8.0914 0.0319 20.0212 3.7088 -2.8225
# 5 0.8543 0.9364 -5.7962 3.7088 34.8539 -2.4033
# 6 4.9853 2.8670 0.5300 -2.8225 -2.4033 12.2962
#
#
#
# Elastic Compliance Matrix: (Units=1/GPa)
#
#
# Indices 1 2 3 4 5 6 
#
# 1 0.027664 -0.000304 -0.000021 0.010121 -0.002391 -0.009288
# 2 -0.000304 0.015629 -0.001603 0.006145 -0.001494 -0.002333
# 3 -0.000021 -0.001603 0.010170 -0.001004 0.001847 0.000074
# 4 0.010121 0.006145 -0.001004 0.058621 -0.006355 0.006721
# 5 -0.002391 -0.001494 0.001847 -0.006355 0.030165 0.005675
# 6 -0.009288 -0.002333 0.000074 0.006721 0.005675 0.088284
#
#
# Mechanical properties :
#
#
# Convention : Reuss Voigt Hill
#
# Bulk Modulus (GPa) = 20.15860 26.61956 23.38908
# Shear Modulus (GPa) = 19.92635 26.50991 23.21813
#
# Velocity S-wave (km/s) = 3.20388 3.69545 3.45841
# Velocity P-wave (km/s) = 4.90622 5.64989 5.29113
#
# Compressibility (1/GPa) = 0.04960663
#
# Stress axis : x y z
#
# Youngs Moduli (GPa) = 36.14794 63.98491 98.33149
#
# Poissons Ratio (x) = 0.01943 0.00209
# Poissons Ratio (y) = 0.01097 0.15763
# Poissons Ratio (z) = 0.00077 0.10257
#
# Static dielectric constant tensor:
#      x y z
#    x 1.677780 0.007320 0.000020 
#    y 0.007320 1.650240 -0.019660 
#    z 0.000020 -0.019660 1.691040 
# 
# From -- ./inp_files/37909.got.cif
#   From: 2010.05.17/outbox.cif.g08.bks.cpg/sg2_19_cif.got.tgz:37909.got - 2010.06.03 11:33:40.
