data_PCOD9038477
_publ_section_title
;
Structure prediction by ZEFSAII (Michael W. Deem and Ramdas Pophale) SiO2 
 PCOD9038477
Probable space group: P -1
;
_chemical_formula_sum "Si O2"
_cell_formula_units_Z 16
_cell_length_a 5.671305
_cell_length_b 28.813408
_cell_length_c 8.331860
_cell_angle_alpha 145.363657
_cell_angle_beta 121.013787
_cell_angle_gamma 54.732539
_cell_volume 629.435814
_symmetry_space_group_name_H-M "P -1"
_symmetry_group_IT_number 2
_symmetry_cell_setting 'triclinic'
loop_
_space_group_symop_operation_xyz
x,y,z
-x,-y,-z
loop_
_atom_site_type_symbol
_atom_site_label
_atom_site_fract_x
_atom_site_fract_y
_atom_site_fract_z
Si Si1 0.494241 0.819933 0.106722
Si Si2 0.801746 0.935994 0.655689
Si Si3 0.949969 0.676763 0.429961
Si Si4 0.542621 0.379356 0.995884
Si Si5 0.565827 0.544973 0.308718
Si Si6 0.939634 0.658391 0.732170
Si Si7 0.870063 0.214482 0.416207
Si Si8 0.199649 0.961948 0.614313
O O1 0.726773 0.729222 0.972108
O O2 0.306513 0.814347 0.870155
O O3 0.674044 0.886755 0.332734
O O4 0.313491 0.860364 0.317608
O O5 0.495329 0.988046 0.781159
O O6 0.990004 0.861178 0.626087
O O7 0.011911 0.978273 0.756680
O O8 0.847537 0.694037 0.624513
O O9 0.289968 0.630723 0.449670
O O10 0.894220 0.758061 0.528090
O O11 0.790662 0.615592 0.116675
O O12 0.569075 0.472791 0.233293
O O13 0.730931 0.351662 0.142188
O O14 0.696071 0.302626 0.702807
O O15 0.852070 0.572539 0.478109
O O16 0.500000 0.500000 0.000000
O O17 0.000000 0.000000 0.500000
#
# Coordination Sequence:
#
# PCOD9038477 Si02
#       8
#     2   2   2   2   2   2   2   2
#     4  10  23  41  69  99 136 179 221 280 340 411
#     4  10  25  42  73 102 141 175 230 274 335 411
#     4  12  25  40  68  88 135 172 237 285 353 398
#     4  12  25  41  65  90 131 176 236 289 349 405
#     4  12  23  45  61  89 134 179 228 291 352 406
#     4  12  25  43  63  98 129 176 233 285 349 413
#     4  12  24  42  66 101 129 182 226 283 336 409
#     4  10  23  47  75 103 144 182 216 275 345 408
#
# _framework density 25.419588000000001
#
# number of rings (size 3 to 8) (size 9 to 14) (size 15 to 20)
#    0.750    0.000    6.250    1.125    3.500    2.500 
#    0.000    1.250    0.000    0.000    0.000    0.000 
#    0.000    0.000    0.000    0.000    0.000    0.000 
#
# Total GULP energy -89364.600431 kJ/mol
# GULP energy per Si atom -5585.287527 kJ/mol
# Density = 2.536173 g / cm^3
# Si number density = 25.419588 Si / 1000 Ang^3
#
#
#
# Elastic Constant Matrix: (Units=GPa)
#
#
# Indices 1 2 3 4 5 6 
#
# 1 120.6969 45.7579 25.6830 -10.8313 12.9112 8.1422
# 2 45.7579 106.4386 10.8574 -15.2346 -6.2203 12.4715
# 3 25.6830 10.8574 92.2929 -9.4007 11.2728 -0.1516
# 4 -10.8313 -15.2346 -9.4007 39.6295 -11.7805 6.5467
# 5 12.9112 -6.2203 11.2728 -11.7805 24.4290 1.2727
# 6 8.1422 12.4715 -0.1516 6.5467 1.2727 34.1742
#
#
#
# Elastic Compliance Matrix: (Units=1/GPa)
#
#
# Indices 1 2 3 4 5 6 
#
# 1 0.011328 -0.005290 -0.001800 -0.001467 -0.007199 -0.000227
# 2 -0.005290 0.014232 -0.000727 0.008085 0.010961 -0.005894
# 3 -0.001800 -0.000727 0.012039 0.000602 -0.004540 0.000801
# 4 -0.001467 0.008085 0.000602 0.035826 0.020365 -0.010220
# 5 -0.007199 0.010961 -0.004540 0.020365 0.059886 -0.008437
# 6 -0.000227 -0.005894 0.000801 -0.010220 -0.008437 0.033742
#
#
# Mechanical properties :
#
#
# Convention : Reuss Voigt Hill
#
# Bulk Modulus (GPa) = 45.53146 53.78056 49.65601
# Shear Modulus (GPa) = 26.31461 35.45520 30.88491
#
# Velocity S-wave (km/s) = 3.22096 3.73875 3.48947
# Velocity P-wave (km/s) = 5.63770 6.31195 5.98433
#
# Compressibility (1/GPa) = 0.02196284
#
# Stress axis : x y z
#
# Youngs Moduli (GPa) = 88.27966 70.26524 83.06455
#
# Poissons Ratio (x) = 0.37172 0.14955
# Poissons Ratio (y) = 0.46702 0.06040
# Poissons Ratio (z) = 0.15894 0.05109
#
# Static dielectric constant tensor:
#      x y z
#    x 2.193600 -0.123190 -0.100290 
#    y -0.123190 2.203000 0.133250 
#    z -0.100290 0.133250 2.054570 
# 
# From -- ./inp_files/143419.got.cif
#   From: 2010.05.17/outbox.cif.g08.bks.cpg/sg2_72_cif.got.tgz:143419.got - 2010.06.03 11:33:40.
