data_PCOD9038235
_publ_section_title
;
Structure prediction by ZEFSAII (Michael W. Deem and Ramdas Pophale) SiO2 
 PCOD9038235
Probable space group: P -1
;
_chemical_formula_sum "Si O2"
_cell_formula_units_Z 16
_cell_length_a 5.106721
_cell_length_b 9.185013
_cell_length_c 25.342150
_cell_angle_alpha 48.614254
_cell_angle_beta 80.974135
_cell_angle_gamma 59.868177
_cell_volume 742.747305
_symmetry_space_group_name_H-M "P -1"
_symmetry_group_IT_number 2
_symmetry_cell_setting 'triclinic'
loop_
_space_group_symop_operation_xyz
x,y,z
-x,-y,-z
loop_
_atom_site_type_symbol
_atom_site_label
_atom_site_fract_x
_atom_site_fract_y
_atom_site_fract_z
Si Si1 0.744828 0.549675 0.952760
Si Si2 0.285960 0.416198 0.551367
Si Si3 0.615137 0.983639 0.210314
Si Si4 0.486605 0.606038 0.341370
Si Si5 0.186877 0.058906 0.673065
Si Si6 0.146908 0.152391 0.952945
Si Si7 0.083314 0.624103 0.204901
Si Si8 0.252119 0.645375 0.711567
O O1 0.933999 0.376974 0.940795
O O2 0.576494 0.804929 0.873291
O O3 0.500000 0.500000 0.000000
O O4 0.000000 0.500000 0.000000
O O5 0.500000 0.500000 0.500000
O O6 0.259473 0.490986 0.595806
O O7 0.394106 0.149277 0.619441
O O8 0.000000 0.500000 0.500000
O O9 0.470275 0.828970 0.263475
O O10 0.661461 0.063413 0.246699
O O11 0.941974 0.800735 0.215833
O O12 0.594435 0.420750 0.335948
O O13 0.147036 0.714502 0.353319
O O14 0.138484 0.899279 0.673792
O O15 0.103877 0.234009 0.874573
O O16 0.500000 0.000000 0.000000
O O17 0.000000 0.000000 0.000000
O O18 0.000866 0.428522 0.261258
O O19 0.454609 0.515231 0.219825
#
# Coordination Sequence:
#
# PCOD9038235 Si02
#       8
#     2   2   2   2   2   2   2   2
#     4  12  27  43  65  93 130 179 226 281 341 409
#     4  11  23  43  71 100 137 179 216 263 329 392
#     4  10  23  41  67  95 129 171 225 274 340 392
#     4  10  23  44  69  99 135 174 216 278 326 391
#     4  11  23  42  73  97 133 176 220 272 327 396
#     4  12  25  43  62  89 128 174 223 279 345 408
#     4  11  23  42  63  93 129 167 213 289 332 390
#     4  11  25  40  66 102 130 166 225 271 331 387
#
# _framework density 21.541644999999999
#
# number of rings (size 3 to 8) (size 9 to 14) (size 15 to 20)
#    0.000    1.000    2.500    3.750    7.000    1.000 
#    0.000    1.250    0.000    0.000    0.000    0.000 
#    0.000    0.000    0.000    0.000    0.000    0.000 
#
# Total GULP energy -89378.300241 kJ/mol
# GULP energy per Si atom -5586.143765 kJ/mol
# Density = 2.149262 g / cm^3
# Si number density = 21.541645 Si / 1000 Ang^3
#
#
#
# Elastic Constant Matrix: (Units=GPa)
#
#
# Indices 1 2 3 4 5 6 
#
# 1 114.6030 23.4758 35.0371 11.3175 8.1897 7.3004
# 2 23.4758 130.1452 29.7014 11.7944 -8.5703 25.2580
# 3 35.0371 29.7014 119.0566 28.0892 1.8472 8.3843
# 4 11.3175 11.7944 28.0892 17.9896 5.1376 7.5153
# 5 8.1897 -8.5703 1.8472 5.1376 38.9625 4.6933
# 6 7.3004 25.2580 8.3843 7.5153 4.6933 32.1733
#
#
#
# Elastic Compliance Matrix: (Units=1/GPa)
#
#
# Indices 1 2 3 4 5 6 
#
# 1 0.009964 -0.001292 -0.002282 -0.001234 -0.002101 -0.000057
# 2 -0.001292 0.010035 -0.001235 -0.001802 0.003664 -0.007376
# 3 -0.002282 -0.001235 0.014295 -0.021730 0.002090 0.002533
# 4 -0.001234 -0.001802 -0.021730 0.100604 -0.010615 -0.014594
# 5 -0.002101 0.003664 0.002090 -0.010615 0.028775 -0.004662
# 6 -0.000057 -0.007376 0.002533 -0.014594 -0.004662 0.040314
#
#
# Mechanical properties :
#
#
# Convention : Reuss Voigt Hill
#
# Bulk Modulus (GPa) = 40.52688 60.02594 50.27641
# Shear Modulus (GPa) = 22.53964 36.19777 29.36871
#
# Velocity S-wave (km/s) = 3.23821 4.10367 3.69636
# Velocity P-wave (km/s) = 5.73022 7.09782 6.45037
#
# Compressibility (1/GPa) = 0.02467498
#
# Stress axis : x y z
#
# Youngs Moduli (GPa) = 100.36378 99.65279 69.95333
#
# Poissons Ratio (x) = 0.12873 0.15964
# Poissons Ratio (y) = 0.12965 0.08642
# Poissons Ratio (z) = 0.22904 0.12312
#
# Static dielectric constant tensor:
#      x y z
#    x 1.817790 -0.009200 0.026670 
#    y -0.009200 1.799470 0.017740 
#    z 0.026670 0.017740 1.805410 
# 
# From -- ./inp_files/547233.got.cif
#   From: 2010.05.17/outbox.cif.g08.bks.cpg/sg2_274_cif.got.tgz:547233.got - 2010.06.03 11:33:40.
