data_PCOD9038797
_publ_section_title
;
Structure prediction by ZEFSAII (Michael W. Deem and Ramdas Pophale) SiO2 
 PCOD9038797
Probable space group: P -1
;
_chemical_formula_sum "Si O2"
_cell_formula_units_Z 12
_cell_length_a 5.288816
_cell_length_b 15.434709
_cell_length_c 13.691106
_cell_angle_alpha 150.410376
_cell_angle_beta 113.497821
_cell_angle_gamma 78.118938
_cell_volume 481.003149
_symmetry_space_group_name_H-M "P -1"
_symmetry_group_IT_number 2
_symmetry_cell_setting 'triclinic'
loop_
_space_group_symop_operation_xyz
x,y,z
-x,-y,-z
loop_
_atom_site_type_symbol
_atom_site_label
_atom_site_fract_x
_atom_site_fract_y
_atom_site_fract_z
Si Si1 0.534030 0.683388 0.550547
Si Si2 0.105743 0.928508 0.069949
Si Si3 0.426741 0.709553 0.774032
Si Si4 0.255234 0.096586 0.456008
Si Si5 0.993122 0.390124 0.740932
Si Si6 0.886035 0.236261 0.782317
O O1 0.357282 0.698944 0.637343
O O2 0.611513 0.496005 0.394782
O O3 0.327848 0.666208 0.408480
O O4 0.803857 0.869292 0.767958
O O5 0.270218 0.979145 0.248139
O O6 0.243271 0.801701 0.903105
O O7 0.768081 0.831415 0.946725
O O8 0.556156 0.171124 0.631018
O O9 0.149307 0.270703 0.585932
O O10 0.038957 0.940506 0.338783
O O11 0.047416 0.329054 0.799938
O O12 0.085583 0.609683 0.979421
#
# Coordination Sequence:
#
# PCOD9038797 Si02
#       6
#     2   2   2   2   2   2
#     4  11  25  47  73 103 142 185 236 290 353 418
#     4  12  25  47  74 106 141 187 235 289 355 421
#     4  11  28  47  72 108 142 186 236 293 350 420
#     4  11  23  41  68  97 136 177 229 285 348 414
#     4  11  22  43  66  97 133 182 229 284 347 413
#     4  10  23  42  63 100 131 179 231 287 343 413
#
# _framework density 24.947863999999999
#
# number of rings (size 3 to 8) (size 9 to 14) (size 15 to 20)
#    0.000    1.000    1.667    4.000    0.000    8.000 
#   12.000    0.000    0.000    0.000    0.000    0.000 
#    0.000    0.000    0.000    0.000    0.000    0.000 
#
# Total GULP energy -67148.789276 kJ/mol
# GULP energy per Si atom -5595.732440 kJ/mol
# Density = 2.489108 g / cm^3
# Si number density = 24.947864 Si / 1000 Ang^3
#
#
#
# Elastic Constant Matrix: (Units=GPa)
#
#
# Indices 1 2 3 4 5 6 
#
# 1 83.6939 17.2654 41.0185 -4.7566 -17.8337 -7.7749
# 2 17.2654 47.5624 36.1175 -4.2669 -1.5820 5.2815
# 3 41.0185 36.1175 152.0306 -11.2838 -19.4213 -13.5859
# 4 -4.7566 -4.2669 -11.2838 25.8025 1.7817 1.6584
# 5 -17.8337 -1.5820 -19.4213 1.7817 43.3624 -3.3464
# 6 -7.7749 5.2815 -13.5859 1.6584 -3.3464 19.4244
#
#
#
# Elastic Compliance Matrix: (Units=1/GPa)
#
#
# Indices 1 2 3 4 5 6 
#
# 1 0.015835 -0.005206 -0.001516 0.000469 0.006221 0.007725
# 2 -0.005206 0.031028 -0.008144 0.002152 -0.006092 -0.017450
# 3 -0.001516 -0.008144 0.010491 0.002043 0.004430 0.009534
# 4 0.000469 0.002152 0.002043 0.040300 -0.000664 -0.002523
# 5 0.006221 -0.006092 0.004430 -0.000664 0.028349 0.012185
# 6 0.007725 -0.017450 0.009534 -0.002523 0.012185 0.068301
#
#
# Mechanical properties :
#
#
# Convention : Reuss Voigt Hill
#
# Bulk Modulus (GPa) = 36.20408 52.45442 44.32925
# Shear Modulus (GPa) = 21.43689 30.31025 25.87357
#
# Velocity S-wave (km/s) = 2.93451 3.48939 3.22391
# Velocity P-wave (km/s) = 5.10149 6.10784 5.62720
#
# Compressibility (1/GPa) = 0.02762120
#
# Stress axis : x y z
#
# Youngs Moduli (GPa) = 63.15160 32.22947 95.32020
#
# Poissons Ratio (x) = 0.16779 0.14448
# Poissons Ratio (y) = 0.32876 0.77632
# Poissons Ratio (z) = 0.09572 0.26249
#
# Static dielectric constant tensor:
#      x y z
#    x 1.950960 0.078110 -0.023720 
#    y 0.078110 2.059040 -0.017480 
#    z -0.023720 -0.017480 1.959720 
# 
# From -- ./inp_files/229997.got.cif
#   From: 2010.05.17/outbox.cif.g08.bks.cpg/sg2_115_cif.got.tgz:229997.got - 2010.06.03 11:33:40.
