data_PCOD9038292
_publ_section_title
;
Structure prediction by ZEFSAII (Michael W. Deem and Ramdas Pophale) SiO2 
 PCOD9038292
Probable space group: P -1
;
_chemical_formula_sum "Si O2"
_cell_formula_units_Z 16
_cell_length_a 14.796061
_cell_length_b 5.633425
_cell_length_c 18.092462
_cell_angle_alpha 95.222256
_cell_angle_beta 28.373104
_cell_angle_gamma 103.931848
_cell_volume 671.271324
_symmetry_space_group_name_H-M "P -1"
_symmetry_group_IT_number 2
_symmetry_cell_setting 'triclinic'
loop_
_space_group_symop_operation_xyz
x,y,z
-x,-y,-z
loop_
_atom_site_type_symbol
_atom_site_label
_atom_site_fract_x
_atom_site_fract_y
_atom_site_fract_z
Si Si1 0.709404 0.269990 0.639583
Si Si2 0.058646 0.098215 0.073430
Si Si3 0.088969 0.154859 0.542152
Si Si4 0.296268 0.585459 0.979964
Si Si5 0.634189 0.099064 0.212804
Si Si6 0.620429 0.998206 0.839632
Si Si7 0.669099 0.241835 0.350884
Si Si8 0.111982 0.321228 0.694498
O O1 0.819123 0.568746 0.555756
O O2 0.840191 0.079030 0.538911
O O3 0.553910 0.149039 0.680968
O O4 0.614974 0.204325 0.787530
O O5 0.896468 0.232217 0.176407
O O6 0.239489 0.292308 0.995892
O O7 0.939619 0.882364 0.209282
O O8 0.170237 0.991789 0.927983
O O9 0.147604 0.215949 0.587538
O O10 0.850172 0.053964 0.698384
O O11 0.327852 0.719576 0.880655
O O12 0.497154 0.728604 0.883794
O O13 0.095801 0.612909 0.162687
O O14 0.606487 0.243223 0.310285
O O15 0.500000 0.000000 0.000000
O O16 0.705980 0.454204 0.393304
O O17 0.500000 0.000000 0.500000
#
# Coordination Sequence:
#
# PCOD9038292 Si02
#       8
#     2   2   2   2   2   2   2   2
#     4  11  28  48  73 107 149 192 242 295 371 427
#     4  10  23  42  69  96 140 178 243 295 358 422
#     4  12  26  49  73 105 153 194 234 304 365 427
#     4   9  21  43  67 101 136 177 242 291 358 425
#     4  10  23  43  69  97 136 191 234 297 355 433
#     4  11  23  47  76 109 140 191 246 295 357 436
#     4  11  24  42  65 102 138 182 242 293 366 428
#     4  10  23  41  68 100 139 184 238 292 354 425
#
# _framework density 23.835369
#
# number of rings (size 3 to 8) (size 9 to 14) (size 15 to 20)
#    0.000    1.500    1.250    1.875    8.750    6.000 
#    4.500    3.125    0.000    0.000    0.000    0.000 
#    0.000    0.000    0.000    0.000    0.000    0.000 
#
# Total GULP energy -89412.268822 kJ/mol
# GULP energy per Si atom -5588.266801 kJ/mol
# Density = 2.378112 g / cm^3
# Si number density = 23.835369 Si / 1000 Ang^3
#
#
#
# Elastic Constant Matrix: (Units=GPa)
#
#
# Indices 1 2 3 4 5 6 
#
# 1 84.8048 5.7679 42.6749 12.8689 -26.7262 37.7072
# 2 5.7679 75.4222 40.1584 -10.6499 -24.6579 18.6626
# 3 42.6749 40.1584 94.2362 -5.2839 -6.5955 14.2963
# 4 12.8689 -10.6499 -5.2839 47.1011 18.1582 -10.8151
# 5 -26.7262 -24.6579 -6.5955 18.1582 29.5401 5.7011
# 6 37.7072 18.6626 14.2963 -10.8151 5.7011 34.5482
#
#
#
# Elastic Compliance Matrix: (Units=1/GPa)
#
#
# Indices 1 2 3 4 5 6 
#
# 1 -0.003719 -0.010237 0.002910 0.010405 -0.020558 0.015034
# 2 -0.010237 0.010157 -0.001559 0.011695 -0.010586 0.011739
# 3 0.002910 -0.001559 0.011942 -0.006070 0.009813 -0.010796
# 4 0.010405 0.011695 -0.006070 0.012319 0.012840 -0.013425
# 5 -0.020558 -0.010586 0.009813 0.012840 -0.004866 0.028917
# 6 0.015034 0.011739 -0.010796 -0.013425 0.028917 0.001688
#
#
# Mechanical properties :
#
#
# Convention : Reuss Voigt Hill
#
# Bulk Modulus (GPa) = 1639.48979 47.96283 843.72631
# Shear Modulus (GPa) = 109.90129 33.29536 71.59833
#
# Velocity S-wave (km/s) = 6.79769 3.74155 5.48670
# Velocity P-wave (km/s) = 27.40335 6.23152 19.87178
#
# Compressibility (1/GPa) = 0.00060995
#
# Stress axis : x y z
#
# Youngs Moduli (GPa) = -268.89487 98.45125 83.73704
#
# Poissons Ratio (x) = 1.00784 -0.24371
# Poissons Ratio (y) = -2.75266 0.13052
# Poissons Ratio (z) = 0.78259 0.15346
#
# Static dielectric constant tensor:
#      x y z
#    x 1.915340 -0.000950 -0.037150 
#    y -0.000950 1.950900 0.055180 
#    z -0.037150 0.055180 1.950210 
# 
# From -- ./inp_files/52522.got.cif
#   From: 2010.05.17/outbox.cif.g08.bks.cpg/sg2_27_cif.got.tgz:52522.got - 2010.06.03 11:33:40.
