data_PCOD9038793
_publ_section_title
;
Structure prediction by ZEFSAII (Michael W. Deem and Ramdas Pophale) SiO2 
 PCOD9038793
Probable space group: P -1
;
_chemical_formula_sum "Si O2"
_cell_formula_units_Z 14
_cell_length_a 5.430145
_cell_length_b 23.814218
_cell_length_c 5.053663
_cell_angle_alpha 111.340873
_cell_angle_beta 93.442403
_cell_angle_gamma 62.759176
_cell_volume 536.695031
_symmetry_space_group_name_H-M "P -1"
_symmetry_group_IT_number 2
_symmetry_cell_setting 'triclinic'
loop_
_space_group_symop_operation_xyz
x,y,z
-x,-y,-z
loop_
_atom_site_type_symbol
_atom_site_label
_atom_site_fract_x
_atom_site_fract_y
_atom_site_fract_z
Si Si1 0.064399 0.894985 0.742402
Si Si2 0.752238 0.038144 0.750562
Si Si3 0.736739 0.485694 0.707409
Si Si4 0.299887 0.388236 0.267235
Si Si5 0.768044 0.357444 0.683333
Si Si6 0.354043 0.143194 0.594796
Si Si7 0.086373 0.288035 0.076614
O O1 0.352855 0.869685 0.545305
O O2 0.892371 0.854109 0.605971
O O3 0.196037 0.899841 0.035162
O O4 0.822716 0.975352 0.842930
O O5 0.449418 0.075666 0.666968
O O6 0.000000 0.000000 0.500000
O O7 0.500000 0.500000 0.500000
O O8 0.708337 0.560269 0.877458
O O9 0.740040 0.433625 0.839738
O O10 0.017088 0.437739 0.487487
O O11 0.523888 0.367329 0.481486
O O12 0.273587 0.323232 0.057731
O O13 0.821121 0.324033 0.919116
O O14 0.021836 0.307341 0.415293
O O15 0.229256 0.209493 0.881829
#
# Coordination Sequence:
#
# PCOD9038793 Si02
#       7
#     2   2   2   2   2   2   2
#     4  10  23  42  67  98 132 171 224 281 339 404
#     4   9  21  42  69  99 131 170 222 281 340 400
#     4   8  16  37  65  96 124 166 220 279 334 398
#     4   9  19  39  66  91 131 171 217 279 340 394
#     4  10  23  42  62  94 129 171 227 275 338 402
#     4  11  25  41  65  96 134 179 224 276 341 407
#     4  11  26  41  63  94 132 178 224 273 333 413
#
# _framework density 26.085577000000001
#
# number of rings (size 3 to 8) (size 9 to 14) (size 15 to 20)
#    0.000    2.286    0.000    0.429    4.000   11.429 
#    0.000   24.286    0.000    0.000    0.000    0.000 
#    0.000    0.000    0.000    0.000    0.000    0.000 
#
# Total GULP energy -78131.180529 kJ/mol
# GULP energy per Si atom -5580.798609 kJ/mol
# Density = 2.602621 g / cm^3
# Si number density = 26.085577 Si / 1000 Ang^3
#
#
#
# Elastic Constant Matrix: (Units=GPa)
#
#
# Indices 1 2 3 4 5 6 
#
# 1 91.6902 0.1239 16.0351 2.2309 14.7521 -7.2366
# 2 0.1239 70.8161 17.2605 9.9214 3.8047 -7.5570
# 3 16.0351 17.2605 125.0317 -0.9034 20.3636 4.5096
# 4 2.2309 9.9214 -0.9034 45.5437 12.2076 5.4043
# 5 14.7521 3.8047 20.3636 12.2076 42.4918 -2.4705
# 6 -7.2366 -7.5570 4.5096 5.4043 -2.4705 28.9073
#
#
#
# Elastic Compliance Matrix: (Units=1/GPa)
#
#
# Indices 1 2 3 4 5 6 
#
# 1 0.011914 0.000827 -0.001208 -0.000256 -0.003375 0.003147
# 2 0.000827 0.015987 -0.002761 -0.004603 0.001263 0.005785
# 3 -0.001208 -0.002761 0.009454 0.002533 -0.004789 -0.003382
# 4 -0.000256 -0.004603 0.002533 0.026213 -0.008668 -0.007304
# 5 -0.003375 0.001263 -0.004789 -0.008668 0.029633 0.004385
# 6 0.003147 0.005785 -0.003382 -0.007304 0.004385 0.039161
#
#
# Mechanical properties :
#
#
# Convention : Reuss Voigt Hill
#
# Bulk Modulus (GPa) = 32.18410 39.37524 35.77967
# Shear Modulus (GPa) = 33.55649 40.32978 36.94314
#
# Velocity S-wave (km/s) = 3.59053 3.93626 3.76736
# Velocity P-wave (km/s) = 5.43635 5.98216 5.71577
#
# Compressibility (1/GPa) = 0.03107124
#
# Stress axis : x y z
#
# Youngs Moduli (GPa) = 83.93529 62.55115 105.77367
#
# Poissons Ratio (x) = -0.05170 0.12775
# Poissons Ratio (y) = -0.06938 0.29201
# Poissons Ratio (z) = 0.10137 0.17268
#
# Static dielectric constant tensor:
#      x y z
#    x 2.315290 0.062960 -0.022790 
#    y 0.062960 2.113240 -0.041930 
#    z -0.022790 -0.041930 2.053170 
# 
# From -- ./inp_files/7899.got.cif
#   From: 2010.05.17/outbox.cif.g08.bks.cpg/sg2_4_cif.got.tgz:7899.got - 2010.06.03 11:33:40.
