data_PCOD9038674
_publ_section_title
;
Structure prediction by ZEFSAII (Michael W. Deem and Ramdas Pophale) SiO2 
 PCOD9038674
Probable space group: P -1
;
_chemical_formula_sum "Si O2"
_cell_formula_units_Z 16
_cell_length_a 20.812666
_cell_length_b 6.500164
_cell_length_c 9.077293
_cell_angle_alpha 77.217775
_cell_angle_beta 54.934648
_cell_angle_gamma 118.485986
_cell_volume 640.774071
_symmetry_space_group_name_H-M "P -1"
_symmetry_group_IT_number 2
_symmetry_cell_setting 'triclinic'
loop_
_space_group_symop_operation_xyz
x,y,z
-x,-y,-z
loop_
_atom_site_type_symbol
_atom_site_label
_atom_site_fract_x
_atom_site_fract_y
_atom_site_fract_z
Si Si1 0.744111 0.760476 0.981069
Si Si2 0.097659 0.732094 0.078486
Si Si3 0.472145 0.406596 0.722773
Si Si4 0.848102 0.427124 0.470110
Si Si5 0.872455 0.621211 0.736847
Si Si6 0.567783 0.214334 0.526355
Si Si7 0.762904 0.658950 0.414275
Si Si8 0.369593 0.250616 0.285046
O O1 0.648182 0.725292 0.042396
O O2 0.669242 0.557002 0.257346
O O3 0.774671 0.606841 0.886248
O O4 0.865902 0.097341 0.836320
O O5 0.958288 0.497147 0.275359
O O6 0.127871 0.546823 0.099288
O O7 0.166827 0.009654 0.818668
O O8 0.500000 0.500000 0.500000
O O9 0.473914 0.156423 0.758458
O O10 0.588346 0.723654 0.607583
O O11 0.847715 0.457303 0.641113
O O12 0.855953 0.678341 0.351702
O O13 0.729767 0.086456 0.610879
O O14 0.000000 0.000000 0.500000
O O15 0.661636 0.320328 0.508167
O O16 0.500000 0.000000 0.500000
O O17 0.686552 0.629683 0.642469
O O18 0.500000 0.500000 0.000000
#
# Coordination Sequence:
#
# PCOD9038674 Si02
#       8
#     2   2   2   2   2   2   2   2
#     4  10  23  41  73 102 146 193 256 309 368 448
#     4  11  26  50  77 110 150 203 264 325 386 458
#     4   9  21  43  68 103 148 197 254 307 371 456
#     4  12  28  47  78 112 159 202 260 322 400 462
#     4  12  28  47  76 112 149 203 265 314 394 463
#     4   9  20  39  70 109 144 192 250 308 365 449
#     4  10  26  49  75 115 153 202 258 313 399 466
#     4  11  28  47  72 112 164 204 251 324 401 454
#
# _framework density 24.969798999999998
#
# number of rings (size 3 to 8) (size 9 to 14) (size 15 to 20)
#    0.000    1.500    1.250    1.500   10.500    4.000 
#    0.000    0.000    0.000    0.000    0.000    0.000 
#    0.000    0.000    0.000    0.000    0.000    0.000 
#
# Total GULP energy -89135.023997 kJ/mol
# GULP energy per Si atom -5570.939000 kJ/mol
# Density = 2.491297 g / cm^3
# Si number density = 24.969799 Si / 1000 Ang^3
#
#
#
# Elastic Constant Matrix: (Units=GPa)
#
#
# Indices 1 2 3 4 5 6 
#
# 1 141.1975 39.4004 53.4875 -5.0570 -13.5090 9.3673
# 2 39.4004 131.6713 57.0671 -16.2995 -8.6446 7.7976
# 3 53.4875 57.0671 119.2097 -0.6549 -36.6616 1.2026
# 4 -5.0570 -16.2995 -0.6549 42.4076 -0.3832 -9.6322
# 5 -13.5090 -8.6446 -36.6616 -0.3832 35.5865 -4.8338
# 6 9.3673 7.7976 1.2026 -9.6322 -4.8338 26.1178
#
#
#
# Elastic Compliance Matrix: (Units=1/GPa)
#
#
# Indices 1 2 3 4 5 6 
#
# 1 0.008892 -0.000859 -0.003952 -0.000025 -0.001313 -0.003003
# 2 -0.000859 0.010718 -0.005975 0.003405 -0.004130 -0.002125
# 3 -0.003952 -0.005975 0.017945 -0.001227 0.016190 0.004919
# 4 -0.000025 0.003405 -0.001227 0.026966 0.001093 0.009196
# 5 -0.001313 -0.004130 0.016190 0.001093 0.044596 0.009615
# 6 -0.003003 -0.002125 0.004919 0.009196 0.009615 0.044944
#
#
# Mechanical properties :
#
#
# Convention : Reuss Voigt Hill
#
# Bulk Modulus (GPa) = 62.57198 76.88760 69.72979
# Shear Modulus (GPa) = 27.63038 36.96394 32.29716
#
# Velocity S-wave (km/s) = 3.33010 3.85170 3.60036
# Velocity P-wave (km/s) = 6.31661 7.11617 6.72828
#
# Compressibility (1/GPa) = 0.01598159
#
# Stress axis : x y z
#
# Youngs Moduli (GPa) = 112.46335 93.30402 55.72664
#
# Poissons Ratio (x) = 0.08019 0.22021
# Poissons Ratio (y) = 0.09666 0.33298
# Poissons Ratio (z) = 0.44442 0.55751
#
# Static dielectric constant tensor:
#      x y z
#    x 2.306450 0.083870 0.005800 
#    y 0.083870 2.520060 0.245660 
#    z 0.005800 0.245660 2.107160 
# 
# From -- ./inp_files/477446.got.cif
#   From: 2010.05.17/outbox.cif.g08.bks.cpg/sg2_239_cif.got.tgz:477446.got - 2010.06.03 11:33:40.
