data_PCOD9038898
_publ_section_title
;
Structure prediction by ZEFSAII (Michael W. Deem and Ramdas Pophale) SiO2 
 PCOD9038898
Probable space group: P -1
;
_chemical_formula_sum "Si O2"
_cell_formula_units_Z 16
_cell_length_a 5.133711
_cell_length_b 24.048189
_cell_length_c 7.002036
_cell_angle_alpha 74.479575
_cell_angle_beta 101.698943
_cell_angle_gamma 73.549572
_cell_volume 761.675322
_symmetry_space_group_name_H-M "P -1"
_symmetry_group_IT_number 2
_symmetry_cell_setting 'triclinic'
loop_
_space_group_symop_operation_xyz
x,y,z
-x,-y,-z
loop_
_atom_site_type_symbol
_atom_site_label
_atom_site_fract_x
_atom_site_fract_y
_atom_site_fract_z
Si Si1 0.815859 0.456732 0.531013
Si Si2 0.694721 0.730199 0.163105
Si Si3 0.102783 0.073563 0.283327
Si Si4 0.720397 0.152249 0.826082
Si Si5 0.327193 0.926537 0.454974
Si Si6 0.198066 0.371500 0.995478
Si Si7 0.724460 0.275884 0.605423
Si Si8 0.735258 0.378429 0.233533
O O1 0.500000 0.500000 0.500000
O O2 0.775632 0.421565 0.367959
O O3 0.000000 0.500000 0.500000
O O4 0.985981 0.408214 0.762566
O O5 0.520966 0.802339 0.110636
O O6 0.578225 0.700464 0.351477
O O7 0.026460 0.718693 0.228452
O O8 0.634803 0.697183 0.999091
O O9 0.377549 0.086963 0.379916
O O10 0.884671 0.088274 0.415109
O O11 0.197105 0.000072 0.327647
O O12 0.965510 0.110685 0.039358
O O13 0.631847 0.110360 0.702629
O O14 0.795132 0.202866 0.663009
O O15 0.427663 0.402379 0.060377
O O16 0.994982 0.368215 0.139376
O O17 0.733863 0.315316 0.388342
#
# Coordination Sequence:
#
# PCOD9038898 Si02
#       8
#     2   2   2   2   2   2   2   2
#     4  12  28  47  74 102 141 174 225 286 317 388
#     4  10  23  43  65  97 136 172 225 268 330 406
#     4  10  23  42  64  94 129 173 225 275 334 399
#     4  10  25  41  68  94 137 170 224 274 344 386
#     4  10  23  42  64  94 129 173 225 275 334 399
#     4  12  26  46  74 100 137 183 222 270 340 399
#     4  10  23  43  65  97 136 172 225 268 330 406
#     4  12  26  46  74 100 137 183 222 270 340 399
#
# _framework density 21.006323999999999
#
# number of rings (size 3 to 8) (size 9 to 14) (size 15 to 20)
#    0.750    0.500    1.250    3.375    5.250    4.000 
#    0.000    3.750    0.000    0.000    0.000    0.000 
#    0.000    0.000    0.000    0.000    0.000    0.000 
#
# Total GULP energy -89322.605527 kJ/mol
# GULP energy per Si atom -5582.662845 kJ/mol
# Density = 2.095851 g / cm^3
# Si number density = 21.006324 Si / 1000 Ang^3
#
#
#
# Elastic Constant Matrix: (Units=GPa)
#
#
# Indices 1 2 3 4 5 6 
#
# 1 99.9860 34.8943 15.1520 16.0201 1.1450 -9.7425
# 2 34.8943 108.4797 76.3202 22.1042 3.0917 -2.7444
# 3 15.1520 76.3202 85.1580 34.6117 8.0493 -5.9034
# 4 16.0201 22.1042 34.6117 23.5638 -0.5889 -0.5678
# 5 1.1450 3.0917 8.0493 -0.5889 32.2401 5.9769
# 6 -9.7425 -2.7444 -5.9034 -0.5678 5.9769 8.9703
#
#
#
# Elastic Compliance Matrix: (Units=1/GPa)
#
#
# Indices 1 2 3 4 5 6 
#
# 1 -0.101242 0.180723 -0.345667 0.402150 0.145470 -0.353621
# 2 0.180723 -0.280626 0.552115 -0.662326 -0.239036 0.591117
# 3 -0.345667 0.552115 -1.041482 1.231259 0.448095 -1.112535
# 4 0.402150 -0.662326 1.231259 -1.399869 -0.525901 1.306224
# 5 0.145470 -0.239036 0.448095 -0.525901 -0.156236 0.450563
# 6 -0.353621 0.591117 -1.112535 1.306224 0.450563 -1.041422
#
#
# Mechanical properties :
#
#
# Convention : Reuss Voigt Hill
#
# Bulk Modulus (GPa) = -1.54081 60.70630 29.58275
# Shear Modulus (GPa) = -0.99769 24.10531 11.55381
#
# Velocity S-wave (km/s) = -0.68991 3.39119 2.34779
# Velocity P-wave (km/s) = 1.17036 6.65548 4.63280
#
# Compressibility (1/GPa) = -0.64900919
#
# Stress axis : x y z
#
# Youngs Moduli (GPa) = -9.87730 -3.56346 -0.96017
#
# Poissons Ratio (x) = 0.64400 -0.33190
# Poissons Ratio (y) = 1.78505 0.53012
# Poissons Ratio (z) = -3.41426 1.96744
#
# Static dielectric constant tensor:
#      x y z
#    x 1.743440 -0.000970 0.001570 
#    y -0.000970 1.783190 -0.025570 
#    z 0.001570 -0.025570 1.752460 
# 
# From -- ./inp_files/14112.got.cif
#   From: 2010.05.17/outbox.cif.g08.bks.cpg/sg2_8_cif.got.tgz:14112.got - 2010.06.03 11:33:40.
