data_PCOD9038512
_publ_section_title
;
Structure prediction by ZEFSAII (Michael W. Deem and Ramdas Pophale) SiO2 
 PCOD9038512
Probable space group: P -1
;
_chemical_formula_sum "Si O2"
_cell_formula_units_Z 14
_cell_length_a 11.481925
_cell_length_b 8.820937
_cell_length_c 7.582283
_cell_angle_alpha 96.851854
_cell_angle_beta 69.944805
_cell_angle_gamma 125.777043
_cell_volume 581.922359
_symmetry_space_group_name_H-M "P -1"
_symmetry_group_IT_number 2
_symmetry_cell_setting 'triclinic'
loop_
_space_group_symop_operation_xyz
x,y,z
-x,-y,-z
loop_
_atom_site_type_symbol
_atom_site_label
_atom_site_fract_x
_atom_site_fract_y
_atom_site_fract_z
Si Si1 0.328807 0.929914 0.555716
Si Si2 0.390132 0.436156 0.373358
Si Si3 0.893619 0.775542 0.994001
Si Si4 0.054686 0.270656 0.643576
Si Si5 0.631572 0.806366 0.140311
Si Si6 0.719656 0.955638 0.760122
Si Si7 0.966846 0.425666 0.208233
O O1 0.209966 0.730860 0.679194
O O2 0.500000 0.000000 0.500000
O O3 0.309103 0.075083 0.692859
O O4 0.305182 0.938635 0.363136
O O5 0.500000 0.500000 0.500000
O O6 0.211655 0.347672 0.476486
O O7 0.465848 0.622234 0.240765
O O8 0.382757 0.262732 0.270452
O O9 0.889815 0.702736 0.179896
O O10 0.732074 0.731423 0.025649
O O11 0.954247 0.683879 0.824717
O O12 0.000000 0.000000 0.000000
O O13 0.992535 0.398638 0.671398
O O14 0.903080 0.058378 0.674123
O O15 0.666169 0.951285 0.986638
O O16 0.000000 0.500000 0.000000
#
# Coordination Sequence:
#
# PCOD9038512 Si02
#       7
#     2   2   2   2   2   2   2
#     4  12  26  47  75 103 151 192 239 308 377 434
#     4  12  24  43  73 110 149 191 244 303 374 429
#     4  11  19  40  75 107 145 190 244 298 360 434
#     4  11  23  44  71 107 149 190 248 300 362 439
#     4  12  24  46  72 110 146 193 246 302 368 436
#     4  12  27  45  74 107 143 199 252 299 365 444
#     4  10  23  41  70 106 143 195 239 297 365 433
#
# _framework density 24.058191999999998
#
# number of rings (size 3 to 8) (size 9 to 14) (size 15 to 20)
#    0.000    0.571    5.714    2.571    0.000    2.286 
#    0.000    4.286    0.000    0.000    0.000    0.000 
#    0.000    0.000    0.000    0.000    0.000    0.000 
#
# Total GULP energy -78212.404325 kJ/mol
# GULP energy per Si atom -5586.600309 kJ/mol
# Density = 2.400343 g / cm^3
# Si number density = 24.058192 Si / 1000 Ang^3
#
#
#
# Elastic Constant Matrix: (Units=GPa)
#
#
# Indices 1 2 3 4 5 6 
#
# 1 85.7177 5.3412 46.9983 -6.1705 12.3519 9.1310
# 2 5.3412 112.0504 22.0926 -23.0165 -3.4769 3.5867
# 3 46.9983 22.0926 96.9285 -44.8215 4.1952 2.5536
# 4 -6.1705 -23.0165 -44.8215 49.3347 -6.2214 -9.7396
# 5 12.3519 -3.4769 4.1952 -6.2214 35.6422 3.1746
# 6 9.1310 3.5867 2.5536 -9.7396 3.1746 39.9081
#
#
#
# Elastic Compliance Matrix: (Units=1/GPa)
#
#
# Indices 1 2 3 4 5 6 
#
# 1 0.021788 -0.000883 -0.017009 -0.015491 -0.007717 -0.006984
# 2 -0.000883 0.010023 0.000541 0.005408 0.002127 0.000417
# 3 -0.017009 0.000541 0.031420 0.029165 0.006589 0.008426
# 4 -0.015491 0.005408 0.029165 0.051186 0.010252 0.012869
# 5 -0.007717 0.002127 0.006589 0.010252 0.031852 0.001121
# 6 -0.006984 0.000417 0.008426 0.012869 0.001121 0.029130
#
#
# Mechanical properties :
#
#
# Convention : Reuss Voigt Hill
#
# Bulk Modulus (GPa) = 35.05008 49.28452 42.16730
# Shear Modulus (GPa) = 22.76764 39.66132 31.21448
#
# Velocity S-wave (km/s) = 3.07963 4.06465 3.60593
# Velocity P-wave (km/s) = 5.21977 6.52369 5.90781
#
# Compressibility (1/GPa) = 0.02853060
#
# Stress axis : x y z
#
# Youngs Moduli (GPa) = 45.89750 99.76568 31.82705
#
# Poissons Ratio (x) = 0.08810 0.54133
# Poissons Ratio (y) = 0.04053 -0.01723
# Poissons Ratio (z) = 0.78065 -0.05402
#
# Static dielectric constant tensor:
#      x y z
#    x 1.994720 -0.088270 0.101740 
#    y -0.088270 1.988980 -0.051120 
#    z 0.101740 -0.051120 2.218580 
# 
# From -- ./inp_files/244463.got.cif
#   From: 2010.05.17/outbox.cif.g08.bks.cpg/sg2_123_cif.got.tgz:244463.got - 2010.06.03 11:33:40.
