data_PCOD9038312
_publ_section_title
;
Structure prediction by ZEFSAII (Michael W. Deem and Ramdas Pophale) SiO2 
 PCOD9038312
Probable space group: P -1
;
_chemical_formula_sum "Si O2"
_cell_formula_units_Z 16
_cell_length_a 9.105841
_cell_length_b 17.118690
_cell_length_c 11.751262
_cell_angle_alpha 146.508533
_cell_angle_beta 50.580714
_cell_angle_gamma 115.827115
_cell_volume 761.684385
_symmetry_space_group_name_H-M "P -1"
_symmetry_group_IT_number 2
_symmetry_cell_setting 'triclinic'
loop_
_space_group_symop_operation_xyz
x,y,z
-x,-y,-z
loop_
_atom_site_type_symbol
_atom_site_label
_atom_site_fract_x
_atom_site_fract_y
_atom_site_fract_z
Si Si1 0.450905 0.111638 0.766728
Si Si2 0.148500 0.604660 0.066522
Si Si3 0.831855 0.930931 0.949668
Si Si4 0.175644 0.864939 0.244572
Si Si5 0.233554 0.828699 0.908944
Si Si6 0.015764 0.376529 0.600709
Si Si7 0.420352 0.425812 0.558241
Si Si8 0.085282 0.368385 0.208034
O O1 0.652985 0.132101 0.746625
O O2 0.500000 0.000000 0.500000
O O3 0.340527 0.050528 0.851104
O O4 0.298877 0.264364 0.996839
O O5 0.081767 0.733077 0.167363
O O6 0.127228 0.654522 0.267459
O O7 0.358777 0.529920 0.822834
O O8 0.000000 0.500000 0.000000
O O9 0.925712 0.761265 0.677895
O O10 0.777505 0.021308 0.969752
O O11 0.000000 0.000000 0.000000
O O12 0.250248 0.848670 0.059880
O O13 0.000000 0.000000 0.500000
O O14 0.426693 0.712190 0.640970
O O15 0.056978 0.746108 0.871589
O O16 0.926184 0.531616 0.777000
O O17 0.224145 0.385422 0.561421
O O18 0.500000 0.500000 0.500000
O O19 0.000000 0.500000 0.500000
#
# Coordination Sequence:
#
# PCOD9038312 Si02
#       8
#     2   2   2   2   2   2   2   2
#     4  12  29  48  75 109 152 193 249 302 374 445
#     4  10  23  41  68 104 142 175 232 302 359 420
#     4  12  26  47  69 106 147 193 241 306 361 439
#     4  12  26  46  76 105 147 193 240 303 373 432
#     4  12  24  42  76 102 143 191 246 300 365 433
#     4  11  23  43  72  99 145 185 244 297 360 433
#     4  11  21  39  69 106 136 176 238 298 354 426
#     4  12  24  46  73 104 144 201 240 294 376 441
#
# _framework density 21.006076
#
# number of rings (size 3 to 8) (size 9 to 14) (size 15 to 20)
#    0.000    0.500    5.000    3.000    3.500    5.000 
#    0.000    0.625    0.000    0.000    0.000    0.000 
#    0.000    0.000    0.000    0.000    0.000    0.000 
#
# Total GULP energy -89331.100672 kJ/mol
# GULP energy per Si atom -5583.193792 kJ/mol
# Density = 2.095827 g / cm^3
# Si number density = 21.006076 Si / 1000 Ang^3
#
#
#
# Elastic Constant Matrix: (Units=GPa)
#
#
# Indices 1 2 3 4 5 6 
#
# 1 109.1437 22.3916 45.1678 10.0095 -13.6823 -0.7766
# 2 22.3916 129.0727 42.9701 1.2465 -7.5541 -20.3160
# 3 45.1678 42.9701 153.0644 -4.5434 -10.6024 -5.1104
# 4 10.0095 1.2465 -4.5434 42.7133 -13.7833 -2.2673
# 5 -13.6823 -7.5541 -10.6024 -13.7833 45.8522 6.1376
# 6 -0.7766 -20.3160 -5.1104 -2.2673 6.1376 34.5374
#
#
#
# Elastic Compliance Matrix: (Units=1/GPa)
#
#
# Indices 1 2 3 4 5 6 
#
# 1 0.011033 -0.000995 -0.002955 -0.002319 0.001918 -0.001268
# 2 -0.000995 0.009473 -0.002186 0.000023 0.000067 0.005216
# 3 -0.002955 -0.002186 0.008160 0.002027 0.001286 -0.000241
# 4 -0.002319 0.000023 0.002027 0.026695 0.007719 0.000642
# 5 0.001918 0.000067 0.001286 0.007719 0.025513 -0.003754
# 6 -0.001268 0.005216 -0.000241 0.000642 -0.003754 0.032667
#
#
# Mechanical properties :
#
#
# Convention : Reuss Voigt Hill
#
# Bulk Modulus (GPa) = 60.99907 68.03779 64.51843
# Shear Modulus (GPa) = 38.08695 43.33732 40.71213
#
# Velocity S-wave (km/s) = 4.26272 4.54705 4.40718
# Velocity P-wave (km/s) = 7.30270 7.74774 7.52851
#
# Compressibility (1/GPa) = 0.01639369
#
# Stress axis : x y z
#
# Youngs Moduli (GPa) = 90.63484 105.56647 122.54803
#
# Poissons Ratio (x) = 0.10507 0.36210
# Poissons Ratio (y) = 0.09021 0.26791
# Poissons Ratio (z) = 0.26780 0.23079
#
# Static dielectric constant tensor:
#      x y z
#    x 1.729870 0.010070 0.140930 
#    y 0.010070 1.769400 -0.055060 
#    z 0.140930 -0.055060 1.328750 
# 
# From -- ./inp_files/403482.got.cif
#   From: 2010.05.17/outbox.cif.g08.bks.cpg/sg2_202_cif.got.tgz:403482.got - 2010.06.03 11:33:40.
