data_PCOD9038737
_publ_section_title
;
Structure prediction by ZEFSAII (Michael W. Deem and Ramdas Pophale) SiO2 
 PCOD9038737
Probable space group: P -1
;
_chemical_formula_sum "Si O2"
_cell_formula_units_Z 12
_cell_length_a 8.563980
_cell_length_b 13.088793
_cell_length_c 5.052712
_cell_angle_alpha 71.078360
_cell_angle_beta 81.350197
_cell_angle_gamma 99.237512
_cell_volume 516.235907
_symmetry_space_group_name_H-M "P -1"
_symmetry_group_IT_number 2
_symmetry_cell_setting 'triclinic'
loop_
_space_group_symop_operation_xyz
x,y,z
-x,-y,-z
loop_
_atom_site_type_symbol
_atom_site_label
_atom_site_fract_x
_atom_site_fract_y
_atom_site_fract_z
Si Si1 0.084351 0.140647 0.564031
Si Si2 0.693300 0.264910 0.261960
Si Si3 0.871535 0.093826 0.159653
Si Si4 0.105391 0.552165 0.678047
Si Si5 0.616323 0.681703 0.488880
Si Si6 0.395107 0.559993 0.246959
O O1 0.206968 0.248495 0.551751
O O2 0.020896 0.144339 0.278928
O O3 0.169579 0.036065 0.652567
O O4 0.933653 0.109707 0.830802
O O5 0.733775 0.159734 0.200447
O O6 0.837857 0.316325 0.388174
O O7 0.516076 0.250038 0.444548
O O8 0.693815 0.367227 0.975452
O O9 0.281049 0.532119 0.565039
O O10 0.000000 0.500000 0.500000
O O11 0.000000 0.500000 0.000000
O O12 0.557960 0.642998 0.240137
O O13 0.596241 0.562801 0.741011
#
# Coordination Sequence:
#
# PCOD9038737 Si02
#       6
#     2   2   2   2   2   2
#     4  10  24  48  68  97 128 176 214 276 331 382
#     4  11  24  41  67  97 137 167 222 273 317 391
#     4  10  25  44  71  98 130 163 229 274 323 385
#     4  11  23  38  60  95 129 172 215 262 322 376
#     4  10  24  41  67  92 137 179 213 264 328 390
#     4  10  23  42  60 100 134 175 217 262 321 401
#
# _framework density 23.245189
#
# number of rings (size 3 to 8) (size 9 to 14) (size 15 to 20)
#    0.000    1.667    1.667    0.500   11.667    0.667 
#    0.000    0.833    0.000    0.000    0.000    0.000 
#    0.000    0.000    0.000    0.000    0.000    0.000 
#
# Total GULP energy -66946.473902 kJ/mol
# GULP energy per Si atom -5578.872825 kJ/mol
# Density = 2.319228 g / cm^3
# Si number density = 23.245189 Si / 1000 Ang^3
#
#
#
# Elastic Constant Matrix: (Units=GPa)
#
#
# Indices 1 2 3 4 5 6 
#
# 1 27.4712 22.0384 -0.4031 -4.2352 12.1566 -1.9857
# 2 22.0384 106.8712 -1.9653 6.4172 13.8554 -19.1869
# 3 -0.4031 -1.9653 63.1586 19.3921 19.0567 2.5431
# 4 -4.2352 6.4172 19.3921 30.1964 -2.7971 -0.9246
# 5 12.1566 13.8554 19.0567 -2.7971 26.2054 4.5861
# 6 -1.9857 -19.1869 2.5431 -0.9246 4.5861 65.1583
#
#
#
# Elastic Compliance Matrix: (Units=1/GPa)
#
#
# Indices 1 2 3 4 5 6 
#
# 1 0.054938 -0.007625 0.007591 0.001987 -0.026947 0.001057
# 2 -0.007625 0.013422 0.005452 -0.008143 -0.009099 0.004032
# 3 0.007591 0.005452 0.033934 -0.024976 -0.034196 0.002565
# 4 0.001987 -0.008143 -0.024976 0.053655 0.027720 -0.002552
# 5 -0.026947 -0.009099 -0.034196 0.027720 0.084651 -0.007731
# 6 0.001057 0.004032 0.002565 -0.002552 -0.007731 0.016975
#
#
# Mechanical properties :
#
#
# Convention : Reuss Voigt Hill
#
# Bulk Modulus (GPa) = 8.83930 26.31567 17.57749
# Shear Modulus (GPa) = 17.57791 36.16742 26.87267
#
# Velocity S-wave (km/s) = 2.75288 3.94878 3.40377
# Velocity P-wave (km/s) = 3.73033 5.66886 4.79851
#
# Compressibility (1/GPa) = 0.11313109
#
# Stress axis : x y z
#
# Youngs Moduli (GPa) = 18.20241 74.50326 29.46859
#
# Poissons Ratio (x) = 0.56811 -0.22371
# Poissons Ratio (y) = 0.13880 -0.16067
# Poissons Ratio (z) = -0.13818 -0.40620
#
# Static dielectric constant tensor:
#      x y z
#    x 1.934480 -0.032850 0.030570 
#    y -0.032850 1.894390 0.051210 
#    z 0.030570 0.051210 1.979870 
# 
# From -- ./inp_files/26859.got.cif
#   From: 2010.05.17/outbox.cif.g08.bks.cpg/sg2_14_cif.got.tgz:26859.got - 2010.06.03 11:33:40.
