data_PCOD9038046
_publ_section_title
;
Structure prediction by ZEFSAII (Michael W. Deem and Ramdas Pophale) SiO2 
 PCOD9038046
Probable space group: P -1
;
_chemical_formula_sum "Si O2"
_cell_formula_units_Z 14
_cell_length_a 5.150838
_cell_length_b 8.131506
_cell_length_c 18.375022
_cell_angle_alpha 79.068293
_cell_angle_beta 93.743111
_cell_angle_gamma 59.292130
_cell_volume 637.604798
_symmetry_space_group_name_H-M "P -1"
_symmetry_group_IT_number 2
_symmetry_cell_setting 'triclinic'
loop_
_space_group_symop_operation_xyz
x,y,z
-x,-y,-z
loop_
_atom_site_type_symbol
_atom_site_label
_atom_site_fract_x
_atom_site_fract_y
_atom_site_fract_z
Si Si1 0.404565 0.275773 0.828545
Si Si2 0.366633 0.366207 0.523796
Si Si3 0.238677 0.500131 0.949154
Si Si4 0.283358 0.991910 0.355890
Si Si5 0.700177 0.521122 0.759494
Si Si6 0.362709 0.816846 0.604163
Si Si7 0.770480 0.840762 0.811373
O O1 0.362678 0.318443 0.910440
O O2 0.585215 0.380550 0.796756
O O3 0.069431 0.393936 0.775172
O O4 0.557001 0.046327 0.831732
O O5 0.500000 0.500000 0.500000
O O6 0.509359 0.214419 0.471994
O O7 0.000000 0.500000 0.500000
O O8 0.524168 0.243410 0.610295
O O9 0.058832 0.693768 0.878568
O O10 0.500000 0.500000 0.000000
O O11 0.000000 0.500000 0.000000
O O12 0.545223 0.039070 0.371063
O O13 0.146051 0.088884 0.267255
O O14 0.996348 0.095049 0.397556
O O15 0.551434 0.615807 0.671259
O O16 0.632052 0.706771 0.795182
#
# Coordination Sequence:
#
# PCOD9038046 Si02
#       7
#     2   2   2   2   2   2   2
#     4  11  24  42  70 100 135 178 221 277 340 399
#     4  12  26  40  63  98 135 171 222 280 329 390
#     4  11  24  44  67  98 137 171 219 275 336 410
#     4  11  24  43  67  93 128 177 226 271 332 406
#     4  10  23  41  66 100 137 175 228 282 331 398
#     4  11  22  42  66  88 133 180 222 273 340 382
#     4  10  25  44  71 100 135 176 230 275 341 403
#
# _framework density 21.957174999999999
#
# number of rings (size 3 to 8) (size 9 to 14) (size 15 to 20)
#    0.000    1.143    0.000    6.857    4.000    8.000 
#    0.000    0.000    0.000    0.000    0.000    0.000 
#    0.000    0.000    0.000    0.000    0.000    0.000 
#
# Total GULP energy -78245.660475 kJ/mol
# GULP energy per Si atom -5588.975748 kJ/mol
# Density = 2.190720 g / cm^3
# Si number density = 21.957175 Si / 1000 Ang^3
#
#
#
# Elastic Constant Matrix: (Units=GPa)
#
#
# Indices 1 2 3 4 5 6 
#
# 1 121.4562 30.8730 35.0350 -16.4710 3.5260 -7.1997
# 2 30.8730 135.9776 40.9241 -1.9173 7.7725 3.2673
# 3 35.0350 40.9241 113.4406 -21.5838 5.9646 -10.4498
# 4 -16.4710 -1.9173 -21.5838 33.2919 -7.6595 -5.4306
# 5 3.5260 7.7725 5.9646 -7.6595 32.7142 -3.9258
# 6 -7.1997 3.2673 -10.4498 -5.4306 -3.9258 30.9602
#
#
#
# Elastic Compliance Matrix: (Units=1/GPa)
#
#
# Indices 1 2 3 4 5 6 
#
# 1 0.009871 -0.001942 -0.001224 0.004728 0.001094 0.003055
# 2 -0.001942 0.009073 -0.003634 -0.004007 -0.002663 -0.003676
# 3 -0.001224 -0.003634 0.012645 0.008710 0.001459 0.006080
# 4 0.004728 -0.004007 0.008710 0.042327 0.010348 0.013199
# 5 0.001094 -0.002663 0.001459 0.010348 0.034099 0.007167
# 6 0.003055 -0.003676 0.006080 0.013199 0.007167 0.038674
#
#
# Mechanical properties :
#
#
# Convention : Reuss Voigt Hill
#
# Bulk Modulus (GPa) = 55.59480 64.94875 60.27178
# Shear Modulus (GPa) = 30.06872 36.99607 33.53240
#
# Velocity S-wave (km/s) = 3.70459 4.10923 3.91215
# Velocity P-wave (km/s) = 6.60858 7.22207 6.92212
#
# Compressibility (1/GPa) = 0.01798729
#
# Stress axis : x y z
#
# Youngs Moduli (GPa) = 101.30948 110.21847 79.08242
#
# Poissons Ratio (x) = 0.21403 0.09684
# Poissons Ratio (y) = 0.19673 0.28741
# Poissons Ratio (z) = 0.12405 0.40057
#
# Static dielectric constant tensor:
#      x y z
#    x 1.807640 0.056960 0.022680 
#    y 0.056960 1.875580 0.051110 
#    z 0.022680 0.051110 1.865810 
# 
# From -- ./inp_files/548034.got.cif
#   From: 2010.05.17/outbox.cif.g08.bks.cpg/sg2_275_cif.got.tgz:548034.got - 2010.06.03 11:33:40.
