data_PCOD9038734
_publ_section_title
;
Structure prediction by ZEFSAII (Michael W. Deem and Ramdas Pophale) SiO2 
 PCOD9038734
Probable space group: P -1
;
_chemical_formula_sum "Si O2"
_cell_formula_units_Z 16
_cell_length_a 9.879679
_cell_length_b 18.807669
_cell_length_c 6.850763
_cell_angle_alpha 129.679000
_cell_angle_beta 82.923152
_cell_angle_gamma 62.596109
_cell_volume 688.942103
_symmetry_space_group_name_H-M "P -1"
_symmetry_group_IT_number 2
_symmetry_cell_setting 'triclinic'
loop_
_space_group_symop_operation_xyz
x,y,z
-x,-y,-z
loop_
_atom_site_type_symbol
_atom_site_label
_atom_site_fract_x
_atom_site_fract_y
_atom_site_fract_z
Si Si1 0.261918 0.195652 0.318374
Si Si2 0.257796 0.813115 0.559228
Si Si3 0.005328 0.404355 0.448205
Si Si4 0.404527 0.944604 0.706925
Si Si5 0.794521 0.823338 0.283287
Si Si6 0.999927 0.899359 0.419819
Si Si7 0.584969 0.556316 0.813552
Si Si8 0.647275 0.315667 0.278830
O O1 0.165148 0.323603 0.444512
O O2 0.476773 0.114368 0.211754
O O3 0.148199 0.228720 0.595057
O O4 0.271430 0.097955 0.016908
O O5 0.302178 0.896109 0.626278
O O6 0.058933 0.880122 0.603896
O O7 0.281940 0.784888 0.736113
O O8 0.425048 0.669680 0.186575
O O9 0.000000 0.500000 0.500000
O O10 0.795762 0.486772 0.716205
O O11 0.066278 0.295324 0.095450
O O12 0.578101 0.884670 0.420346
O O13 0.815325 0.924239 0.451077
O O14 0.174797 0.763103 0.041355
O O15 0.000000 0.000000 0.500000
O O16 0.593441 0.441749 0.593078
O O17 0.529150 0.625245 0.730647
#
# Coordination Sequence:
#
# PCOD9038734 Si02
#       8
#     2   2   2   2   2   2   2   2
#     4   9  24  44  65  93 134 167 222 263 338 390
#     4  11  24  42  70  94 130 176 219 272 333 390
#     4  12  25  40  69  99 130 174 219 274 330 387
#     4   9  22  47  66  98 126 173 222 268 332 392
#     4  10  23  45  66  95 136 171 211 278 328 385
#     4  11  26  42  64 105 132 167 223 271 330 398
#     4  10  23  42  58  97 129 168 227 256 328 392
#     4  10  23  42  65  88 133 178 211 269 327 397
#
# _framework density 23.224014
#
# number of rings (size 3 to 8) (size 9 to 14) (size 15 to 20)
#    0.750    1.000    1.250    1.125    7.000    2.500 
#    2.250    0.000    0.000    0.000    0.000    0.000 
#    0.000    0.000    0.000    0.000    0.000    0.000 
#
# Total GULP energy -89364.666424 kJ/mol
# GULP energy per Si atom -5585.291652 kJ/mol
# Density = 2.317115 g / cm^3
# Si number density = 23.224014 Si / 1000 Ang^3
#
#
#
# Elastic Constant Matrix: (Units=GPa)
#
#
# Indices 1 2 3 4 5 6 
#
# 1 80.3222 17.6167 -3.6288 -0.8031 4.8775 4.0190
# 2 17.6167 134.0767 0.4658 -1.5254 1.1865 -2.1312
# 3 -3.6288 0.4658 37.2066 6.7528 -3.4609 -6.4013
# 4 -0.8031 -1.5254 6.7528 20.8300 2.4015 -5.0136
# 5 4.8775 1.1865 -3.4609 2.4015 19.3629 3.8280
# 6 4.0190 -2.1312 -6.4013 -5.0136 3.8280 23.3848
#
#
#
# Elastic Compliance Matrix: (Units=1/GPa)
#
#
# Indices 1 2 3 4 5 6 
#
# 1 0.013116 -0.001729 0.000740 0.000030 -0.002722 -0.001757
# 2 -0.001729 0.007720 -0.000268 0.000924 -0.000437 0.001197
# 3 0.000740 -0.000268 0.029991 -0.009058 0.005276 0.005253
# 4 0.000030 0.000924 -0.009058 0.054924 -0.010695 0.011126
# 5 -0.002722 -0.000437 0.005276 -0.010695 0.056540 -0.009676
# 6 -0.001757 0.001197 0.005253 0.011126 -0.009676 0.048581
#
#
# Mechanical properties :
#
#
# Convention : Reuss Voigt Hill
#
# Bulk Modulus (GPa) = 20.69861 31.16813 25.93337
# Shear Modulus (GPa) = 21.78746 28.52567 25.15657
#
# Velocity S-wave (km/s) = 3.06624 3.50849 3.29479
# Velocity P-wave (km/s) = 4.63332 5.46465 5.06607
#
# Compressibility (1/GPa) = 0.04831243
#
# Stress axis : x y z
#
# Youngs Moduli (GPa) = 76.24209 129.53395 33.34361
#
# Poissons Ratio (x) = 0.22402 -0.02467
# Poissons Ratio (y) = 0.13186 0.00892
# Poissons Ratio (z) = -0.05641 0.03467
#
# Static dielectric constant tensor:
#      x y z
#    x 1.821030 -0.106260 0.123800 
#    y -0.106260 1.788220 0.101140 
#    z 0.123800 0.101140 1.668140 
# 
# From -- ./inp_files/79960.got.cif
#   From: 2010.05.17/outbox.cif.g08.bks.cpg/sg2_40_cif.got.tgz:79960.got - 2010.06.03 11:33:40.
