data_PCOD9038536
_publ_section_title
;
Structure prediction by ZEFSAII (Michael W. Deem and Ramdas Pophale) SiO2 
 PCOD9038536
Probable space group: P -1
;
_chemical_formula_sum "Si O2"
_cell_formula_units_Z 16
_cell_length_a 26.049648
_cell_length_b 9.882455
_cell_length_c 6.815359
_cell_angle_alpha 130.269541
_cell_angle_beta 41.536580
_cell_angle_gamma 138.143026
_cell_volume 760.494353
_symmetry_space_group_name_H-M "P -1"
_symmetry_group_IT_number 2
_symmetry_cell_setting 'triclinic'
loop_
_space_group_symop_operation_xyz
x,y,z
-x,-y,-z
loop_
_atom_site_type_symbol
_atom_site_label
_atom_site_fract_x
_atom_site_fract_y
_atom_site_fract_z
Si Si1 0.588525 0.684456 0.306511
Si Si2 0.952131 0.249949 0.887847
Si Si3 0.217313 0.294306 0.809229
Si Si4 0.986586 0.956090 0.769425
Si Si5 0.322526 0.689922 0.134658
Si Si6 0.469026 0.802046 0.532960
Si Si7 0.679468 0.476354 0.617319
Si Si8 0.249961 0.970389 0.573157
O O1 0.500000 0.500000 0.500000
O O2 0.547917 0.764121 0.331760
O O3 0.659823 0.870193 0.414438
O O4 0.645393 0.599223 0.958815
O O5 0.960521 0.150449 0.567099
O O6 0.999716 0.159299 0.810076
O O7 0.846062 0.140554 0.142798
O O8 0.000000 0.500000 0.000000
O O9 0.230636 0.385898 0.638215
O O10 0.239114 0.110672 0.573351
O O11 0.119445 0.209592 0.099549
O O12 0.281494 0.465317 0.943782
O O13 0.000000 0.000000 0.000000
O O14 0.315717 0.673131 0.373856
O O15 0.268744 0.791216 0.291742
O O16 0.423427 0.813272 0.876618
O O17 0.394115 0.628109 0.442477
O O18 0.500000 0.000000 0.500000
#
# Coordination Sequence:
#
# PCOD9038536 Si02
#       8
#     2   2   2   2   2   2   2   2
#     4  12  23  41  64  92 129 175 217 264 321 379
#     4  10  23  45  68 100 134 171 216 272 334 395
#     4  10  23  43  63  96 126 166 214 267 323 387
#     4  10  23  41  70  97 132 171 212 269 336 403
#     4  11  23  44  63  92 129 168 222 268 318 382
#     4  11  25  39  59  91 125 171 220 265 321 377
#     4  11  23  41  65  87 128 171 216 269 319 376
#     4  11  24  41  69  94 129 173 212 268 325 387
#
# _framework density 21.038944999999998
#
# number of rings (size 3 to 8) (size 9 to 14) (size 15 to 20)
#    0.000    1.250    2.500    2.625    5.250    3.500 
#    0.000    0.000    0.000    0.000    0.000    0.000 
#    0.000    0.000    0.000    0.000    0.000    0.000 
#
# Total GULP energy -89260.212966 kJ/mol
# GULP energy per Si atom -5578.763310 kJ/mol
# Density = 2.099106 g / cm^3
# Si number density = 21.038945 Si / 1000 Ang^3
#
#
#
# Elastic Constant Matrix: (Units=GPa)
#
#
# Indices 1 2 3 4 5 6 
#
# 1 45.5826 24.5266 1.7028 -0.4543 9.8672 -4.9765
# 2 24.5266 108.6535 31.5937 -7.2257 2.2511 -8.5758
# 3 1.7028 31.5937 76.7123 7.5512 3.6769 -5.8177
# 4 -0.4543 -7.2257 7.5512 25.1744 -8.5432 -8.4350
# 5 9.8672 2.2511 3.6769 -8.5432 38.5884 -1.3997
# 6 -4.9765 -8.5758 -5.8177 -8.4350 -1.3997 23.1036
#
#
#
# Elastic Compliance Matrix: (Units=1/GPa)
#
#
# Indices 1 2 3 4 5 6 
#
# 1 0.027547 -0.007169 0.003318 -0.004574 -0.007883 0.001960
# 2 -0.007169 0.013483 -0.006014 0.008581 0.003712 0.005304
# 3 0.003318 -0.006014 0.016376 -0.008086 -0.003869 -0.000581
# 4 -0.004574 0.008581 -0.008086 0.056872 0.014822 0.021825
# 5 -0.007883 0.003712 -0.003869 0.014822 0.031583 0.006030
# 6 0.001960 0.005304 -0.000581 0.021825 0.006030 0.053862
#
#
# Mechanical properties :
#
#
# Convention : Reuss Voigt Hill
#
# Bulk Modulus (GPa) = 26.54259 38.51051 32.52655
# Shear Modulus (GPa) = 21.55066 28.91497 25.23281
#
# Velocity S-wave (km/s) = 3.20398 3.71125 3.46690
# Velocity P-wave (km/s) = 5.13133 6.05877 5.61423
#
# Compressibility (1/GPa) = 0.03767531
#
# Stress axis : x y z
#
# Youngs Moduli (GPa) = 36.30209 74.16712 61.06355
#
# Poissons Ratio (x) = 0.53171 -0.20260
# Poissons Ratio (y) = 0.26025 0.36725
# Poissons Ratio (z) = -0.12045 0.44606
#
# Static dielectric constant tensor:
#      x y z
#    x 1.596780 -0.047970 0.000120 
#    y -0.047970 1.892380 -0.016380 
#    z 0.000120 -0.016380 1.789010 
# 
# From -- ./inp_files/48133.got.cif
#   From: 2010.05.17/outbox.cif.g08.bks.cpg/sg2_25_cif.got.tgz:48133.got - 2010.06.03 11:33:40.
