data_PCOD9038142
_publ_section_title
;
Structure prediction by ZEFSAII (Michael W. Deem and Ramdas Pophale) SiO2 
 PCOD9038142
Probable space group: P -1
;
_chemical_formula_sum "Si O2"
_cell_formula_units_Z 16
_cell_length_a 9.804391
_cell_length_b 9.092409
_cell_length_c 10.913201
_cell_angle_alpha 130.287808
_cell_angle_beta 115.161184
_cell_angle_gamma 62.611744
_cell_volume 647.104082
_symmetry_space_group_name_H-M "P -1"
_symmetry_group_IT_number 2
_symmetry_cell_setting 'triclinic'
loop_
_space_group_symop_operation_xyz
x,y,z
-x,-y,-z
loop_
_atom_site_type_symbol
_atom_site_label
_atom_site_fract_x
_atom_site_fract_y
_atom_site_fract_z
Si Si1 0.180485 0.511898 0.747015
Si Si2 0.017678 0.730897 0.478835
Si Si3 0.932792 0.202648 0.740677
Si Si4 0.642602 0.144207 0.057123
Si Si5 0.436653 0.151845 0.751764
Si Si6 0.055848 0.172838 0.039199
Si Si7 0.380302 0.579038 0.605701
Si Si8 0.405884 0.787541 0.396108
O O1 0.260518 0.689319 0.842913
O O2 0.304489 0.359230 0.797436
O O3 0.113150 0.359532 0.557306
O O4 0.010416 0.635628 0.799893
O O5 0.996881 0.741231 0.328211
O O6 0.198750 0.632036 0.528335
O O7 0.977843 0.961203 0.628835
O O8 0.746700 0.290971 0.704522
O O9 0.983876 0.246615 0.918456
O O10 0.587053 0.223850 0.213680
O O11 0.763328 0.928681 0.973422
O O12 0.509344 0.154590 0.913555
O O13 0.571329 0.139360 0.692768
O O14 0.379244 0.961036 0.582283
O O15 0.000000 0.000000 0.000000
O O16 0.500000 0.500000 0.500000
O O17 0.436554 0.385706 0.611621
#
# Coordination Sequence:
#
# PCOD9038142 Si02
#       8
#     2   2   2   2   2   2   2   2
#     4  11  23  42  67 100 129 176 224 270 331 397
#     4  11  25  42  68  94 131 177 225 270 327 398
#     4  11  22  45  68  92 134 176 218 277 325 397
#     4  11  24  45  65  99 139 173 219 287 330 392
#     4  11  24  42  68 101 131 173 224 276 339 389
#     4  10  23  41  66  98 132 171 213 275 336 387
#     4  12  25  44  69  96 134 179 225 272 341 397
#     4  11  23  42  69  98 131 175 224 275 329 404
#
# _framework density 24.725543999999999
#
# number of rings (size 3 to 8) (size 9 to 14) (size 15 to 20)
#    0.000    1.000    5.000    1.875    3.500    1.000 
#    2.250    0.625    0.000    0.000    0.000    0.000 
#    0.000    0.000    0.000    0.000    0.000    0.000 
#
# Total GULP energy -89335.087677 kJ/mol
# GULP energy per Si atom -5583.442980 kJ/mol
# Density = 2.466927 g / cm^3
# Si number density = 24.725544 Si / 1000 Ang^3
#
#
#
# Elastic Constant Matrix: (Units=GPa)
#
#
# Indices 1 2 3 4 5 6 
#
# 1 59.5420 23.6664 18.3003 -7.5512 6.2603 -17.0240
# 2 23.6664 109.1394 17.5190 3.7876 3.0082 -23.4457
# 3 18.3003 17.5190 56.9617 -11.6431 -17.4639 -1.0357
# 4 -7.5512 3.7876 -11.6431 52.7514 -3.4553 -4.8779
# 5 6.2603 3.0082 -17.4639 -3.4553 24.9900 4.2828
# 6 -17.0240 -23.4457 -1.0357 -4.8779 4.2828 32.6266
#
#
#
# Elastic Compliance Matrix: (Units=1/GPa)
#
#
# Indices 1 2 3 4 5 6 
#
# 1 0.028628 0.000591 -0.015234 0.000973 -0.020797 0.017754
# 2 0.000591 0.012571 -0.006863 -0.001966 -0.008432 0.009937
# 3 -0.015234 -0.006863 0.035937 0.007033 0.033310 -0.015060
# 4 0.000973 -0.001966 0.007033 0.021429 0.007610 0.001523
# 5 -0.020797 -0.008432 0.033310 0.007610 0.074775 -0.024531
# 6 0.017754 0.009937 -0.015060 0.001523 -0.024531 0.050024
#
#
# Mechanical properties :
#
#
# Convention : Reuss Voigt Hill
#
# Bulk Modulus (GPa) = 29.30371 38.29050 33.79710
# Shear Modulus (GPa) = 18.00174 33.15078 25.57626
#
# Velocity S-wave (km/s) = 2.70119 3.66560 3.21971
# Velocity P-wave (km/s) = 4.64821 5.78233 5.24601
#
# Compressibility (1/GPa) = 0.03412538
#
# Stress axis : x y z
#
# Youngs Moduli (GPa) = 34.93054 79.54528 27.82670
#
# Poissons Ratio (x) = -0.04700 0.42390
# Poissons Ratio (y) = -0.02064 0.19097
# Poissons Ratio (z) = 0.53212 0.54589
#
# Static dielectric constant tensor:
#      x y z
#    x 2.111260 0.092660 -0.084800 
#    y 0.092660 1.964530 -0.046260 
#    z -0.084800 -0.046260 1.987680 
# 
# From -- ./inp_files/427006.got.cif
#   From: 2010.05.17/outbox.cif.g08.bks.cpg/sg2_214_cif.got.tgz:427006.got - 2010.06.03 11:33:40.
