data_PCOD9038458
_publ_section_title
;
Structure prediction by ZEFSAII (Michael W. Deem and Ramdas Pophale) SiO2 
 PCOD9038458
Probable space group: P -1
;
_chemical_formula_sum "Si O2"
_cell_formula_units_Z 16
_cell_length_a 17.867658
_cell_length_b 11.734874
_cell_length_c 9.538069
_cell_angle_alpha 39.655254
_cell_angle_beta 52.684316
_cell_angle_gamma 30.798663
_cell_volume 644.113647
_symmetry_space_group_name_H-M "P -1"
_symmetry_group_IT_number 2
_symmetry_cell_setting 'triclinic'
loop_
_space_group_symop_operation_xyz
x,y,z
-x,-y,-z
loop_
_atom_site_type_symbol
_atom_site_label
_atom_site_fract_x
_atom_site_fract_y
_atom_site_fract_z
Si Si1 0.575726 0.540764 0.970422
Si Si2 0.441326 0.700928 0.550894
Si Si3 0.841164 0.076480 0.934185
Si Si4 0.116654 0.384936 0.599006
Si Si5 0.881550 0.789701 0.700737
Si Si6 0.372075 0.161787 0.332837
Si Si7 0.846378 0.432629 0.054415
Si Si8 0.759626 0.279969 0.530464
O O1 0.546591 0.504092 0.190172
O O2 0.500000 0.500000 0.000000
O O3 0.750288 0.280063 0.977829
O O4 0.529681 0.813886 0.755699
O O5 0.586482 0.507388 0.474920
O O6 0.274418 0.957130 0.442818
O O7 0.449442 0.861808 0.492370
O O8 0.770333 0.274409 0.691112
O O9 0.016747 0.839468 0.937462
O O10 0.820932 0.890472 0.144560
O O11 0.243067 0.309848 0.450344
O O12 0.000000 0.500000 0.500000
O O13 0.020355 0.625438 0.598357
O O14 0.860062 0.959585 0.687977
O O15 0.885534 0.573842 0.931450
O O16 0.292042 0.341307 0.107926
O O17 0.816531 0.351106 0.297551
#
# Coordination Sequence:
#
# PCOD9038458 Si02
#       8
#     2   2   2   2   2   2   2   2
#     4  12  25  44  65 103 134 176 229 285 345 397
#     4  11  23  45  66  98 139 178 230 284 325 411
#     4  11  23  44  66  97 147 166 222 288 332 404
#     4  11  19  44  73 102 136 169 231 291 331 393
#     4  10  23  41  69  97 135 184 225 276 331 395
#     4  11  24  42  75  99 127 183 227 288 343 384
#     4  10  24  43  66 102 130 176 227 277 333 408
#     4  12  25  42  63  99 142 187 218 268 341 412
#
# _framework density 24.840336000000001
#
# number of rings (size 3 to 8) (size 9 to 14) (size 15 to 20)
#    0.000    1.000    6.250    1.500    1.750    6.000 
#    2.250    0.000    0.000    0.000    0.000    0.000 
#    0.000    0.000    0.000    0.000    0.000    0.000 
#
# Total GULP energy -89548.403417 kJ/mol
# GULP energy per Si atom -5596.775214 kJ/mol
# Density = 2.478380 g / cm^3
# Si number density = 24.840336 Si / 1000 Ang^3
#
#
#
# Elastic Constant Matrix: (Units=GPa)
#
#
# Indices 1 2 3 4 5 6 
#
# 1 63.3233 15.0925 52.8233 2.1843 -17.3528 -8.2048
# 2 15.0925 128.1993 28.0744 6.8063 -21.4904 -1.8693
# 3 52.8233 28.0744 140.8408 16.4565 -25.0254 -11.8726
# 4 2.1843 6.8063 16.4565 36.2519 -7.1268 2.3841
# 5 -17.3528 -21.4904 -25.0254 -7.1268 38.0943 -5.7923
# 6 -8.2048 -1.8693 -11.8726 2.3841 -5.7923 26.7114
#
#
#
# Elastic Compliance Matrix: (Units=1/GPa)
#
#
# Indices 1 2 3 4 5 6 
#
# 1 0.025163 -0.000022 -0.007985 0.003253 0.007656 0.005548
# 2 -0.000022 0.008777 -0.000768 -0.000490 0.004542 0.001295
# 3 -0.007985 -0.000768 0.011664 -0.004256 0.003372 0.003789
# 4 0.003253 -0.000490 -0.004256 0.030317 0.003649 -0.002841
# 5 0.007656 0.004542 0.003372 0.003649 0.037003 0.011867
# 6 0.005548 0.001295 0.003789 -0.002841 0.011867 0.043743
#
#
# Mechanical properties :
#
#
# Convention : Reuss Voigt Hill
#
# Bulk Modulus (GPa) = 35.64484 58.26043 46.95264
# Shear Modulus (GPa) = 27.23767 35.96972 31.60370
#
# Velocity S-wave (km/s) = 3.31495 3.80944 3.57076
# Velocity P-wave (km/s) = 5.38819 6.54629 5.99527
#
# Compressibility (1/GPa) = 0.02805455
#
# Stress axis : x y z
#
# Youngs Moduli (GPa) = 39.74058 113.92808 85.73427
#
# Poissons Ratio (x) = 0.00251 0.68460
# Poissons Ratio (y) = 0.00088 0.06583
# Poissons Ratio (z) = 0.31734 0.08747
#
# Static dielectric constant tensor:
#      x y z
#    x 2.091190 0.046840 0.045310 
#    y 0.046840 1.936980 -0.009870 
#    z 0.045310 -0.009870 1.912580 
# 
# From -- ./inp_files/345841.got.cif
#   From: 2010.05.17/outbox.cif.g08.bks.cpg/sg2_173_cif.got.tgz:345841.got - 2010.06.03 11:33:40.
