data_PCOD9038750
_publ_section_title
;
Structure prediction by ZEFSAII (Michael W. Deem and Ramdas Pophale) SiO2 
 PCOD9038750
Probable space group: P -1
;
_chemical_formula_sum "Si O2"
_cell_formula_units_Z 16
_cell_length_a 14.206365
_cell_length_b 6.437750
_cell_length_c 8.283797
_cell_angle_alpha 92.081424
_cell_angle_beta 112.967853
_cell_angle_gamma 91.785229
_cell_volume 696.244459
_symmetry_space_group_name_H-M "P -1"
_symmetry_group_IT_number 2
_symmetry_cell_setting 'triclinic'
loop_
_space_group_symop_operation_xyz
x,y,z
-x,-y,-z
loop_
_atom_site_type_symbol
_atom_site_label
_atom_site_fract_x
_atom_site_fract_y
_atom_site_fract_z
Si Si1 0.246018 0.434041 0.300872
Si Si2 0.240065 0.895395 0.688766
Si Si3 0.612676 0.853731 0.409173
Si Si4 0.020783 0.426567 0.190919
Si Si5 0.820822 0.547703 0.264153
Si Si6 0.381357 0.827502 0.279639
Si Si7 0.253583 0.136585 0.005728
Si Si8 0.080092 0.099328 0.432027
O O1 0.317826 0.326158 0.477728
O O2 0.138410 0.511630 0.294271
O O3 0.308666 0.623027 0.259158
O O4 0.216699 0.245311 0.148678
O O5 0.237802 0.653022 0.707729
O O6 0.342449 0.031060 0.717374
O O7 0.195964 0.984165 0.831330
O O8 0.169790 0.941477 0.487885
O O9 0.496009 0.769817 0.310872
O O10 0.613490 0.036833 0.548979
O O11 0.031831 0.184180 0.240470
O O12 0.924723 0.494910 0.234915
O O13 0.000000 0.500000 0.000000
O O14 0.741255 0.659478 0.098879
O O15 0.866666 0.703800 0.433844
O O16 0.339633 0.986112 0.122687
O O17 0.000000 0.000000 0.500000
#
# Coordination Sequence:
#
# PCOD9038750 Si02
#       8
#     2   2   2   2   2   2   2   2
#     4  11  22  43  65  92 131 166 212 268 324 379
#     4  11  23  41  66  88 130 170 214 260 324 382
#     4  10  23  42  66  98 120 168 219 266 319 394
#     4  12  24  40  65  98 127 171 217 257 327 379
#     4  11  24  42  62  93 131 172 212 262 320 388
#     4  10  23  42  68  92 129 163 214 272 329 371
#     4  10  23  42  60  94 128 165 210 264 317 383
#     4  11  24  42  63  91 132 171 217 264 319 388
#
# _framework density 22.980433999999999
#
# number of rings (size 3 to 8) (size 9 to 14) (size 15 to 20)
#    0.000    1.250    3.750    1.500    1.750    0.500 
#    0.000    3.125    0.000    0.000    0.000    0.000 
#    0.000    0.000    0.000    0.000    0.000    0.000 
#
# Total GULP energy -89130.678481 kJ/mol
# GULP energy per Si atom -5570.667405 kJ/mol
# Density = 2.292813 g / cm^3
# Si number density = 22.980434 Si / 1000 Ang^3
#
#
#
# Elastic Constant Matrix: (Units=GPa)
#
#
# Indices 1 2 3 4 5 6 
#
# 1 140.9081 45.2308 37.1040 -27.2527 9.6520 23.8524
# 2 45.2308 117.8929 50.3884 -34.8905 -0.5218 12.8489
# 3 37.1040 50.3884 113.8559 -38.0496 3.5312 -0.2502
# 4 -27.2527 -34.8905 -38.0496 51.1290 -5.6363 -6.3635
# 5 9.6520 -0.5218 3.5312 -5.6363 20.8767 -3.9534
# 6 23.8524 12.8489 -0.2502 -6.3635 -3.9534 37.2966
#
#
#
# Elastic Compliance Matrix: (Units=1/GPa)
#
#
# Indices 1 2 3 4 5 6 
#
# 1 0.009790 -0.002024 -0.001731 0.001257 -0.005062 -0.005898
# 2 -0.002024 0.012329 -0.003206 0.005030 0.002800 -0.001819
# 3 -0.001731 -0.003206 0.013169 0.007272 0.001149 0.003662
# 4 0.001257 0.005030 0.007272 0.030288 0.007142 0.003436
# 5 -0.005062 0.002800 0.001149 0.007142 0.053787 0.009200
# 6 -0.005898 -0.001819 0.003662 0.003436 0.009200 0.032797
#
#
# Mechanical properties :
#
#
# Convention : Reuss Voigt Hill
#
# Bulk Modulus (GPa) = 46.80366 70.90038 58.85202
# Shear Modulus (GPa) = 28.86783 37.85602 33.36193
#
# Velocity S-wave (km/s) = 3.54812 4.06312 3.81432
# Velocity P-wave (km/s) = 6.09890 7.27539 6.71297
#
# Compressibility (1/GPa) = 0.02136585
#
# Stress axis : x y z
#
# Youngs Moduli (GPa) = 102.14018 81.11194 75.93792
#
# Poissons Ratio (x) = 0.16417 0.13142
# Poissons Ratio (y) = 0.20674 0.24348
# Poissons Ratio (z) = 0.17676 0.26007
#
# Static dielectric constant tensor:
#      x y z
#    x 2.033790 0.040200 0.017890 
#    y 0.040200 1.916990 0.001910 
#    z 0.017890 0.001910 1.965890 
# 
# From -- ./inp_files/90835.got.cif
#   From: 2010.05.17/outbox.cif.g08.bks.cpg/sg2_46_cif.got.tgz:90835.got - 2010.06.03 11:33:40.
