data_PCOD9038614
_publ_section_title
;
Structure prediction by ZEFSAII (Michael W. Deem and Ramdas Pophale) SiO2 
 PCOD9038614
Probable space group: P -1
;
_chemical_formula_sum "Si O2"
_cell_formula_units_Z 16
_cell_length_a 8.909940
_cell_length_b 5.134562
_cell_length_c 19.000179
_cell_angle_alpha 69.251430
_cell_angle_beta 118.388850
_cell_angle_gamma 98.864951
_cell_volume 714.995602
_symmetry_space_group_name_H-M "P -1"
_symmetry_group_IT_number 2
_symmetry_cell_setting 'triclinic'
loop_
_space_group_symop_operation_xyz
x,y,z
-x,-y,-z
loop_
_atom_site_type_symbol
_atom_site_label
_atom_site_fract_x
_atom_site_fract_y
_atom_site_fract_z
Si Si1 0.814777 0.664316 0.657547
Si Si2 0.940746 0.784153 0.171382
Si Si3 0.777672 0.785894 0.789382
Si Si4 0.555582 0.262224 0.441826
Si Si5 0.791561 0.841240 0.273610
Si Si6 0.094872 0.520273 0.444531
Si Si7 0.007942 0.680157 0.055558
Si Si8 0.608736 0.260801 0.293604
O O1 0.958712 0.462478 0.742014
O O2 0.787062 0.861155 0.700613
O O3 0.619664 0.552224 0.620177
O O4 0.877771 0.720982 0.586471
O O5 0.873608 0.675348 0.091857
O O6 0.812567 0.905528 0.189592
O O7 0.081937 0.016611 0.165519
O O8 0.833226 0.470534 0.853483
O O9 0.582710 0.807727 0.765763
O O10 0.714050 0.399136 0.501652
O O11 0.616909 0.176997 0.385539
O O12 0.500000 0.000000 0.500000
O O13 0.663335 0.582484 0.275493
O O14 0.973288 0.741058 0.355869
O O15 0.730004 0.093038 0.284229
O O16 0.000000 0.500000 0.500000
O O17 0.000000 0.500000 0.000000
O O18 0.000000 0.000000 0.000000
#
# Coordination Sequence:
#
# PCOD9038614 Si02
#       8
#     2   2   2   2   2   2   2   2
#     4   9  23  38  59  85 129 168 228 271 340 376
#     4  10  23  41  72  98 132 174 222 267 326 399
#     4  10  23  41  71  99 129 175 223 266 320 400
#     4  11  25  38  60  89 125 179 229 297 339 387
#     4  11  27  43  64  94 134 177 224 274 339 395
#     4  11  23  38  59  87 128 171 226 286 339 387
#     4  11  22  40  72 112 140 160 210 269 324 386
#     4  11  27  44  65  93 132 179 228 273 335 394
#
# _framework density 22.377759999999999
#
# number of rings (size 3 to 8) (size 9 to 14) (size 15 to 20)
#    0.000    1.500    2.500    0.375   19.250    0.500 
#    0.000    0.000    0.000    4.500    0.000    0.000 
#    0.000    0.000    0.000    0.000    0.000    0.000 
#
# Total GULP energy -89138.721277 kJ/mol
# GULP energy per Si atom -5571.170080 kJ/mol
# Density = 2.232683 g / cm^3
# Si number density = 22.377760 Si / 1000 Ang^3
#
#
#
# Elastic Constant Matrix: (Units=GPa)
#
#
# Indices 1 2 3 4 5 6 
#
# 1 81.7992 24.5247 45.0007 23.7963 -24.4716 -5.5618
# 2 24.5247 82.5495 25.7065 13.6887 -19.1338 -1.1167
# 3 45.0007 25.7065 119.7634 23.9404 -50.5365 -11.9325
# 4 23.7963 13.6887 23.9404 32.3311 -15.7695 -10.3122
# 5 -24.4716 -19.1338 -50.5365 -15.7695 30.8993 9.1963
# 6 -5.5618 -1.1167 -11.9325 -10.3122 9.1963 43.5929
#
#
#
# Elastic Compliance Matrix: (Units=1/GPa)
#
#
# Indices 1 2 3 4 5 6 
#
# 1 0.018197 -0.002073 -0.003062 -0.008719 0.004117 -0.001501
# 2 -0.002073 0.014848 0.002597 -0.001701 0.011530 -0.002008
# 3 -0.003062 0.002597 0.028044 0.002698 0.047000 -0.001924
# 4 -0.008719 -0.001701 0.002698 0.047308 0.018557 0.006859
# 5 0.004117 0.011530 0.047000 0.018557 0.132013 -0.009774
# 6 -0.001501 -0.002008 -0.001924 0.006859 -0.009774 0.025854
#
#
# Mechanical properties :
#
#
# Convention : Reuss Voigt Hill
#
# Bulk Modulus (GPa) = 17.85255 52.73064 35.29159
# Shear Modulus (GPa) = 17.24065 33.95668 25.59867
#
# Velocity S-wave (km/s) = 2.77869 3.89965 3.38588
# Velocity P-wave (km/s) = 4.27667 6.62505 5.57590
#
# Compressibility (1/GPa) = 0.05601440
#
# Stress axis : x y z
#
# Youngs Moduli (GPa) = 54.95360 67.34744 35.65781
#
# Poissons Ratio (x) = 0.13960 0.10918
# Poissons Ratio (y) = 0.11391 -0.09260
# Poissons Ratio (z) = 0.16825 -0.17489
#
# Static dielectric constant tensor:
#      x y z
#    x 1.898530 -0.067070 -0.013890 
#    y -0.067070 2.003990 -0.008730 
#    z -0.013890 -0.008730 1.881130 
# 
# From -- ./inp_files/553374.got.cif
#   From: 2010.05.17/outbox.cif.g08.bks.cpg/sg2_277_cif.got.tgz:553374.got - 2010.06.03 11:33:40.
