data_PCOD9038295
_publ_section_title
;
Structure prediction by ZEFSAII (Michael W. Deem and Ramdas Pophale) SiO2 
 PCOD9038295
Probable space group: P -1
;
_chemical_formula_sum "Si O2"
_cell_formula_units_Z 16
_cell_length_a 19.750851
_cell_length_b 11.827885
_cell_length_c 11.359179
_cell_angle_alpha 32.154288
_cell_angle_beta 150.286199
_cell_angle_gamma 138.058096
_cell_volume 699.647707
_symmetry_space_group_name_H-M "P -1"
_symmetry_group_IT_number 2
_symmetry_cell_setting 'triclinic'
loop_
_space_group_symop_operation_xyz
x,y,z
-x,-y,-z
loop_
_atom_site_type_symbol
_atom_site_label
_atom_site_fract_x
_atom_site_fract_y
_atom_site_fract_z
Si Si1 0.871928 0.498012 0.668218
Si Si2 0.397774 0.690775 0.669622
Si Si3 0.049189 0.184731 0.328185
Si Si4 0.154639 0.233107 0.976302
Si Si5 0.457265 0.114787 0.504863
Si Si6 0.474442 0.235263 0.684496
Si Si7 0.186781 0.042434 0.427724
Si Si8 0.924221 0.363822 0.343850
O O1 0.754843 0.406593 0.487183
O O2 0.835545 0.690007 0.530593
O O3 0.005740 0.566404 0.733452
O O4 0.918878 0.324048 0.984009
O O5 0.438299 0.813535 0.502139
O O6 0.420726 0.864061 0.654081
O O7 0.500000 0.500000 0.000000
O O8 0.091606 0.115987 0.323870
O O9 0.000000 0.000000 0.500000
O O10 0.117275 0.439152 0.814122
O O11 0.046507 0.237114 0.704023
O O12 0.310354 0.227660 0.170202
O O13 0.142734 0.047073 0.220096
O O14 0.515547 0.177721 0.664085
O O15 0.500000 0.500000 0.500000
O O16 0.311077 0.210945 0.467412
O O17 0.500000 0.000000 0.000000
O O18 0.206419 0.798225 0.710638
#
# Coordination Sequence:
#
# PCOD9038295 Si02
#       8
#     2   2   2   2   2   2   2   2
#     4  11  25  41  69 103 141 183 241 299 372 444
#     4  11  26  46  75 103 143 193 251 317 375 450
#     4  11  24  43  65 100 142 184 233 296 367 450
#     4  10  23  41  68 100 143 175 234 294 376 438
#     4  10  26  47  71 104 141 191 252 305 377 442
#     4  11  29  48  76 107 149 201 251 309 370 451
#     4  11  24  41  69  98 143 179 241 292 369 434
#     4  11  22  40  68 106 137 181 224 303 367 445
#
# _framework density 22.868652999999998
#
# number of rings (size 3 to 8) (size 9 to 14) (size 15 to 20)
#    0.000    1.250    2.500    1.125    8.750    8.000 
#    0.000    0.000    0.000    0.000    0.000    0.000 
#    0.000    0.000    0.000    0.000    0.000    0.000 
#
# Total GULP energy -89094.625825 kJ/mol
# GULP energy per Si atom -5568.414114 kJ/mol
# Density = 2.281660 g / cm^3
# Si number density = 22.868653 Si / 1000 Ang^3
#
#
#
# Elastic Constant Matrix: (Units=GPa)
#
#
# Indices 1 2 3 4 5 6 
#
# 1 82.8048 27.4848 5.1748 -11.3724 -10.2998 -4.6763
# 2 27.4848 115.9021 27.6280 -15.4500 -16.0590 -7.3720
# 3 5.1748 27.6280 66.7507 -21.5039 -19.4109 4.2105
# 4 -11.3724 -15.4500 -21.5039 20.8468 3.5657 3.2711
# 5 -10.2998 -16.0590 -19.4109 3.5657 31.3577 -6.9112
# 6 -4.6763 -7.3720 4.2105 3.2711 -6.9112 47.1289
#
#
#
# Elastic Compliance Matrix: (Units=1/GPa)
#
#
# Indices 1 2 3 4 5 6 
#
# 1 0.014684 -0.002456 0.004600 0.009879 0.005461 0.000777
# 2 -0.002456 0.010800 -0.002352 0.003374 0.003305 0.001906
# 3 0.004600 -0.002352 0.029304 0.028865 0.014638 -0.002386
# 4 0.009879 0.003374 0.028865 0.084370 0.012112 -0.005151
# 5 0.005461 0.003305 0.014638 0.012112 0.044250 0.005399
# 6 0.000777 0.001906 -0.002386 -0.005151 0.005399 0.022956
#
#
# Mechanical properties :
#
#
# Convention : Reuss Voigt Hill
#
# Bulk Modulus (GPa) = 18.39181 42.89253 30.64217
# Shear Modulus (GPa) = 22.23169 33.54467 27.88818
#
# Velocity S-wave (km/s) = 3.12131 3.83409 3.49591
# Velocity P-wave (km/s) = 4.58802 6.19654 5.45193
#
# Compressibility (1/GPa) = 0.05437201
#
# Stress axis : x y z
#
# Youngs Moduli (GPa) = 68.10052 92.59383 34.12512
#
# Poissons Ratio (x) = 0.22738 -0.15696
# Poissons Ratio (y) = 0.16723 0.08026
# Poissons Ratio (z) = -0.31323 0.21777
#
# Static dielectric constant tensor:
#      x y z
#    x 1.841850 -0.001460 -0.012700 
#    y -0.001460 2.030970 0.027320 
#    z -0.012700 0.027320 1.953230 
# 
# From -- ./inp_files/471128.got.cif
#   From: 2010.05.17/outbox.cif.g08.bks.cpg/sg2_236_cif.got.tgz:471128.got - 2010.06.03 11:33:40.
