data_PCOD9038391
_publ_section_title
;
Structure prediction by ZEFSAII (Michael W. Deem and Ramdas Pophale) SiO2 
 PCOD9038391
Probable space group: P -1
;
_chemical_formula_sum "Si O2"
_cell_formula_units_Z 14
_cell_length_a 8.060904
_cell_length_b 13.108609
_cell_length_c 19.159294
_cell_angle_alpha 153.754982
_cell_angle_beta 139.911483
_cell_angle_gamma 47.216833
_cell_volume 576.348719
_symmetry_space_group_name_H-M "P -1"
_symmetry_group_IT_number 2
_symmetry_cell_setting 'triclinic'
loop_
_space_group_symop_operation_xyz
x,y,z
-x,-y,-z
loop_
_atom_site_type_symbol
_atom_site_label
_atom_site_fract_x
_atom_site_fract_y
_atom_site_fract_z
Si Si1 0.135225 0.993189 0.871811
Si Si2 0.235245 0.798321 0.631966
Si Si3 0.222617 0.520303 0.248035
Si Si4 0.665452 0.535320 0.145699
Si Si5 0.712960 0.084634 0.974404
Si Si6 0.159210 0.002663 0.480045
Si Si7 0.781117 0.614020 0.549360
O O1 0.205461 0.891361 0.757828
O O2 0.176760 0.265717 0.047470
O O3 0.850511 0.884622 0.730959
O O4 0.291988 0.906002 0.936633
O O5 0.186223 0.524257 0.452682
O O6 0.519110 0.889447 0.761260
O O7 0.031336 0.919368 0.593037
O O8 0.234020 0.737620 0.332669
O O9 0.492228 0.549180 0.393049
O O10 0.969214 0.537362 0.225113
O O11 0.623606 0.794488 0.319845
O O12 0.500000 0.500000 0.000000
O O13 0.634989 0.325130 0.061334
O O14 0.000000 0.000000 0.000000
O O15 0.000000 0.000000 0.500000
O O16 0.000000 0.500000 0.500000
#
# Coordination Sequence:
#
# PCOD9038391 Si02
#       7
#     2   2   2   2   2   2   2
#     4  11  24  42  73 100 143 178 235 287 353 411
#     4  11  23  45  67 102 141 185 227 296 351 409
#     4  11  23  45  69 103 140 182 234 290 344 417
#     4  11  24  44  71 103 141 185 234 288 352 418
#     4  12  22  39  70 105 136 183 235 284 347 414
#     4  10  24  44  67  95 140 181 233 284 344 418
#     4  10  23  41  69 100 136 182 228 287 349 406
#
# _framework density 24.290846999999999
#
# number of rings (size 3 to 8) (size 9 to 14) (size 15 to 20)
#    0.000    1.143    2.857    3.000    4.000    2.857 
#    0.000    7.857    0.000    0.000    0.000    0.000 
#    0.000    0.000    0.000    0.000    0.000    0.000 
#
# Total GULP energy -78241.792776 kJ/mol
# GULP energy per Si atom -5588.699484 kJ/mol
# Density = 2.423556 g / cm^3
# Si number density = 24.290847 Si / 1000 Ang^3
#
#
#
# Elastic Constant Matrix: (Units=GPa)
#
#
# Indices 1 2 3 4 5 6 
#
# 1 59.0422 32.7854 25.9834 -1.5185 6.8765 7.6927
# 2 32.7854 205.9337 87.0495 17.7736 6.0708 26.9224
# 3 25.9834 87.0495 168.4833 28.9008 22.6423 11.0584
# 4 -1.5185 17.7736 28.9008 65.0708 3.9665 5.4774
# 5 6.8765 6.0708 22.6423 3.9665 35.4948 -6.3356
# 6 7.6927 26.9224 11.0584 5.4774 -6.3356 25.7143
#
#
#
# Elastic Compliance Matrix: (Units=1/GPa)
#
#
# Indices 1 2 3 4 5 6 
#
# 1 0.019818 -0.001951 -0.001681 0.002336 -0.003501 -0.004523
# 2 -0.001951 0.007189 -0.003028 -0.000202 0.000108 -0.005571
# 3 -0.001681 -0.003028 0.008916 -0.002829 -0.004654 -0.000705
# 4 0.002336 -0.000202 -0.002829 0.017068 -0.001087 -0.003174
# 5 -0.003501 0.000108 -0.004654 -0.001087 0.033983 0.011540
# 6 -0.004523 -0.005571 -0.000705 -0.003174 0.011540 0.049898
#
#
# Mechanical properties :
#
#
# Convention : Reuss Voigt Hill
#
# Bulk Modulus (GPa) = 44.24421 80.56621 62.40521
# Shear Modulus (GPa) = 31.70065 44.43204 38.06635
#
# Velocity S-wave (km/s) = 3.61646 4.28152 3.96296
# Velocity P-wave (km/s) = 5.97430 7.59481 6.83277
#
# Compressibility (1/GPa) = 0.02260183
#
# Stress axis : x y z
#
# Youngs Moduli (GPa) = 50.45965 139.10194 112.16024
#
# Poissons Ratio (x) = 0.27145 0.18859
# Poissons Ratio (y) = 0.09847 0.33957
# Poissons Ratio (z) = 0.08484 0.42113
#
# Static dielectric constant tensor:
#      x y z
#    x 2.082510 -0.078370 -0.052970 
#    y -0.078370 2.034190 0.091590 
#    z -0.052970 0.091590 2.064930 
# 
# From -- ./inp_files/560220.got.cif
#   From: 2010.05.17/outbox.cif.g08.bks.cpg/sg2_281_cif.got.tgz:560220.got - 2010.06.03 11:33:40.
