data_PCOD9038365
_publ_section_title
;
Structure prediction by ZEFSAII (Michael W. Deem and Ramdas Pophale) SiO2 
 PCOD9038365
Probable space group: P -1
;
_chemical_formula_sum "Si O2"
_cell_formula_units_Z 14
_cell_length_a 14.433314
_cell_length_b 11.300963
_cell_length_c 11.096457
_cell_angle_alpha 137.546118
_cell_angle_beta 131.026054
_cell_angle_gamma 30.902220
_cell_volume 626.016932
_symmetry_space_group_name_H-M "P -1"
_symmetry_group_IT_number 2
_symmetry_cell_setting 'triclinic'
loop_
_space_group_symop_operation_xyz
x,y,z
-x,-y,-z
loop_
_atom_site_type_symbol
_atom_site_label
_atom_site_fract_x
_atom_site_fract_y
_atom_site_fract_z
Si Si1 0.171569 0.442619 0.210088
Si Si2 0.062486 0.805371 0.009706
Si Si3 0.959453 0.577557 0.354728
Si Si4 0.382861 0.557558 0.557968
Si Si5 0.302569 0.127660 0.450558
Si Si6 0.127085 0.100702 0.858655
Si Si7 0.412176 0.637570 0.157528
O O1 0.314103 0.434707 0.372220
O O2 0.010715 0.607917 0.295602
O O3 0.070593 0.623928 0.143944
O O4 0.227400 0.179943 0.038992
O O5 0.268713 0.644760 0.086002
O O6 0.921622 0.967099 0.119643
O O7 0.059089 0.609027 0.820369
O O8 0.000000 0.000000 0.000000
O O9 0.773957 0.825604 0.445471
O O10 0.141253 0.410183 0.465338
O O11 0.500000 0.500000 0.500000
O O12 0.467499 0.458560 0.691546
O O13 0.228126 0.869097 0.677802
O O14 0.500000 0.000000 0.500000
O O15 0.312297 0.923271 0.254343
O O16 0.500000 0.500000 0.000000
#
# Coordination Sequence:
#
# PCOD9038365 Si02
#       7
#     2   2   2   2   2   2   2
#     4  10  23  46  71 100 139 186 242 291 362 437
#     4  11  21  42  68  94 135 183 235 289 358 430
#     4  10  23  41  68  97 135 187 231 298 360 420
#     4  12  27  44  70 107 143 186 239 300 364 429
#     4  11  23  40  63  99 136 180 238 291 356 424
#     4  10  24  44  73 100 138 189 240 291 359 439
#     4  12  26  42  67 100 143 182 232 302 360 425
#
# _framework density 22.363612
#
# number of rings (size 3 to 8) (size 9 to 14) (size 15 to 20)
#    0.000    1.143    1.429    3.857    6.000    1.714 
#    2.571    0.000    0.000    0.000    0.000    0.000 
#    0.000    0.000    0.000    0.000    0.000    0.000 
#
# Total GULP energy -78108.483792 kJ/mol
# GULP energy per Si atom -5579.177414 kJ/mol
# Density = 2.231271 g / cm^3
# Si number density = 22.363612 Si / 1000 Ang^3
#
#
#
# Elastic Constant Matrix: (Units=GPa)
#
#
# Indices 1 2 3 4 5 6 
#
# 1 140.2372 21.3875 55.7803 0.0855 1.3756 -13.1292
# 2 21.3875 56.3308 14.2468 -13.4440 4.7232 -5.3364
# 3 55.7803 14.2468 89.9655 -7.2269 -6.2272 -25.7696
# 4 0.0855 -13.4440 -7.2269 44.9521 -17.2337 -4.7364
# 5 1.3756 4.7232 -6.2272 -17.2337 44.2196 -5.1975
# 6 -13.1292 -5.3364 -25.7696 -4.7364 -5.1975 41.6198
#
#
#
# Elastic Compliance Matrix: (Units=1/GPa)
#
#
# Indices 1 2 3 4 5 6 
#
# 1 0.010114 -0.002849 -0.006829 -0.003118 -0.002429 -0.002061
# 2 -0.002849 0.020656 -0.000203 0.006702 0.000757 0.002481
# 3 -0.006829 -0.000203 0.019839 0.007148 0.007203 0.011816
# 4 -0.003118 0.006702 0.007148 0.031750 0.013896 0.009650
# 5 -0.002429 0.000757 0.007203 0.013896 0.030112 0.009132
# 6 -0.002061 0.002481 0.011816 0.009650 0.009132 0.033250
#
#
# Mechanical properties :
#
#
# Convention : Reuss Voigt Hill
#
# Bulk Modulus (GPa) = 32.41702 52.15142 42.28422
# Shear Modulus (GPa) = 28.44694 39.16624 33.80659
#
# Velocity S-wave (km/s) = 3.57041 4.18944 3.89225
# Velocity P-wave (km/s) = 5.61462 6.83902 6.25685
#
# Compressibility (1/GPa) = 0.03084800
#
# Stress axis : x y z
#
# Youngs Moduli (GPa) = 98.87084 48.41110 50.40583
#
# Poissons Ratio (x) = 0.13791 0.34421
# Poissons Ratio (y) = 0.28165 0.01025
# Poissons Ratio (z) = 0.67517 0.00984
#
# Static dielectric constant tensor:
#      x y z
#    x 1.884490 -0.015250 -0.045220 
#    y -0.015250 2.065300 -0.050620 
#    z -0.045220 -0.050620 1.900950 
# 
# From -- ./inp_files/451934.got.cif
#   From: 2010.05.17/outbox.cif.g08.bks.cpg/sg2_226_cif.got.tgz:451934.got - 2010.06.03 11:33:40.
