data_PCOD9038508
_publ_section_title
;
Structure prediction by ZEFSAII (Michael W. Deem and Ramdas Pophale) SiO2 
 PCOD9038508
Probable space group: P -1
;
_chemical_formula_sum "Si O2"
_cell_formula_units_Z 14
_cell_length_a 15.000802
_cell_length_b 14.966950
_cell_length_c 15.451392
_cell_angle_alpha 19.603905
_cell_angle_beta 48.656309
_cell_angle_gamma 38.675069
_cell_volume 679.385157
_symmetry_space_group_name_H-M "P -1"
_symmetry_group_IT_number 2
_symmetry_cell_setting 'triclinic'
loop_
_space_group_symop_operation_xyz
x,y,z
-x,-y,-z
loop_
_atom_site_type_symbol
_atom_site_label
_atom_site_fract_x
_atom_site_fract_y
_atom_site_fract_z
Si Si1 0.566611 0.853719 0.841274
Si Si2 0.476990 0.400042 0.254100
Si Si3 0.134610 0.869792 0.655514
Si Si4 0.126316 0.104390 0.259508
Si Si5 0.202460 0.115047 0.551916
Si Si6 0.437187 0.876966 0.219495
Si Si7 0.857949 0.210017 0.965467
O O1 0.522828 0.106386 0.560445
O O2 0.523232 0.065503 0.763718
O O3 0.491548 0.670362 0.041830
O O4 0.746664 0.527360 0.029794
O O5 0.305891 0.599897 0.149116
O O6 0.612538 0.184917 0.292049
O O7 0.963554 0.999734 0.638409
O O8 0.183203 0.901415 0.499649
O O9 0.150541 0.076179 0.527823
O O10 0.256896 0.076842 0.151474
O O11 0.000000 0.500000 0.000000
O O12 0.154755 0.484545 0.259931
O O13 0.130759 0.033511 0.746963
O O14 0.500000 0.500000 0.500000
O O15 0.500000 0.000000 0.000000
O O16 0.000000 0.000000 0.000000
#
# Coordination Sequence:
#
# PCOD9038508 Si02
#       7
#     2   2   2   2   2   2   2
#     4  11  22  43  69  96 131 174 226 276 321 395
#     4  11  23  43  73  96 123 175 230 270 328 390
#     4  10  23  41  70 105 127 176 231 286 324 383
#     4  11  23  42  71  95 142 175 225 279 337 382
#     4  11  23  43  72  98 128 173 231 267 323 407
#     4  12  25  43  61  97 138 179 219 268 333 396
#     4  12  26  46  65  99 141 171 208 282 345 392
#
# _framework density 20.606867000000001
#
# number of rings (size 3 to 8) (size 9 to 14) (size 15 to 20)
#    0.000    0.857    1.429    7.286    4.000    0.000 
#    7.714    0.000    0.000    0.000    0.000    0.000 
#    0.000    0.000    0.000    0.000    0.000    0.000 
#
# Total GULP energy -78322.027437 kJ/mol
# GULP energy per Si atom -5594.430531 kJ/mol
# Density = 2.055996 g / cm^3
# Si number density = 20.606867 Si / 1000 Ang^3
#
#
#
# Elastic Constant Matrix: (Units=GPa)
#
#
# Indices 1 2 3 4 5 6 
#
# 1 116.7589 46.2278 37.7305 2.3246 -9.1675 -7.2584
# 2 46.2278 122.8745 19.7147 2.5149 -8.0544 -20.1778
# 3 37.7305 19.7147 107.4720 14.3191 -18.4825 -4.0238
# 4 2.3246 2.5149 14.3191 39.3944 8.2855 -11.2216
# 5 -9.1675 -8.0544 -18.4825 8.2855 36.1796 -2.6115
# 6 -7.2584 -20.1778 -4.0238 -11.2216 -2.6115 32.7248
#
#
#
# Elastic Compliance Matrix: (Units=1/GPa)
#
#
# Indices 1 2 3 4 5 6 
#
# 1 0.011067 -0.003627 -0.003295 0.000771 0.000144 0.000089
# 2 -0.003627 0.010654 -0.000345 0.001124 0.001468 0.006225
# 3 -0.003295 -0.000345 0.012450 -0.005994 0.006754 -0.000929
# 4 0.000771 0.001124 -0.005994 0.032385 -0.009276 0.010492
# 5 0.000144 0.001468 0.006754 -0.009276 0.033670 0.001274
# 6 0.000089 0.006225 -0.000929 0.010492 0.001274 0.038001
#
#
# Mechanical properties :
#
#
# Convention : Reuss Voigt Hill
#
# Bulk Modulus (GPa) = 50.92322 61.60571 56.26447
# Shear Modulus (GPa) = 31.38634 37.88859 34.63746
#
# Velocity S-wave (km/s) = 3.90693 4.29259 4.10429
# Velocity P-wave (km/s) = 6.71696 7.38438 7.05856
#
# Compressibility (1/GPa) = 0.01963741
#
# Stress axis : x y z
#
# Youngs Moduli (GPa) = 90.36161 93.86514 80.32038
#
# Poissons Ratio (x) = 0.34041 0.26463
# Poissons Ratio (y) = 0.32770 0.02773
# Poissons Ratio (z) = 0.29771 0.03240
#
# Static dielectric constant tensor:
#      x y z
#    x 1.754780 -0.003700 -0.005160 
#    y -0.003700 1.712610 0.013100 
#    z -0.005160 0.013100 1.724810 
# 
# From -- ./inp_files/52413.got.cif
#   From: 2010.05.17/outbox.cif.g08.bks.cpg/sg2_27_cif.got.tgz:52413.got - 2010.06.03 11:33:40.
