data_PCOD9038955
_publ_section_title
;
Structure prediction by ZEFSAII (Michael W. Deem and Ramdas Pophale) SiO2 
 PCOD9038955
Probable space group: P -1
;
_chemical_formula_sum "Si O2"
_cell_formula_units_Z 16
_cell_length_a 12.347355
_cell_length_b 15.929210
_cell_length_c 10.068053
_cell_angle_alpha 80.527023
_cell_angle_beta 113.244244
_cell_angle_gamma 153.269296
_cell_volume 728.934434
_symmetry_space_group_name_H-M "P -1"
_symmetry_group_IT_number 2
_symmetry_cell_setting 'triclinic'
loop_
_space_group_symop_operation_xyz
x,y,z
-x,-y,-z
loop_
_atom_site_type_symbol
_atom_site_label
_atom_site_fract_x
_atom_site_fract_y
_atom_site_fract_z
Si Si1 0.662395 0.108535 0.251371
Si Si2 0.695601 0.520843 0.231359
Si Si3 0.195151 0.561113 0.502807
Si Si4 0.280926 0.975296 0.468261
Si Si5 0.907053 0.874775 0.379906
Si Si6 0.214134 0.133502 0.942595
Si Si7 0.603217 0.549148 0.688009
Si Si8 0.283097 0.985313 0.938392
O O1 0.628528 0.008483 0.154902
O O2 0.983574 0.365832 0.352394
O O3 0.609689 0.032164 0.390383
O O4 0.436870 0.031997 0.116386
O O5 0.707895 0.440032 0.336038
O O6 0.522710 0.464803 0.267396
O O7 0.493361 0.376029 0.044619
O O8 0.022790 0.771004 0.299349
O O9 0.462579 0.793080 0.514138
O O10 0.000000 0.500000 0.500000
O O11 0.076378 0.899356 0.482373
O O12 0.969088 0.948546 0.245057
O O13 0.565352 0.644503 0.294543
O O14 0.000000 0.000000 0.500000
O O15 0.329558 0.116252 0.959510
O O16 0.000000 0.000000 0.000000
O O17 0.500000 0.500000 0.500000
O O18 0.937959 0.757492 0.816661
#
# Coordination Sequence:
#
# PCOD9038955 Si02
#       8
#     2   2   2   2   2   2   2   2
#     4  10  24  45  67  96 140 185 238 284 348 428
#     4  10  23  42  65 103 137 178 230 291 357 416
#     4  11  23  44  69  99 131 190 235 288 352 419
#     4  10  23  43  68  97 138 176 237 293 342 425
#     4  11  25  40  69 107 134 179 238 286 360 435
#     4  12  23  43  69 103 144 182 229 298 359 419
#     4  11  22  41  68  99 138 182 226 290 363 410
#     4  11  23  45  66  97 140 185 228 289 356 415
#
# _framework density 21.949850000000001
#
# number of rings (size 3 to 8) (size 9 to 14) (size 15 to 20)
#    0.000    1.250    1.250    5.250    3.500    4.000 
#    9.000    1.250    0.000    0.000    0.000    0.000 
#    0.000    0.000    0.000    0.000    0.000    0.000 
#
# Total GULP energy -89232.457834 kJ/mol
# GULP energy per Si atom -5577.028615 kJ/mol
# Density = 2.189989 g / cm^3
# Si number density = 21.949850 Si / 1000 Ang^3
#
#
#
# Elastic Constant Matrix: (Units=GPa)
#
#
# Indices 1 2 3 4 5 6 
#
# 1 79.0083 11.7655 27.5773 10.5586 -7.2269 -14.1022
# 2 11.7655 98.9631 33.8202 17.2519 -13.1384 -8.0452
# 3 27.5773 33.8202 115.7682 3.3345 -6.3553 1.3091
# 4 10.5586 17.2519 3.3345 34.4464 -6.5946 -1.5493
# 5 -7.2269 -13.1384 -6.3553 -6.5946 43.2643 2.7392
# 6 -14.1022 -8.0452 1.3091 -1.5493 2.7392 27.6768
#
#
#
# Elastic Compliance Matrix: (Units=1/GPa)
#
#
# Indices 1 2 3 4 5 6 
#
# 1 0.016110 0.001092 -0.004055 -0.004484 0.001215 0.008346
# 2 0.001092 0.012917 -0.003778 -0.005799 0.002418 0.003926
# 3 -0.004055 -0.003778 0.010706 0.001991 0.000278 -0.003587
# 4 -0.004484 -0.005799 0.001991 0.033591 0.003060 -0.002487
# 5 0.001215 0.002418 0.000278 0.003060 0.024619 -0.000957
# 6 0.008346 0.003926 -0.003587 -0.002487 -0.000957 0.041650
#
#
# Mechanical properties :
#
#
# Convention : Reuss Voigt Hill
#
# Bulk Modulus (GPa) = 38.09446 48.89619 43.49532
# Shear Modulus (GPa) = 30.89735 35.78261 33.33998
#
# Velocity S-wave (km/s) = 3.75591 4.04195 3.90156
# Velocity P-wave (km/s) = 6.01682 6.64137 6.33679
#
# Compressibility (1/GPa) = 0.02625054
#
# Stress axis : x y z
#
# Youngs Moduli (GPa) = 62.07382 77.41594 93.40346
#
# Poissons Ratio (x) = -0.08455 0.37876
# Poissons Ratio (y) = -0.06779 0.35292
# Poissons Ratio (z) = 0.25172 0.29251
#
# Static dielectric constant tensor:
#      x y z
#    x 1.808190 -0.005570 -0.018160 
#    y -0.005570 1.913350 -0.018880 
#    z -0.018160 -0.018880 1.809460 
# 
# From -- ./inp_files/433961.got.cif
#   From: 2010.05.17/outbox.cif.g08.bks.cpg/sg2_217_cif.got.tgz:433961.got - 2010.06.03 11:33:40.
