data_PCOD9038896
_publ_section_title
;
Structure prediction by ZEFSAII (Michael W. Deem and Ramdas Pophale) SiO2 
 PCOD9038896
Probable space group: P -1
;
_chemical_formula_sum "Si O2"
_cell_formula_units_Z 15
_cell_length_a 8.931974
_cell_length_b 6.729838
_cell_length_c 12.476913
_cell_angle_alpha 94.471523
_cell_angle_beta 78.134977
_cell_angle_gamma 84.826993
_cell_volume 727.391189
_symmetry_space_group_name_H-M "P -1"
_symmetry_group_IT_number 2
_symmetry_cell_setting 'triclinic'
loop_
_space_group_symop_operation_xyz
x,y,z
-x,-y,-z
loop_
_atom_site_type_symbol
_atom_site_label
_atom_site_fract_x
_atom_site_fract_y
_atom_site_fract_z
Si Si1 0.475885 0.114737 0.621060
Si Si2 0.019292 0.129486 0.235528
Si Si3 0.421620 0.713375 0.982847
Si Si4 0.619572 0.953824 0.812752
Si Si5 0.500000 0.500000 0.500000
Si Si6 0.121412 0.548976 0.574224
Si Si7 0.846501 0.764835 0.255927
Si Si8 0.870330 0.418279 0.086046
O O1 0.488510 0.344667 0.596786
O O2 0.303473 0.092196 0.682864
O O3 0.500000 0.000000 0.500000
O O4 0.579414 0.023007 0.699939
O O5 0.201857 0.130221 0.213468
O O6 0.937427 0.234176 0.357109
O O7 0.948476 0.263194 0.153895
O O8 0.977317 0.904373 0.215747
O O9 0.514248 0.794454 0.872113
O O10 0.251753 0.686611 0.967291
O O11 0.500000 0.500000 0.000000
O O12 0.413038 0.862634 0.091332
O O13 0.304443 0.530048 0.520561
O O14 0.102735 0.383153 0.661214
O O15 0.000000 0.500000 0.500000
O O16 0.795513 0.618767 0.165176
O O17 0.000000 0.500000 0.000000
#
# Coordination Sequence:
#
# PCOD9038896 Si02
#       8
#     2   2   2   2   1   2   2   2
#     4  11  24  42  65  97 131 180 226 275 342 410
#     4  11  24  42  65  98 137 171 225 289 335 412
#     4  11  24  45  69  98 140 177 228 288 345 415
#     4  11  26  41  67 105 134 180 232 282 349 414
#     4  10  24  44  66  92 134 186 226 280 348 400
#     4  10  24  43  65  98 133 182 233 277 343 413
#     4  10  23  42  64  94 128 173 227 273 342 407
#     4  11  23  42  67  95 130 176 222 279 348 407
#
# _framework density 20.621642999999999
#
# number of rings (size 3 to 8) (size 9 to 14) (size 15 to 20)
#    0.000    1.333    0.000    4.000    5.600    9.067 
#    0.000    0.000    0.000    0.000    0.000    0.000 
#    0.000    0.000    0.000    0.000    0.000    0.000 
#
# Total GULP energy -83523.375903 kJ/mol
# GULP energy per Si atom -5568.225060 kJ/mol
# Density = 2.057471 g / cm^3
# Si number density = 20.621643 Si / 1000 Ang^3
#
#
#
# Elastic Constant Matrix: (Units=GPa)
#
#
# Indices 1 2 3 4 5 6 
#
# 1 129.6237 43.5175 43.8619 -19.4080 -7.6672 -0.0105
# 2 43.5175 71.8427 29.6708 -10.7741 4.7445 7.7739
# 3 43.8619 29.6708 95.7049 -12.9892 7.9017 1.3623
# 4 -19.4080 -10.7741 -12.9892 24.4337 -1.6549 -8.9549
# 5 -7.6672 4.7445 7.9017 -1.6549 37.1865 -6.4272
# 6 -0.0105 7.7739 1.3623 -8.9549 -6.4272 36.4278
#
#
#
# Elastic Compliance Matrix: (Units=1/GPa)
#
#
# Indices 1 2 3 4 5 6 
#
# 1 0.012079 -0.005643 -0.003278 0.007144 0.004908 0.003953
# 2 -0.005643 0.019392 -0.002973 0.000563 -0.003768 -0.004555
# 3 -0.003278 -0.002973 0.013551 0.003234 -0.002963 0.000399
# 4 0.007144 0.000563 0.003234 0.054090 0.005547 0.014036
# 5 0.004908 -0.003768 -0.002963 0.005547 0.030587 0.007677
# 6 0.003953 -0.004555 0.000399 0.014036 0.007677 0.033215
#
#
# Mechanical properties :
#
#
# Convention : Reuss Voigt Hill
#
# Bulk Modulus (GPa) = 47.09777 59.03018 53.06398
# Shear Modulus (GPa) = 25.80259 31.61768 28.71014
#
# Velocity S-wave (km/s) = 3.54112 3.91989 3.73531
# Velocity P-wave (km/s) = 6.29349 7.01248 6.66269
#
# Compressibility (1/GPa) = 0.02123243
#
# Stress axis : x y z
#
# Youngs Moduli (GPa) = 82.79072 51.56873 73.79606
#
# Poissons Ratio (x) = 0.29100 0.24191
# Poissons Ratio (y) = 0.46719 0.21941
# Poissons Ratio (z) = 0.27139 0.15333
#
# Static dielectric constant tensor:
#      x y z
#    x 1.761200 0.016640 0.043190 
#    y 0.016640 1.752920 0.053120 
#    z 0.043190 0.053120 1.827400 
# 
# From -- ./inp_files/305113.got.cif
#   From: 2010.05.17/outbox.cif.g08.bks.cpg/sg2_153_cif.got.tgz:305113.got - 2010.06.03 11:33:40.
