data_PCOD9038445
_publ_section_title
;
Structure prediction by ZEFSAII (Michael W. Deem and Ramdas Pophale) SiO2 
 PCOD9038445
Probable space group: P -1
;
_chemical_formula_sum "Si O2"
_cell_formula_units_Z 14
_cell_length_a 16.909030
_cell_length_b 12.897473
_cell_length_c 6.262405
_cell_angle_alpha 120.862184
_cell_angle_beta 43.871719
_cell_angle_gamma 139.853876
_cell_volume 608.034175
_symmetry_space_group_name_H-M "P -1"
_symmetry_group_IT_number 2
_symmetry_cell_setting 'triclinic'
loop_
_space_group_symop_operation_xyz
x,y,z
-x,-y,-z
loop_
_atom_site_type_symbol
_atom_site_label
_atom_site_fract_x
_atom_site_fract_y
_atom_site_fract_z
Si Si1 0.334319 0.324581 0.598041
Si Si2 0.274897 0.634833 0.686502
Si Si3 0.994485 0.351589 0.202202
Si Si4 0.463863 0.166057 0.295011
Si Si5 0.166691 0.388007 0.295926
Si Si6 0.655007 0.146302 0.571783
Si Si7 0.934173 0.828658 0.361190
O O1 0.500000 0.500000 0.500000
O O2 0.355911 0.197994 0.464786
O O3 0.236867 0.275487 0.517051
O O4 0.239195 0.328105 0.965603
O O5 0.391149 0.680749 0.694681
O O6 0.282887 0.548873 0.379917
O O7 0.323677 0.796941 0.656461
O O8 0.106799 0.499474 0.973177
O O9 0.076839 0.406619 0.325866
O O10 0.825730 0.282742 0.470706
O O11 0.983382 0.200605 0.000850
O O12 0.387052 0.019187 0.454873
O O13 0.533265 0.141991 0.933279
O O14 0.058572 0.251859 0.533647
O O15 0.000000 0.000000 0.500000
#
# Coordination Sequence:
#
# PCOD9038445 Si02
#       7
#     2   2   2   2   2   2   2
#     4  11  23  43  67  98 134 174 216 269 335 398
#     4  11  22  44  66  97 129 173 229 267 324 398
#     4  10  23  42  69  96 130 174 218 274 331 389
#     4  11  26  42  65  97 136 177 218 268 332 393
#     4  10  23  41  69  96 130 165 217 275 327 387
#     4  11  25  44  63  96 136 177 218 274 325 389
#     4  10  24  41  66 101 129 168 221 271 333 392
#
# _framework density 23.025023000000001
#
# number of rings (size 3 to 8) (size 9 to 14) (size 15 to 20)
#    0.000    1.429    0.000    5.143    4.000    9.143 
#    2.571    0.000    0.000    0.000    0.000    0.000 
#    0.000    0.000    0.000    0.000    0.000    0.000 
#
# Total GULP energy -78164.477864 kJ/mol
# GULP energy per Si atom -5583.176990 kJ/mol
# Density = 2.297262 g / cm^3
# Si number density = 23.025023 Si / 1000 Ang^3
#
#
#
# Elastic Constant Matrix: (Units=GPa)
#
#
# Indices 1 2 3 4 5 6 
#
# 1 105.3521 23.0651 25.1279 0.9806 -2.6986 -6.0397
# 2 23.0651 109.5681 23.2105 1.0607 6.6403 -7.6165
# 3 25.1279 23.2105 36.5312 3.1985 -8.3562 9.8725
# 4 0.9806 1.0607 3.1985 32.5388 -0.6622 7.1604
# 5 -2.6986 6.6403 -8.3562 -0.6622 36.0191 2.6217
# 6 -6.0397 -7.6165 9.8725 7.1604 2.6217 38.4052
#
#
#
# Elastic Compliance Matrix: (Units=1/GPa)
#
#
# Indices 1 2 3 4 5 6 
#
# 1 0.012088 -0.000008 -0.009926 -0.000448 -0.001742 0.004653
# 2 -0.000008 0.011964 -0.010143 -0.000692 -0.004969 0.005447
# 3 -0.009926 -0.010143 0.048327 -0.000126 0.013565 -0.016898
# 4 -0.000448 -0.000692 -0.000126 0.032179 0.001111 -0.006251
# 5 -0.001742 -0.004969 0.013565 0.001111 0.032237 -0.007154
# 6 0.004653 0.005447 -0.016898 -0.006251 -0.007154 0.033848
#
#
# Mechanical properties :
#
#
# Convention : Reuss Voigt Hill
#
# Bulk Modulus (GPa) = 31.03426 43.80649 37.42038
# Shear Modulus (GPa) = 22.56945 33.39581 27.98263
#
# Velocity S-wave (km/s) = 3.13423 3.81256 3.48992
# Velocity P-wave (km/s) = 5.15807 6.20062 5.70322
#
# Compressibility (1/GPa) = 0.03222245
#
# Stress axis : x y z
#
# Youngs Moduli (GPa) = 82.72936 83.58586 20.69244
#
# Poissons Ratio (x) = 0.00071 0.20539
# Poissons Ratio (y) = 0.00070 0.20989
# Poissons Ratio (z) = 0.82117 0.84785
#
# Static dielectric constant tensor:
#      x y z
#    x 1.877590 0.012710 0.050580 
#    y 0.012710 1.959960 0.024050 
#    z 0.050580 0.024050 1.994180 
# 
# From -- ./inp_files/47823.got.cif
#   From: 2010.05.17/outbox.cif.g08.bks.cpg/sg2_24_cif.got.tgz:47823.got - 2010.06.03 11:33:40.
