data_PCOD9038721
_publ_section_title
;
Structure prediction by ZEFSAII (Michael W. Deem and Ramdas Pophale) SiO2 
 PCOD9038721
Probable space group: P -1
;
_chemical_formula_sum "Si O2"
_cell_formula_units_Z 14
_cell_length_a 15.300134
_cell_length_b 7.930003
_cell_length_c 15.195653
_cell_angle_alpha 64.197661
_cell_angle_beta 19.021852
_cell_angle_gamma 57.952843
_cell_volume 494.420400
_symmetry_space_group_name_H-M "P -1"
_symmetry_group_IT_number 2
_symmetry_cell_setting 'triclinic'
loop_
_space_group_symop_operation_xyz
x,y,z
-x,-y,-z
loop_
_atom_site_type_symbol
_atom_site_label
_atom_site_fract_x
_atom_site_fract_y
_atom_site_fract_z
Si Si1 0.681527 0.208608 0.936131
Si Si2 0.777945 0.534525 0.554004
Si Si3 0.895328 0.742972 0.223779
Si Si4 0.491473 0.704815 0.226311
Si Si5 0.500000 0.000000 0.000000
Si Si6 0.000000 0.500000 0.500000
Si Si7 0.016312 0.209664 0.172012
Si Si8 0.342384 0.770954 0.659040
O O1 0.849757 0.353336 0.728734
O O2 0.804074 0.037652 0.935768
O O3 0.345192 0.347664 0.260144
O O4 0.674157 0.103981 0.875671
O O5 0.867774 0.642772 0.365151
O O6 0.516647 0.476849 0.785093
O O7 0.046848 0.357132 0.386048
O O8 0.688542 0.685184 0.365927
O O9 0.743209 0.987671 0.326547
O O10 0.194420 0.721758 0.896933
O O11 0.213376 0.745220 0.541788
O O12 0.441746 0.891006 0.168594
O O13 0.759777 0.688700 0.038206
O O14 0.822505 0.278894 0.253537
#
# Coordination Sequence:
#
# PCOD9038721 Si02
#       8
#     2   2   2   2   1   1   2   2
#     4   9  23  42  74 103 143 190 240 298 355 439
#     4  10  24  48  70 113 149 196 240 307 369 432
#     4  10  23  41  75 109 143 189 239 310 358 441
#     4  11  27  47  72 103 154 192 250 297 367 439
#     4  10  24  48  68 106 138 200 240 294 356 426
#     4   8  22  44  72 104 146 194 224 312 352 442
#     4  11  25  48  75 108 144 197 243 307 360 441
#     4  10  23  44  74 109 144 184 251 299 368 430
#
# _framework density 28.315982999999999
#
# number of rings (size 3 to 8) (size 9 to 14) (size 15 to 20)
#    0.857    1.143    0.000    0.857   14.000    4.000 
#   10.286    4.286    0.000    0.000    0.000    0.000 
#    0.000    0.000    0.000    0.000    0.000    0.000 
#
# Total GULP energy -78172.295280 kJ/mol
# GULP energy per Si atom -5583.735377 kJ/mol
# Density = 2.825153 g / cm^3
# Si number density = 28.315983 Si / 1000 Ang^3
#
#
#
# Elastic Constant Matrix: (Units=GPa)
#
#
# Indices 1 2 3 4 5 6 
#
# 1 159.1267 62.8786 -7.7458 -19.6043 -38.8068 -2.0602
# 2 62.8786 111.4613 44.4942 -37.7270 -7.1329 -11.5571
# 3 -7.7458 44.4942 139.3262 -18.4591 -27.1881 0.5897
# 4 -19.6043 -37.7270 -18.4591 51.5370 -5.1274 -0.6315
# 5 -38.8068 -7.1329 -27.1881 -5.1274 53.9977 -8.1015
# 6 -2.0602 -11.5571 0.5897 -0.6315 -8.1015 50.7932
#
#
#
# Elastic Compliance Matrix: (Units=1/GPa)
#
#
# Indices 1 2 3 4 5 6 
#
# 1 0.012734 -0.007961 0.005738 0.002198 0.011268 0.000463
# 2 -0.007961 0.018689 -0.006403 0.007878 -0.005239 0.003266
# 3 0.005738 -0.006403 0.011738 0.002644 0.009467 0.000182
# 4 0.002198 0.007878 0.002644 0.027699 0.007080 0.003325
# 5 0.011268 -0.005239 0.009467 0.007080 0.032016 0.004350
# 6 0.000463 0.003266 0.000182 0.003325 0.004350 0.021183
#
#
# Mechanical properties :
#
#
# Convention : Reuss Voigt Hill
#
# Bulk Modulus (GPa) = 38.59719 67.68535 53.14127
# Shear Modulus (GPa) = 33.34483 51.95141 42.64812
#
# Velocity S-wave (km/s) = 3.43534 4.28799 3.88513
# Velocity P-wave (km/s) = 5.42180 6.96213 6.23968
#
# Compressibility (1/GPa) = 0.02590862
#
# Stress axis : x y z
#
# Youngs Moduli (GPa) = 78.52839 53.50721 85.19172
#
# Poissons Ratio (x) = 0.42600 -0.48887
# Poissons Ratio (y) = 0.62520 0.54552
# Poissons Ratio (z) = -0.45063 0.34263
#
# Static dielectric constant tensor:
#      x y z
#    x 2.320320 -0.110670 -0.077850 
#    y -0.110670 1.776450 -0.000890 
#    z -0.077850 -0.000890 2.078760 
# 
# From -- ./inp_files/528203.got.cif
#   From: 2010.05.17/outbox.cif.g08.bks.cpg/sg2_265_cif.got.tgz:528203.got - 2010.06.03 11:33:40.
