data_PCOD9038281
_publ_section_title
;
Structure prediction by ZEFSAII (Michael W. Deem and Ramdas Pophale) SiO2 
 PCOD9038281
Probable space group: P -1
;
_chemical_formula_sum "Si O2"
_cell_formula_units_Z 16
_cell_length_a 9.439506
_cell_length_b 8.403923
_cell_length_c 11.333080
_cell_angle_alpha 106.977722
_cell_angle_beta 125.451755
_cell_angle_gamma 84.944723
_cell_volume 696.625520
_symmetry_space_group_name_H-M "P -1"
_symmetry_group_IT_number 2
_symmetry_cell_setting 'triclinic'
loop_
_space_group_symop_operation_xyz
x,y,z
-x,-y,-z
loop_
_atom_site_type_symbol
_atom_site_label
_atom_site_fract_x
_atom_site_fract_y
_atom_site_fract_z
Si Si1 0.024399 0.896050 0.366465
Si Si2 0.738184 0.850759 0.571939
Si Si3 0.237996 0.099911 0.972587
Si Si4 0.223910 0.720939 0.975260
Si Si5 0.831060 0.664759 0.802928
Si Si6 0.399251 0.684479 0.816313
Si Si7 0.963152 0.308827 0.469423
Si Si8 0.579735 0.382436 0.723267
O O1 0.023203 0.719054 0.390481
O O2 0.866992 0.906930 0.202193
O O3 0.202031 0.958393 0.395192
O O4 0.000000 0.000000 0.500000
O O5 0.760384 0.794400 0.704198
O O6 0.551301 0.768826 0.422278
O O7 0.891424 0.770770 0.555736
O O8 0.159500 0.237008 0.047030
O O9 0.439422 0.172112 0.072354
O O10 0.220496 0.917762 0.985111
O O11 0.305809 0.686354 0.132823
O O12 0.336607 0.648293 0.911067
O O13 0.026258 0.638567 0.856973
O O14 0.703835 0.494349 0.716552
O O15 0.234287 0.745242 0.680624
O O16 0.461260 0.520076 0.750458
O O17 0.000000 0.500000 0.500000
#
# Coordination Sequence:
#
# PCOD9038281 Si02
#       8
#     2   2   2   2   2   2   2   2
#     4  10  23  41  68 100 132 174 220 279 340 393
#     4  11  22  44  67  94 139 182 220 274 334 403
#     4  11  25  45  71 100 137 173 227 283 333 405
#     4  12  23  42  69  97 137 176 226 276 342 395
#     4  11  24  47  66  95 139 183 223 273 339 401
#     4  11  24  42  68 104 133 175 224 285 334 396
#     4  11  22  41  69 102 137 171 220 282 341 391
#     4  11  26  41  66 101 137 177 227 280 330 399
#
# _framework density 22.967866000000001
#
# number of rings (size 3 to 8) (size 9 to 14) (size 15 to 20)
#    0.000    1.000    3.750    2.625    5.250    2.000 
#    2.250    0.625    0.000    0.000    0.000    0.000 
#    0.000    0.000    0.000    0.000    0.000    0.000 
#
# Total GULP energy -89504.693663 kJ/mol
# GULP energy per Si atom -5594.043354 kJ/mol
# Density = 2.291559 g / cm^3
# Si number density = 22.967866 Si / 1000 Ang^3
#
#
#
# Elastic Constant Matrix: (Units=GPa)
#
#
# Indices 1 2 3 4 5 6 
#
# 1 94.8622 35.2863 27.4411 11.4789 22.1338 35.0734
# 2 35.2863 88.4380 38.3113 -18.8541 9.6409 29.1754
# 3 27.4411 38.3113 95.2835 -8.4633 14.6614 26.1653
# 4 11.4789 -18.8541 -8.4633 33.9986 14.5269 -9.2224
# 5 22.1338 9.6409 14.6614 14.5269 34.6891 5.1407
# 6 35.0734 29.1754 26.1653 -9.2224 5.1407 31.8147
#
#
#
# Elastic Compliance Matrix: (Units=1/GPa)
#
#
# Indices 1 2 3 4 5 6 
#
# 1 0.025927 -0.004216 0.001748 -0.016959 -0.004512 -0.030341
# 2 -0.004216 0.019629 -0.002938 0.012261 -0.005700 -0.006461
# 3 0.001748 -0.002938 0.014956 0.001067 -0.005536 -0.010329
# 4 -0.016959 0.012261 0.001067 0.058835 -0.021698 0.027136
# 5 -0.004512 -0.005700 -0.005536 -0.021698 0.044529 0.001270
# 6 -0.030341 -0.006461 -0.010329 0.027136 0.001270 0.086962
#
#
# Mechanical properties :
#
#
# Convention : Reuss Voigt Hill
#
# Bulk Modulus (GPa) = 20.12070 53.40679 36.76374
# Shear Modulus (GPa) = 17.97162 31.93683 24.95422
#
# Velocity S-wave (km/s) = 2.80030 3.73299 3.29976
# Velocity P-wave (km/s) = 4.38577 6.47175 5.52804
#
# Compressibility (1/GPa) = 0.04970006
#
# Stress axis : x y z
#
# Youngs Moduli (GPa) = 38.56978 50.94485 66.86321
#
# Poissons Ratio (x) = 0.21480 -0.11688
# Poissons Ratio (y) = 0.16263 0.19642
# Poissons Ratio (z) = -0.06742 0.14966
#
# Static dielectric constant tensor:
#      x y z
#    x 1.857420 -0.054110 -0.011630 
#    y -0.054110 2.212720 0.028900 
#    z -0.011630 0.028900 1.843560 
# 
# From -- ./inp_files/243955.got.cif
#   From: 2010.05.17/outbox.cif.g08.bks.cpg/sg2_122_cif.got.tgz:243955.got - 2010.06.03 11:33:40.
