data_PCOD9038361
_publ_section_title
;
Structure prediction by ZEFSAII (Michael W. Deem and Ramdas Pophale) SiO2 
 PCOD9038361
Probable space group: P -1
;
_chemical_formula_sum "Si O2"
_cell_formula_units_Z 16
_cell_length_a 14.342758
_cell_length_b 11.843673
_cell_length_c 13.671048
_cell_angle_alpha 67.821907
_cell_angle_beta 146.424585
_cell_angle_gamma 136.840982
_cell_volume 697.002774
_symmetry_space_group_name_H-M "P -1"
_symmetry_group_IT_number 2
_symmetry_cell_setting 'triclinic'
loop_
_space_group_symop_operation_xyz
x,y,z
-x,-y,-z
loop_
_atom_site_type_symbol
_atom_site_label
_atom_site_fract_x
_atom_site_fract_y
_atom_site_fract_z
Si Si1 0.346857 0.923538 0.223888
Si Si2 0.324778 0.454298 0.269725
Si Si3 0.710105 0.460455 0.116653
Si Si4 0.152615 0.296617 0.672264
Si Si5 0.364764 0.049201 0.893134
Si Si6 0.801324 0.608770 0.533875
Si Si7 0.258960 0.709919 0.405318
Si Si8 0.582008 0.859679 0.312724
O O1 0.361524 0.832482 0.354987
O O2 0.462836 0.918538 0.231468
O O3 0.531286 0.139453 0.367366
O O4 0.016228 0.764283 0.964319
O O5 0.500000 0.500000 0.500000
O O6 0.491192 0.485864 0.316485
O O7 0.396537 0.640000 0.263495
O O8 0.858834 0.600899 0.295856
O O9 0.952147 0.588452 0.204632
O O10 0.457534 0.409231 0.894371
O O11 0.557236 0.241578 0.070074
O O12 0.092496 0.317840 0.507924
O O13 0.914736 0.057543 0.571519
O O14 0.389884 0.134707 0.782508
O O15 0.046600 0.835162 0.724857
O O16 0.500000 0.000000 0.000000
O O17 0.789588 0.461375 0.600005
#
# Coordination Sequence:
#
# PCOD9038361 Si02
#       8
#     2   2   2   2   2   2   2   2
#     4  11  25  44  68  95 130 183 226 269 331 381
#     4  12  27  44  68  97 135 177 226 277 324 389
#     4  11  21  42  64 100 129 173 216 269 336 394
#     4  10  23  41  68  97 132 170 212 278 337 397
#     4  11  23  37  71  99 130 168 212 275 336 396
#     4  11  24  43  63 100 132 170 221 271 338 390
#     4  11  23  43  70  94 135 175 223 276 320 405
#     4  11  23  45  67  96 133 171 222 274 330 399
#
# _framework density 22.955431000000001
#
# number of rings (size 3 to 8) (size 9 to 14) (size 15 to 20)
#    0.000    1.000    2.500    4.125    1.750    4.000 
#    4.500    0.000    0.000    0.000    0.000    0.000 
#    0.000    0.000    0.000    0.000    0.000    0.000 
#
# Total GULP energy -89413.512626 kJ/mol
# GULP energy per Si atom -5588.344539 kJ/mol
# Density = 2.290318 g / cm^3
# Si number density = 22.955431 Si / 1000 Ang^3
#
#
#
# Elastic Constant Matrix: (Units=GPa)
#
#
# Indices 1 2 3 4 5 6 
#
# 1 73.5405 8.5393 14.0087 7.1411 12.7871 -12.9225
# 2 8.5393 80.6082 11.8001 13.0590 -11.4125 -18.9078
# 3 14.0087 11.8001 98.2918 24.7345 2.6280 1.4978
# 4 7.1411 13.0590 24.7345 33.8139 -0.0652 0.5737
# 5 12.7871 -11.4125 2.6280 -0.0652 31.8177 6.4619
# 6 -12.9225 -18.9078 1.4978 0.5737 6.4619 30.6024
#
#
#
# Elastic Compliance Matrix: (Units=1/GPa)
#
#
# Indices 1 2 3 4 5 6 
#
# 1 0.017329 -0.000289 -0.001720 -0.002462 -0.008784 0.009124
# 2 -0.000289 0.016218 -0.000684 -0.005850 0.004115 0.009173
# 3 -0.001720 -0.000684 0.012708 -0.008643 -0.000308 -0.001543
# 4 -0.002462 -0.005850 -0.008643 0.038763 0.000722 -0.005110
# 5 -0.008784 0.004115 -0.000308 0.000722 0.038343 -0.009262
# 6 0.009124 0.009173 -0.001543 -0.005110 -0.009262 0.044325
#
#
# Mechanical properties :
#
#
# Convention : Reuss Voigt Hill
#
# Bulk Modulus (GPa) = 24.46718 35.68186 30.07452
# Shear Modulus (GPa) = 26.78197 33.78628 30.28413
#
# Velocity S-wave (km/s) = 3.41940 3.84059 3.63610
# Velocity P-wave (km/s) = 5.12556 5.93672 5.54599
#
# Compressibility (1/GPa) = 0.04087108
#
# Stress axis : x y z
#
# Youngs Moduli (GPa) = 57.70768 61.65868 78.69317
#
# Poissons Ratio (x) = 0.01779 0.13533
# Poissons Ratio (y) = 0.01665 0.05379
# Poissons Ratio (z) = 0.09924 0.04214
#
# Static dielectric constant tensor:
#      x y z
#    x 1.893940 0.025260 -0.058950 
#    y 0.025260 1.868540 0.018390 
#    z -0.058950 0.018390 1.917680 
# 
# From -- ./inp_files/532499.got.cif
#   From: 2010.05.17/outbox.cif.g08.bks.cpg/sg2_267_cif.got.tgz:532499.got - 2010.06.03 11:33:40.
