data_PCOD9038063
_publ_section_title
;
Structure prediction by ZEFSAII (Michael W. Deem and Ramdas Pophale) SiO2 
 PCOD9038063
Probable space group: P -1
;
_chemical_formula_sum "Si O2"
_cell_formula_units_Z 14
_cell_length_a 18.484263
_cell_length_b 8.924011
_cell_length_c 7.603250
_cell_angle_alpha 67.986234
_cell_angle_beta 104.021346
_cell_angle_gamma 148.403310
_cell_volume 601.506673
_symmetry_space_group_name_H-M "P -1"
_symmetry_group_IT_number 2
_symmetry_cell_setting 'triclinic'
loop_
_space_group_symop_operation_xyz
x,y,z
-x,-y,-z
loop_
_atom_site_type_symbol
_atom_site_label
_atom_site_fract_x
_atom_site_fract_y
_atom_site_fract_z
Si Si1 0.239582 0.109679 0.758857
Si Si2 0.883806 0.318829 0.858489
Si Si3 0.215469 0.004885 0.399582
Si Si4 0.493610 0.955193 0.783016
Si Si5 0.978412 0.839330 0.721010
Si Si6 0.541682 0.810682 0.560612
Si Si7 0.267114 0.460070 0.106755
O O1 0.176719 0.925871 0.617709
O O2 0.390474 0.452243 0.646589
O O3 0.129639 0.048570 0.773358
O O4 0.247552 0.995956 0.972288
O O5 0.890821 0.522385 0.744382
O O6 0.886991 0.750428 0.861887
O O7 0.000000 0.500000 0.000000
O O8 0.342039 0.112193 0.403638
O O9 0.260020 0.270578 0.271673
O O10 0.109084 0.760767 0.287993
O O11 0.555438 0.963997 0.657793
O O12 0.451809 0.061380 0.660405
O O13 0.351179 0.604685 0.911195
O O14 0.623301 0.218668 0.873965
O O15 0.000000 0.000000 0.500000
#
# Coordination Sequence:
#
# PCOD9038063 Si02
#       7
#     2   2   2   2   2   2   2
#     4  11  24  44  70 101 142 180 231 280 340 414
#     4  10  26  45  67  98 134 180 230 281 340 412
#     4  12  24  43  72 101 135 185 228 284 346 403
#     4  10  23  41  66 103 141 176 231 283 341 403
#     4  11  22  45  69  94 138 177 225 283 340 407
#     4  11  23  43  68 103 139 182 226 283 343 407
#     4  11  23  41  69 104 134 184 229 280 346 405
#
# _framework density 23.274887
#
# number of rings (size 3 to 8) (size 9 to 14) (size 15 to 20)
#    0.000    1.143    2.857    2.143    2.000    6.857 
#    0.000    6.429    0.000    0.000    0.000    0.000 
#    0.000    0.000    0.000    0.000    0.000    0.000 
#
# Total GULP energy -78173.215687 kJ/mol
# GULP energy per Si atom -5583.801120 kJ/mol
# Density = 2.322191 g / cm^3
# Si number density = 23.274887 Si / 1000 Ang^3
#
#
#
# Elastic Constant Matrix: (Units=GPa)
#
#
# Indices 1 2 3 4 5 6 
#
# 1 131.9926 14.1089 18.4907 -7.8647 -11.5734 12.0520
# 2 14.1089 85.9806 8.4012 9.2452 0.4624 3.1962
# 3 18.4907 8.4012 111.8802 -11.5698 9.9651 -2.7323
# 4 -7.8647 9.2452 -11.5698 30.9874 -10.1486 -3.9223
# 5 -11.5734 0.4624 9.9651 -10.1486 28.1383 -10.1499
# 6 12.0520 3.1962 -2.7323 -3.9223 -10.1499 31.0112
#
#
#
# Elastic Compliance Matrix: (Units=1/GPa)
#
#
# Indices 1 2 3 4 5 6 
#
# 1 0.008721 -0.001667 -0.001412 0.003657 0.004983 -0.001248
# 2 -0.001667 0.012801 -0.001062 -0.006226 -0.003771 -0.002787
# 3 -0.001412 -0.001062 0.009809 0.002892 -0.002623 0.001030
# 4 0.003657 -0.006226 0.002892 0.044513 0.020952 0.011963
# 5 0.004983 -0.003771 -0.002623 0.020952 0.052668 0.018109
# 6 -0.001248 -0.002787 0.001030 0.011963 0.018109 0.040550
#
#
# Mechanical properties :
#
#
# Convention : Reuss Voigt Hill
#
# Bulk Modulus (GPa) = 43.38493 45.76167 44.57330
# Shear Modulus (GPa) = 27.02305 37.28421 32.15363
#
# Velocity S-wave (km/s) = 3.41110 4.00673 3.72085
# Velocity P-wave (km/s) = 5.84763 6.41165 6.13612
#
# Compressibility (1/GPa) = 0.02304948
#
# Stress axis : x y z
#
# Youngs Moduli (GPa) = 114.66496 78.11776 101.94580
#
# Poissons Ratio (x) = 0.13020 0.14398
# Poissons Ratio (y) = 0.19112 0.10825
# Poissons Ratio (z) = 0.16194 0.08295
#
# Static dielectric constant tensor:
#      x y z
#    x 1.858820 0.009870 -0.028840 
#    y 0.009870 1.949380 0.047930 
#    z -0.028840 0.047930 1.955320 
# 
# From -- ./inp_files/444047.got.cif
#   From: 2010.05.17/outbox.cif.g08.bks.cpg/sg2_223_cif.got.tgz:444047.got - 2010.06.03 11:33:40.
