data_PCOD9038192
_publ_section_title
;
Structure prediction by ZEFSAII (Michael W. Deem and Ramdas Pophale) SiO2 
 PCOD9038192
Probable space group: P -1
;
_chemical_formula_sum "Si O2"
_cell_formula_units_Z 15
_cell_length_a 9.650790
_cell_length_b 11.787184
_cell_length_c 5.317300
_cell_angle_alpha 88.926350
_cell_angle_beta 65.281763
_cell_angle_gamma 80.009933
_cell_volume 540.141068
_symmetry_space_group_name_H-M "P -1"
_symmetry_group_IT_number 2
_symmetry_cell_setting 'triclinic'
loop_
_space_group_symop_operation_xyz
x,y,z
-x,-y,-z
loop_
_atom_site_type_symbol
_atom_site_label
_atom_site_fract_x
_atom_site_fract_y
_atom_site_fract_z
Si Si1 0.400856 0.185407 0.618874
Si Si2 0.853270 0.599404 0.594645
Si Si3 0.803892 0.176092 0.777497
Si Si4 0.000000 0.000000 0.500000
Si Si5 0.633519 0.992052 0.699612
Si Si6 0.930900 0.788967 0.871272
Si Si7 0.741653 0.307687 0.295797
Si Si8 0.673446 0.571058 0.232415
O O1 0.552764 0.089727 0.564210
O O2 0.447895 0.308793 0.634628
O O3 0.347634 0.138134 0.399766
O O4 0.245947 0.179761 0.896582
O O5 0.908427 0.711559 0.648264
O O6 0.790279 0.599431 0.360553
O O7 0.000000 0.500000 0.500000
O O8 0.729371 0.574091 0.901784
O O9 0.777530 0.046367 0.691079
O O10 0.756004 0.263525 0.578143
O O11 0.977928 0.115629 0.713001
O O12 0.706335 0.226395 0.091933
O O13 0.004797 0.097880 0.259266
O O14 0.500000 0.000000 0.000000
O O15 0.071275 0.701936 0.907734
O O16 0.659510 0.440310 0.310581
#
# Coordination Sequence:
#
# PCOD9038192 Si02
#       8
#     2   2   2   1   2   2   2   2
#     4  10  26  43  74  99 132 180 238 291 336 401
#     4  11  22  37  65 100 140 181 221 275 333 408
#     4  11  27  43  70  98 141 181 225 278 346 412
#     4  10  24  38  66  98 140 182 214 272 348 420
#     4  11  26  49  71  97 132 182 238 299 334 397
#     4  10  23  41  67 105 140 176 225 275 350 409
#     4  11  25  44  67 105 145 176 214 278 351 422
#     4  11  24  42  68 101 137 181 228 279 344 407
#
# _framework density 27.770522
#
# number of rings (size 3 to 8) (size 9 to 14) (size 15 to 20)
#    0.000    1.333    1.333    2.000   16.800    1.067 
#    0.000    1.333    0.000    0.000    0.000    0.000 
#    0.000    0.000    0.000    0.000    0.000    0.000 
#
# Total GULP energy -83543.142087 kJ/mol
# GULP energy per Si atom -5569.542806 kJ/mol
# Density = 2.770731 g / cm^3
# Si number density = 27.770522 Si / 1000 Ang^3
#
#
#
# Elastic Constant Matrix: (Units=GPa)
#
#
# Indices 1 2 3 4 5 6 
#
# 1 76.2716 13.4948 -6.9566 -8.0565 2.0635 2.1079
# 2 13.4948 186.4544 49.3102 14.0280 -15.9652 3.9453
# 3 -6.9566 49.3102 140.3195 15.1501 3.4766 16.8743
# 4 -8.0565 14.0280 15.1501 65.3689 2.9968 -7.2215
# 5 2.0635 -15.9652 3.4766 2.9968 22.3393 -15.2406
# 6 2.1079 3.9453 16.8743 -7.2215 -15.2406 63.9723
#
#
#
# Elastic Compliance Matrix: (Units=1/GPa)
#
#
# Indices 1 2 3 4 5 6 
#
# 1 0.013907 -0.001835 0.001419 0.001801 -0.004072 -0.001486
# 2 -0.001835 0.006876 -0.002782 -0.001167 0.006969 0.001899
# 3 0.001419 -0.002782 0.008935 -0.001448 -0.005911 -0.003804
# 4 0.001801 -0.001167 -0.001448 0.016387 -0.001722 0.001834
# 5 -0.004072 0.006969 -0.005911 -0.001722 0.062093 0.015862
# 6 -0.001486 0.001899 -0.003804 0.001834 0.015862 0.020553
#
#
# Mechanical properties :
#
#
# Convention : Reuss Voigt Hill
#
# Bulk Modulus (GPa) = 42.87738 57.19361 50.03549
# Shear Modulus (GPa) = 34.98453 53.48257 44.23355
#
# Velocity S-wave (km/s) = 3.55318 4.39324 3.99535
# Velocity P-wave (km/s) = 5.68391 6.80984 6.27219
#
# Compressibility (1/GPa) = 0.02332232
#
# Stress axis : x y z
#
# Youngs Moduli (GPa) = 71.90826 145.43076 111.92054
#
# Poissons Ratio (x) = 0.26681 -0.15885
# Poissons Ratio (y) = 0.13192 0.31140
# Poissons Ratio (z) = -0.10206 0.40464
#
# Static dielectric constant tensor:
#      x y z
#    x 2.506020 -0.136060 -0.075310 
#    y -0.136060 2.403470 0.057890 
#    z -0.075310 0.057890 2.286490 
# 
# From -- ./inp_files/70368.got.cif
#   From: 2010.05.17/outbox.cif.g08.bks.cpg/sg2_36_cif.got.tgz:70368.got - 2010.06.03 11:33:40.
