data_PCOD9038489
_publ_section_title
;
Structure prediction by ZEFSAII (Michael W. Deem and Ramdas Pophale) SiO2 
 PCOD9038489
Probable space group: P -1
;
_chemical_formula_sum "Si O2"
_cell_formula_units_Z 14
_cell_length_a 22.644055
_cell_length_b 15.514170
_cell_length_c 12.575407
_cell_angle_alpha 27.856524
_cell_angle_beta 27.945204
_cell_angle_gamma 18.883868
_cell_volume 635.211309
_symmetry_space_group_name_H-M "P -1"
_symmetry_group_IT_number 2
_symmetry_cell_setting 'triclinic'
loop_
_space_group_symop_operation_xyz
x,y,z
-x,-y,-z
loop_
_atom_site_type_symbol
_atom_site_label
_atom_site_fract_x
_atom_site_fract_y
_atom_site_fract_z
Si Si1 0.812303 0.906595 0.827974
Si Si2 0.399479 0.419333 0.227278
Si Si3 0.068806 0.450615 0.563173
Si Si4 0.922720 0.450425 0.004922
Si Si5 0.523218 0.008801 0.307856
Si Si6 0.992627 0.930674 0.206273
Si Si7 0.698366 0.372744 0.364543
O O1 0.947794 0.777086 0.857592
O O2 0.770626 0.150440 0.580838
O O3 0.892796 0.685946 0.847321
O O4 0.621792 0.004660 0.059072
O O5 0.534491 0.146443 0.234202
O O6 0.200341 0.694468 0.189078
O O7 0.372866 0.300857 0.494624
O O8 0.500000 0.500000 0.000000
O O9 0.296223 0.226762 0.429045
O O10 0.950199 0.761533 0.448686
O O11 0.000000 0.500000 0.500000
O O12 0.032631 0.350252 0.826684
O O13 0.734427 0.535283 0.182471
O O14 0.839782 0.204013 0.222546
O O15 0.000000 0.000000 0.000000
O O16 0.500000 0.500000 0.500000
#
# Coordination Sequence:
#
# PCOD9038489 Si02
#       7
#     2   2   2   2   2   2   2
#     4  11  25  47  71 103 144 179 239 287 354 431
#     4  10  23  41  70 101 136 175 233 290 338 406
#     4  11  24  45  74 102 142 183 232 295 352 414
#     4  11  25  47  74  99 137 192 232 293 355 411
#     4  10  24  42  69 106 132 175 234 285 345 414
#     4  11  25  45  66 102 140 177 236 286 345 416
#     4  12  29  46  68 102 146 188 236 287 355 427
#
# _framework density 22.039909999999999
#
# number of rings (size 3 to 8) (size 9 to 14) (size 15 to 20)
#    0.000    1.143    1.429    3.857   14.000    2.857 
#    0.000    0.000    0.000    0.000    0.000    0.000 
#    0.000    0.000    0.000    0.000    0.000    0.000 
#
# Total GULP energy -78092.651974 kJ/mol
# GULP energy per Si atom -5578.046570 kJ/mol
# Density = 2.198975 g / cm^3
# Si number density = 22.039910 Si / 1000 Ang^3
#
#
#
# Elastic Constant Matrix: (Units=GPa)
#
#
# Indices 1 2 3 4 5 6 
#
# 1 142.9049 29.0998 51.9176 6.0267 -8.8500 -10.6547
# 2 29.0998 46.8731 10.8806 5.8828 -2.6942 -7.0251
# 3 51.9176 10.8806 97.4987 5.9610 7.0864 0.1683
# 4 6.0267 5.8828 5.9610 31.4501 5.8654 2.9326
# 5 -8.8500 -2.6942 7.0864 5.8654 51.7036 4.5641
# 6 -10.6547 -7.0251 0.1683 2.9326 4.5641 19.9764
#
#
#
# Elastic Compliance Matrix: (Units=1/GPa)
#
#
# Indices 1 2 3 4 5 6 
#
# 1 0.010132 -0.004367 -0.005004 -0.000879 0.001975 0.003588
# 2 -0.004367 0.025842 -0.000321 -0.004719 0.000531 0.007333
# 3 -0.005004 -0.000321 0.013185 -0.000827 -0.002390 -0.002225
# 4 -0.000879 -0.004719 -0.000827 0.034268 -0.003612 -0.006327
# 5 0.001975 0.000531 -0.002390 -0.003612 0.020704 -0.002939
# 6 0.003588 0.007333 -0.002225 -0.006327 -0.002939 0.056171
#
#
# Mechanical properties :
#
#
# Convention : Reuss Voigt Hill
#
# Bulk Modulus (GPa) = 33.58576 52.34137 42.96357
# Shear Modulus (GPa) = 26.37006 33.65126 30.01066
#
# Velocity S-wave (km/s) = 3.46275 3.91171 3.69406
# Velocity P-wave (km/s) = 5.59100 6.64846 6.14252
#
# Compressibility (1/GPa) = 0.02977452
#
# Stress axis : x y z
#
# Youngs Moduli (GPa) = 98.70022 38.69738 75.84376
#
# Poissons Ratio (x) = 0.16898 0.37950
# Poissons Ratio (y) = 0.43100 0.02437
# Poissons Ratio (z) = 0.49387 0.01243
#
# Static dielectric constant tensor:
#      x y z
#    x 1.919900 -0.005850 -0.020610 
#    y -0.005850 1.833740 0.001880 
#    z -0.020610 0.001880 1.855540 
# 
# From -- ./inp_files/244082.got.cif
#   From: 2010.05.17/outbox.cif.g08.bks.cpg/sg2_123_cif.got.tgz:244082.got - 2010.06.03 11:33:40.
