data_PCOD9038928
_publ_section_title
;
Structure prediction by ZEFSAII (Michael W. Deem and Ramdas Pophale) SiO2 
 PCOD9038928
Probable space group: P -1
;
_chemical_formula_sum "Si O2"
_cell_formula_units_Z 16
_cell_length_a 12.859106
_cell_length_b 11.306172
_cell_length_c 13.718498
_cell_angle_alpha 30.688640
_cell_angle_beta 136.631986
_cell_angle_gamma 128.642754
_cell_volume 698.996213
_symmetry_space_group_name_H-M "P -1"
_symmetry_group_IT_number 2
_symmetry_cell_setting 'triclinic'
loop_
_space_group_symop_operation_xyz
x,y,z
-x,-y,-z
loop_
_atom_site_type_symbol
_atom_site_label
_atom_site_fract_x
_atom_site_fract_y
_atom_site_fract_z
Si Si1 0.433031 0.275913 0.060228
Si Si2 0.765083 0.560280 0.374500
Si Si3 0.177224 0.931614 0.171587
Si Si4 0.715061 0.301739 0.970931
Si Si5 0.890811 0.712587 0.809610
Si Si6 0.279536 0.963559 0.659310
Si Si7 0.895246 0.043465 0.106346
Si Si8 0.417915 0.330338 0.640863
O O1 0.576198 0.107907 0.256419
O O2 0.300987 0.134124 0.127578
O O3 0.500000 0.500000 0.000000
O O4 0.356912 0.365096 0.843652
O O5 0.806968 0.289366 0.590596
O O6 0.890782 0.764421 0.305484
O O7 0.702343 0.575853 0.430455
O O8 0.197780 0.879428 0.106370
O O9 0.000000 0.000000 0.000000
O O10 0.732604 0.579551 0.782218
O O11 0.548108 0.244080 0.863713
O O12 0.761557 0.252810 0.147835
O O13 0.814330 0.149692 0.071475
O O14 0.864931 0.933478 0.566749
O O15 0.945193 0.822118 0.870675
O O16 0.000000 0.500000 0.000000
O O17 0.337614 0.141969 0.653524
O O18 0.500000 0.500000 0.500000
#
# Coordination Sequence:
#
# PCOD9038928 Si02
#       8
#     2   2   2   2   2   2   2   2
#     4  11  27  47  71 106 139 178 244 293 340 413
#     4  11  23  44  72  98 135 177 229 288 345 410
#     4  11  27  47  70  97 133 191 239 283 348 410
#     4  11  21  38  64 100 136 172 216 277 352 412
#     4  10  25  39  58  99 144 181 222 268 343 424
#     4  12  23  40  68 102 138 182 221 285 359 404
#     4  10  23  42  64  97 137 179 230 274 335 426
#     4  12  20  37  69 102 136 169 217 282 350 416
#
# _framework density 22.889966999999999
#
# number of rings (size 3 to 8) (size 9 to 14) (size 15 to 20)
#    0.000    1.000    3.750    3.375    1.750    8.500 
#    0.000    0.000    0.000    0.000    0.000    0.000 
#    0.000    0.000    0.000    0.000    0.000    0.000 
#
# Total GULP energy -89197.343939 kJ/mol
# GULP energy per Si atom -5574.833996 kJ/mol
# Density = 2.283787 g / cm^3
# Si number density = 22.889967 Si / 1000 Ang^3
#
#
#
# Elastic Constant Matrix: (Units=GPa)
#
#
# Indices 1 2 3 4 5 6 
#
# 1 75.6170 9.2468 12.2154 -14.8388 4.7451 6.4787
# 2 9.2468 148.4177 21.8583 -8.3374 -0.8069 9.5054
# 3 12.2154 21.8583 126.3135 -6.9810 -6.6924 4.9275
# 4 -14.8388 -8.3374 -6.9810 27.2581 4.8619 -5.0652
# 5 4.7451 -0.8069 -6.6924 4.8619 33.9132 -2.6496
# 6 6.4787 9.5054 4.9275 -5.0652 -2.6496 15.4168
#
#
#
# Elastic Compliance Matrix: (Units=1/GPa)
#
#
# Indices 1 2 3 4 5 6 
#
# 1 0.015603 -0.000113 -0.001086 0.008104 -0.003886 -0.004146
# 2 -0.000113 0.007206 -0.001047 0.001270 -0.000493 -0.003729
# 3 -0.001086 -0.001047 0.008370 0.000753 0.001588 -0.001053
# 4 0.008104 0.001270 0.000753 0.044547 -0.006633 0.009067
# 5 -0.003886 -0.000493 0.001588 -0.006633 0.031650 0.004689
# 6 -0.004146 -0.003729 -0.001053 0.009067 0.004689 0.073027
#
#
# Mechanical properties :
#
#
# Convention : Reuss Voigt Hill
#
# Bulk Modulus (GPa) = 37.46796 48.55434 43.01115
# Shear Modulus (GPa) = 25.80120 35.78615 30.79368
#
# Velocity S-wave (km/s) = 3.36100 3.95827 3.67180
# Velocity P-wave (km/s) = 5.60946 6.49220 6.06691
#
# Compressibility (1/GPa) = 0.02668947
#
# Stress axis : x y z
#
# Youngs Moduli (GPa) = 64.08982 138.76636 119.47718
#
# Poissons Ratio (x) = 0.01562 0.12972
# Poissons Ratio (y) = 0.00721 0.12505
# Poissons Ratio (z) = 0.06958 0.14524
#
# Static dielectric constant tensor:
#      x y z
#    x 2.104370 0.095720 -0.047340 
#    y 0.095720 1.894660 -0.005170 
#    z -0.047340 -0.005170 1.938900 
# 
# From -- ./inp_files/532306.got.cif
#   From: 2010.05.17/outbox.cif.g08.bks.cpg/sg2_267_cif.got.tgz:532306.got - 2010.06.03 11:33:40.
