data_PCOD9038399
_publ_section_title
;
Structure prediction by ZEFSAII (Michael W. Deem and Ramdas Pophale) SiO2 
 PCOD9038399
Probable space group: P -1
;
_chemical_formula_sum "Si O2"
_cell_formula_units_Z 12
_cell_length_a 16.884013
_cell_length_b 5.918896
_cell_length_c 7.720136
_cell_angle_alpha 56.463894
_cell_angle_beta 68.130852
_cell_angle_gamma 100.302208
_cell_volume 517.802324
_symmetry_space_group_name_H-M "P -1"
_symmetry_group_IT_number 2
_symmetry_cell_setting 'triclinic'
loop_
_space_group_symop_operation_xyz
x,y,z
-x,-y,-z
loop_
_atom_site_type_symbol
_atom_site_label
_atom_site_fract_x
_atom_site_fract_y
_atom_site_fract_z
Si Si1 0.955029 0.198335 0.376564
Si Si2 0.544053 0.370348 0.788404
Si Si3 0.801940 0.973370 0.876052
Si Si4 0.134083 0.887027 0.869561
Si Si5 0.667643 0.957228 0.254327
Si Si6 0.379547 0.543003 0.936944
O O1 0.897506 0.030270 0.318844
O O2 0.882530 0.203349 0.579643
O O3 0.000000 0.000000 0.500000
O O4 0.045561 0.540386 0.123898
O O5 0.610339 0.582742 0.485417
O O6 0.455891 0.448322 0.837154
O O7 0.611626 0.503915 0.846933
O O8 0.500000 0.000000 0.000000
O O9 0.725821 0.071169 0.976634
O O10 0.729771 0.665240 0.960045
O O11 0.848861 0.933174 0.035278
O O12 0.239518 0.908111 0.748351
O O13 0.598488 0.106093 0.264315
#
# Coordination Sequence:
#
# PCOD9038399 Si02
#       6
#     2   2   2   2   2   2
#     4  11  21  42  70  99 143 182 228 285 349 415
#     4  11  25  43  68 104 139 181 234 291 349 413
#     4  10  23  41  69 101 136 185 228 289 342 407
#     4   9  23  42  65 104 136 178 239 279 343 414
#     4  10  23  44  66  98 140 181 235 284 345 413
#     4  11  23  43  68  99 139 186 229 288 346 410
#
# _framework density 23.174863999999999
#
# number of rings (size 3 to 8) (size 9 to 14) (size 15 to 20)
#    1.000    0.667    0.000    4.000    0.000    6.000 
#    0.000   10.000    0.000    0.000    0.000    0.000 
#    0.000    0.000    0.000    0.000    0.000    0.000 
#
# Total GULP energy -66879.174750 kJ/mol
# GULP energy per Si atom -5573.264563 kJ/mol
# Density = 2.312212 g / cm^3
# Si number density = 23.174864 Si / 1000 Ang^3
#
#
#
# Elastic Constant Matrix: (Units=GPa)
#
#
# Indices 1 2 3 4 5 6 
#
# 1 125.4901 51.2058 68.1017 3.2634 20.0259 27.3098
# 2 51.2058 67.7613 44.8266 3.2608 4.0322 18.9211
# 3 68.1017 44.8266 126.1802 5.3976 -4.5272 -17.0898
# 4 3.2634 3.2608 5.3976 26.8518 3.7918 12.5334
# 5 20.0259 4.0322 -4.5272 3.7918 27.1168 10.6772
# 6 27.3098 18.9211 -17.0898 12.5334 10.6772 56.5626
#
#
#
# Elastic Compliance Matrix: (Units=1/GPa)
#
#
# Indices 1 2 3 4 5 6 
#
# 1 0.020429 -0.003940 -0.011958 0.007550 -0.013079 -0.011363
# 2 -0.003940 0.026218 -0.008742 0.003823 0.001183 -0.010580
# 3 -0.011958 -0.008742 0.020313 -0.009998 0.008865 0.015377
# 4 0.007550 0.003823 -0.009998 0.046831 -0.007721 -0.016865
# 5 -0.013079 0.001183 0.008865 -0.007721 0.048464 0.001161
# 6 -0.011363 -0.010580 0.015377 -0.016865 0.001161 0.034869
#
#
# Mechanical properties :
#
#
# Convention : Reuss Voigt Hill
#
# Bulk Modulus (GPa) = 56.55590 71.96665 64.26128
# Shear Modulus (GPa) = 19.81803 32.45941 26.13872
#
# Velocity S-wave (km/s) = 2.92747 3.74656 3.36205
# Velocity P-wave (km/s) = 5.99030 7.05952 6.54677
#
# Compressibility (1/GPa) = 0.01768162
#
# Stress axis : x y z
#
# Youngs Moduli (GPa) = 48.94935 38.14213 49.22988
#
# Poissons Ratio (x) = 0.15027 0.58867
# Poissons Ratio (y) = 0.19285 0.43035
# Poissons Ratio (z) = 0.58532 0.33343
#
# Static dielectric constant tensor:
#      x y z
#    x 1.896030 -0.012550 -0.025900 
#    y -0.012550 1.985210 0.035710 
#    z -0.025900 0.035710 1.881350 
# 
# From -- ./inp_files/322108.got.cif
#   From: 2010.05.17/outbox.cif.g08.bks.cpg/sg2_162_cif.got.tgz:322108.got - 2010.06.03 11:33:40.
