data_PCOD9038777
_publ_section_title
;
Structure prediction by ZEFSAII (Michael W. Deem and Ramdas Pophale) SiO2 
 PCOD9038777
Probable space group: P -1
;
_chemical_formula_sum "Si O2"
_cell_formula_units_Z 16
_cell_length_a 9.609571
_cell_length_b 21.135855
_cell_length_c 20.677178
_cell_angle_alpha 19.542271
_cell_angle_beta 141.156214
_cell_angle_gamma 131.000416
_cell_volume 818.052454
_symmetry_space_group_name_H-M "P -1"
_symmetry_group_IT_number 2
_symmetry_cell_setting 'triclinic'
loop_
_space_group_symop_operation_xyz
x,y,z
-x,-y,-z
loop_
_atom_site_type_symbol
_atom_site_label
_atom_site_fract_x
_atom_site_fract_y
_atom_site_fract_z
Si Si1 0.954862 0.194386 0.250404
Si Si2 0.363876 0.351219 0.263511
Si Si3 0.522604 0.194530 0.616976
Si Si4 0.293096 0.802148 0.096515
Si Si5 0.900532 0.236728 0.542715
Si Si6 0.272127 0.371382 0.485140
Si Si7 0.406388 0.810209 0.979269
Si Si8 0.168008 0.593700 0.505403
O O1 0.839421 0.149007 0.186831
O O2 0.190292 0.245928 0.273529
O O3 0.774951 0.404546 0.016361
O O4 0.000000 0.000000 0.500000
O O5 0.423559 0.263195 0.443101
O O6 0.619584 0.290118 0.379968
O O7 0.355790 0.336508 0.475157
O O8 0.775995 0.222838 0.684203
O O9 0.521622 0.972959 0.843969
O O10 0.237164 0.597155 0.277588
O O11 0.509012 0.776500 0.249048
O O12 0.377122 0.814172 0.041874
O O13 0.057749 0.998140 0.835965
O O14 0.918046 0.341440 0.516167
O O15 0.037784 0.320702 0.459504
O O16 0.578111 0.591109 0.227469
O O17 0.000000 0.500000 0.500000
#
# Coordination Sequence:
#
# PCOD9038777 Si02
#       8
#     2   2   2   2   2   2   2   2
#     4  11  21  40  71  91 124 170 217 261 333 385
#     4  10  23  42  62 100 128 157 215 279 320 378
#     4  11  22  40  65  91 127 172 213 254 321 386
#     4  11  24  40  65  91 132 176 217 256 317 388
#     4  11  23  40  62  96 131 161 213 277 314 370
#     4  11  23  40  65  90 129 184 217 249 319 393
#     4  12  22  42  66  94 127 171 218 261 324 385
#     4  11  25  41  60  97 135 164 214 274 313 375
#
# _framework density 19.558648000000002
#
# number of rings (size 3 to 8) (size 9 to 14) (size 15 to 20)
#    0.000    1.000    6.250    1.125    3.500    3.500 
#    0.000    0.625    0.000    7.500    0.000    0.000 
#    0.000    0.000    0.000    0.000    0.000    0.000 
#
# Total GULP energy -89376.569612 kJ/mol
# GULP energy per Si atom -5586.035601 kJ/mol
# Density = 1.951413 g / cm^3
# Si number density = 19.558648 Si / 1000 Ang^3
#
#
#
# Elastic Constant Matrix: (Units=GPa)
#
#
# Indices 1 2 3 4 5 6 
#
# 1 69.4322 16.0451 10.3078 11.3555 -5.6555 14.5770
# 2 16.0451 95.6477 6.3804 2.5140 -14.0851 27.7292
# 3 10.3078 6.3804 89.4023 -8.1472 -8.5100 12.2047
# 4 11.3555 2.5140 -8.1472 30.3420 3.3465 2.6303
# 5 -5.6555 -14.0851 -8.5100 3.3465 21.9225 -9.9087
# 6 14.5770 27.7292 12.2047 2.6303 -9.9087 40.3564
#
#
#
# Elastic Compliance Matrix: (Units=1/GPa)
#
#
# Indices 1 2 3 4 5 6 
#
# 1 0.017001 -0.001107 -0.001745 -0.006655 0.002268 -0.003862
# 2 -0.001107 0.013665 0.000690 -0.000431 0.005268 -0.007877
# 3 -0.001745 0.000690 0.012388 0.003890 0.002779 -0.003161
# 4 -0.006655 -0.000431 0.003890 0.037591 -0.007470 -0.002761
# 5 0.002268 0.005268 0.002779 -0.007470 0.055834 0.008917
# 6 -0.003862 -0.007877 -0.003161 -0.002761 0.008917 0.034912
#
#
# Mechanical properties :
#
#
# Convention : Reuss Voigt Hill
#
# Bulk Modulus (GPa) = 25.81916 35.54987 30.68452
# Shear Modulus (GPa) = 26.50748 33.30743 29.90745
#
# Velocity S-wave (km/s) = 3.68541 4.13116 3.91463
# Velocity P-wave (km/s) = 5.59814 6.40084 6.01290
#
# Compressibility (1/GPa) = 0.03873093
#
# Stress axis : x y z
#
# Youngs Moduli (GPa) = 58.81904 73.17776 80.72403
#
# Poissons Ratio (x) = 0.08102 0.14083
# Poissons Ratio (y) = 0.06512 -0.05569
# Poissons Ratio (z) = 0.10261 -0.05048
#
# Static dielectric constant tensor:
#      x y z
#    x 1.659430 0.032600 -0.007030 
#    y 0.032600 1.731380 0.007190 
#    z -0.007030 0.007190 1.711120 
# 
# From -- ./inp_files/555920.got.cif
#   From: 2010.05.17/outbox.cif.g08.bks.cpg/sg2_278_cif.got.tgz:555920.got - 2010.06.03 11:33:40.
