data_PCOD9038174
_publ_section_title
;
Structure prediction by ZEFSAII (Michael W. Deem and Ramdas Pophale) SiO2 
 PCOD9038174
Probable space group: P -1
;
_chemical_formula_sum "Si O2"
_cell_formula_units_Z 14
_cell_length_a 8.458920
_cell_length_b 10.169876
_cell_length_c 11.862452
_cell_angle_alpha 140.614475
_cell_angle_beta 76.461957
_cell_angle_gamma 115.588935
_cell_volume 575.082775
_symmetry_space_group_name_H-M "P -1"
_symmetry_group_IT_number 2
_symmetry_cell_setting 'triclinic'
loop_
_space_group_symop_operation_xyz
x,y,z
-x,-y,-z
loop_
_atom_site_type_symbol
_atom_site_label
_atom_site_fract_x
_atom_site_fract_y
_atom_site_fract_z
Si Si1 0.270763 0.644295 0.975747
Si Si2 0.393687 0.915629 0.825287
Si Si3 0.411236 0.475994 0.649998
Si Si4 0.925424 0.240079 0.367545
Si Si5 0.087268 0.365726 0.025859
Si Si6 0.063750 0.062622 0.404733
Si Si7 0.780874 0.757546 0.842066
O O1 0.090318 0.591217 0.900828
O O2 0.408152 0.902292 0.108277
O O3 0.362865 0.498019 0.802787
O O4 0.223921 0.570223 0.063191
O O5 0.382310 0.680518 0.724300
O O6 0.279445 0.873863 0.703858
O O7 0.297684 0.049987 0.003383
O O8 0.273281 0.229248 0.470387
O O9 0.622586 0.550793 0.667571
O O10 0.964231 0.209172 0.467989
O O11 0.045829 0.159514 0.210747
O O12 0.000000 0.500000 0.500000
O O13 0.171804 0.319861 0.095707
O O14 0.010542 0.156588 0.809578
O O15 0.000000 0.000000 0.500000
#
# Coordination Sequence:
#
# PCOD9038174 Si02
#       7
#     2   2   2   2   2   2   2
#     4  10  23  41  67 101 133 179 225 286 335 396
#     4  11  23  42  69 103 136 175 233 285 333 406
#     4  11  24  43  68 102 142 173 230 287 336 412
#     4  12  26  44  71 100 143 181 226 287 343 411
#     4  11  24  43  73  97 138 182 228 280 340 414
#     4  12  26  44  68 100 138 182 223 279 349 405
#     4  11  25  42  71 105 131 180 235 277 342 406
#
# _framework density 24.344324
#
# number of rings (size 3 to 8) (size 9 to 14) (size 15 to 20)
#    0.000    0.857    4.286    3.000    4.000    5.143 
#    0.000    0.000    0.000    4.286    0.000    0.000 
#    0.000    0.000    0.000    0.000    0.000    0.000 
#
# Total GULP energy -78330.418538 kJ/mol
# GULP energy per Si atom -5595.029896 kJ/mol
# Density = 2.428891 g / cm^3
# Si number density = 24.344324 Si / 1000 Ang^3
#
#
#
# Elastic Constant Matrix: (Units=GPa)
#
#
# Indices 1 2 3 4 5 6 
#
# 1 118.0155 67.1381 29.1257 -9.3515 28.1317 -6.7865
# 2 67.1381 175.9851 39.0436 -9.3235 15.8406 -17.7986
# 3 29.1257 39.0436 86.3329 2.7813 11.1108 -4.3396
# 4 -9.3515 -9.3235 2.7813 36.3086 -0.0766 11.2333
# 5 28.1317 15.8406 11.1108 -0.0766 47.1706 -3.1905
# 6 -6.7865 -17.7986 -4.3396 11.2333 -3.1905 44.8329
#
#
#
# Elastic Compliance Matrix: (Units=1/GPa)
#
#
# Indices 1 2 3 4 5 6 
#
# 1 0.012694 -0.003833 -0.001923 0.002692 -0.005886 -0.000880
# 2 -0.003833 0.007857 -0.002206 0.000513 0.000318 0.002219
# 3 -0.001923 -0.002206 0.013496 -0.002291 -0.001253 0.000624
# 4 0.002692 0.000513 -0.002291 0.030847 -0.001693 -0.007460
# 5 -0.005886 0.000318 -0.001253 -0.001693 0.024984 0.001316
# 6 -0.000880 0.002219 0.000624 -0.007460 0.001316 0.025076
#
#
# Mechanical properties :
#
#
# Convention : Reuss Voigt Hill
#
# Bulk Modulus (GPa) = 55.17592 72.32758 63.75175
# Shear Modulus (GPa) = 36.51797 41.99752 39.25774
#
# Velocity S-wave (km/s) = 3.87726 4.15799 4.02008
# Velocity P-wave (km/s) = 6.53898 7.26819 6.91321
#
# Compressibility (1/GPa) = 0.01812385
#
# Stress axis : x y z
#
# Youngs Moduli (GPa) = 78.77643 127.27496 74.09672
#
# Poissons Ratio (x) = 0.48782 0.14246
# Poissons Ratio (y) = 0.30193 0.16347
# Poissons Ratio (z) = 0.15146 0.28079
#
# Static dielectric constant tensor:
#      x y z
#    x 1.917550 -0.012430 -0.085090 
#    y -0.012430 1.902180 0.019590 
#    z -0.085090 0.019590 2.076460 
# 
# From -- ./inp_files/383517.got.cif
#   From: 2010.05.17/outbox.cif.g08.bks.cpg/sg2_192_cif.got.tgz:383517.got - 2010.06.03 11:33:40.
