data_PCOD9038025
_publ_section_title
;
Structure prediction by ZEFSAII (Michael W. Deem and Ramdas Pophale) SiO2 
 PCOD9038025
Probable space group: P -1
;
_chemical_formula_sum "Si O2"
_cell_formula_units_Z 12
_cell_length_a 12.118416
_cell_length_b 10.179020
_cell_length_c 8.053902
_cell_angle_alpha 119.533393
_cell_angle_beta 38.206435
_cell_angle_gamma 116.017017
_cell_volume 532.189940
_symmetry_space_group_name_H-M "P -1"
_symmetry_group_IT_number 2
_symmetry_cell_setting 'triclinic'
loop_
_space_group_symop_operation_xyz
x,y,z
-x,-y,-z
loop_
_atom_site_type_symbol
_atom_site_label
_atom_site_fract_x
_atom_site_fract_y
_atom_site_fract_z
Si Si1 0.166196 0.317462 0.095665
Si Si2 0.079402 0.677704 0.921428
Si Si3 0.470969 0.630519 0.482822
Si Si4 0.866921 0.707468 0.514398
Si Si5 0.616886 0.879870 0.705053
Si Si6 0.009964 0.016653 0.242427
O O1 0.372102 0.357928 0.830359
O O2 0.098012 0.137827 0.080254
O O3 0.050544 0.364621 0.106349
O O4 0.142278 0.375545 0.348454
O O5 0.981372 0.642124 0.191875
O O6 0.104400 0.862647 0.019023
O O7 0.271419 0.615726 0.639663
O O8 0.500000 0.500000 0.500000
O O9 0.501602 0.786609 0.645588
O O10 0.683693 0.755954 0.679316
O O11 0.958733 0.873174 0.565651
O O12 0.798390 0.962325 0.461449
O O13 0.500000 0.000000 0.000000
#
# Coordination Sequence:
#
# PCOD9038025 Si02
#       6
#     2   2   2   2   2   2
#     4  10  23  41  65  98 131 168 222 277 324 391
#     4  11  20  42  65  89 133 175 209 277 326 385
#     4  12  27  43  64  98 137 179 220 264 332 398
#     4   9  20  38  65  96 128 164 216 272 329 386
#     4  11  20  39  69  99 133 173 216 277 328 388
#     4   9  19  37  63  99 128 157 222 270 329 374
#
# _framework density 22.548338999999999
#
# number of rings (size 3 to 8) (size 9 to 14) (size 15 to 20)
#    1.000    0.667    3.333    4.500    0.000    2.667 
#    0.000    1.667    0.000    0.000    0.000    0.000 
#    0.000    0.000    0.000    0.000    0.000    0.000 
#
# Total GULP energy -66966.400981 kJ/mol
# GULP energy per Si atom -5580.533415 kJ/mol
# Density = 2.249702 g / cm^3
# Si number density = 22.548339 Si / 1000 Ang^3
#
#
#
# Elastic Constant Matrix: (Units=GPa)
#
#
# Indices 1 2 3 4 5 6 
#
# 1 154.9522 18.9331 88.3015 -21.7695 5.9859 -8.9429
# 2 18.9331 82.8798 49.7331 -19.6112 -2.0310 -11.6738
# 3 88.3015 49.7331 162.5974 -11.4116 0.1198 -23.3114
# 4 -21.7695 -19.6112 -11.4116 37.1792 2.1359 4.9257
# 5 5.9859 -2.0310 0.1198 2.1359 51.6689 -4.6430
# 6 -8.9429 -11.6738 -23.3114 4.9257 -4.6430 38.9274
#
#
#
# Elastic Compliance Matrix: (Units=1/GPa)
#
#
# Indices 1 2 3 4 5 6 
#
# 1 0.010518 0.002498 -0.006282 0.005834 -0.001483 -0.001512
# 2 0.002498 0.017202 -0.005850 0.008579 0.000150 0.001162
# 3 -0.006282 -0.005850 0.011717 -0.003813 0.001026 0.004424
# 4 0.005834 0.008579 -0.003813 0.034171 -0.002006 -0.002934
# 5 -0.001483 0.000150 0.001026 -0.002006 0.019877 0.002943
# 6 -0.001512 0.001162 0.004424 -0.002934 0.002943 0.029062
#
#
# Mechanical properties :
#
#
# Convention : Reuss Voigt Hill
#
# Bulk Modulus (GPa) = 49.57945 79.37385 64.47665
# Shear Modulus (GPa) = 33.66142 41.78588 37.72365
#
# Velocity S-wave (km/s) = 3.86794 4.30951 4.09468
# Velocity P-wave (km/s) = 6.47949 7.74859 7.14228
#
# Compressibility (1/GPa) = 0.02016965
#
# Stress axis : x y z
#
# Youngs Moduli (GPa) = 95.07482 58.13125 85.34572
#
# Poissons Ratio (x) = -0.14522 0.53617
# Poissons Ratio (y) = -0.23751 0.49925
# Poissons Ratio (z) = 0.59729 0.34005
#
# Static dielectric constant tensor:
#      x y z
#    x 1.879840 -0.026340 0.043110 
#    y -0.026340 1.891020 -0.002380 
#    z 0.043110 -0.002380 1.809590 
# 
# From -- ./inp_files/234083.got.cif
#   From: 2010.05.17/outbox.cif.g08.bks.cpg/sg2_118_cif.got.tgz:234083.got - 2010.06.03 11:33:40.
