data_PCOD9038060
_publ_section_title
;
Structure prediction by ZEFSAII (Michael W. Deem and Ramdas Pophale) SiO2 
 PCOD9038060
Probable space group: P -1
;
_chemical_formula_sum "Si O2"
_cell_formula_units_Z 16
_cell_length_a 9.761958
_cell_length_b 8.308449
_cell_length_c 11.979553
_cell_angle_alpha 93.630411
_cell_angle_beta 104.180795
_cell_angle_gamma 48.194019
_cell_volume 695.430705
_symmetry_space_group_name_H-M "P -1"
_symmetry_group_IT_number 2
_symmetry_cell_setting 'triclinic'
loop_
_space_group_symop_operation_xyz
x,y,z
-x,-y,-z
loop_
_atom_site_type_symbol
_atom_site_label
_atom_site_fract_x
_atom_site_fract_y
_atom_site_fract_z
Si Si1 0.514379 0.251340 0.538747
Si Si2 0.052082 0.263434 0.749554
Si Si3 0.472092 0.837907 0.852219
Si Si4 0.925091 0.876340 0.501231
Si Si5 0.358046 0.513027 0.311477
Si Si6 0.024507 0.668073 0.745439
Si Si7 0.395657 0.948306 0.238757
Si Si8 0.415752 0.408976 0.920846
O O1 0.363279 0.392988 0.417292
O O2 0.560477 0.383027 0.619113
O O3 0.707417 0.057667 0.505067
O O4 0.479153 0.154510 0.627085
O O5 0.064127 0.219208 0.618276
O O6 0.034178 0.469860 0.764860
O O7 0.863052 0.319386 0.760312
O O8 0.247500 0.045018 0.831068
O O9 0.512556 0.657962 0.768330
O O10 0.561224 0.921702 0.811118
O O11 0.576455 0.728998 0.985109
O O12 0.033171 0.705310 0.617263
O O13 0.000000 0.000000 0.500000
O O14 0.206061 0.602000 0.840820
O O15 0.823746 0.889175 0.760550
O O16 0.457344 0.756768 0.161897
O O17 0.500000 0.500000 0.000000
#
# Coordination Sequence:
#
# PCOD9038060 Si02
#       8
#     2   2   2   2   2   2   2   2
#     4  10  23  41  66 102 145 174 224 285 342 400
#     4  12  24  42  69 103 139 181 223 280 339 409
#     4  12  26  45  69 102 135 183 231 278 341 406
#     4  11  23  41  69 106 142 177 226 280 339 413
#     4  11  23  41  68 102 137 183 222 280 344 404
#     4  11  27  45  71 103 136 184 227 282 347 402
#     4  11  25  46  69 101 136 173 230 286 339 409
#     4  12  29  48  73  97 136 183 232 287 338 409
#
# _framework density 23.007324000000001
#
# number of rings (size 3 to 8) (size 9 to 14) (size 15 to 20)
#    0.000    0.750    5.000    1.500    3.500    3.500 
#    0.000    0.000    0.000    0.000    0.000    0.000 
#    0.000    0.000    0.000    0.000    0.000    0.000 
#
# Total GULP energy -89637.033559 kJ/mol
# GULP energy per Si atom -5602.314597 kJ/mol
# Density = 2.295496 g / cm^3
# Si number density = 23.007324 Si / 1000 Ang^3
#
#
#
# Elastic Constant Matrix: (Units=GPa)
#
#
# Indices 1 2 3 4 5 6 
#
# 1 42.8881 9.6367 -5.4931 5.2151 7.7552 1.9169
# 2 9.6367 89.2085 9.7858 6.8964 5.5856 -18.7536
# 3 -5.4931 9.7858 70.7757 -10.7010 -6.5766 -8.5689
# 4 5.2151 6.8964 -10.7010 41.5332 2.4183 2.6920
# 5 7.7552 5.5856 -6.5766 2.4183 41.7294 -7.5381
# 6 1.9169 -18.7536 -8.5689 2.6920 -7.5381 22.9855
#
#
#
# Elastic Compliance Matrix: (Units=1/GPa)
#
#
# Indices 1 2 3 4 5 6 
#
# 1 0.025711 -0.003775 0.001023 -0.001626 -0.005164 -0.006345
# 2 -0.003775 0.014537 -0.001175 -0.003106 0.000995 0.012427
# 3 0.001023 -0.001175 0.015889 0.003613 0.003260 0.005525
# 4 -0.001626 -0.003106 0.003613 0.026075 -0.001026 -0.004442
# 5 -0.005164 0.000995 0.003260 -0.001026 0.027456 0.011582
# 6 -0.006345 0.012427 0.005525 -0.004442 0.011582 0.060553
#
#
# Mechanical properties :
#
#
# Convention : Reuss Voigt Hill
#
# Bulk Modulus (GPa) = 20.71102 25.63680 23.17391
# Shear Modulus (GPa) = 25.75091 33.84581 29.79836
#
# Velocity S-wave (km/s) = 3.34915 3.83964 3.60275
# Velocity P-wave (km/s) = 4.89665 5.55195 5.23457
#
# Compressibility (1/GPa) = 0.04828348
#
# Stress axis : x y z
#
# Youngs Moduli (GPa) = 38.89428 68.79183 62.93597
#
# Poissons Ratio (x) = 0.25966 -0.06441
# Poissons Ratio (y) = 0.14681 0.07398
# Poissons Ratio (z) = -0.03981 0.08086
#
# Static dielectric constant tensor:
#      x y z
#    x 1.890030 0.056540 -0.032470 
#    y 0.056540 1.895290 -0.032670 
#    z -0.032470 -0.032670 1.842490 
# 
# From -- ./inp_files/315505.got.cif
#   From: 2010.05.17/outbox.cif.g08.bks.cpg/sg2_158_cif.got.tgz:315505.got - 2010.06.03 11:33:40.
