data_PCOD9038240
_publ_section_title
;
Structure prediction by ZEFSAII (Michael W. Deem and Ramdas Pophale) SiO2 
 PCOD9038240
Probable space group: P -1
;
_chemical_formula_sum "Si O2"
_cell_formula_units_Z 16
_cell_length_a 20.678529
_cell_length_b 9.064025
_cell_length_c 11.714895
_cell_angle_alpha 100.821612
_cell_angle_beta 18.848823
_cell_angle_gamma 100.226276
_cell_volume 696.764406
_symmetry_space_group_name_H-M "P -1"
_symmetry_group_IT_number 2
_symmetry_cell_setting 'triclinic'
loop_
_space_group_symop_operation_xyz
x,y,z
-x,-y,-z
loop_
_atom_site_type_symbol
_atom_site_label
_atom_site_fract_x
_atom_site_fract_y
_atom_site_fract_z
Si Si1 0.146316 0.639871 0.797590
Si Si2 0.858120 0.737799 0.028426
Si Si3 0.679874 0.441789 0.277275
Si Si4 0.428392 0.669287 0.135938
Si Si5 0.450062 0.168815 0.632612
Si Si6 0.578836 0.841207 0.707063
Si Si7 0.676242 0.888012 0.911772
Si Si8 0.929341 0.942004 0.297516
O O1 0.317055 0.578572 0.590753
O O2 0.222918 0.679965 0.549295
O O3 0.000000 0.500000 0.000000
O O4 0.054755 0.794953 0.024631
O O5 0.871130 0.554018 0.960109
O O6 0.724414 0.777872 0.149241
O O7 0.719366 0.748659 0.374380
O O8 0.988870 0.891277 0.839148
O O9 0.500000 0.500000 0.500000
O O10 0.648201 0.264866 0.282546
O O11 0.500000 0.500000 0.000000
O O12 0.437210 0.734943 0.003968
O O13 0.581478 0.765334 0.968500
O O14 0.500000 0.000000 0.500000
O O15 0.359628 0.174224 0.911861
O O16 0.724188 0.929191 0.564701
O O17 0.454062 0.960667 0.861294
O O18 0.883963 0.924664 0.506042
#
# Coordination Sequence:
#
# PCOD9038240 Si02
#       8
#     2   2   2   2   2   2   2   2
#     4  12  23  41  67 103 138 172 219 284 345 394
#     4  11  22  40  66  96 130 171 222 279 335 393
#     4  10  23  41  67  96 126 172 226 267 325 407
#     4  11  22  39  65  97 133 175 218 273 334 401
#     4  11  21  42  71  93 124 180 228 272 322 404
#     4  11  23  40  64  99 130 177 227 271 331 407
#     4  11  23  42  65  97 133 175 228 270 325 410
#     4  11  24  40  65  97 139 171 214 283 349 387
#
# _framework density 22.963284999999999
#
# number of rings (size 3 to 8) (size 9 to 14) (size 15 to 20)
#    0.000    1.000    2.500    6.375    0.000    3.500 
#    0.000    0.000    0.000    2.250    0.000    0.000 
#    0.000    0.000    0.000    0.000    0.000    0.000 
#
# Total GULP energy -89070.949804 kJ/mol
# GULP energy per Si atom -5566.934363 kJ/mol
# Density = 2.291102 g / cm^3
# Si number density = 22.963285 Si / 1000 Ang^3
#
#
#
# Elastic Constant Matrix: (Units=GPa)
#
#
# Indices 1 2 3 4 5 6 
#
# 1 97.6874 14.4677 11.0694 -20.5669 4.1398 -12.1771
# 2 14.4677 194.8627 46.8848 -34.7067 2.0366 4.1304
# 3 11.0694 46.8848 78.6304 -20.2338 19.0641 0.4481
# 4 -20.5669 -34.7067 -20.2338 33.4001 -7.2300 9.5568
# 5 4.1398 2.0366 19.0641 -7.2300 25.1115 0.8373
# 6 -12.1771 4.1304 0.4481 9.5568 0.8373 25.7073
#
#
#
# Elastic Compliance Matrix: (Units=1/GPa)
#
#
# Indices 1 2 3 4 5 6 
#
# 1 0.012015 0.000258 -0.000127 0.006660 -0.000094 0.003179
# 2 0.000258 0.007382 -0.003458 0.007846 0.004378 -0.004063
# 3 -0.000127 -0.003458 0.019366 0.005764 -0.012689 -0.001572
# 4 0.006660 0.007846 0.005764 0.053016 0.009762 -0.018233
# 5 -0.000094 0.004378 -0.012689 0.009762 0.052122 -0.005853
# 6 0.003179 -0.004063 -0.001572 -0.018233 -0.005853 0.048054
#
#
# Mechanical properties :
#
#
# Convention : Reuss Voigt Hill
#
# Bulk Modulus (GPa) = 31.14203 57.33603 44.23903
# Shear Modulus (GPa) = 23.88782 36.76103 30.32443
#
# Velocity S-wave (km/s) = 3.22881 4.00542 3.63790
# Velocity P-wave (km/s) = 5.24322 6.81278 6.07887
#
# Compressibility (1/GPa) = 0.03211094
#
# Stress axis : x y z
#
# Youngs Moduli (GPa) = 83.22662 135.45920 51.63730
#
# Poissons Ratio (x) = -0.03499 0.00656
# Poissons Ratio (y) = -0.02150 0.17854
# Poissons Ratio (z) = 0.01057 0.46836
#
# Static dielectric constant tensor:
#      x y z
#    x 1.885420 0.015120 -0.026990 
#    y 0.015120 1.858970 -0.077220 
#    z -0.026990 -0.077220 1.984860 
# 
# From -- ./inp_files/470014.got.cif
#   From: 2010.05.17/outbox.cif.g08.bks.cpg/sg2_236_cif.got.tgz:470014.got - 2010.06.03 11:33:40.
