data_PCOD9038495
_publ_section_title
;
Structure prediction by ZEFSAII (Michael W. Deem and Ramdas Pophale) SiO2 
 PCOD9038495
Probable space group: P -1
;
_chemical_formula_sum "Si O2"
_cell_formula_units_Z 16
_cell_length_a 5.365912
_cell_length_b 15.142423
_cell_length_c 16.996775
_cell_angle_alpha 132.374444
_cell_angle_beta 74.985997
_cell_angle_gamma 132.302901
_cell_volume 705.111932
_symmetry_space_group_name_H-M "P -1"
_symmetry_group_IT_number 2
_symmetry_cell_setting 'triclinic'
loop_
_space_group_symop_operation_xyz
x,y,z
-x,-y,-z
loop_
_atom_site_type_symbol
_atom_site_label
_atom_site_fract_x
_atom_site_fract_y
_atom_site_fract_z
Si Si1 0.589751 0.228555 0.423882
Si Si2 0.851898 0.613409 0.272028
Si Si3 0.849234 0.786428 0.682839
Si Si4 0.926885 0.427573 0.049029
Si Si5 0.899577 0.920079 0.047134
Si Si6 0.058123 0.326955 0.112267
Si Si7 0.890962 0.486316 0.335928
Si Si8 0.759671 0.031071 0.565873
O O1 0.283960 0.192165 0.373959
O O2 0.881949 0.239942 0.360998
O O3 0.790060 0.400027 0.558466
O O4 0.431880 0.079927 0.407902
O O5 0.043271 0.576930 0.182231
O O6 0.433577 0.447923 0.200199
O O7 0.959947 0.623950 0.358437
O O8 0.954354 0.772042 0.324422
O O9 0.480987 0.623052 0.654421
O O10 0.998764 0.942285 0.818441
O O11 0.142341 0.392373 0.054386
O O12 0.514699 0.251661 0.998098
O O13 0.000000 0.500000 0.000000
O O14 0.101225 0.856547 0.993405
O O15 0.000000 0.000000 0.000000
O O16 0.858860 0.362699 0.203961
O O17 0.500000 0.000000 0.500000
O O18 0.000000 0.000000 0.500000
#
# Coordination Sequence:
#
# PCOD9038495 Si02
#       8
#     2   2   2   2   2   2   2   2
#     4  12  28  47  70 110 147 190 237 297 366 426
#     4  10  23  41  70 102 131 187 239 288 353 436
#     4  12  29  45  73 108 147 190 232 306 363 429
#     4  10  24  42  68 101 139 180 235 309 365 426
#     4  11  26  47  71 104 142 190 251 296 368 440
#     4  10  23  43  75 102 135 193 244 299 356 443
#     4  11  24  46  72 100 143 187 242 288 361 436
#     4  12  25  45  72 101 142 190 237 291 347 432
#
# _framework density 22.691431999999999
#
# number of rings (size 3 to 8) (size 9 to 14) (size 15 to 20)
#    0.000    1.000    1.250    4.500   10.500    4.000 
#    0.000    0.000    0.000    0.000    0.000    0.000 
#    0.000    0.000    0.000    0.000    0.000    0.000 
#
# Total GULP energy -89241.909358 kJ/mol
# GULP energy per Si atom -5577.619335 kJ/mol
# Density = 2.263979 g / cm^3
# Si number density = 22.691432 Si / 1000 Ang^3
#
#
#
# Elastic Constant Matrix: (Units=GPa)
#
#
# Indices 1 2 3 4 5 6 
#
# 1 67.6602 0.9316 6.6752 -8.9677 -3.0433 -19.0741
# 2 0.9316 97.3928 24.4276 -8.8486 -13.4874 -26.5269
# 3 6.6752 24.4276 89.1814 6.0164 6.4292 -16.6835
# 4 -8.9677 -8.8486 6.0164 36.5674 -11.8718 1.5647
# 5 -3.0433 -13.4874 6.4292 -11.8718 30.4208 5.7161
# 6 -19.0741 -26.5269 -16.6835 1.5647 5.7161 34.0851
#
#
#
# Elastic Compliance Matrix: (Units=1/GPa)
#
#
# Indices 1 2 3 4 5 6 
#
# 1 0.019742 0.005051 -0.001222 0.007263 0.004819 0.013239
# 2 0.005051 0.016561 -0.004016 0.008606 0.009856 0.011701
# 3 -0.001222 -0.004016 0.014384 -0.006592 -0.008446 0.004950
# 4 0.007263 0.008606 -0.006592 0.038916 0.020694 0.002279
# 5 0.004819 0.009856 -0.008446 0.020694 0.048108 -0.002784
# 6 0.013239 0.011701 0.004950 0.002279 -0.002784 0.048638
#
#
# Mechanical properties :
#
#
# Convention : Reuss Voigt Hill
#
# Bulk Modulus (GPa) = 19.87588 35.36702 27.62145
# Shear Modulus (GPa) = 24.57056 35.02799 29.79928
#
# Velocity S-wave (km/s) = 3.29418 3.93321 3.62780
# Velocity P-wave (km/s) = 4.82152 6.02053 5.45407
#
# Compressibility (1/GPa) = 0.05031223
#
# Stress axis : x y z
#
# Youngs Moduli (GPa) = 50.65252 60.38432 69.52045
#
# Poissons Ratio (x) = -0.30499 0.08495
# Poissons Ratio (y) = -0.25584 0.27922
# Poissons Ratio (z) = 0.06189 0.24253
#
# Static dielectric constant tensor:
#      x y z
#    x 1.975780 0.003980 0.009460 
#    y 0.003980 1.809540 -0.028720 
#    z 0.009460 -0.028720 1.858570 
# 
# From -- ./inp_files/68535.got.cif
#   From: 2010.05.17/outbox.cif.g08.bks.cpg/sg2_35_cif.got.tgz:68535.got - 2010.06.03 11:33:40.
