data_PCOD9038757
_publ_section_title
;
Structure prediction by ZEFSAII (Michael W. Deem and Ramdas Pophale) SiO2 
 PCOD9038757
Probable space group: P -1
;
_chemical_formula_sum "Si O2"
_cell_formula_units_Z 14
_cell_length_a 19.336201
_cell_length_b 8.610908
_cell_length_c 8.634225
_cell_angle_alpha 54.673873
_cell_angle_beta 121.098151
_cell_angle_gamma 152.817416
_cell_volume 535.811091
_symmetry_space_group_name_H-M "P -1"
_symmetry_group_IT_number 2
_symmetry_cell_setting 'triclinic'
loop_
_space_group_symop_operation_xyz
x,y,z
-x,-y,-z
loop_
_atom_site_type_symbol
_atom_site_label
_atom_site_fract_x
_atom_site_fract_y
_atom_site_fract_z
Si Si1 0.033812 0.069120 0.679063
Si Si2 0.248973 0.210774 0.705315
Si Si3 0.583275 0.835576 0.053589
Si Si4 0.282875 0.224187 0.257735
Si Si5 0.583414 0.217245 0.672446
Si Si6 0.282979 0.825101 0.657624
Si Si7 0.963777 0.244530 0.005130
O O1 0.155711 0.115844 0.801359
O O2 0.126321 0.412479 0.670182
O O3 0.928831 0.723232 0.861185
O O4 0.000000 0.000000 0.500000
O O5 0.347885 0.232095 0.868169
O O6 0.348772 0.571759 0.531420
O O7 0.126043 0.895760 0.628913
O O8 0.414859 0.483783 0.130292
O O9 0.680063 0.097317 0.163456
O O10 0.588549 0.003306 0.830008
O O11 0.320448 0.479244 0.260156
O O12 0.301098 0.067599 0.464386
O O13 0.126295 0.923588 0.156857
O O14 0.414900 0.958922 0.656041
O O15 0.000000 0.500000 0.000000
#
# Coordination Sequence:
#
# PCOD9038757 Si02
#       7
#     2   2   2   2   2   2   2
#     4  10  23  42  61  88 125 170 215 252 317 377
#     4  10  24  43  61  99 129 155 220 267 315 371
#     4  11  21  40  66  98 131 163 209 265 318 375
#     4  11  20  39  68  92 131 173 205 255 322 380
#     4  11  21  40  66  98 131 163 209 265 318 375
#     4  11  20  39  68  92 131 173 205 255 322 380
#     4  10  23  42  61  88 125 170 215 252 317 377
#
# _framework density 26.128609000000001
#
# number of rings (size 3 to 8) (size 9 to 14) (size 15 to 20)
#    0.857    0.571    2.857    5.143    0.000    3.429 
#    0.000    2.857    0.000    3.429    0.000    0.000 
#    0.000    0.000    0.000    0.000    0.000    0.000 
#
# Total GULP energy -77999.480067 kJ/mol
# GULP energy per Si atom -5571.391433 kJ/mol
# Density = 2.606914 g / cm^3
# Si number density = 26.128609 Si / 1000 Ang^3
#
#
#
# Elastic Constant Matrix: (Units=GPa)
#
#
# Indices 1 2 3 4 5 6 
#
# 1 100.7829 18.1418 38.5536 -24.3738 -13.9215 6.8187
# 2 18.1418 122.9591 50.6331 9.9131 11.6419 -35.3245
# 3 38.5536 50.6331 171.3684 -13.5075 11.2445 -5.0312
# 4 -24.3738 9.9131 -13.5075 50.2232 -16.4547 -2.0861
# 5 -13.9215 11.6419 11.2445 -16.4547 8.7919 0.0583
# 6 6.8187 -35.3245 -5.0312 -2.0861 0.0583 29.2165
#
#
#
# Elastic Compliance Matrix: (Units=1/GPa)
#
#
# Indices 1 2 3 4 5 6 
#
# 1 -0.001271 0.007936 -0.000333 -0.015220 -0.040639 0.008828
# 2 0.007936 0.006408 -0.004719 0.012575 0.033611 0.005914
# 3 -0.000333 -0.004719 0.007257 0.003602 0.003210 -0.004128
# 4 -0.015220 0.012575 0.003602 -0.008026 -0.060504 0.018924
# 5 -0.040639 0.033611 0.003210 -0.060504 -0.112766 0.046579
# 6 0.008828 0.005914 -0.004128 0.018924 0.046579 0.039865
#
#
# Mechanical properties :
#
#
# Convention : Reuss Voigt Hill
#
# Bulk Modulus (GPa) = 55.06231 67.75194 61.40713
# Shear Modulus (GPa) = -73.26445 36.83178 -18.21634
#
# Velocity S-wave (km/s) = -5.30102 3.75858 -2.64328
# Velocity P-wave (km/s) = 4.04332 6.69495 3.77319
#
# Compressibility (1/GPa) = 0.01816124
#
# Stress axis : x y z
#
# Youngs Moduli (GPa) = -786.96868 156.04869 137.80311
#
# Poissons Ratio (x) = -1.23833 0.04585
# Poissons Ratio (y) = 6.24501 0.65034
# Poissons Ratio (z) = -0.26185 0.73644
#
# Static dielectric constant tensor:
#      x y z
#    x 1.709470 0.777750 -1.747040 
#    y 0.777750 1.637220 1.245450 
#    z -1.747040 1.245450 -1.875750 
# 
# From -- ./inp_files/352045.got.cif
#   From: 2010.05.17/outbox.cif.g08.bks.cpg/sg2_177_cif.got.tgz:352045.got - 2010.06.03 11:33:40.
