data_PCOD9038578
_publ_section_title
;
Structure prediction by ZEFSAII (Michael W. Deem and Ramdas Pophale) SiO2 
 PCOD9038578
Probable space group: P -1
;
_chemical_formula_sum "Si O2"
_cell_formula_units_Z 16
_cell_length_a 8.140336
_cell_length_b 9.284502
_cell_length_c 22.087124
_cell_angle_alpha 128.850018
_cell_angle_beta 32.243215
_cell_angle_gamma 126.745509
_cell_volume 684.324673
_symmetry_space_group_name_H-M "P -1"
_symmetry_group_IT_number 2
_symmetry_cell_setting 'triclinic'
loop_
_space_group_symop_operation_xyz
x,y,z
-x,-y,-z
loop_
_atom_site_type_symbol
_atom_site_label
_atom_site_fract_x
_atom_site_fract_y
_atom_site_fract_z
Si Si1 0.282092 0.348416 0.489086
Si Si2 0.755758 0.065293 0.271551
Si Si3 0.881603 0.354968 0.828078
Si Si4 0.691642 0.558742 0.050625
Si Si5 0.589816 0.354180 0.721316
Si Si6 0.108641 0.953164 0.020994
Si Si7 0.218799 0.057180 0.226609
Si Si8 0.467149 0.414896 0.319510
O O1 0.500000 0.500000 0.500000
O O2 0.462493 0.171417 0.384340
O O3 0.277920 0.425141 0.442350
O O4 0.938854 0.318328 0.615841
O O5 0.975742 0.133639 0.278103
O O6 0.627230 0.846564 0.264130
O O7 0.959701 0.072964 0.148958
O O8 0.577457 0.373942 0.888914
O O9 0.167950 0.513017 0.760564
O O10 0.937642 0.141776 0.748990
O O11 0.813849 0.400057 0.931392
O O12 0.537808 0.520792 0.154108
O O13 0.968140 0.734849 0.016930
O O14 0.586948 0.450286 0.682929
O O15 0.480887 0.984438 0.915375
O O16 0.000000 0.000000 0.000000
O O17 0.365954 0.206642 0.269955
#
# Coordination Sequence:
#
# PCOD9038578 Si02
#       8
#     2   2   2   2   2   2   2   2
#     4  12  27  50  74 100 140 189 242 297 353 421
#     4  11  26  44  71 105 142 191 240 291 354 424
#     4  11  23  42  69 109 145 190 226 291 357 422
#     4  10  23  41  71 104 149 186 233 286 358 424
#     4  11  25  48  72 104 143 186 241 296 355 414
#     4  11  21  40  68 104 145 187 234 289 350 424
#     4  12  24  43  69 107 146 184 233 288 358 421
#     4  12  26  47  75 106 142 184 239 296 354 428
#
# _framework density 23.380713
#
# number of rings (size 3 to 8) (size 9 to 14) (size 15 to 20)
#    0.000    0.750    3.750    3.375    1.750    3.500 
#    2.250    1.250    0.000    0.000    0.000    0.000 
#    0.000    0.000    0.000    0.000    0.000    0.000 
#
# Total GULP energy -89629.146939 kJ/mol
# GULP energy per Si atom -5601.821684 kJ/mol
# Density = 2.332750 g / cm^3
# Si number density = 23.380713 Si / 1000 Ang^3
#
#
#
# Elastic Constant Matrix: (Units=GPa)
#
#
# Indices 1 2 3 4 5 6 
#
# 1 71.4350 26.5374 9.0048 -5.4411 -0.3365 -4.8711
# 2 26.5374 85.2761 18.1322 -4.6447 17.5840 11.9756
# 3 9.0048 18.1322 69.7330 -15.0887 6.7719 -0.8862
# 4 -5.4411 -4.6447 -15.0887 25.4783 7.2829 -8.3144
# 5 -0.3365 17.5840 6.7719 7.2829 38.5243 -1.2886
# 6 -4.8711 11.9756 -0.8862 -8.3144 -1.2886 39.6191
#
#
#
# Elastic Compliance Matrix: (Units=1/GPa)
#
#
# Indices 1 2 3 4 5 6 
#
# 1 0.016918 -0.006273 -0.000035 0.003265 0.002559 0.004744
# 2 -0.006273 0.016672 -0.002855 0.000135 -0.007392 -0.006087
# 3 -0.000035 -0.002855 0.018303 0.012754 -0.004198 0.003808
# 4 0.003265 0.000135 0.012754 0.054865 -0.012254 0.011761
# 5 0.002559 -0.007392 -0.004198 -0.012254 0.032440 0.000939
# 6 0.004744 -0.006087 0.003808 0.011761 0.000939 0.030247
#
#
# Mechanical properties :
#
#
# Convention : Reuss Voigt Hill
#
# Bulk Modulus (GPa) = 29.79208 37.08813 33.44011
# Shear Modulus (GPa) = 25.13050 32.24233 28.68641
#
# Velocity S-wave (km/s) = 3.28203 3.71754 3.50655
# Velocity P-wave (km/s) = 5.20885 5.85866 5.54329
#
# Compressibility (1/GPa) = 0.03356596
#
# Stress axis : x y z
#
# Youngs Moduli (GPa) = 59.10921 59.97974 54.63523
#
# Poissons Ratio (x) = 0.37627 0.00192
# Poissons Ratio (y) = 0.37080 0.15600
# Poissons Ratio (z) = 0.00208 0.17126
#
# Static dielectric constant tensor:
#      x y z
#    x 1.881240 -0.013860 -0.015770 
#    y -0.013860 1.868590 0.003500 
#    z -0.015770 0.003500 1.877910 
# 
# From -- ./inp_files/399999.got.cif
#   From: 2010.05.17/outbox.cif.g08.bks.cpg/sg2_200_cif.got.tgz:399999.got - 2010.06.03 11:33:40.
