data_PCOD9038766
_publ_section_title
;
Structure prediction by ZEFSAII (Michael W. Deem and Ramdas Pophale) SiO2 
 PCOD9038766
Probable space group: P -1
;
_chemical_formula_sum "Si O2"
_cell_formula_units_Z 14
_cell_length_a 11.219626
_cell_length_b 7.466828
_cell_length_c 9.888484
_cell_angle_alpha 102.739217
_cell_angle_beta 123.875312
_cell_angle_gamma 90.966184
_cell_volume 660.788871
_symmetry_space_group_name_H-M "P -1"
_symmetry_group_IT_number 2
_symmetry_cell_setting 'triclinic'
loop_
_space_group_symop_operation_xyz
x,y,z
-x,-y,-z
loop_
_atom_site_type_symbol
_atom_site_label
_atom_site_fract_x
_atom_site_fract_y
_atom_site_fract_z
Si Si1 0.929789 0.145758 0.661101
Si Si2 0.480084 0.862932 0.333945
Si Si3 0.379419 0.465551 0.536409
Si Si4 0.350482 0.857618 0.704181
Si Si5 0.045750 0.419646 0.240529
Si Si6 0.154730 0.909464 0.816741
Si Si7 0.158563 0.845246 0.103699
O O1 0.976387 0.368158 0.735063
O O2 0.793119 0.118453 0.470400
O O3 0.872624 0.066973 0.759650
O O4 0.066833 0.046929 0.705642
O O5 0.580676 0.707909 0.385284
O O6 0.310231 0.772008 0.205969
O O7 0.500000 0.000000 0.500000
O O8 0.523508 0.990049 0.252508
O O9 0.500000 0.500000 0.500000
O O10 0.383732 0.652846 0.658094
O O11 0.216422 0.419350 0.365981
O O12 0.301568 0.887317 0.830116
O O13 0.951104 0.292795 0.274169
O O14 0.975726 0.315404 0.045240
O O15 0.175881 0.967595 0.998051
#
# Coordination Sequence:
#
# PCOD9038766 Si02
#       7
#     2   2   2   2   2   2   2
#     4  11  19  39  67  90 120 165 208 254 304 365
#     4  12  22  41  67  90 124 161 212 259 300 372
#     4  11  22  40  66  94 121 165 206 258 305 362
#     4  11  24  40  63  94 124 163 212 250 310 371
#     4   9  23  39  64  92 128 154 214 253 306 364
#     4  10  24  39  60  96 128 161 203 257 315 361
#     4  10  23  42  61  95 124 162 210 254 309 366
#
# _framework density 21.186800000000002
#
# number of rings (size 3 to 8) (size 9 to 14) (size 15 to 20)
#    0.857    0.571    2.857    3.000    0.000    4.000 
#    2.571    0.714    0.000    0.000    0.000    0.000 
#    0.000    0.000    0.000    0.000    0.000    0.000 
#
# Total GULP energy -78146.495811 kJ/mol
# GULP energy per Si atom -5581.892558 kJ/mol
# Density = 2.113858 g / cm^3
# Si number density = 21.186800 Si / 1000 Ang^3
#
#
#
# Elastic Constant Matrix: (Units=GPa)
#
#
# Indices 1 2 3 4 5 6 
#
# 1 117.6599 45.9276 11.4206 0.0373 4.6864 -9.5351
# 2 45.9276 100.7822 27.0197 -10.5953 9.0036 -18.0073
# 3 11.4206 27.0197 58.7493 -7.6661 8.5513 -6.6507
# 4 0.0373 -10.5953 -7.6661 16.5746 1.4136 10.8272
# 5 4.6864 9.0036 8.5513 1.4136 30.0308 -1.2500
# 6 -9.5351 -18.0073 -6.6507 10.8272 -1.2500 33.5716
#
#
#
# Elastic Compliance Matrix: (Units=1/GPa)
#
#
# Indices 1 2 3 4 5 6 
#
# 1 0.010582 -0.004939 -0.000189 -0.004428 0.000164 0.001753
# 2 -0.004939 0.014809 -0.004376 0.005094 -0.002499 0.003937
# 3 -0.000189 -0.004376 0.020705 0.007871 -0.004967 -0.001023
# 4 -0.004428 0.005094 0.007871 0.083792 -0.008033 -0.024289
# 5 0.000164 -0.002499 -0.004967 -0.008033 0.035884 0.001649
# 6 0.001753 0.003937 -0.001023 -0.024289 0.001649 0.040089
#
#
# Mechanical properties :
#
#
# Convention : Reuss Voigt Hill
#
# Bulk Modulus (GPa) = 36.91676 49.54747 43.23211
# Shear Modulus (GPa) = 21.37677 28.89032 25.13354
#
# Velocity S-wave (km/s) = 3.17987 3.69670 3.44798
# Velocity P-wave (km/s) = 5.56276 6.45427 6.02503
#
# Compressibility (1/GPa) = 0.02708797
#
# Stress axis : x y z
#
# Youngs Moduli (GPa) = 94.49918 67.52807 48.29667
#
# Poissons Ratio (x) = 0.33350 0.00913
# Poissons Ratio (y) = 0.46670 0.21137
# Poissons Ratio (z) = 0.01786 0.29553
#
# Static dielectric constant tensor:
#      x y z
#    x 1.767480 0.039420 -0.017040 
#    y 0.039420 1.765340 -0.021940 
#    z -0.017040 -0.021940 1.785070 
# 
# From -- ./inp_files/376773.got.cif
#   From: 2010.05.17/outbox.cif.g08.bks.cpg/sg2_189_cif.got.tgz:376773.got - 2010.06.03 11:33:40.
