data_PCOD9038814
_publ_section_title
;
Structure prediction by ZEFSAII (Michael W. Deem and Ramdas Pophale) SiO2 
 PCOD9038814
Probable space group: P -1
;
_chemical_formula_sum "Si O2"
_cell_formula_units_Z 14
_cell_length_a 8.923513
_cell_length_b 10.963692
_cell_length_c 16.766659
_cell_angle_alpha 118.190079
_cell_angle_beta 54.128308
_cell_angle_gamma 74.354650
_cell_volume 754.290597
_symmetry_space_group_name_H-M "P -1"
_symmetry_group_IT_number 2
_symmetry_cell_setting 'triclinic'
loop_
_space_group_symop_operation_xyz
x,y,z
-x,-y,-z
loop_
_atom_site_type_symbol
_atom_site_label
_atom_site_fract_x
_atom_site_fract_y
_atom_site_fract_z
Si Si1 0.910742 0.447994 0.190630
Si Si2 0.376377 0.619459 0.490234
Si Si3 0.112823 0.057795 0.925130
Si Si4 0.276624 0.403754 0.168946
Si Si5 0.910383 0.101528 0.824679
Si Si6 0.158626 0.212831 0.681841
Si Si7 0.307663 0.376970 0.340283
O O1 0.608789 0.591363 0.371942
O O2 0.894256 0.607754 0.203607
O O3 0.151968 0.332521 0.148500
O O4 0.985021 0.276808 0.059733
O O5 0.500000 0.500000 0.500000
O O6 0.355673 0.500176 0.401829
O O7 0.074953 0.869471 0.673071
O O8 0.026517 0.069271 0.866626
O O9 0.452667 0.860154 0.770577
O O10 0.000000 0.000000 0.000000
O O11 0.331357 0.366681 0.234129
O O12 0.018123 0.657695 0.305108
O O13 0.568978 0.277217 0.993400
O O14 0.011836 0.169578 0.758577
O O15 0.500000 0.000000 0.500000
O O16 0.000000 0.500000 0.500000
#
# Coordination Sequence:
#
# PCOD9038814 Si02
#       7
#     2   2   2   2   2   2   2
#     4  10  23  42  63  92 125 169 213 254 324 373
#     4  12  22  40  65  97 126 173 207 256 328 379
#     4  12  23  42  64  96 128 167 203 266 325 377
#     4  10  24  42  63  95 128 164 218 265 308 376
#     4  12  22  42  69  91 132 166 215 263 313 376
#     4  10  23  43  67  89 126 172 218 258 316 375
#     4  12  26  40  63  97 134 162 213 261 321 382
#
# _framework density 18.560486000000001
#
# number of rings (size 3 to 8) (size 9 to 14) (size 15 to 20)
#    0.857    0.000    5.714    1.286    4.000    1.143 
#    0.000    0.714    0.000    0.000    0.000    0.000 
#    0.000    0.000    0.000    0.000    0.000    0.000 
#
# Total GULP energy -78105.935750 kJ/mol
# GULP energy per Si atom -5578.995411 kJ/mol
# Density = 1.851824 g / cm^3
# Si number density = 18.560486 Si / 1000 Ang^3
#
#
#
# Elastic Constant Matrix: (Units=GPa)
#
#
# Indices 1 2 3 4 5 6 
#
# 1 55.0009 -3.8753 30.8114 2.1046 -11.8610 -4.2921
# 2 -3.8753 32.0941 2.3239 14.4358 0.2150 4.2668
# 3 30.8114 2.3239 94.3440 19.9459 -15.3057 2.9318
# 4 2.1046 14.4358 19.9459 33.7380 2.7891 -2.2731
# 5 -11.8610 0.2150 -15.3057 2.7891 50.0156 3.6822
# 6 -4.2921 4.2668 2.9318 -2.2731 3.6822 34.6496
#
#
#
# Elastic Compliance Matrix: (Units=1/GPa)
#
#
# Indices 1 2 3 4 5 6 
#
# 1 0.023479 0.001902 -0.007859 0.002353 0.002788 0.003197
# 2 0.001902 0.041226 0.003377 -0.020455 0.002947 -0.006782
# 3 -0.007859 0.003377 0.016205 -0.011128 0.003989 -0.003914
# 4 0.002353 -0.020455 -0.011128 0.045806 -0.005857 0.007379
# 5 0.002788 0.002947 0.003989 -0.005857 0.022420 -0.003122
# 6 0.003197 -0.006782 -0.003914 0.007379 -0.003122 0.031239
#
#
# Mechanical properties :
#
#
# Convention : Reuss Voigt Hill
#
# Bulk Modulus (GPa) = 13.20146 26.66213 19.93179
# Shear Modulus (GPa) = 23.72091 33.82590 28.77341
#
# Velocity S-wave (km/s) = 3.57884 4.27367 3.94159
# Velocity P-wave (km/s) = 4.91991 6.22483 5.61044
#
# Compressibility (1/GPa) = 0.07574922
#
# Stress axis : x y z
#
# Youngs Moduli (GPa) = 42.59128 24.25643 61.71100
#
# Poissons Ratio (x) = -0.04614 0.48500
# Poissons Ratio (y) = -0.08101 -0.20839
# Poissons Ratio (z) = 0.33473 -0.08191
#
# Static dielectric constant tensor:
#      x y z
#    x 1.661610 0.031960 -0.032300 
#    y 0.031960 1.687400 -0.000090 
#    z -0.032300 -0.000090 1.659700 
# 
# From -- ./inp_files/162639.got.cif
#   From: 2010.05.17/outbox.cif.g08.bks.cpg/sg2_82_cif.got.tgz:162639.got - 2010.06.03 11:33:40.
