data_PCOD9038155
_publ_section_title
;
Structure prediction by ZEFSAII (Michael W. Deem and Ramdas Pophale) SiO2 
 PCOD9038155
Probable space group: P -1
;
_chemical_formula_sum "Si O2"
_cell_formula_units_Z 12
_cell_length_a 11.311401
_cell_length_b 4.912652
_cell_length_c 9.870092
_cell_angle_alpha 77.981376
_cell_angle_beta 104.721817
_cell_angle_gamma 82.743166
_cell_volume 509.439333
_symmetry_space_group_name_H-M "P -1"
_symmetry_group_IT_number 2
_symmetry_cell_setting 'triclinic'
loop_
_space_group_symop_operation_xyz
x,y,z
-x,-y,-z
loop_
_atom_site_type_symbol
_atom_site_label
_atom_site_fract_x
_atom_site_fract_y
_atom_site_fract_z
Si Si1 0.758627 0.789726 0.335375
Si Si2 0.676823 0.507976 0.852855
Si Si3 0.127996 0.828987 0.489654
Si Si4 0.113279 0.211877 0.201270
Si Si5 0.485086 0.943426 0.161054
Si Si6 0.138386 0.349181 0.904543
O O1 0.769225 0.053291 0.404641
O O2 0.614849 0.777259 0.273539
O O3 0.816317 0.814197 0.200780
O O4 0.841921 0.506979 0.451981
O O5 0.772564 0.619458 0.768131
O O6 0.627097 0.226430 0.835277
O O7 0.557115 0.755252 0.811087
O O8 0.752724 0.500050 0.018164
O O9 0.129991 0.938342 0.326394
O O10 0.000000 0.000000 0.500000
O O11 0.984883 0.418894 0.179862
O O12 0.110646 0.161313 0.043807
O O13 0.500000 0.000000 0.000000
#
# Coordination Sequence:
#
# PCOD9038155 Si02
#       6
#     2   2   2   2   2   2
#     4  12  26  43  68 103 129 177 225 271 326 398
#     4  10  23  41  66  99 129 174 215 277 326 378
#     4  12  26  45  67  99 141 171 216 273 345 393
#     4   9  21  45  67 101 134 176 215 280 331 397
#     4  12  23  41  68  97 135 171 225 274 317 389
#     4   9  20  43  71 101 131 171 227 275 327 388
#
# _framework density 23.555306000000002
#
# number of rings (size 3 to 8) (size 9 to 14) (size 15 to 20)
#    1.000    0.333    3.333    2.000    2.333    1.333 
#    0.000    7.500    0.000    0.000    0.000    0.000 
#    0.000    0.000    0.000    0.000    0.000    0.000 
#
# Total GULP energy -67164.134791 kJ/mol
# GULP energy per Si atom -5597.011233 kJ/mol
# Density = 2.350169 g / cm^3
# Si number density = 23.555306 Si / 1000 Ang^3
#
#
#
# Elastic Constant Matrix: (Units=GPa)
#
#
# Indices 1 2 3 4 5 6 
#
# 1 93.1895 8.0645 24.1697 -13.6868 22.4976 -5.4108
# 2 8.0645 67.6812 10.8022 -2.5541 -2.7790 0.3671
# 3 24.1697 10.8022 94.5387 -3.6855 -9.3167 -2.9585
# 4 -13.6868 -2.5541 -3.6855 20.0183 -1.3778 3.9789
# 5 22.4976 -2.7790 -9.3167 -1.3778 38.3371 -3.1618
# 6 -5.4108 0.3671 -2.9585 3.9789 -3.1618 38.3004
#
#
#
# Elastic Compliance Matrix: (Units=1/GPa)
#
#
# Indices 1 2 3 4 5 6 
#
# 1 0.015802 -0.001232 -0.004540 0.009092 -0.010130 0.000113
# 2 -0.001232 0.015225 -0.001245 0.001056 0.001529 -0.000400
# 3 -0.004540 -0.001245 0.012434 -0.000759 0.005640 0.000876
# 4 0.009092 0.001056 -0.000759 0.056899 -0.003812 -0.005010
# 5 -0.010130 0.001529 0.005640 -0.003812 0.033551 0.002156
# 6 0.000113 -0.000400 0.000876 -0.005010 0.002156 0.026895
#
#
# Mechanical properties :
#
#
# Convention : Reuss Voigt Hill
#
# Bulk Modulus (GPa) = 33.98096 37.94247 35.96171
# Shear Modulus (GPa) = 27.07825 33.48936 30.28381
#
# Velocity S-wave (km/s) = 3.39420 3.77468 3.58948
# Velocity P-wave (km/s) = 5.46060 5.92793 5.69906
#
# Compressibility (1/GPa) = 0.02942825
#
# Stress axis : x y z
#
# Youngs Moduli (GPa) = 63.28263 65.67932 80.42327
#
# Poissons Ratio (x) = 0.08090 0.36508
# Poissons Ratio (y) = 0.07795 0.10016
# Poissons Ratio (z) = 0.28727 0.08180
#
# Static dielectric constant tensor:
#      x y z
#    x 1.894120 0.011140 0.009750 
#    y 0.011140 1.846580 0.014380 
#    z 0.009750 0.014380 1.894790 
# 
# From -- ./inp_files/75229.got.cif
#   From: 2010.05.17/outbox.cif.g08.bks.cpg/sg2_38_cif.got.tgz:75229.got - 2010.06.03 11:33:40.
