data_PCOD9038821
_publ_section_title
;
Structure prediction by ZEFSAII (Michael W. Deem and Ramdas Pophale) SiO2 
 PCOD9038821
Probable space group: P -1
;
_chemical_formula_sum "Si O2"
_cell_formula_units_Z 16
_cell_length_a 8.915018
_cell_length_b 8.668697
_cell_length_c 14.403353
_cell_angle_alpha 95.147699
_cell_angle_beta 69.113683
_cell_angle_gamma 131.283115
_cell_volume 764.529170
_symmetry_space_group_name_H-M "P -1"
_symmetry_group_IT_number 2
_symmetry_cell_setting 'triclinic'
loop_
_space_group_symop_operation_xyz
x,y,z
-x,-y,-z
loop_
_atom_site_type_symbol
_atom_site_label
_atom_site_fract_x
_atom_site_fract_y
_atom_site_fract_z
Si Si1 0.865963 0.635326 0.721150
Si Si2 0.435292 0.616742 0.572251
Si Si3 0.858098 0.049952 0.493304
Si Si4 0.010562 0.744124 0.084246
Si Si5 0.542571 0.849015 0.952492
Si Si6 0.897949 0.543081 0.900560
Si Si7 0.045105 0.608876 0.397137
Si Si8 0.463884 0.594918 0.784275
O O1 0.965906 0.682189 0.803216
O O2 0.656544 0.605618 0.769108
O O3 0.018086 0.801547 0.615380
O O4 0.819595 0.426476 0.692704
O O5 0.500000 0.500000 0.500000
O O6 0.188806 0.505154 0.601644
O O7 0.473975 0.631666 0.674562
O O8 0.615108 0.850873 0.507084
O O9 0.843196 0.159470 0.587775
O O10 0.000000 0.000000 0.500000
O O11 0.042733 0.601085 0.124121
O O12 0.767625 0.635204 0.156463
O O13 0.199012 0.989829 0.077854
O O14 0.008112 0.688692 0.974734
O O15 0.489248 0.763069 0.853804
O O16 0.365763 0.631985 0.036435
O O17 0.500000 0.000000 0.000000
O O18 0.000000 0.500000 0.500000
#
# Coordination Sequence:
#
# PCOD9038821 Si02
#       8
#     2   2   2   2   2   2   2   2
#     4  11  23  41  61  96 139 169 211 282 331 378
#     4  12  23  41  70  96 129 177 222 271 325 393
#     4  11  22  44  67  93 130 176 224 267 325 397
#     4   9  19  39  65  90 120 169 219 258 325 401
#     4   9  20  39  64  93 124 163 220 271 318 389
#     4   9  19  39  62  89 128 164 207 272 330 382
#     4  10  23  42  63  93 132 167 215 278 328 378
#     4  11  23  38  62  94 127 172 218 260 330 390
#
# _framework density 20.927913
#
# number of rings (size 3 to 8) (size 9 to 14) (size 15 to 20)
#    0.000    1.750    2.500    2.250    0.000    8.000 
#    0.000    7.500    0.000    0.000    0.000    0.000 
#    0.000    0.000    0.000    0.000    0.000    0.000 
#
# Total GULP energy -89267.080091 kJ/mol
# GULP energy per Si atom -5579.192506 kJ/mol
# Density = 2.088028 g / cm^3
# Si number density = 20.927913 Si / 1000 Ang^3
#
#
#
# Elastic Constant Matrix: (Units=GPa)
#
#
# Indices 1 2 3 4 5 6 
#
# 1 66.2025 19.1180 30.3692 10.7944 8.2921 -3.0305
# 2 19.1180 108.1495 25.5339 6.5152 -6.9930 17.7301
# 3 30.3692 25.5339 93.5310 18.6590 10.6172 -7.6567
# 4 10.7944 6.5152 18.6590 22.5375 1.5121 -6.0557
# 5 8.2921 -6.9930 10.6172 1.5121 40.4231 -0.7489
# 6 -3.0305 17.7301 -7.6567 -6.0557 -0.7489 27.9223
#
#
#
# Elastic Compliance Matrix: (Units=1/GPa)
#
#
# Indices 1 2 3 4 5 6 
#
# 1 0.018878 -0.002559 -0.004104 -0.004287 -0.003048 0.001537
# 2 -0.002559 0.012381 -0.003223 -0.002459 0.003430 -0.009465
# 3 -0.004104 -0.003223 0.015296 -0.008505 -0.003344 0.003861
# 4 -0.004287 -0.002459 -0.008505 0.057127 0.000758 0.011174
# 5 -0.003048 0.003430 -0.003344 0.000758 0.026760 -0.002544
# 6 0.001537 -0.009465 0.003861 0.011174 -0.002544 0.045404
#
#
# Mechanical properties :
#
#
# Convention : Reuss Voigt Hill
#
# Bulk Modulus (GPa) = 37.33596 46.43613 41.88605
# Shear Modulus (GPa) = 24.44438 31.03405 27.73922
#
# Velocity S-wave (km/s) = 3.42135 3.85502 3.64464
# Velocity P-wave (km/s) = 5.78675 6.48473 6.14566
#
# Compressibility (1/GPa) = 0.02678383
#
# Stress axis : x y z
#
# Youngs Moduli (GPa) = 52.97192 80.76719 65.37512
#
# Poissons Ratio (x) = 0.20669 0.26830
# Poissons Ratio (y) = 0.13556 0.21069
# Poissons Ratio (z) = 0.21739 0.26030
#
# Static dielectric constant tensor:
#      x y z
#    x 1.763880 -0.003460 -0.023650 
#    y -0.003460 1.769700 0.008540 
#    z -0.023650 0.008540 1.787870 
# 
# From -- ./inp_files/215049.got.cif
#   From: 2010.05.17/outbox.cif.g08.bks.cpg/sg2_108_cif.got.tgz:215049.got - 2010.06.03 11:33:40.
