data_PCOD9038086
_publ_section_title
;
Structure prediction by ZEFSAII (Michael W. Deem and Ramdas Pophale) SiO2 
 PCOD9038086
Probable space group: P -1
;
_chemical_formula_sum "Si O2"
_cell_formula_units_Z 16
_cell_length_a 15.582472
_cell_length_b 14.568975
_cell_length_c 9.924408
_cell_angle_alpha 92.539794
_cell_angle_beta 115.959280
_cell_angle_gamma 32.500442
_cell_volume 805.581458
_symmetry_space_group_name_H-M "P -1"
_symmetry_group_IT_number 2
_symmetry_cell_setting 'triclinic'
loop_
_space_group_symop_operation_xyz
x,y,z
-x,-y,-z
loop_
_atom_site_type_symbol
_atom_site_label
_atom_site_fract_x
_atom_site_fract_y
_atom_site_fract_z
Si Si1 0.910393 0.987809 0.521927
Si Si2 0.027988 0.694896 0.169790
Si Si3 0.644284 0.114645 0.135547
Si Si4 0.709128 0.853573 0.802779
Si Si5 0.343917 0.566014 0.979027
Si Si6 0.688439 0.762851 0.053750
Si Si7 0.577990 0.507078 0.663827
Si Si8 0.196534 0.358013 0.402463
O O1 0.846703 0.962701 0.373756
O O2 0.667008 0.226837 0.446554
O O3 0.000000 0.000000 0.500000
O O4 0.092997 0.792177 0.746370
O O5 0.225804 0.596630 0.268031
O O6 0.142886 0.509197 0.323399
O O7 0.800366 0.940720 0.106066
O O8 0.913069 0.749847 0.961141
O O9 0.484573 0.347250 0.034848
O O10 0.450961 0.208831 0.046792
O O11 0.748866 0.760139 0.690371
O O12 0.441660 0.133802 0.641370
O O13 0.738384 0.756620 0.938749
O O14 0.500000 0.500000 0.000000
O O15 0.329729 0.604144 0.130339
O O16 0.940372 0.546755 0.292299
O O17 0.500000 0.000000 0.000000
O O18 0.500000 0.500000 0.500000
#
# Coordination Sequence:
#
# PCOD9038086 Si02
#       8
#     2   2   2   2   2   2   2   2
#     4  11  23  46  68  96 130 171 223 278 340 397
#     4  11  23  44  63  98 135 172 222 276 336 393
#     4  11  24  41  70  94 134 178 221 281 335 400
#     4  10  23  41  66  92 135 175 220 272 329 397
#     4  11  25  46  71  95 131 176 227 277 340 404
#     4  11  21  42  62  96 131 172 217 272 323 386
#     4  11  26  44  72  99 133 174 221 283 336 403
#     4  10  23  41  67  91 136 176 222 273 328 399
#
# _framework density 19.861429999999999
#
# number of rings (size 3 to 8) (size 9 to 14) (size 15 to 20)
#    0.000    1.250    5.000    2.250    7.000    4.000 
#    0.000    0.000    0.000    0.000    0.000    0.000 
#    0.000    0.000    0.000    0.000    0.000    0.000 
#
# Total GULP energy -89234.208986 kJ/mol
# GULP energy per Si atom -5577.138062 kJ/mol
# Density = 1.981622 g / cm^3
# Si number density = 19.861430 Si / 1000 Ang^3
#
#
#
# Elastic Constant Matrix: (Units=GPa)
#
#
# Indices 1 2 3 4 5 6 
#
# 1 144.8015 26.1742 54.4485 4.7779 34.6561 1.7951
# 2 26.1742 74.7642 24.8067 0.1069 4.6732 0.7040
# 3 54.4485 24.8067 142.1957 -14.1833 7.3476 4.9840
# 4 4.7779 0.1069 -14.1833 37.0465 -0.0496 10.4921
# 5 34.6561 4.6732 7.3476 -0.0496 32.6747 -5.4227
# 6 1.7951 0.7040 4.9840 10.4921 -5.4227 30.0131
#
#
#
# Elastic Compliance Matrix: (Units=1/GPa)
#
#
# Indices 1 2 3 4 5 6 
#
# 1 0.011435 -0.002077 -0.003651 -0.002553 -0.011207 -0.001161
# 2 -0.002077 0.014684 -0.001872 -0.000606 0.000591 0.000409
# 3 -0.003651 -0.001872 0.009241 0.004765 0.001631 -0.002643
# 4 -0.002553 -0.000606 0.004765 0.032560 -0.000227 -0.012048
# 5 -0.011207 0.000591 0.001631 -0.000227 0.043419 0.008310
# 6 -0.001161 0.000409 -0.002643 -0.012048 0.008310 0.039531
#
#
# Mechanical properties :
#
#
# Convention : Reuss Voigt Hill
#
# Bulk Modulus (GPa) = 49.60257 63.62448 56.61352
# Shear Modulus (GPa) = 28.93695 37.03566 32.98631
#
# Velocity S-wave (km/s) = 3.82113 4.32291 4.07974
# Velocity P-wave (km/s) = 6.67058 7.55119 7.12450
#
# Compressibility (1/GPa) = 0.02016025
#
# Stress axis : x y z
#
# Youngs Moduli (GPa) = 87.44881 68.10328 108.21505
#
# Poissons Ratio (x) = 0.14144 0.39512
# Poissons Ratio (y) = 0.18161 0.20255
# Poissons Ratio (z) = 0.31929 0.12747
#
# Static dielectric constant tensor:
#      x y z
#    x 1.694310 0.020670 0.018210 
#    y 0.020670 1.717410 0.032790 
#    z 0.018210 0.032790 1.782290 
# 
# From -- ./inp_files/315280.got.cif
#   From: 2010.05.17/outbox.cif.g08.bks.cpg/sg2_158_cif.got.tgz:315280.got - 2010.06.03 11:33:40.
