data_PCOD9038799
_publ_section_title
;
Structure prediction by ZEFSAII (Michael W. Deem and Ramdas Pophale) SiO2 
 PCOD9038799
Probable space group: P -1
;
_chemical_formula_sum "Si O2"
_cell_formula_units_Z 16
_cell_length_a 10.765874
_cell_length_b 12.014153
_cell_length_c 12.779553
_cell_angle_alpha 34.250476
_cell_angle_beta 108.037452
_cell_angle_gamma 84.082584
_cell_volume 655.949589
_symmetry_space_group_name_H-M "P -1"
_symmetry_group_IT_number 2
_symmetry_cell_setting 'triclinic'
loop_
_space_group_symop_operation_xyz
x,y,z
-x,-y,-z
loop_
_atom_site_type_symbol
_atom_site_label
_atom_site_fract_x
_atom_site_fract_y
_atom_site_fract_z
Si Si1 0.063892 0.137867 0.543872
Si Si2 0.235185 0.005932 0.174759
Si Si3 0.438923 0.760405 0.841167
Si Si4 0.241036 0.359059 0.051473
Si Si5 0.881629 0.492288 0.653252
Si Si6 0.797759 0.418622 0.915512
Si Si7 0.488396 0.206214 0.766796
Si Si8 0.521939 0.520411 0.264783
O O1 0.092844 0.295105 0.508083
O O2 0.879303 0.363330 0.262362
O O3 0.229156 0.983977 0.624848
O O4 0.088741 0.896814 0.788676
O O5 0.397885 0.905961 0.221477
O O6 0.287244 0.749926 0.442867
O O7 0.206591 0.187430 0.120949
O O8 0.064236 0.195974 0.910146
O O9 0.500000 0.500000 0.000000
O O10 0.550589 0.813908 0.772021
O O11 0.510257 0.683455 0.039475
O O12 0.187532 0.450401 0.084996
O O13 0.839695 0.483544 0.769350
O O14 0.717706 0.575949 0.482533
O O15 0.599345 0.535118 0.763382
O O16 0.552991 0.314757 0.775588
O O17 0.500000 0.000000 0.000000
#
# Coordination Sequence:
#
# PCOD9038799 Si02
#       8
#     2   2   2   2   2   2   2   2
#     4  10  23  42  63 100 141 172 227 276 329 399
#     4  11  26  44  68 102 130 174 233 268 338 411
#     4  11  22  39  67  98 131 178 224 265 336 403
#     4  11  23  42  66  99 141 178 219 278 336 399
#     4  11  26  45  70 101 134 181 226 278 339 401
#     4  11  23  43  68 101 139 180 218 280 343 388
#     4  12  25  50  72  91 138 175 224 289 338 390
#     4  11  24  43  67 101 132 174 224 282 332 399
#
# _framework density 24.392119000000001
#
# number of rings (size 3 to 8) (size 9 to 14) (size 15 to 20)
#    0.000    1.000    3.750    3.750    1.750    4.500 
#    0.000    0.000    0.000    0.000    0.000    0.000 
#    0.000    0.000    0.000    0.000    0.000    0.000 
#
# Total GULP energy -89527.077627 kJ/mol
# GULP energy per Si atom -5595.442352 kJ/mol
# Density = 2.433660 g / cm^3
# Si number density = 24.392119 Si / 1000 Ang^3
#
#
#
# Elastic Constant Matrix: (Units=GPa)
#
#
# Indices 1 2 3 4 5 6 
#
# 1 45.6195 1.4405 7.5318 4.5183 8.0278 1.2756
# 2 1.4405 95.0543 37.3348 14.4930 -4.1735 12.6523
# 3 7.5318 37.3348 94.4009 -0.6860 2.5479 -3.6311
# 4 4.5183 14.4930 -0.6860 28.1844 -4.5861 7.2155
# 5 8.0278 -4.1735 2.5479 -4.5861 44.6467 4.3571
# 6 1.2756 12.6523 -3.6311 7.2155 4.3571 13.9732
#
#
#
# Elastic Compliance Matrix: (Units=1/GPa)
#
#
# Indices 1 2 3 4 5 6 
#
# 1 0.023563 0.001032 -0.002183 -0.005234 -0.004601 0.000484
# 2 0.001032 0.016106 -0.007142 -0.004283 0.002770 -0.015185
# 3 -0.002183 -0.007142 0.014045 0.001449 -0.001920 0.010166
# 4 -0.005234 -0.004283 0.001449 0.045021 0.007106 -0.020731
# 5 -0.004601 0.002770 -0.001920 0.007106 0.025717 -0.014275
# 6 0.000484 -0.015185 0.010166 -0.020731 -0.014275 0.103069
#
#
# Mechanical properties :
#
#
# Convention : Reuss Voigt Hill
#
# Bulk Modulus (GPa) = 26.93448 36.40987 31.67217
# Shear Modulus (GPa) = 19.49448 29.94539 24.71993
#
# Velocity S-wave (km/s) = 2.83010 3.50761 3.18691
# Velocity P-wave (km/s) = 4.66321 5.60033 5.15312
#
# Compressibility (1/GPa) = 0.03712713
#
# Stress axis : x y z
#
# Youngs Moduli (GPa) = 42.43989 62.08971 71.19818
#
# Poissons Ratio (x) = -0.06408 0.15545
# Poissons Ratio (y) = -0.04380 0.50850
# Poissons Ratio (z) = 0.09266 0.44344
#
# Static dielectric constant tensor:
#      x y z
#    x 1.960760 0.019950 0.013450 
#    y 0.019950 1.903200 -0.050000 
#    z 0.013450 -0.050000 1.996870 
# 
# From -- ./inp_files/427436.got.cif
#   From: 2010.05.17/outbox.cif.g08.bks.cpg/sg2_214_cif.got.tgz:427436.got - 2010.06.03 11:33:40.
