data_PCOD9038691
_publ_section_title
;
Structure prediction by ZEFSAII (Michael W. Deem and Ramdas Pophale) SiO2 
 PCOD9038691
Probable space group: P -1
;
_chemical_formula_sum "Si O2"
_cell_formula_units_Z 16
_cell_length_a 9.964171
_cell_length_b 13.813024
_cell_length_c 8.345235
_cell_angle_alpha 140.568461
_cell_angle_beta 112.684865
_cell_angle_gamma 63.491463
_cell_volume 651.147029
_symmetry_space_group_name_H-M "P -1"
_symmetry_group_IT_number 2
_symmetry_cell_setting 'triclinic'
loop_
_space_group_symop_operation_xyz
x,y,z
-x,-y,-z
loop_
_atom_site_type_symbol
_atom_site_label
_atom_site_fract_x
_atom_site_fract_y
_atom_site_fract_z
Si Si1 0.978191 0.086901 0.352198
Si Si2 0.279901 0.146686 0.522918
Si Si3 0.569756 0.002809 0.283716
Si Si4 0.664329 0.502923 0.009580
Si Si5 0.448546 0.242161 0.301744
Si Si6 0.144735 0.437245 0.380184
Si Si7 0.953434 0.244704 0.894075
Si Si8 0.291528 0.657719 0.525056
O O1 0.963454 0.165439 0.622995
O O2 0.816615 0.165274 0.303901
O O3 0.110942 0.144794 0.400416
O O4 0.022367 0.899123 0.153200
O O5 0.314153 0.062508 0.606219
O O6 0.403871 0.034594 0.324109
O O7 0.309887 0.320388 0.760928
O O8 0.559596 0.168829 0.404437
O O9 0.590844 0.885217 0.995796
O O10 0.796111 0.377169 0.004826
O O11 0.689115 0.437210 0.755109
O O12 0.500000 0.500000 0.000000
O O13 0.289752 0.339306 0.417247
O O14 0.540837 0.331500 0.346516
O O15 0.207388 0.568894 0.492228
O O16 0.000000 0.500000 0.500000
O O17 0.087212 0.330192 0.086847
#
# Coordination Sequence:
#
# PCOD9038691 Si02
#       8
#     2   2   2   2   2   2   2   2
#     4  10  23  41  73  97 136 173 231 288 341 408
#     4  11  23  42  69 104 137 176 237 284 344 409
#     4  10  25  40  72 100 135 181 230 287 343 400
#     4  11  24  41  72 105 141 175 226 290 348 412
#     4  11  25  46  70  98 141 182 232 280 349 413
#     4  12  28  46  69  98 142 186 226 283 343 415
#     4  10  24  43  66 102 135 178 224 283 348 403
#     4  11  25  45  71 102 136 184 229 283 350 410
#
# _framework density 24.572023000000002
#
# number of rings (size 3 to 8) (size 9 to 14) (size 15 to 20)
#    0.000    1.250    0.000    4.125   17.500    3.000 
#    0.000    1.250    0.000    0.000    0.000    0.000 
#    0.000    0.000    0.000    0.000    0.000    0.000 
#
# Total GULP energy -89539.743688 kJ/mol
# GULP energy per Si atom -5596.233981 kJ/mol
# Density = 2.451610 g / cm^3
# Si number density = 24.572023 Si / 1000 Ang^3
#
#
#
# Elastic Constant Matrix: (Units=GPa)
#
#
# Indices 1 2 3 4 5 6 
#
# 1 171.1687 45.7931 5.1127 17.9442 -7.1015 -20.0991
# 2 45.7931 116.5931 26.6143 21.8585 -4.2840 -13.9544
# 3 5.1127 26.6143 24.6655 14.4075 -16.3798 -10.2759
# 4 17.9442 21.8585 14.4075 28.1170 0.6237 -6.0170
# 5 -7.1015 -4.2840 -16.3798 0.6237 38.7294 2.0983
# 6 -20.0991 -13.9544 -10.2759 -6.0170 2.0983 41.2967
#
#
#
# Elastic Compliance Matrix: (Units=1/GPa)
#
#
# Indices 1 2 3 4 5 6 
#
# 1 0.008224 -0.004066 0.014177 -0.008530 0.006944 0.004561
# 2 -0.004066 0.014311 -0.023150 0.003102 -0.008895 -0.002000
# 3 0.014177 -0.023150 0.155428 -0.066865 0.065513 0.024681
# 4 -0.008530 0.003102 -0.066865 0.071877 -0.030239 -0.007733
# 5 0.006944 -0.008895 0.065513 -0.030239 0.053787 0.009537
# 6 0.004561 -0.002000 0.024681 -0.007733 0.009537 0.030289
#
#
# Mechanical properties :
#
#
# Convention : Reuss Voigt Hill
#
# Bulk Modulus (GPa) = 6.58396 51.94082 29.26239
# Shear Modulus (GPa) = 12.17659 37.28910 24.73284
#
# Velocity S-wave (km/s) = 2.22850 3.89979 3.17605
# Velocity P-wave (km/s) = 3.05072 6.43909 5.03829
#
# Compressibility (1/GPa) = 0.15188421
#
# Stress axis : x y z
#
# Youngs Moduli (GPa) = 121.58863 69.87821 6.43383
#
# Poissons Ratio (x) = 0.28413 -0.09121
# Poissons Ratio (y) = 0.49439 0.14895
# Poissons Ratio (z) = -1.72374 1.61771
#
# Static dielectric constant tensor:
#      x y z
#    x 1.889170 0.012100 -0.024280 
#    y 0.012100 2.061630 0.011930 
#    z -0.024280 0.011930 1.951280 
# 
# From -- ./inp_files/209528.got.cif
#   From: 2010.05.17/outbox.cif.g08.bks.cpg/sg2_105_cif.got.tgz:209528.got - 2010.06.03 11:33:40.
