data_PCOD9038047
_publ_section_title
;
Structure prediction by ZEFSAII (Michael W. Deem and Ramdas Pophale) SiO2 
 PCOD9038047
Probable space group: P -1
;
_chemical_formula_sum "Si O2"
_cell_formula_units_Z 15
_cell_length_a 12.834565
_cell_length_b 12.277998
_cell_length_c 5.227412
_cell_angle_alpha 110.402046
_cell_angle_beta 70.517938
_cell_angle_gamma 113.231064
_cell_volume 690.860382
_symmetry_space_group_name_H-M "P -1"
_symmetry_group_IT_number 2
_symmetry_cell_setting 'triclinic'
loop_
_space_group_symop_operation_xyz
x,y,z
-x,-y,-z
loop_
_atom_site_type_symbol
_atom_site_label
_atom_site_fract_x
_atom_site_fract_y
_atom_site_fract_z
Si Si1 0.646999 0.966246 0.659113
Si Si2 0.500000 0.500000 0.500000
Si Si3 0.724550 0.413936 0.234322
Si Si4 0.570675 0.720232 0.225789
Si Si5 0.874178 0.506183 0.686936
Si Si6 0.567728 0.185400 0.949058
Si Si7 0.183279 0.251067 0.031621
Si Si8 0.129673 0.087907 0.435604
O O1 0.620214 0.862295 0.379819
O O2 0.775221 0.982803 0.670714
O O3 0.624707 0.090933 0.698408
O O4 0.551614 0.899075 0.895348
O O5 0.634151 0.490936 0.338270
O O6 0.531480 0.627338 0.412676
O O7 0.786593 0.444754 0.480113
O O8 0.819207 0.447597 0.954124
O O9 0.655032 0.269208 0.150659
O O10 0.465568 0.717268 0.123800
O O11 0.677615 0.689654 0.980106
O O12 0.000000 0.500000 0.500000
O O13 0.878461 0.646939 0.812935
O O14 0.162456 0.190097 0.717752
O O15 0.140823 0.150256 0.202064
O O16 0.000000 0.000000 0.500000
#
# Coordination Sequence:
#
# PCOD9038047 Si02
#       8
#     2   1   2   2   2   2   2   2
#     4  10  23  41  66 100 141 187 230 290 372 433
#     4  12  24  42  72 110 146 176 252 304 356 442
#     4  12  27  44  72 108 139 190 241 304 364 428
#     4  11  22  42  68 103 145 189 231 297 374 431
#     4  12  28  49  70 100 145 194 245 292 368 433
#     4  11  23  42  66 101 144 184 230 299 367 441
#     4  11  24  44  72  98 141 184 240 297 365 421
#     4  11  24  45  71 105 134 188 245 297 351 429
#
# _framework density 21.712057999999999
#
# number of rings (size 3 to 8) (size 9 to 14) (size 15 to 20)
#    0.000    0.800    4.000    2.800    3.733    3.200 
#    0.000    0.000    0.000    0.000    0.000    0.000 
#    0.000    0.000    0.000    0.000    0.000    0.000 
#
# Total GULP energy -83657.466570 kJ/mol
# GULP energy per Si atom -5577.164438 kJ/mol
# Density = 2.166264 g / cm^3
# Si number density = 21.712058 Si / 1000 Ang^3
#
#
#
# Elastic Constant Matrix: (Units=GPa)
#
#
# Indices 1 2 3 4 5 6 
#
# 1 85.6598 22.1783 13.3609 15.2922 -33.2505 0.4950
# 2 22.1783 44.2336 -0.8521 -6.1456 -11.3602 0.3204
# 3 13.3609 -0.8521 60.5338 1.3462 -18.0166 -1.5660
# 4 15.2922 -6.1456 1.3462 40.9180 3.8092 -9.3866
# 5 -33.2505 -11.3602 -18.0166 3.8092 47.3978 0.0320
# 6 0.4950 0.3204 -1.5660 -9.3866 0.0320 28.0790
#
#
#
# Elastic Compliance Matrix: (Units=1/GPa)
#
#
# Indices 1 2 3 4 5 6 
#
# 1 0.021425 -0.008837 -0.000660 -0.011538 0.013591 -0.004186
# 2 -0.008837 0.028417 0.002515 0.008010 0.000922 0.002648
# 3 -0.000660 0.002515 0.018929 -0.000486 0.007374 0.000868
# 4 -0.011538 0.008010 -0.000486 0.033395 -0.009051 0.011259
# 5 0.013591 0.000922 0.007374 -0.009051 0.034386 -0.002904
# 6 -0.004186 0.002648 0.000868 0.011259 -0.002904 0.039473
#
#
# Mechanical properties :
#
#
# Convention : Reuss Voigt Hill
#
# Bulk Modulus (GPa) = 18.24576 28.86681 23.55629
# Shear Modulus (GPa) = 24.00890 33.66163 28.83526
#
# Velocity S-wave (km/s) = 3.32894 3.94174 3.64823
# Velocity P-wave (km/s) = 4.81639 5.83443 5.34968
#
# Compressibility (1/GPa) = 0.05480724
#
# Stress axis : x y z
#
# Youngs Moduli (GPa) = 46.67529 35.19022 52.83019
#
# Poissons Ratio (x) = 0.31098 0.03486
# Poissons Ratio (y) = 0.41247 -0.13289
# Poissons Ratio (z) = 0.03080 -0.08852
#
# Static dielectric constant tensor:
#      x y z
#    x 1.811100 0.012380 0.028570 
#    y 0.012380 1.743540 0.025410 
#    z 0.028570 0.025410 1.892250 
# 
# From -- ./inp_files/65616.got.cif
#   From: 2010.05.17/outbox.cif.g08.bks.cpg/sg2_33_cif.got.tgz:65616.got - 2010.06.03 11:33:40.
