data_PCOD9038980
_publ_section_title
;
Structure prediction by ZEFSAII (Michael W. Deem and Ramdas Pophale) SiO2 
 PCOD9038980
Probable space group: P -1
;
_chemical_formula_sum "Si O2"
_cell_formula_units_Z 14
_cell_length_a 29.980811
_cell_length_b 11.352490
_cell_length_c 15.736219
_cell_angle_alpha 26.045541
_cell_angle_beta 16.508674
_cell_angle_gamma 20.234299
_cell_volume 526.342615
_symmetry_space_group_name_H-M "P -1"
_symmetry_group_IT_number 2
_symmetry_cell_setting 'triclinic'
loop_
_space_group_symop_operation_xyz
x,y,z
-x,-y,-z
loop_
_atom_site_type_symbol
_atom_site_label
_atom_site_fract_x
_atom_site_fract_y
_atom_site_fract_z
Si Si1 0.638544 0.789875 0.174071
Si Si2 0.339988 0.212545 0.579411
Si Si3 0.630507 0.221802 0.560274
Si Si4 0.427153 0.894818 0.074255
Si Si5 0.952545 0.809342 0.102803
Si Si6 0.954919 0.966766 0.817232
Si Si7 0.155701 0.656140 0.386014
O O1 0.535129 0.609740 0.461631
O O2 0.480740 0.122251 0.300720
O O3 0.703404 0.870986 0.917905
O O4 0.823965 0.510376 0.074496
O O5 0.177444 0.614133 0.630990
O O6 0.500000 0.000000 0.500000
O O7 0.201821 0.093815 0.892107
O O8 0.514580 0.083727 0.828762
O O9 0.834126 0.010985 0.272470
O O10 0.652579 0.168454 0.656023
O O11 0.609822 0.537405 0.929480
O O12 0.861448 0.619172 0.364275
O O13 0.926857 0.035770 0.924158
O O14 0.917915 0.251942 0.637070
O O15 0.000000 0.000000 0.500000
#
# Coordination Sequence:
#
# PCOD9038980 Si02
#       7
#     2   2   2   2   2   2   2
#     4  12  23  41  66  97 134 170 223 277 326 397
#     4  11  22  41  69 100 128 172 224 268 329 401
#     4  10  23  42  65  92 131 177 221 269 339 384
#     4  10  23  42  66  97 127 171 228 273 321 402
#     4  11  25  42  64  99 133 174 221 274 329 395
#     4  11  23  44  70  92 141 174 210 281 332 385
#     4  11  23  42  66  94 129 177 216 267 338 386
#
# _framework density 26.598642999999999
#
# number of rings (size 3 to 8) (size 9 to 14) (size 15 to 20)
#    0.000    1.143    1.429    6.000    0.000    5.143 
#    2.571    1.429    0.000    0.000    0.000    0.000 
#    0.000    0.000    0.000    0.000    0.000    0.000 
#
# Total GULP energy -78420.060725 kJ/mol
# GULP energy per Si atom -5601.432909 kJ/mol
# Density = 2.653810 g / cm^3
# Si number density = 26.598643 Si / 1000 Ang^3
#
#
#
# Elastic Constant Matrix: (Units=GPa)
#
#
# Indices 1 2 3 4 5 6 
#
# 1 125.4309 40.3783 73.2599 6.3148 32.0148 -40.7946
# 2 40.3783 90.9893 30.1851 6.7058 17.7717 -16.7684
# 3 73.2599 30.1851 84.8043 11.4072 21.8931 -9.2393
# 4 6.3148 6.7058 11.4072 51.4463 -6.4496 9.7284
# 5 32.0148 17.7717 21.8931 -6.4496 60.3797 -0.3144
# 6 -40.7946 -16.7684 -9.2393 9.7284 -0.3144 59.3381
#
#
#
# Elastic Compliance Matrix: (Units=1/GPa)
#
#
# Indices 1 2 3 4 5 6 
#
# 1 0.025484 -0.001100 -0.017857 -0.002699 -0.006925 0.014835
# 2 -0.001100 0.013552 -0.002602 -0.001950 -0.002655 0.002974
# 3 -0.017857 -0.002602 0.027490 -0.001973 0.000012 -0.008408
# 4 -0.002699 -0.001950 -0.001973 0.022295 0.005069 -0.006342
# 5 -0.006925 -0.002655 0.000012 0.005069 0.021520 -0.006226
# 6 0.014835 0.002974 -0.008408 -0.006342 -0.006226 0.027589
#
#
# Mechanical properties :
#
#
# Convention : Reuss Voigt Hill
#
# Bulk Modulus (GPa) = 42.71734 65.43010 54.07372
# Shear Modulus (GPa) = 26.47597 44.72625 35.60111
#
# Velocity S-wave (km/s) = 3.15840 4.10509 3.66246
# Velocity P-wave (km/s) = 5.42176 6.86450 6.18534
#
# Compressibility (1/GPa) = 0.02340970
#
# Stress axis : x y z
#
# Youngs Moduli (GPa) = 39.23997 73.79074 36.37681
#
# Poissons Ratio (x) = 0.08117 0.64956
# Poissons Ratio (y) = 0.04316 0.09464
# Poissons Ratio (z) = 0.70069 0.19198
#
# Static dielectric constant tensor:
#      x y z
#    x 2.164470 0.045760 -0.063750 
#    y 0.045760 2.028490 0.000460 
#    z -0.063750 0.000460 2.108730 
# 
# From -- ./inp_files/458360.got.cif
#   From: 2010.05.17/outbox.cif.g08.bks.cpg/sg2_230_cif.got.tgz:458360.got - 2010.06.03 11:33:40.
