data_PCOD9038382
_publ_section_title
;
Structure prediction by ZEFSAII (Michael W. Deem and Ramdas Pophale) SiO2 
 PCOD9038382
Probable space group: P -1
;
_chemical_formula_sum "Si O2"
_cell_formula_units_Z 12
_cell_length_a 8.836000
_cell_length_b 8.949893
_cell_length_c 13.003940
_cell_angle_alpha 134.034977
_cell_angle_beta 75.855943
_cell_angle_gamma 131.485787
_cell_volume 507.292142
_symmetry_space_group_name_H-M "P -1"
_symmetry_group_IT_number 2
_symmetry_cell_setting 'triclinic'
loop_
_space_group_symop_operation_xyz
x,y,z
-x,-y,-z
loop_
_atom_site_type_symbol
_atom_site_label
_atom_site_fract_x
_atom_site_fract_y
_atom_site_fract_z
Si Si1 0.725355 0.795135 0.232122
Si Si2 0.955585 0.058200 0.923380
Si Si3 0.542080 0.281467 0.161692
Si Si4 0.824989 0.336793 0.568286
Si Si5 0.691733 0.303479 0.355485
Si Si6 0.676129 0.317550 0.805475
O O1 0.913565 0.938063 0.185271
O O2 0.683489 0.546190 0.183269
O O3 0.488081 0.640241 0.151617
O O4 0.794388 0.064319 0.414957
O O5 0.080981 0.397203 0.063381
O O6 0.697681 0.839864 0.848223
O O7 0.000000 0.000000 0.000000
O O8 0.661264 0.420732 0.319193
O O9 0.500000 0.000000 0.000000
O O10 0.736209 0.385176 0.508498
O O11 0.701861 0.268017 0.660449
O O12 0.087264 0.618023 0.670817
O O13 0.458561 0.965828 0.237378
#
# Coordination Sequence:
#
# PCOD9038382 Si02
#       6
#     2   2   2   2   2   2
#     4  11  25  44  70 106 138 183 233 283 344 417
#     4  12  27  43  74 101 139 185 234 281 347 411
#     4  12  27  44  69 106 144 180 230 291 348 404
#     4  10  24  45  74 100 139 189 230 278 349 416
#     4  10  23  41  68  99 139 175 231 279 338 404
#     4  11  23  44  74 103 137 187 234 277 344 421
#
# _framework density 23.655009
#
# number of rings (size 3 to 8) (size 9 to 14) (size 15 to 20)
#    0.000    1.000    1.667    4.500   11.667    6.000 
#    0.000    5.833    0.000    0.000    0.000    0.000 
#    0.000    0.000    0.000    0.000    0.000    0.000 
#
# Total GULP energy -67065.114648 kJ/mol
# GULP energy per Si atom -5588.759554 kJ/mol
# Density = 2.360117 g / cm^3
# Si number density = 23.655009 Si / 1000 Ang^3
#
#
#
# Elastic Constant Matrix: (Units=GPa)
#
#
# Indices 1 2 3 4 5 6 
#
# 1 87.1109 45.4322 32.4703 -26.2043 6.6934 14.4139
# 2 45.4322 154.4776 31.7629 -16.1235 -15.6551 23.1265
# 3 32.4703 31.7629 86.8991 -15.2300 -23.3650 18.5663
# 4 -26.2043 -16.1235 -15.2300 46.5737 8.2212 -1.0387
# 5 6.6934 -15.6551 -23.3650 8.2212 47.0548 -1.0385
# 6 14.4139 23.1265 18.5663 -1.0387 -1.0385 36.9277
#
#
#
# Elastic Compliance Matrix: (Units=1/GPa)
#
#
# Indices 1 2 3 4 5 6 
#
# 1 0.019750 -0.004185 -0.006232 0.009160 -0.008940 -0.001948
# 2 -0.004185 0.008577 0.000143 -0.000030 0.003443 -0.003714
# 3 -0.006232 0.000143 0.017792 0.000537 0.009535 -0.006319
# 4 0.009160 -0.000030 0.000537 0.027773 -0.005969 -0.003214
# 5 -0.008940 0.003443 0.009535 -0.005969 0.029385 -0.002802
# 6 -0.001948 -0.003714 -0.006319 -0.003214 -0.002802 0.033174
#
#
# Mechanical properties :
#
#
# Convention : Reuss Voigt Hill
#
# Bulk Modulus (GPa) = 39.10814 60.86870 49.98842
# Shear Modulus (GPa) = 30.20738 40.69939 35.45338
#
# Velocity S-wave (km/s) = 3.57739 4.15244 3.87559
# Velocity P-wave (km/s) = 5.79933 6.98413 6.41912
#
# Compressibility (1/GPa) = 0.02557013
#
# Stress axis : x y z
#
# Youngs Moduli (GPa) = 50.63238 116.59408 56.20508
#
# Poissons Ratio (x) = 0.48800 0.35027
# Poissons Ratio (y) = 0.21192 -0.00803
# Poissons Ratio (z) = 0.31554 -0.01667
#
# Static dielectric constant tensor:
#      x y z
#    x 1.855110 -0.021650 -0.019400 
#    y -0.021650 1.897170 0.044760 
#    z -0.019400 0.044760 2.006870 
# 
# From -- ./inp_files/383529.got.cif
#   From: 2010.05.17/outbox.cif.g08.bks.cpg/sg2_192_cif.got.tgz:383529.got - 2010.06.03 11:33:40.
