data_PCOD9038288
_publ_section_title
;
Structure prediction by ZEFSAII (Michael W. Deem and Ramdas Pophale) SiO2 
 PCOD9038288
Probable space group: P -1
;
_chemical_formula_sum "Si O2"
_cell_formula_units_Z 16
_cell_length_a 9.168083
_cell_length_b 18.298559
_cell_length_c 12.698696
_cell_angle_alpha 144.441497
_cell_angle_beta 50.033079
_cell_angle_gamma 102.525131
_cell_volume 690.963462
_symmetry_space_group_name_H-M "P -1"
_symmetry_group_IT_number 2
_symmetry_cell_setting 'triclinic'
loop_
_space_group_symop_operation_xyz
x,y,z
-x,-y,-z
loop_
_atom_site_type_symbol
_atom_site_label
_atom_site_fract_x
_atom_site_fract_y
_atom_site_fract_z
Si Si1 0.624928 0.765540 0.596719
Si Si2 0.081788 0.154460 0.338840
Si Si3 0.276267 0.942727 0.330909
Si Si4 0.642200 0.817284 0.428799
Si Si5 0.664000 0.477916 0.796908
Si Si6 0.819017 0.439542 0.241147
Si Si7 0.558694 0.565994 0.713360
Si Si8 0.356319 0.850438 0.413536
O O1 0.852637 0.761446 0.514521
O O2 0.641985 0.722928 0.416391
O O3 0.656653 0.634873 0.506855
O O4 0.348448 0.960415 0.966107
O O5 0.945079 0.287260 0.459876
O O6 0.878292 0.143993 0.463490
O O7 0.295514 0.958816 0.466309
O O8 0.336100 0.050933 0.381254
O O9 0.492925 0.741911 0.965525
O O10 0.000000 0.000000 0.500000
O O11 0.401089 0.902478 0.562283
O O12 0.900239 0.679756 0.080222
O O13 0.574517 0.496565 0.740046
O O14 0.500000 0.500000 0.000000
O O15 0.614649 0.648676 0.034593
O O16 0.804409 0.436283 0.370038
O O17 0.675770 0.387515 0.191129
#
# Coordination Sequence:
#
# PCOD9038288 Si02
#       8
#     2   2   2   2   2   2   2   2
#     4  11  26  41  70 101 136 181 234 286 345 411
#     4  10  23  44  67 100 135 181 230 286 346 408
#     4  11  22  43  71  96 139 180 229 281 347 413
#     4  12  25  43  67 103 137 184 233 287 338 413
#     4   9  20  41  72  97 136 182 231 272 346 412
#     4  11  25  44  69 102 145 175 236 284 346 408
#     4  10  24  44  70 106 133 187 226 285 347 411
#     4  10  23  41  68 100 135 182 229 283 347 410
#
# _framework density 23.156072000000002
#
# number of rings (size 3 to 8) (size 9 to 14) (size 15 to 20)
#    0.000    1.500    1.250    2.250   12.250    0.500 
#    4.500    1.875    0.000    0.000    0.000    0.000 
#    0.000    0.000    0.000    0.000    0.000    0.000 
#
# Total GULP energy -89378.392327 kJ/mol
# GULP energy per Si atom -5586.149520 kJ/mol
# Density = 2.310337 g / cm^3
# Si number density = 23.156072 Si / 1000 Ang^3
#
#
#
# Elastic Constant Matrix: (Units=GPa)
#
#
# Indices 1 2 3 4 5 6 
#
# 1 80.5630 29.6633 12.6796 -6.6252 16.2584 -8.6822
# 2 29.6633 98.1410 19.3529 -4.0744 8.9069 -21.8254
# 3 12.6796 19.3529 57.7359 4.3074 6.5967 -4.7584
# 4 -6.6252 -4.0744 4.3074 34.5432 -9.9002 7.4423
# 5 16.2584 8.9069 6.5967 -9.9002 23.0509 -9.1465
# 6 -8.6822 -21.8254 -4.7584 7.4423 -9.1465 36.7154
#
#
#
# Elastic Compliance Matrix: (Units=1/GPa)
#
#
# Indices 1 2 3 4 5 6 
#
# 1 0.015906 -0.003953 -0.001168 0.000195 -0.009753 -0.001209
# 2 -0.003953 0.013451 -0.003227 0.000112 0.001319 0.006949
# 3 -0.001168 -0.003227 0.019633 -0.004629 -0.005576 -0.000101
# 4 0.000195 0.000112 -0.004629 0.034555 0.014439 -0.003894
# 5 -0.009753 0.001319 -0.005576 0.014439 0.061584 0.010170
# 6 -0.001209 0.006949 -0.000101 -0.003894 0.010170 0.034391
#
#
# Mechanical properties :
#
#
# Convention : Reuss Voigt Hill
#
# Bulk Modulus (GPa) = 30.96597 39.98127 35.47362
# Shear Modulus (GPa) = 24.15697 30.51154 27.33425
#
# Velocity S-wave (km/s) = 3.23340 3.63388 3.43947
# Velocity P-wave (km/s) = 5.22892 5.90849 5.57906
#
# Compressibility (1/GPa) = 0.03229351
#
# Stress axis : x y z
#
# Youngs Moduli (GPa) = 62.86944 74.34532 50.93582
#
# Poissons Ratio (x) = 0.29388 0.05950
# Poissons Ratio (y) = 0.24852 0.16437
# Poissons Ratio (z) = 0.07343 0.23991
#
# Static dielectric constant tensor:
#      x y z
#    x 1.882430 -0.006030 -0.009110 
#    y -0.006030 1.888300 -0.005060 
#    z -0.009110 -0.005060 1.895900 
# 
# From -- ./inp_files/243208.got.cif
#   From: 2010.05.17/outbox.cif.g08.bks.cpg/sg2_122_cif.got.tgz:243208.got - 2010.06.03 11:33:40.
