data_PCOD9038007
_publ_section_title
;
Structure prediction by ZEFSAII (Michael W. Deem and Ramdas Pophale) SiO2 
 PCOD9038007
Probable space group: P -1
;
_chemical_formula_sum "Si O2"
_cell_formula_units_Z 16
_cell_length_a 11.770720
_cell_length_b 11.874650
_cell_length_c 5.675897
_cell_angle_alpha 74.479009
_cell_angle_beta 113.376929
_cell_angle_gamma 117.787690
_cell_volume 640.896912
_symmetry_space_group_name_H-M "P -1"
_symmetry_group_IT_number 2
_symmetry_cell_setting 'triclinic'
loop_
_space_group_symop_operation_xyz
x,y,z
-x,-y,-z
loop_
_atom_site_type_symbol
_atom_site_label
_atom_site_fract_x
_atom_site_fract_y
_atom_site_fract_z
Si Si1 0.008593 0.364799 0.862400
Si Si2 0.827724 0.785669 0.038451
Si Si3 0.802326 0.225211 0.108832
Si Si4 0.619316 0.551401 0.262158
Si Si5 0.859335 0.987146 0.289186
Si Si6 0.778357 0.399458 0.338534
Si Si7 0.543862 0.078543 0.736465
Si Si8 0.621906 0.756169 0.475053
O O1 0.895600 0.380584 0.594785
O O2 0.147853 0.483960 0.850978
O O3 0.939803 0.342308 0.074448
O O4 0.043309 0.240991 0.920319
O O5 0.709799 0.746887 0.771214
O O6 0.756198 0.677338 0.238066
O O7 0.857956 0.929961 0.058866
O O8 0.720875 0.273584 0.198519
O O9 0.845409 0.114642 0.286886
O O10 0.705278 0.155115 0.850507
O O11 0.677785 0.441566 0.384495
O O12 0.566346 0.619038 0.381510
O O13 0.500000 0.500000 0.000000
O O14 0.729812 0.872393 0.350589
O O15 0.000000 0.000000 0.500000
O O16 0.488897 0.188352 0.605217
O O17 0.500000 0.000000 0.500000
O O18 0.500000 0.000000 0.000000
#
# Coordination Sequence:
#
# PCOD9038007 Si02
#       8
#     2   2   2   2   2   2   2   2
#     4  10  23  41  65  96 136 178 233 289 358 418
#     4  10  23  41  65  97 135 174 225 289 350 422
#     4  12  24  40  69  96 135 184 232 288 354 425
#     4  10  23  43  67  94 132 176 232 286 353 420
#     4  11  23  39  64  99 133 174 223 279 351 422
#     4  10  23  42  65  99 138 177 234 294 353 420
#     4  12  28  47  72 105 147 187 237 293 352 428
#     4  11  24  44  68  95 138 174 226 292 348 415
#
# _framework density 24.965011000000001
#
# number of rings (size 3 to 8) (size 9 to 14) (size 15 to 20)
#    0.000    1.250    1.250    3.375    3.500   11.500 
#    0.000    0.000    0.000    0.000    0.000    0.000 
#    0.000    0.000    0.000    0.000    0.000    0.000 
#
# Total GULP energy -89301.753197 kJ/mol
# GULP energy per Si atom -5581.359575 kJ/mol
# Density = 2.490819 g / cm^3
# Si number density = 24.965011 Si / 1000 Ang^3
#
#
#
# Elastic Constant Matrix: (Units=GPa)
#
#
# Indices 1 2 3 4 5 6 
#
# 1 82.5330 44.2399 9.2658 -16.7777 11.0310 -27.1437
# 2 44.2399 153.0752 45.6505 2.1921 -14.9796 -38.8632
# 3 9.2658 45.6505 63.9400 15.1071 12.5292 -27.9054
# 4 -16.7777 2.1921 15.1071 45.3400 3.1234 -0.8937
# 5 11.0310 -14.9796 12.5292 3.1234 44.1015 -8.1196
# 6 -27.1437 -38.8632 -27.9054 -0.8937 -8.1196 55.1373
#
#
#
# Elastic Compliance Matrix: (Units=1/GPa)
#
#
# Indices 1 2 3 4 5 6 
#
# 1 0.019318 -0.006008 0.004141 0.006691 -0.007345 0.006398
# 2 -0.006008 0.012270 -0.008203 -0.000618 0.008558 0.002789
# 3 0.004141 -0.008203 0.028328 -0.006661 -0.009732 0.009052
# 4 0.006691 -0.000618 -0.006661 0.026909 -0.001964 -0.000366
# 5 -0.007345 0.008558 -0.009732 -0.001964 0.030687 0.001978
# 6 0.006398 0.002789 0.009052 -0.000366 0.001978 0.028119
#
#
# Mechanical properties :
#
#
# Convention : Reuss Voigt Hill
#
# Bulk Modulus (GPa) = 25.14197 55.31785 40.22991
# Shear Modulus (GPa) = 27.92804 42.27523 35.10163
#
# Velocity S-wave (km/s) = 3.34831 4.11953 3.75378
# Velocity P-wave (km/s) = 5.00409 6.69579 5.91078
#
# Compressibility (1/GPa) = 0.03977413
#
# Stress axis : x y z
#
# Youngs Moduli (GPa) = 51.76468 81.49901 35.30083
#
# Poissons Ratio (x) = 0.48967 -0.14617
# Poissons Ratio (y) = 0.31102 0.28959
# Poissons Ratio (z) = -0.21434 0.66857
#
# Static dielectric constant tensor:
#      x y z
#    x 2.109160 -0.042620 -0.132640 
#    y -0.042620 1.979360 -0.033660 
#    z -0.132640 -0.033660 2.013940 
# 
# From -- ./inp_files/70046.got.cif
#   From: 2010.05.17/outbox.cif.g08.bks.cpg/sg2_36_cif.got.tgz:70046.got - 2010.06.03 11:33:40.
