data_PCOD9038004
_publ_section_title
;
Structure prediction by ZEFSAII (Michael W. Deem and Ramdas Pophale) SiO2 
 PCOD9038004
Probable space group: P -1
;
_chemical_formula_sum "Si O2"
_cell_formula_units_Z 14
_cell_length_a 13.207979
_cell_length_b 4.977624
_cell_length_c 9.218389
_cell_angle_alpha 112.747498
_cell_angle_beta 87.560013
_cell_angle_gamma 72.728591
_cell_volume 525.123056
_symmetry_space_group_name_H-M "P -1"
_symmetry_group_IT_number 2
_symmetry_cell_setting 'triclinic'
loop_
_space_group_symop_operation_xyz
x,y,z
-x,-y,-z
loop_
_atom_site_type_symbol
_atom_site_label
_atom_site_fract_x
_atom_site_fract_y
_atom_site_fract_z
Si Si1 0.976266 0.923781 0.147222
Si Si2 0.900493 0.280623 0.495742
Si Si3 0.347954 0.246581 0.706007
Si Si4 0.183190 0.433044 0.994165
Si Si5 0.768514 0.942868 0.589101
Si Si6 0.354457 0.044493 0.131307
Si Si7 0.528724 0.317380 0.218253
O O1 0.096814 0.716455 0.143250
O O2 0.921985 0.215025 0.310486
O O3 0.894253 0.733123 0.109715
O O4 0.000000 0.000000 0.000000
O O5 0.868027 0.650477 0.587242
O O6 0.803166 0.185970 0.545076
O O7 0.000000 0.000000 0.500000
O O8 0.292780 0.204417 0.552471
O O9 0.446970 0.368249 0.697834
O O10 0.391505 0.928934 0.727703
O O11 0.259590 0.478792 0.870352
O O12 0.259219 0.222981 0.066232
O O13 0.693028 0.085676 0.759394
O O14 0.414998 0.271426 0.234659
O O15 0.437516 0.790012 0.971927
#
# Coordination Sequence:
#
# PCOD9038004 Si02
#       7
#     2   2   2   2   2   2   2
#     4  11  24  40  67  98 129 182 227 270 326 399
#     4  12  27  44  66 100 141 180 225 279 331 401
#     4  11  23  45  70  99 137 175 224 281 336 406
#     4  10  23  41  65  96 133 176 225 275 326 401
#     4  12  26  44  69  99 138 182 220 279 347 393
#     4  10  25  45  69 101 134 176 225 283 338 401
#     4  10  25  45  72 100 132 176 228 281 337 398
#
# _framework density 26.660416999999999
#
# number of rings (size 3 to 8) (size 9 to 14) (size 15 to 20)
#    0.000    1.143    1.429    3.000   10.000    9.714 
#    0.000    0.000    0.000    0.000    0.000    0.000 
#    0.000    0.000    0.000    0.000    0.000    0.000 
#
# Total GULP energy -78505.054170 kJ/mol
# GULP energy per Si atom -5607.503869 kJ/mol
# Density = 2.659974 g / cm^3
# Si number density = 26.660417 Si / 1000 Ang^3
#
#
#
# Elastic Constant Matrix: (Units=GPa)
#
#
# Indices 1 2 3 4 5 6 
#
# 1 105.4568 18.2981 8.6400 -15.7617 0.1966 5.5051
# 2 18.2981 106.4876 12.4700 -17.9663 -5.1026 1.3994
# 3 8.6400 12.4700 101.4107 -23.5641 -9.8400 -1.5272
# 4 -15.7617 -17.9663 -23.5641 34.3032 1.5724 -1.8468
# 5 0.1966 -5.1026 -9.8400 1.5724 35.0300 -4.0239
# 6 5.5051 1.3994 -1.5272 -1.8468 -4.0239 51.0497
#
#
#
# Elastic Compliance Matrix: (Units=1/GPa)
#
#
# Indices 1 2 3 4 5 6 
#
# 1 0.010347 -0.001087 0.000188 0.004284 -0.000466 -0.000962
# 2 -0.001087 0.010472 0.000099 0.004998 0.001349 0.000120
# 3 0.000188 0.000099 0.012090 0.008347 0.003137 0.000888
# 4 0.004284 0.004998 0.008347 0.039471 0.001414 0.001190
# 5 -0.000466 0.001349 0.003137 0.001414 0.029852 0.002511
# 6 -0.000962 0.000120 0.000888 0.001190 0.002511 0.019957
#
#
# Mechanical properties :
#
#
# Convention : Reuss Voigt Hill
#
# Bulk Modulus (GPa) = 31.94002 43.57458 37.75730
# Shear Modulus (GPa) = 37.25054 42.33973 39.79513
#
# Velocity S-wave (km/s) = 3.74200 3.98944 3.86770
# Velocity P-wave (km/s) = 5.53863 6.13193 5.84282
#
# Compressibility (1/GPa) = 0.03130868
#
# Stress axis : x y z
#
# Youngs Moduli (GPa) = 96.64548 95.49045 82.71264
#
# Poissons Ratio (x) = 0.10379 -0.01552
# Poissons Ratio (y) = 0.10505 -0.00818
# Poissons Ratio (z) = -0.01814 -0.00945
#
# Static dielectric constant tensor:
#      x y z
#    x 2.134410 -0.097160 0.019610 
#    y -0.097160 2.130560 0.014320 
#    z 0.019610 0.014320 2.048530 
# 
# From -- ./inp_files/47038.got.cif
#   From: 2010.05.17/outbox.cif.g08.bks.cpg/sg2_24_cif.got.tgz:47038.got - 2010.06.03 11:33:40.
