data_PCOD9038317
_publ_section_title
;
Structure prediction by ZEFSAII (Michael W. Deem and Ramdas Pophale) SiO2 
 PCOD9038317
Probable space group: P -1
;
_chemical_formula_sum "Si O2"
_cell_formula_units_Z 16
_cell_length_a 11.414990
_cell_length_b 21.624126
_cell_length_c 4.970690
_cell_angle_alpha 119.283039
_cell_angle_beta 100.616584
_cell_angle_gamma 36.036949
_cell_volume 573.739216
_symmetry_space_group_name_H-M "P -1"
_symmetry_group_IT_number 2
_symmetry_cell_setting 'triclinic'
loop_
_space_group_symop_operation_xyz
x,y,z
-x,-y,-z
loop_
_atom_site_type_symbol
_atom_site_label
_atom_site_fract_x
_atom_site_fract_y
_atom_site_fract_z
Si Si1 0.985688 0.430687 0.702772
Si Si2 0.370439 0.642206 0.438150
Si Si3 0.941016 0.104884 0.562901
Si Si4 0.488453 0.705973 0.988258
Si Si5 0.399151 0.204726 0.045544
Si Si6 0.809563 0.801174 0.370992
Si Si7 0.805076 0.958209 0.968415
Si Si8 0.797804 0.351716 0.105648
O O1 0.156389 0.346195 0.347385
O O2 0.068879 0.322109 0.677273
O O3 0.727717 0.552760 0.801010
O O4 0.000000 0.500000 0.000000
O O5 0.367430 0.718036 0.744099
O O6 0.623112 0.494578 0.217055
O O7 0.267607 0.637408 0.599676
O O8 0.935310 0.904119 0.186090
O O9 0.750246 0.310870 0.792699
O O10 0.000000 0.000000 0.500000
O O11 0.062780 0.062134 0.244492
O O12 0.519020 0.769886 0.037205
O O13 0.322630 0.780012 0.320569
O O14 0.396828 0.135194 0.713375
O O15 0.559049 0.110337 0.162191
O O16 0.789947 0.883051 0.707453
O O17 0.963372 0.741465 0.053601
#
# Coordination Sequence:
#
# PCOD9038317 Si02
#       8
#     2   2   2   2   2   2   2   2
#     4  12  30  48  78 118 165 222 271 336 415 492
#     4  10  23  41  68 106 143 206 242 326 388 474
#     4  12  28  55  86 124 160 216 273 350 413 489
#     4  12  26  49  78 114 162 203 274 332 415 487
#     4  12  29  51  80 116 165 219 278 339 405 492
#     4  12  28  51  76 120 161 219 272 340 405 497
#     4  12  30  55  89 120 164 215 284 339 415 484
#     4  10  23  42  68 102 154 189 263 308 399 463
#
# _framework density 27.887232999999998
#
# number of rings (size 3 to 8) (size 9 to 14) (size 15 to 20)
#    0.000    0.500    2.500    3.375   14.000    0.500 
#    0.000    0.000    0.000    0.000    0.000    0.000 
#    0.000    0.000    0.000    0.000    0.000    0.000 
#
# Total GULP energy -89725.927245 kJ/mol
# GULP energy per Si atom -5607.870453 kJ/mol
# Density = 2.782376 g / cm^3
# Si number density = 27.887233 Si / 1000 Ang^3
#
#
#
# Elastic Constant Matrix: (Units=GPa)
#
#
# Indices 1 2 3 4 5 6 
#
# 1 172.6425 33.6232 30.7618 -14.4387 15.1793 12.3551
# 2 33.6232 137.7966 13.3622 -15.7545 -15.8161 -23.2316
# 3 30.7618 13.3622 66.0219 -19.8516 -2.1337 -5.4052
# 4 -14.4387 -15.7545 -19.8516 60.1561 1.1020 -7.3537
# 5 15.1793 -15.8161 -2.1337 1.1020 50.2937 -0.6345
# 6 12.3551 -23.2316 -5.4052 -7.3537 -0.6345 54.2519
#
#
#
# Elastic Compliance Matrix: (Units=1/GPa)
#
#
# Indices 1 2 3 4 5 6 
#
# 1 0.007330 -0.002378 -0.003380 -0.000300 -0.003136 -0.003102
# 2 -0.002378 0.009348 0.000524 0.002593 0.003686 0.004991
# 3 -0.003380 0.000524 0.018763 0.005934 0.001897 0.003690
# 4 -0.000300 0.002593 0.005934 0.019718 0.000782 0.004452
# 5 -0.003136 0.003686 0.001897 0.000782 0.022088 0.002846
# 6 -0.003102 0.004991 0.003690 0.004452 0.002846 0.022281
#
#
# Mechanical properties :
#
#
# Convention : Reuss Voigt Hill
#
# Bulk Modulus (GPa) = 40.04504 59.10613 49.57558
# Shear Modulus (GPa) = 42.25808 52.85459 47.55633
#
# Velocity S-wave (km/s) = 3.89693 4.35822 4.13402
# Velocity P-wave (km/s) = 5.88548 6.82394 6.37201
#
# Compressibility (1/GPa) = 0.02497188
#
# Stress axis : x y z
#
# Youngs Moduli (GPa) = 136.42013 106.98040 53.29655
#
# Poissons Ratio (x) = 0.25442 0.18013
# Poissons Ratio (y) = 0.32443 -0.02790
# Poissons Ratio (z) = 0.46107 -0.05601
#
# Static dielectric constant tensor:
#      x y z
#    x 2.225840 -0.005560 -0.305530 
#    y -0.005560 2.300150 0.295440 
#    z -0.305530 0.295440 4.042410 
# 
# From -- ./inp_files/82788.got.cif
#   From: 2010.05.17/outbox.cif.g08.bks.cpg/sg2_42_cif.got.tgz:82788.got - 2010.06.03 11:33:40.
