data_PCOD9038552
_publ_section_title
;
Structure prediction by ZEFSAII (Michael W. Deem and Ramdas Pophale) SiO2 
 PCOD9038552
Probable space group: P -1
;
_chemical_formula_sum "Si O2"
_cell_formula_units_Z 14
_cell_length_a 12.099594
_cell_length_b 13.371584
_cell_length_c 15.960372
_cell_angle_alpha 31.089072
_cell_angle_beta 153.166830
_cell_angle_gamma 132.141456
_cell_volume 551.683918
_symmetry_space_group_name_H-M "P -1"
_symmetry_group_IT_number 2
_symmetry_cell_setting 'triclinic'
loop_
_space_group_symop_operation_xyz
x,y,z
-x,-y,-z
loop_
_atom_site_type_symbol
_atom_site_label
_atom_site_fract_x
_atom_site_fract_y
_atom_site_fract_z
Si Si1 0.341165 0.787290 0.094711
Si Si2 0.942205 0.231353 0.575076
Si Si3 0.799768 0.934808 0.966584
Si Si4 0.398316 0.204345 0.226539
Si Si5 0.344939 0.353765 0.373541
Si Si6 0.807469 0.325136 0.084623
Si Si7 0.960504 0.626324 0.634964
O O1 0.308412 0.567403 0.244046
O O2 0.646015 0.740299 0.356811
O O3 0.313194 0.806746 0.958909
O O4 0.105594 0.988684 0.828595
O O5 0.627913 0.292474 0.322539
O O6 0.999344 0.358690 0.447227
O O7 0.056645 0.231865 0.744406
O O8 0.603198 0.155359 0.715033
O O9 0.629780 0.862087 0.839472
O O10 0.000000 0.000000 0.000000
O O11 0.500000 0.000000 0.500000
O O12 0.108681 0.376832 0.932715
O O13 0.093125 0.295920 0.258725
O O14 0.364952 0.430536 0.236270
O O15 0.871718 0.282983 0.255580
#
# Coordination Sequence:
#
# PCOD9038552 Si02
#       7
#     2   2   2   2   2   2   2
#     4  10  23  41  70  99 133 176 218 269 341 389
#     4  12  28  44  66 102 139 174 222 273 340 399
#     4  12  24  42  67  97 132 170 229 278 319 396
#     4  12  27  45  72  95 131 183 227 270 333 389
#     4   9  20  41  64 101 130 168 220 286 317 382
#     4   9  21  39  69  94 136 165 221 274 330 384
#     4  12  26  44  67 102 138 176 219 276 334 402
#
# _framework density 25.376849
#
# number of rings (size 3 to 8) (size 9 to 14) (size 15 to 20)
#    0.857    0.286    1.429    4.286    2.000    3.429 
#    0.000    0.000    0.000    0.000    0.000    0.000 
#    0.000    0.000    0.000    0.000    0.000    0.000 
#
# Total GULP energy -78278.849077 kJ/mol
# GULP energy per Si atom -5591.346363 kJ/mol
# Density = 2.531909 g / cm^3
# Si number density = 25.376849 Si / 1000 Ang^3
#
#
#
# Elastic Constant Matrix: (Units=GPa)
#
#
# Indices 1 2 3 4 5 6 
#
# 1 97.8906 4.0245 42.5854 11.2338 -18.4074 -7.9121
# 2 4.0245 46.2246 42.9343 7.3639 -5.5016 -19.9031
# 3 42.5854 42.9343 140.4771 15.4000 -14.2607 -5.9174
# 4 11.2338 7.3639 15.4000 41.7146 -20.3275 -5.3465
# 5 -18.4074 -5.5016 -14.2607 -20.3275 62.1607 12.4561
# 6 -7.9121 -19.9031 -5.9174 -5.3465 12.4561 29.1257
#
#
#
# Elastic Compliance Matrix: (Units=1/GPa)
#
#
# Indices 1 2 3 4 5 6 
#
# 1 0.013383 0.007412 -0.005754 -0.001163 0.001588 0.006639
# 2 0.007412 0.051767 -0.016774 -0.002887 -0.005161 0.035658
# 3 -0.005754 -0.016774 0.013829 -0.001124 0.001865 -0.011220
# 4 -0.001163 -0.002887 -0.001124 0.029458 0.008964 -0.000943
# 5 0.001588 -0.005161 0.001865 0.008964 0.021519 -0.010274
# 6 0.006639 0.035658 -0.011220 -0.000943 -0.010274 0.062445
#
#
# Mechanical properties :
#
#
# Convention : Reuss Voigt Hill
#
# Bulk Modulus (GPa) = 20.51399 51.52009 36.01704
# Shear Modulus (GPa) = 20.93081 39.60342 30.26711
#
# Velocity S-wave (km/s) = 2.87505 3.95474 3.45730
# Velocity P-wave (km/s) = 4.37293 6.41868 5.49190
#
# Compressibility (1/GPa) = 0.04874721
#
# Stress axis : x y z
#
# Youngs Moduli (GPa) = 74.72420 19.31724 72.30938
#
# Poissons Ratio (x) = -0.14318 0.41605
# Poissons Ratio (y) = -0.55384 1.21292
# Poissons Ratio (z) = 0.42995 0.32403
#
# Static dielectric constant tensor:
#      x y z
#    x 2.103870 -0.087490 -0.072230 
#    y -0.087490 2.060630 0.003890 
#    z -0.072230 0.003890 1.994300 
# 
# From -- ./inp_files/522293.got.cif
#   From: 2010.05.17/outbox.cif.g08.bks.cpg/sg2_262_cif.got.tgz:522293.got - 2010.06.03 11:33:40.
