data_PCOD9038482
_publ_section_title
;
Structure prediction by ZEFSAII (Michael W. Deem and Ramdas Pophale) SiO2 
 PCOD9038482
Probable space group: P -1
;
_chemical_formula_sum "Si O2"
_cell_formula_units_Z 13
_cell_length_a 5.235211
_cell_length_b 17.810571
_cell_length_c 8.013454
_cell_angle_alpha 54.579212
_cell_angle_beta 97.545168
_cell_angle_gamma 113.757397
_cell_volume 552.046027
_symmetry_space_group_name_H-M "P -1"
_symmetry_group_IT_number 2
_symmetry_cell_setting 'triclinic'
loop_
_space_group_symop_operation_xyz
x,y,z
-x,-y,-z
loop_
_atom_site_type_symbol
_atom_site_label
_atom_site_fract_x
_atom_site_fract_y
_atom_site_fract_z
Si Si1 0.864579 0.450644 0.326306
Si Si2 0.069112 0.286660 0.211629
Si Si3 0.169511 0.936086 0.023366
Si Si4 0.500000 0.500000 0.500000
Si Si5 0.669608 0.401825 0.000192
Si Si6 0.921639 0.704939 0.412629
Si Si7 0.810001 0.060487 0.374619
O O1 0.740768 0.501445 0.381363
O O2 0.747575 0.452577 0.126427
O O3 0.835920 0.339634 0.512751
O O4 0.208799 0.516129 0.244246
O O5 0.341812 0.337586 0.055939
O O6 0.839667 0.331293 0.094214
O O7 0.166463 0.310245 0.380803
O O8 0.934691 0.168189 0.333154
O O9 0.164231 0.923056 0.841407
O O10 0.040924 0.822634 0.231097
O O11 0.500000 0.000000 0.000000
O O12 0.000000 0.000000 0.000000
O O13 0.671801 0.626958 0.382638
O O14 0.500000 0.000000 0.500000
O O15 0.000000 0.000000 0.500000
#
# Coordination Sequence:
#
# PCOD9038482 Si02
#       7
#     2   2   2   1   2   2   2
#     4  10  24  42  66 102 148 196 243 304 361 455
#     4  11  23  44  72 103 144 198 250 302 368 450
#     4  12  29  52  81 112 152 197 255 321 385 451
#     4  12  24  44  68 108 154 192 246 302 386 448
#     4  10  23  41  69  99 144 194 247 291 366 438
#     4  11  26  44  73 107 152 196 247 312 384 439
#     4  12  26  49  77 109 143 193 258 319 376 449
#
# _framework density 23.548762
#
# number of rings (size 3 to 8) (size 9 to 14) (size 15 to 20)
#    0.000    0.923    1.538    4.154    6.462    3.077 
#    0.000    0.000    0.000    0.000    0.000    0.000 
#    0.000    0.000    0.000    0.000    0.000    0.000 
#
# Total GULP energy -72647.232705 kJ/mol
# GULP energy per Si atom -5588.248670 kJ/mol
# Density = 2.349516 g / cm^3
# Si number density = 23.548762 Si / 1000 Ang^3
#
#
#
# Elastic Constant Matrix: (Units=GPa)
#
#
# Indices 1 2 3 4 5 6 
#
# 1 166.9378 62.3370 68.0669 -24.3091 -35.1908 -33.8715
# 2 62.3370 170.3115 57.2877 -29.1230 -15.1594 -26.2383
# 3 68.0669 57.2877 159.0016 -24.7313 -15.6519 -25.3125
# 4 -24.3091 -29.1230 -24.7313 57.2828 -5.1369 0.0385
# 5 -35.1908 -15.1594 -15.6519 -5.1369 41.2968 -0.5345
# 6 -33.8715 -26.2383 -25.3125 0.0385 -0.5345 42.7219
#
#
#
# Elastic Compliance Matrix: (Units=1/GPa)
#
#
# Indices 1 2 3 4 5 6 
#
# 1 0.011017 -0.000772 -0.001690 0.004364 0.009103 0.007369
# 2 -0.000772 0.007877 -0.001201 0.003357 0.002242 0.003539
# 3 -0.001690 -0.001201 0.008466 0.002475 0.001674 0.002957
# 4 0.004364 0.003357 0.002475 0.022872 0.008826 0.007078
# 5 0.009103 0.002242 0.001674 0.008826 0.034656 0.010011
# 6 0.007369 0.003539 0.002957 0.007078 0.010011 0.033294
#
#
# Mechanical properties :
#
#
# Convention : Reuss Voigt Hill
#
# Bulk Modulus (GPa) = 49.91699 96.84824 73.38261
# Shear Modulus (GPa) = 37.82506 48.83094 43.32800
#
# Velocity S-wave (km/s) = 4.01215 4.55863 4.29409
# Velocity P-wave (km/s) = 6.53501 8.30205 7.47096
#
# Compressibility (1/GPa) = 0.02003326
#
# Stress axis : x y z
#
# Youngs Moduli (GPa) = 90.76614 126.95049 118.11790
#
# Poissons Ratio (x) = 0.09803 0.19963
# Poissons Ratio (y) = 0.07009 0.14190
# Poissons Ratio (z) = 0.15341 0.15251
#
# Static dielectric constant tensor:
#      x y z
#    x 1.788330 -0.166220 0.016920 
#    y -0.166220 0.405530 1.018160 
#    z 0.016920 1.018160 0.946860 
# 
# From -- ./inp_files/133942.got.cif
#   From: 2010.05.17/outbox.cif.g08.bks.cpg/sg2_67_cif.got.tgz:133942.got - 2010.06.03 11:33:40.
