data_PCOD9038223
_publ_section_title
;
Structure prediction by ZEFSAII (Michael W. Deem and Ramdas Pophale) SiO2 
 PCOD9038223
Probable space group: P -1
;
_chemical_formula_sum "Si O2"
_cell_formula_units_Z 16
_cell_length_a 8.354106
_cell_length_b 11.362623
_cell_length_c 9.001189
_cell_angle_alpha 55.917658
_cell_angle_beta 68.520335
_cell_angle_gamma 69.447111
_cell_volume 646.617736
_symmetry_space_group_name_H-M "P -1"
_symmetry_group_IT_number 2
_symmetry_cell_setting 'triclinic'
loop_
_space_group_symop_operation_xyz
x,y,z
-x,-y,-z
loop_
_atom_site_type_symbol
_atom_site_label
_atom_site_fract_x
_atom_site_fract_y
_atom_site_fract_z
Si Si1 0.898378 0.166122 0.075343
Si Si2 0.110318 0.598342 0.487817
Si Si3 0.571500 0.548177 0.697216
Si Si4 0.872443 0.617457 0.122319
Si Si5 0.570761 0.066630 0.284704
Si Si6 0.667277 0.639363 0.911685
Si Si7 0.167459 0.889396 0.206673
Si Si8 0.545883 0.798496 0.290648
O O1 0.726823 0.144293 0.234149
O O2 0.843695 0.131061 0.952041
O O3 0.062328 0.049704 0.158963
O O4 0.955298 0.318979 0.945481
O O5 0.299277 0.567003 0.364764
O O6 0.125305 0.533151 0.691707
O O7 0.056813 0.770223 0.386656
O O8 0.000000 0.500000 0.500000
O O9 0.434222 0.467382 0.884233
O O10 0.513352 0.681999 0.509966
O O11 0.674643 0.601372 0.762962
O O12 0.844258 0.624697 0.952223
O O13 0.702548 0.719099 0.187328
O O14 0.500000 0.000000 0.500000
O O15 0.612932 0.931542 0.253461
O O16 0.435806 0.196117 0.163639
O O17 0.362854 0.858975 0.227170
#
# Coordination Sequence:
#
# PCOD9038223 Si02
#       8
#     2   2   2   2   2   2   2   2
#     4  11  24  40  63  99 131 162 215 269 321 372
#     4  11  22  39  65  97 132 166 205 263 328 368
#     4  10  23  41  67  94 130 170 214 262 315 387
#     4  11  23  41  69 100 125 167 217 268 316 384
#     4  12  25  43  66  89 131 177 209 261 325 382
#     4  11  23  43  68  92 128 171 218 260 317 378
#     4  11  22  39  67  99 129 164 211 274 311 377
#     4  11  22  42  68  98 127 167 219 262 319 381
#
# _framework density 24.744140000000002
#
# number of rings (size 3 to 8) (size 9 to 14) (size 15 to 20)
#    0.000    1.000    2.500    5.250    1.750    3.500 
#    0.000    4.375    0.000    0.000    0.000    0.000 
#    0.000    0.000    0.000    0.000    0.000    0.000 
#
# Total GULP energy -89636.288709 kJ/mol
# GULP energy per Si atom -5602.268044 kJ/mol
# Density = 2.468782 g / cm^3
# Si number density = 24.744140 Si / 1000 Ang^3
#
#
#
# Elastic Constant Matrix: (Units=GPa)
#
#
# Indices 1 2 3 4 5 6 
#
# 1 95.7422 -3.2593 53.9324 2.6560 4.8248 1.7790
# 2 -3.2593 65.6823 32.9692 -5.2730 6.1971 1.0304
# 3 53.9324 32.9692 153.5075 -14.6510 4.1871 -5.9941
# 4 2.6560 -5.2730 -14.6510 48.0574 2.5548 2.7497
# 5 4.8248 6.1971 4.1871 2.5548 40.3846 -6.2497
# 6 1.7790 1.0304 -5.9941 2.7497 -6.2497 33.1267
#
#
#
# Elastic Compliance Matrix: (Units=1/GPa)
#
#
# Indices 1 2 3 4 5 6 
#
# 1 0.014139 0.003762 -0.005997 -0.001976 -0.001852 -0.002147
# 2 0.003762 0.018412 -0.005233 0.000518 -0.003129 -0.002355
# 3 -0.005997 -0.005233 0.010068 0.002666 0.000649 0.002208
# 4 -0.001976 0.000518 0.002666 0.021971 -0.001755 -0.001582
# 5 -0.001852 -0.003129 0.000649 -0.001755 0.026348 0.005431
# 6 -0.002147 -0.002355 0.002208 -0.001582 0.005431 0.031931
#
#
# Mechanical properties :
#
#
# Convention : Reuss Voigt Hill
#
# Bulk Modulus (GPa) = 36.12461 53.57963 44.85212
# Shear Modulus (GPa) = 34.00571 39.73306 36.86938
#
# Velocity S-wave (km/s) = 3.71117 4.01154 3.86427
# Velocity P-wave (km/s) = 5.74410 6.56940 6.17056
#
# Compressibility (1/GPa) = 0.02768196
#
# Stress axis : x y z
#
# Youngs Moduli (GPa) = 70.72543 54.31218 99.32128
#
# Poissons Ratio (x) = -0.20431 0.59567
# Poissons Ratio (y) = -0.26605 0.51977
# Poissons Ratio (z) = 0.42417 0.28423
#
# Static dielectric constant tensor:
#      x y z
#    x 2.023150 -0.013610 -0.028190 
#    y -0.013610 1.981870 0.015570 
#    z -0.028190 0.015570 1.920350 
# 
# From -- ./inp_files/184078.got.cif
#   From: 2010.05.17/outbox.cif.g08.bks.cpg/sg2_93_cif.got.tgz:184078.got - 2010.06.03 11:33:40.
