data_PCOD9038564
_publ_section_title
;
Structure prediction by ZEFSAII (Michael W. Deem and Ramdas Pophale) SiO2 
 PCOD9038564
Probable space group: P -1
;
_chemical_formula_sum "Si O2"
_cell_formula_units_Z 16
_cell_length_a 11.010059
_cell_length_b 18.984659
_cell_length_c 16.600461
_cell_angle_alpha 31.602901
_cell_angle_beta 142.510125
_cell_angle_gamma 158.985925
_cell_volume 652.017553
_symmetry_space_group_name_H-M "P -1"
_symmetry_group_IT_number 2
_symmetry_cell_setting 'triclinic'
loop_
_space_group_symop_operation_xyz
x,y,z
-x,-y,-z
loop_
_atom_site_type_symbol
_atom_site_label
_atom_site_fract_x
_atom_site_fract_y
_atom_site_fract_z
Si Si1 0.462551 0.434195 0.773224
Si Si2 0.763536 0.109866 0.460683
Si Si3 0.381687 0.198442 0.541537
Si Si4 0.726704 0.150848 0.219755
Si Si5 0.691276 0.692236 0.010353
Si Si6 0.579900 0.333349 0.256549
Si Si7 0.418072 0.169104 0.906457
Si Si8 0.732604 0.419406 0.667526
O O1 0.397924 0.559005 0.615302
O O2 0.310588 0.285458 0.917745
O O3 0.339554 0.280410 0.782352
O O4 0.870819 0.644560 0.783126
O O5 0.689542 0.139992 0.307009
O O6 0.118695 0.358480 0.438256
O O7 0.500000 0.000000 0.500000
O O8 0.688812 0.911486 0.605197
O O9 0.422736 0.251263 0.606487
O O10 0.469072 0.091699 0.673392
O O11 0.000000 0.000000 0.500000
O O12 0.600656 0.201469 0.047493
O O13 0.543768 0.463279 0.144147
O O14 0.489632 0.688489 0.854283
O O15 0.068939 0.902152 0.970509
O O16 0.958225 0.480982 0.316186
O O17 0.636358 0.285983 0.826976
#
# Coordination Sequence:
#
# PCOD9038564 Si02
#       8
#     2   2   2   2   2   2   2   2
#     4  11  24  43  66  98 143 183 226 286 349 415
#     4  10  23  41  71 101 136 179 231 291 336 407
#     4  10  25  44  70 104 140 180 229 293 346 416
#     4  11  23  45  71 101 139 186 238 281 345 415
#     4  11  25  41  65 100 148 180 230 288 352 409
#     4  10  24  45  68 101 139 189 232 288 342 416
#     4  12  26  41  73 105 139 186 233 292 345 418
#     4  11  24  46  74 102 136 186 240 280 350 416
#
# _framework density 24.539216
#
# number of rings (size 3 to 8) (size 9 to 14) (size 15 to 20)
#    0.000    1.250    1.250    3.000    5.250   10.500 
#    0.000    4.375    0.000    0.000    0.000    0.000 
#    0.000    0.000    0.000    0.000    0.000    0.000 
#
# Total GULP energy -89516.583513 kJ/mol
# GULP energy per Si atom -5594.786470 kJ/mol
# Density = 2.448336 g / cm^3
# Si number density = 24.539216 Si / 1000 Ang^3
#
#
#
# Elastic Constant Matrix: (Units=GPa)
#
#
# Indices 1 2 3 4 5 6 
#
# 1 70.0913 32.5355 30.8073 -2.1430 -19.3596 -15.6653
# 2 32.5355 97.2984 50.9674 -0.1313 -8.1433 -18.6482
# 3 30.8073 50.9674 125.0583 4.9207 -15.1221 -14.4257
# 4 -2.1430 -0.1313 4.9207 17.9172 -10.7243 -6.0911
# 5 -19.3596 -8.1433 -15.1221 -10.7243 46.1807 -5.7618
# 6 -15.6653 -18.6482 -14.4257 -6.0911 -5.7618 41.9383
#
#
#
# Elastic Compliance Matrix: (Units=1/GPa)
#
#
# Indices 1 2 3 4 5 6 
#
# 1 0.023210 -0.003593 -0.002057 0.014663 0.013113 0.010296
# 2 -0.003593 0.014792 -0.004689 0.002811 0.000735 0.004132
# 3 -0.002057 -0.004689 0.010755 -0.002129 0.001430 0.000734
# 4 0.014663 0.002811 -0.002129 0.082165 0.027739 0.021740
# 5 0.013113 0.000735 0.001430 0.027739 0.036024 0.014695
# 6 0.010296 0.004132 0.000734 0.021740 0.014695 0.034956
#
#
# Mechanical properties :
#
#
# Convention : Reuss Voigt Hill
#
# Bulk Modulus (GPa) = 35.61227 57.89650 46.75438
# Shear Modulus (GPa) = 21.55720 33.08308 27.32014
#
# Velocity S-wave (km/s) = 2.96713 3.67573 3.34027
# Velocity P-wave (km/s) = 5.12663 6.45440 5.82845
#
# Compressibility (1/GPa) = 0.02808021
#
# Stress axis : x y z
#
# Youngs Moduli (GPa) = 43.08411 67.60214 92.97900
#
# Poissons Ratio (x) = 0.24291 0.19126
# Poissons Ratio (y) = 0.15481 0.43594
# Poissons Ratio (z) = 0.08863 0.31696
#
# Static dielectric constant tensor:
#      x y z
#    x 1.949040 -0.020190 0.055880 
#    y -0.020190 1.951820 0.023720 
#    z 0.055880 0.023720 1.971230 
# 
# From -- ./inp_files/570737.got.cif
#   From: 2010.05.17/outbox.cif.g08.bks.cpg/sg2_286_cif.got.tgz:570737.got - 2010.06.03 11:33:40.
