data_PCOD9038621
_publ_section_title
;
Structure prediction by ZEFSAII (Michael W. Deem and Ramdas Pophale) SiO2 
 PCOD9038621
Probable space group: P -1
;
_chemical_formula_sum "Si O2"
_cell_formula_units_Z 12
_cell_length_a 10.278039
_cell_length_b 9.478038
_cell_length_c 11.025016
_cell_angle_alpha 118.195256
_cell_angle_beta 140.449036
_cell_angle_gamma 89.699718
_cell_volume 463.226287
_symmetry_space_group_name_H-M "P -1"
_symmetry_group_IT_number 2
_symmetry_cell_setting 'triclinic'
loop_
_space_group_symop_operation_xyz
x,y,z
-x,-y,-z
loop_
_atom_site_type_symbol
_atom_site_label
_atom_site_fract_x
_atom_site_fract_y
_atom_site_fract_z
Si Si1 0.532383 0.336506 0.413311
Si Si2 0.995970 0.980670 0.198990
Si Si3 0.861203 0.200480 0.355837
Si Si4 0.612027 0.379115 0.204297
Si Si5 0.576140 0.224760 0.643610
Si Si6 0.110733 0.348800 0.840973
O O1 0.500000 0.500000 0.500000
O O2 0.640495 0.402030 0.380937
O O3 0.673536 0.316504 0.615862
O O4 0.238062 0.111704 0.102437
O O5 0.971577 0.786486 0.150618
O O6 0.904903 0.047793 0.270944
O O7 0.289687 0.164066 0.440450
O O8 0.135019 0.424750 0.602436
O O9 0.631802 0.195783 0.127080
O O10 0.881978 0.216897 0.522621
O O11 0.360198 0.361142 0.981644
O O12 0.772815 0.415040 0.955023
O O13 0.500000 0.000000 0.500000
#
# Coordination Sequence:
#
# PCOD9038621 Si02
#       6
#     2   2   2   2   2   2
#     4  11  22  46  69  94 143 179 229 286 335 412
#     4  11  24  44  71 100 132 187 226 282 350 403
#     4  11  23  43  71 106 135 177 236 279 350 412
#     4  10  23  41  72 100 135 186 222 282 346 399
#     4  12  27  44  69 105 135 184 233 279 351 409
#     4  11  24  46  69 100 148 173 223 302 329 413
#
# _framework density 25.905265
#
# number of rings (size 3 to 8) (size 9 to 14) (size 15 to 20)
#    0.000    1.000    5.000    1.500    2.333    7.333 
#    0.000    0.000    0.000    0.000    0.000    0.000 
#    0.000    0.000    0.000    0.000    0.000    0.000 
#
# Total GULP energy -67107.217601 kJ/mol
# GULP energy per Si atom -5592.268133 kJ/mol
# Density = 2.584630 g / cm^3
# Si number density = 25.905265 Si / 1000 Ang^3
#
#
#
# Elastic Constant Matrix: (Units=GPa)
#
#
# Indices 1 2 3 4 5 6 
#
# 1 78.4038 1.2914 11.5549 -3.6498 -8.4699 1.4239
# 2 1.2914 118.5422 13.4401 12.0748 -27.2924 -27.4429
# 3 11.5549 13.4401 108.6920 -1.9985 -27.5020 -17.4090
# 4 -3.6498 12.0748 -1.9985 51.2493 -6.7076 -4.4799
# 5 -8.4699 -27.2924 -27.5020 -6.7076 55.7356 7.1945
# 6 1.4239 -27.4429 -17.4090 -4.4799 7.1945 43.8810
#
#
#
# Elastic Compliance Matrix: (Units=1/GPa)
#
#
# Indices 1 2 3 4 5 6 
#
# 1 0.013171 0.000039 -0.001113 0.001022 0.001726 -0.001023
# 2 0.000039 0.011060 0.000843 -0.001383 0.004856 0.006313
# 3 -0.001113 0.000843 0.011293 0.001245 0.005413 0.004283
# 4 0.001022 -0.001383 0.001245 0.020384 0.002380 0.001287
# 5 0.001726 0.004856 0.005413 0.002380 0.023340 0.001545
# 6 -0.001023 0.006313 0.004283 0.001287 0.001545 0.028347
#
#
# Mechanical properties :
#
#
# Convention : Reuss Voigt Hill
#
# Bulk Modulus (GPa) = 28.52169 39.80120 34.16145
# Shear Modulus (GPa) = 41.75559 48.79663 45.27611
#
# Velocity S-wave (km/s) = 4.01915 4.34482 4.18515
# Velocity P-wave (km/s) = 5.70719 6.36926 6.04729
#
# Compressibility (1/GPa) = 0.03506103
#
# Stress axis : x y z
#
# Youngs Moduli (GPa) = 75.92688 90.41422 88.55076
#
# Poissons Ratio (x) = -0.00355 0.09858
# Poissons Ratio (y) = -0.00298 -0.07462
# Poissons Ratio (z) = 0.08453 -0.07619
#
# Static dielectric constant tensor:
#      x y z
#    x 2.111450 -0.076680 0.064100 
#    y -0.076680 2.035450 -0.004690 
#    z 0.064100 -0.004690 2.072440 
# 
# From -- ./inp_files/246637.got.cif
#   From: 2010.05.17/outbox.cif.g08.bks.cpg/sg2_124_cif.got.tgz:246637.got - 2010.06.03 11:33:40.
