data_PCOD9038755
_publ_section_title
;
Structure prediction by ZEFSAII (Michael W. Deem and Ramdas Pophale) SiO2 
 PCOD9038755
Probable space group: P -1
;
_chemical_formula_sum "Si O2"
_cell_formula_units_Z 16
_cell_length_a 9.234307
_cell_length_b 25.812186
_cell_length_c 26.146583
_cell_angle_alpha 10.932997
_cell_angle_beta 141.397539
_cell_angle_gamma 141.286704
_cell_volume 733.025490
_symmetry_space_group_name_H-M "P -1"
_symmetry_group_IT_number 2
_symmetry_cell_setting 'triclinic'
loop_
_space_group_symop_operation_xyz
x,y,z
-x,-y,-z
loop_
_atom_site_type_symbol
_atom_site_label
_atom_site_fract_x
_atom_site_fract_y
_atom_site_fract_z
Si Si1 0.573127 0.215727 0.078498
Si Si2 0.352302 0.714544 0.724714
Si Si3 0.433180 0.149492 0.701356
Si Si4 0.238161 0.324170 0.743455
Si Si5 0.743083 0.512570 0.193223
Si Si6 0.915508 0.959405 0.931451
Si Si7 0.961236 0.936581 0.246235
Si Si8 0.178603 0.257637 0.421000
O O1 0.464892 0.363061 0.954089
O O2 0.682583 0.460893 0.834368
O O3 0.348171 0.029813 0.172184
O O4 0.759375 0.998365 0.348592
O O5 0.330142 0.645900 0.725029
O O6 0.093183 0.710235 0.680483
O O7 0.500000 0.000000 0.500000
O O8 0.500000 0.500000 0.000000
O O9 0.640805 0.391309 0.518976
O O10 0.267000 0.181328 0.575914
O O11 0.278587 0.165041 0.693915
O O12 0.554257 0.871391 0.006184
O O13 0.125915 0.311095 0.782022
O O14 0.045777 0.181171 0.790356
O O15 0.869363 0.302839 0.467118
O O16 0.922993 0.781165 0.969223
O O17 0.061296 0.976512 0.903121
#
# Coordination Sequence:
#
# PCOD9038755 Si02
#       8
#     2   2   2   2   2   2   2   2
#     4  11  23  42  70  97 133 182 231 275 319 401
#     4  12  27  47  73 104 138 171 212 275 350 414
#     4  12  23  41  64  97 132 182 233 286 334 399
#     4  11  25  38  64  93 143 181 232 289 342 391
#     4  11  24  44  70 104 134 178 227 277 335 415
#     4  10  23  42  60  99 136 187 228 286 340 390
#     4  11  24  40  70  95 137 182 238 282 333 398
#     4  12  23  43  69 100 130 175 228 271 334 407
#
# _framework density 21.827345000000001
#
# number of rings (size 3 to 8) (size 9 to 14) (size 15 to 20)
#    0.000    0.750    3.750    3.750    1.750    6.000 
#    0.000    3.750    0.000    0.000    0.000    0.000 
#    0.000    0.000    0.000    0.000    0.000    0.000 
#
# Total GULP energy -89469.819998 kJ/mol
# GULP energy per Si atom -5591.863750 kJ/mol
# Density = 2.177767 g / cm^3
# Si number density = 21.827345 Si / 1000 Ang^3
#
#
#
# Elastic Constant Matrix: (Units=GPa)
#
#
# Indices 1 2 3 4 5 6 
#
# 1 164.8376 51.4300 43.3402 1.4426 -6.6481 9.0665
# 2 51.4300 75.4962 38.8606 -6.7951 4.5353 8.6316
# 3 43.3402 38.8606 113.7826 2.5323 13.7982 14.4047
# 4 1.4426 -6.7951 2.5323 30.5302 8.1672 5.8234
# 5 -6.6481 4.5353 13.7982 8.1672 35.2907 0.4208
# 6 9.0665 8.6316 14.4047 5.8234 0.4208 34.2846
#
#
#
# Elastic Compliance Matrix: (Units=1/GPa)
#
#
# Indices 1 2 3 4 5 6 
#
# 1 0.008303 -0.005182 -0.001789 -0.002369 0.003475 0.000221
# 2 -0.005182 0.020094 -0.004249 0.006540 -0.003375 -0.002973
# 3 -0.001789 -0.004249 0.011884 -0.000025 -0.004391 -0.003392
# 4 -0.002369 0.006540 -0.000025 0.038436 -0.010084 -0.007414
# 5 0.003475 -0.003375 -0.004391 -0.010084 0.033438 0.003078
# 6 0.000221 -0.002973 -0.003392 -0.007414 0.003078 0.032504
#
#
# Mechanical properties :
#
#
# Convention : Reuss Voigt Hill
#
# Bulk Modulus (GPa) = 56.05322 69.04200 62.54761
# Shear Modulus (GPa) = 28.89397 34.72013 31.80705
#
# Velocity S-wave (km/s) = 3.64229 3.99265 3.82148
# Velocity P-wave (km/s) = 6.58972 7.27699 6.94186
#
# Compressibility (1/GPa) = 0.01784019
#
# Stress axis : x y z
#
# Youngs Moduli (GPa) = 120.44348 49.76550 84.14809
#
# Poissons Ratio (x) = 0.25790 0.15056
# Poissons Ratio (y) = 0.62416 0.35753
# Poissons Ratio (z) = 0.21550 0.21144
#
# Static dielectric constant tensor:
#      x y z
#    x 1.824530 -0.016010 0.022050 
#    y -0.016010 1.788700 0.009830 
#    z 0.022050 0.009830 1.805150 
# 
# From -- ./inp_files/617681.got.cif
#   From: 2010.05.17/outbox.cif.g08.bks.cpg/sg2_309_cif.got.tgz:617681.got - 2010.06.03 11:33:40.
