data_PCOD9038906
_publ_section_title
;
Structure prediction by ZEFSAII (Michael W. Deem and Ramdas Pophale) SiO2 
 PCOD9038906
Probable space group: P -1
;
_chemical_formula_sum "Si O2"
_cell_formula_units_Z 16
_cell_length_a 29.241736
_cell_length_b 22.639613
_cell_length_c 17.795029
_cell_angle_alpha 21.150547
_cell_angle_beta 159.169668
_cell_angle_gamma 168.893558
_cell_volume 786.043810
_symmetry_space_group_name_H-M "P -1"
_symmetry_group_IT_number 2
_symmetry_cell_setting 'triclinic'
loop_
_space_group_symop_operation_xyz
x,y,z
-x,-y,-z
loop_
_atom_site_type_symbol
_atom_site_label
_atom_site_fract_x
_atom_site_fract_y
_atom_site_fract_z
Si Si1 0.723728 0.653394 0.506979
Si Si2 0.239110 0.631309 0.518510
Si Si3 0.989520 0.201794 0.504008
Si Si4 0.288779 0.401232 0.128521
Si Si5 0.282099 0.350206 0.007143
Si Si6 0.579044 0.363143 0.465095
Si Si7 0.233038 0.686802 0.764664
Si Si8 0.475270 0.810226 0.139566
O O1 0.550748 0.619375 0.304868
O O2 0.609555 0.439753 0.510273
O O3 0.716100 0.519435 0.722969
O O4 0.000000 0.000000 0.500000
O O5 0.135794 0.483250 0.451452
O O6 0.288147 0.505456 0.776354
O O7 0.015395 0.487240 0.386261
O O8 0.500000 0.000000 0.500000
O O9 0.164534 0.362417 0.511006
O O10 0.902410 0.945826 0.722154
O O11 0.738589 0.007905 0.316809
O O12 0.358936 0.480024 0.055082
O O13 0.185980 0.470763 0.902054
O O14 0.430768 0.350621 0.214127
O O15 0.000000 0.000000 0.000000
O O16 0.419064 0.023574 0.616048
O O17 0.376641 0.762614 0.965451
O O18 0.500000 0.000000 0.000000
#
# Coordination Sequence:
#
# PCOD9038906 Si02
#       8
#     2   2   2   2   2   2   2   2
#     4  10  23  42  64  95 131 175 217 260 331 388
#     4  12  27  44  69  99 131 173 225 274 327 390
#     4  11  25  45  65 102 133 173 222 263 338 390
#     4  10  25  42  67  97 132 171 219 270 322 396
#     4  11  22  48  68  85 134 179 213 270 328 380
#     4  11  25  42  67  97 132 173 219 270 323 395
#     4  12  25  44  67 102 131 174 225 265 333 388
#     4  11  22  44  71  89 139 178 208 277 321 391
#
# _framework density 20.355098999999999
#
# number of rings (size 3 to 8) (size 9 to 14) (size 15 to 20)
#    0.000    1.000    5.000    0.750    7.000    5.500 
#    0.000    0.000    0.000    0.000    0.000    0.000 
#    0.000    0.000    0.000    0.000    0.000    0.000 
#
# Total GULP energy -89243.743227 kJ/mol
# GULP energy per Si atom -5577.733952 kJ/mol
# Density = 2.030877 g / cm^3
# Si number density = 20.355099 Si / 1000 Ang^3
#
#
#
# Elastic Constant Matrix: (Units=GPa)
#
#
# Indices 1 2 3 4 5 6 
#
# 1 32.0872 7.7829 18.4687 2.1919 9.4970 16.6439
# 2 7.7829 119.5075 50.3795 -2.5706 6.2806 15.7810
# 3 18.4687 50.3795 134.4645 1.9898 8.0338 16.1743
# 4 2.1919 -2.5706 1.9898 17.2487 -1.3215 2.9570
# 5 9.4970 6.2806 8.0338 -1.3215 34.2967 3.5670
# 6 16.6439 15.7810 16.1743 2.9570 3.5670 31.2615
#
#
#
# Elastic Compliance Matrix: (Units=1/GPa)
#
#
# Indices 1 2 3 4 5 6 
#
# 1 0.048279 0.002108 -0.003957 -0.002170 -0.010486 -0.023319
# 2 0.002108 0.010483 -0.003630 0.002426 -0.001077 -0.004642
# 3 -0.003957 -0.003630 0.009479 -0.001023 -0.000414 -0.000821
# 4 -0.002170 0.002426 -0.001023 0.059940 0.003287 -0.005585
# 5 -0.010486 -0.001077 -0.000414 0.003287 0.032237 0.002351
# 6 -0.023319 -0.004642 -0.000821 -0.005585 0.002351 0.047432
#
#
# Mechanical properties :
#
#
# Convention : Reuss Voigt Hill
#
# Bulk Modulus (GPa) = 17.45763 48.81348 33.13555
# Shear Modulus (GPa) = 21.01699 30.52325 25.77012
#
# Velocity S-wave (km/s) = 3.21677 3.87659 3.56199
# Velocity P-wave (km/s) = 4.73201 6.63854 5.76464
#
# Compressibility (1/GPa) = 0.05728154
#
# Stress axis : x y z
#
# Youngs Moduli (GPa) = 20.71288 95.39695 105.49466
#
# Poissons Ratio (x) = -0.20107 0.41747
# Poissons Ratio (y) = -0.04366 0.38296
# Poissons Ratio (z) = 0.08197 0.34630
#
# Static dielectric constant tensor:
#      x y z
#    x 1.667630 -0.039310 -0.014680 
#    y -0.039310 1.722930 0.021320 
#    z -0.014680 0.021320 1.703200 
# 
# From -- ./inp_files/205834.got.cif
#   From: 2010.05.17/outbox.cif.g08.bks.cpg/sg2_103_cif.got.tgz:205834.got - 2010.06.03 11:33:40.
