data_PCOD9038971
_publ_section_title
;
Structure prediction by ZEFSAII (Michael W. Deem and Ramdas Pophale) SiO2 
 PCOD9038971
Probable space group: P -1
;
_chemical_formula_sum "Si O2"
_cell_formula_units_Z 16
_cell_length_a 14.900709
_cell_length_b 12.551118
_cell_length_c 8.971245
_cell_angle_alpha 113.925870
_cell_angle_beta 126.353717
_cell_angle_gamma 109.350203
_cell_volume 778.067429
_symmetry_space_group_name_H-M "P -1"
_symmetry_group_IT_number 2
_symmetry_cell_setting 'triclinic'
loop_
_space_group_symop_operation_xyz
x,y,z
-x,-y,-z
loop_
_atom_site_type_symbol
_atom_site_label
_atom_site_fract_x
_atom_site_fract_y
_atom_site_fract_z
Si Si1 0.193785 0.640267 0.334186
Si Si2 0.174311 0.599849 0.641889
Si Si3 0.336434 0.496585 0.361341
Si Si4 0.703202 0.806133 0.415343
Si Si5 0.059806 0.082209 0.770177
Si Si6 0.658706 0.505366 0.282874
Si Si7 0.687310 0.870906 0.776704
Si Si8 0.467393 0.997464 0.292767
O O1 0.181402 0.645022 0.502360
O O2 0.248921 0.552725 0.303344
O O3 0.347538 0.842056 0.523277
O O4 0.000000 0.500000 0.000000
O O5 0.199152 0.480362 0.598742
O O6 0.000000 0.500000 0.500000
O O7 0.343686 0.795288 0.996067
O O8 0.357317 0.486981 0.551732
O O9 0.524431 0.663306 0.563052
O O10 0.211512 0.302866 0.048044
O O11 0.707790 0.668972 0.353770
O O12 0.694720 0.853206 0.597974
O O13 0.528714 0.688959 0.079853
O O14 0.886547 0.992279 0.628453
O O15 0.140466 0.038693 0.917940
O O16 0.000000 0.000000 0.500000
O O17 0.638024 0.965621 0.809474
O O18 0.500000 0.000000 0.500000
#
# Coordination Sequence:
#
# PCOD9038971 Si02
#       8
#     2   2   2   2   2   2   2   2
#     4  10  23  43  66  95 126 173 220 268 322 385
#     4  11  24  41  68  95 132 172 220 269 323 382
#     4  10  23  43  65  90 130 168 207 266 322 387
#     4  11  24  40  66  94 128 165 215 261 316 390
#     4  12  26  40  62  97 129 167 214 262 323 381
#     4  10  23  42  65  91 129 171 212 258 327 375
#     4  11  24  42  68  93 131 169 214 262 326 386
#     4  11  24  43  66  98 132 171 218 273 327 386
#
# _framework density 20.563770999999999
#
# number of rings (size 3 to 8) (size 9 to 14) (size 15 to 20)
#    0.000    1.250    1.250    3.375    5.250    5.000 
#    0.000    0.000    0.000    0.000    0.000    0.000 
#    0.000    0.000    0.000    0.000    0.000    0.000 
#
# Total GULP energy -89501.660150 kJ/mol
# GULP energy per Si atom -5593.853759 kJ/mol
# Density = 2.051697 g / cm^3
# Si number density = 20.563771 Si / 1000 Ang^3
#
#
#
# Elastic Constant Matrix: (Units=GPa)
#
#
# Indices 1 2 3 4 5 6 
#
# 1 117.2363 20.2311 39.6172 0.4310 2.4264 21.9987
# 2 20.2311 46.5465 18.9023 2.9378 -0.4379 9.8688
# 3 39.6172 18.9023 108.0828 -18.4400 -10.6669 18.1247
# 4 0.4310 2.9378 -18.4400 32.4151 4.8167 -3.9794
# 5 2.4264 -0.4379 -10.6669 4.8167 42.1134 2.3611
# 6 21.9987 9.8688 18.1247 -3.9794 2.3611 26.0429
#
#
#
# Elastic Compliance Matrix: (Units=1/GPa)
#
#
# Indices 1 2 3 4 5 6 
#
# 1 0.011246 -0.002018 -0.003115 -0.002465 -0.000791 -0.006871
# 2 -0.002018 0.025441 -0.003473 -0.005098 0.000439 -0.006338
# 3 -0.003115 -0.003473 0.013217 0.006888 0.002954 -0.004466
# 4 -0.002465 -0.005098 0.006888 0.036262 -0.002594 0.004997
# 5 -0.000791 0.000439 0.002954 -0.002594 0.025077 -0.004224
# 6 -0.006871 -0.006338 -0.004466 0.004997 -0.004224 0.050859
#
#
# Mechanical properties :
#
#
# Convention : Reuss Voigt Hill
#
# Bulk Modulus (GPa) = 30.58964 47.70744 39.14854
# Shear Modulus (GPa) = 26.28655 32.98862 29.63758
#
# Velocity S-wave (km/s) = 3.57920 4.00960 3.80050
# Velocity P-wave (km/s) = 5.65586 6.68476 6.19172
#
# Compressibility (1/GPa) = 0.03269080
#
# Stress axis : x y z
#
# Youngs Moduli (GPa) = 88.92399 39.30660 75.65938
#
# Poissons Ratio (x) = 0.07931 0.23571
# Poissons Ratio (y) = 0.17941 0.26279
# Poissons Ratio (z) = 0.27704 0.13653
#
# Static dielectric constant tensor:
#      x y z
#    x 1.670710 -0.041940 0.038590 
#    y -0.041940 1.738380 -0.009640 
#    z 0.038590 -0.009640 1.688930 
# 
# From -- ./inp_files/184860.got.cif
#   From: 2010.05.17/outbox.cif.g08.bks.cpg/sg2_93_cif.got.tgz:184860.got - 2010.06.03 11:33:40.
