data_PCOD9038414
_publ_section_title
;
Structure prediction by ZEFSAII (Michael W. Deem and Ramdas Pophale) SiO2 
 PCOD9038414
Probable space group: P -1
;
_chemical_formula_sum "Si O2"
_cell_formula_units_Z 13
_cell_length_a 6.706079
_cell_length_b 16.194053
_cell_length_c 15.315671
_cell_angle_alpha 31.997307
_cell_angle_beta 130.307281
_cell_angle_gamma 136.684729
_cell_volume 602.561256
_symmetry_space_group_name_H-M "P -1"
_symmetry_group_IT_number 2
_symmetry_cell_setting 'triclinic'
loop_
_space_group_symop_operation_xyz
x,y,z
-x,-y,-z
loop_
_atom_site_type_symbol
_atom_site_label
_atom_site_fract_x
_atom_site_fract_y
_atom_site_fract_z
Si Si1 0.803690 0.587914 0.827578
Si Si2 0.000000 0.000000 0.500000
Si Si3 0.245411 0.057676 0.091552
Si Si4 0.823659 0.775424 0.333339
Si Si5 0.215231 0.341707 0.953894
Si Si6 0.831381 0.049321 0.220903
Si Si7 0.277222 0.531067 0.288940
O O1 0.516108 0.512504 0.874762
O O2 0.726394 0.521733 0.765176
O O3 0.958569 0.796541 0.683425
O O4 0.000000 0.500000 0.000000
O O5 0.885170 0.961627 0.400450
O O6 0.137705 0.893156 0.274647
O O7 0.566729 0.099311 0.114278
O O8 0.233299 0.216835 0.995665
O O9 0.000000 0.000000 0.000000
O O10 0.592540 0.670242 0.287530
O O11 0.818203 0.637269 0.525807
O O12 0.742787 0.912475 0.238509
O O13 0.952164 0.392748 0.825943
O O14 0.125838 0.216539 0.125341
#
# Coordination Sequence:
#
# PCOD9038414 Si02
#       7
#     2   1   2   2   2   2   2
#     4  12  27  49  71 104 143 188 239 293 353 422
#     4  12  26  46  72  98 140 186 238 292 350 420
#     4  11  22  41  69 103 140 184 230 288 355 421
#     4  10  23  41  69 104 137 183 227 283 358 411
#     4  11  24  43  70 100 136 186 229 288 356 413
#     4  11  24  46  67 103 141 182 238 290 347 427
#     4  11  23  43  68 103 143 176 231 291 345 426
#
# _framework density 21.574570000000001
#
# number of rings (size 3 to 8) (size 9 to 14) (size 15 to 20)
#    0.000    0.923    1.538    5.538    2.154    4.923 
#    0.000    6.923    0.000    0.000    0.000    0.000 
#    0.000    0.000    0.000    0.000    0.000    0.000 
#
# Total GULP energy -72438.389456 kJ/mol
# GULP energy per Si atom -5572.183804 kJ/mol
# Density = 2.152547 g / cm^3
# Si number density = 21.574570 Si / 1000 Ang^3
#
#
#
# Elastic Constant Matrix: (Units=GPa)
#
#
# Indices 1 2 3 4 5 6 
#
# 1 102.3168 29.3758 40.8835 -5.5949 -10.8355 -0.7292
# 2 29.3758 109.3691 41.7047 -13.7807 -16.0044 -26.2545
# 3 40.8835 41.7047 136.3134 -18.3929 -11.6283 4.9689
# 4 -5.5949 -13.7807 -18.3929 42.1320 -5.2569 -1.6977
# 5 -10.8355 -16.0044 -11.6283 -5.2569 20.3812 -6.8821
# 6 -0.7292 -26.2545 4.9689 -1.6977 -6.8821 28.7366
#
#
#
# Elastic Compliance Matrix: (Units=1/GPa)
#
#
# Indices 1 2 3 4 5 6 
#
# 1 0.011688 -0.001385 -0.002716 0.000409 0.003831 0.000442
# 2 -0.001385 0.023629 -0.004074 0.010479 0.028202 0.029631
# 3 -0.002716 -0.004074 0.009898 0.002384 -0.000208 -0.005412
# 4 0.000409 0.010479 0.002384 0.031886 0.023679 0.016727
# 5 0.003831 0.028202 -0.000208 0.023679 0.096237 0.050346
# 6 0.000442 0.029631 -0.005412 0.016727 0.050346 0.075863
#
#
# Mechanical properties :
#
#
# Convention : Reuss Voigt Hill
#
# Bulk Modulus (GPa) = 34.64406 63.54748 49.09577
# Shear Modulus (GPa) = 18.17038 33.98565 26.07802
#
# Velocity S-wave (km/s) = 2.90524 3.97327 3.48046
# Velocity P-wave (km/s) = 5.22939 7.11111 6.24157
#
# Compressibility (1/GPa) = 0.02886498
#
# Stress axis : x y z
#
# Youngs Moduli (GPa) = 85.56006 42.32008 101.02897
#
# Poissons Ratio (x) = 0.05863 0.27436
# Poissons Ratio (y) = 0.11853 0.41161
# Poissons Ratio (z) = 0.23235 0.17242
#
# Static dielectric constant tensor:
#      x y z
#    x 1.772960 0.017910 -0.044740 
#    y 0.017910 1.826650 -0.023530 
#    z -0.044740 -0.023530 1.772110 
# 
# From -- ./inp_files/24079.got.cif
#   From: 2010.05.17/outbox.cif.g08.bks.cpg/sg2_13_cif.got.tgz:24079.got - 2010.06.03 11:33:40.
