data_PCOD9038151
_publ_section_title
;
Structure prediction by ZEFSAII (Michael W. Deem and Ramdas Pophale) SiO2 
 PCOD9038151
Probable space group: P -1
;
_chemical_formula_sum "Si O2"
_cell_formula_units_Z 12
_cell_length_a 20.589830
_cell_length_b 8.519407
_cell_length_c 16.435353
_cell_angle_alpha 44.187131
_cell_angle_beta 18.051413
_cell_angle_gamma 33.422874
_cell_volume 439.905347
_symmetry_space_group_name_H-M "P -1"
_symmetry_group_IT_number 2
_symmetry_cell_setting 'triclinic'
loop_
_space_group_symop_operation_xyz
x,y,z
-x,-y,-z
loop_
_atom_site_type_symbol
_atom_site_label
_atom_site_fract_x
_atom_site_fract_y
_atom_site_fract_z
Si Si1 0.249315 0.165175 0.168407
Si Si2 0.718129 0.031166 0.970147
Si Si3 0.339127 0.402278 0.513488
Si Si4 0.030431 0.838846 0.171577
Si Si5 0.057077 0.723821 0.359578
Si Si6 0.547068 0.112884 0.531453
O O1 0.125214 0.505468 0.167462
O O2 0.365416 0.964246 0.023345
O O3 0.015597 0.201393 0.485374
O O4 0.500000 0.000000 0.000000
O O5 0.076028 0.739636 0.660084
O O6 0.655545 0.329834 0.966091
O O7 0.594832 0.934462 0.212531
O O8 0.318053 0.410856 0.633710
O O9 0.306856 0.178575 0.596276
O O10 0.667972 0.248185 0.161695
O O11 0.904572 0.926112 0.381217
O O12 0.788575 0.080562 0.301625
O O13 0.000000 0.500000 0.500000
#
# Coordination Sequence:
#
# PCOD9038151 Si02
#       6
#     2   2   2   2   2   2
#     4  11  23  41  65 103 139 178 236 282 339 416
#     4  12  23  46  72 102 140 184 230 290 346 408
#     4  11  24  44  71 103 140 183 230 284 349 412
#     4  11  22  46  68 101 144 182 225 287 347 408
#     4  10  23  41  66  98 137 179 228 279 342 408
#     4  11  24  44  70 105 140 180 231 287 347 411
#
# _framework density 27.278596
#
# number of rings (size 3 to 8) (size 9 to 14) (size 15 to 20)
#    0.000    1.000    3.333    3.500    0.000    0.000 
#    0.000    7.500    0.000    0.000    0.000    0.000 
#    0.000    0.000    0.000    0.000    0.000    0.000 
#
# Total GULP energy -67071.101302 kJ/mol
# GULP energy per Si atom -5589.258442 kJ/mol
# Density = 2.721651 g / cm^3
# Si number density = 27.278596 Si / 1000 Ang^3
#
#
#
# Elastic Constant Matrix: (Units=GPa)
#
#
# Indices 1 2 3 4 5 6 
#
# 1 220.4155 32.1892 46.4358 -13.3097 -9.9347 -24.6670
# 2 32.1892 87.8005 4.5571 -11.8735 -5.8103 -12.0276
# 3 46.4358 4.5571 126.4933 -17.3153 -12.0717 -16.8880
# 4 -13.3097 -11.8735 -17.3153 38.4651 -14.8576 -1.0477
# 5 -9.9347 -5.8103 -12.0717 -14.8576 53.1536 -1.1503
# 6 -24.6670 -12.0276 -16.8880 -1.0477 -1.1503 41.6754
#
#
#
# Elastic Compliance Matrix: (Units=1/GPa)
#
#
# Indices 1 2 3 4 5 6 
#
# 1 0.005400 -0.001357 -0.001360 0.001270 0.000957 0.002312
# 2 -0.001357 0.013338 0.001646 0.005761 0.003274 0.003948
# 3 -0.001360 0.001646 0.010134 0.006282 0.004071 0.004047
# 4 0.001270 0.005761 0.006282 0.036042 0.012503 0.006211
# 5 0.000957 0.003274 0.004071 0.012503 0.023859 0.004134
# 6 0.002312 0.003948 0.004047 0.006211 0.004134 0.028413
#
#
# Mechanical properties :
#
#
# Convention : Reuss Voigt Hill
#
# Bulk Modulus (GPa) = 37.41085 66.78592 52.09838
# Shear Modulus (GPa) = 38.98980 50.09398 44.54189
#
# Velocity S-wave (km/s) = 3.78473 4.28995 4.04524
# Velocity P-wave (km/s) = 5.73089 7.00531 6.39990
#
# Compressibility (1/GPa) = 0.02673022
#
# Stress axis : x y z
#
# Youngs Moduli (GPa) = 185.18089 74.97276 98.67600
#
# Poissons Ratio (x) = 0.10177 0.13416
# Poissons Ratio (y) = 0.25136 -0.16241
# Poissons Ratio (z) = 0.25177 -0.12339
#
# Static dielectric constant tensor:
#      x y z
#    x 2.168110 -0.022560 0.103600 
#    y -0.022560 2.464480 -0.008850 
#    z 0.103600 -0.008850 2.262150 
# 
# From -- ./inp_files/22291.got.cif
#   From: 2010.05.17/outbox.cif.g08.bks.cpg/sg2_12_cif.got.tgz:22291.got - 2010.06.03 11:33:40.
