data_PCOD9038071
_publ_section_title
;
Structure prediction by ZEFSAII (Michael W. Deem and Ramdas Pophale) SiO2 
 PCOD9038071
Probable space group: P -1
;
_chemical_formula_sum "Si O2"
_cell_formula_units_Z 12
_cell_length_a 11.378403
_cell_length_b 8.121441
_cell_length_c 10.059085
_cell_angle_alpha 114.939703
_cell_angle_beta 33.348622
_cell_angle_gamma 110.612942
_cell_volume 463.353378
_symmetry_space_group_name_H-M "P -1"
_symmetry_group_IT_number 2
_symmetry_cell_setting 'triclinic'
loop_
_space_group_symop_operation_xyz
x,y,z
-x,-y,-z
loop_
_atom_site_type_symbol
_atom_site_label
_atom_site_fract_x
_atom_site_fract_y
_atom_site_fract_z
Si Si1 0.021285 0.608249 0.790202
Si Si2 0.362461 0.296769 0.941988
Si Si3 0.018194 0.209939 0.703740
Si Si4 0.328321 0.897583 0.219727
Si Si5 0.405697 0.371015 0.654926
Si Si6 0.267227 0.892377 0.807820
O O1 0.118350 0.409494 0.655404
O O2 0.155635 0.790721 0.753739
O O3 0.874957 0.615367 0.796687
O O4 0.843665 0.613676 0.079034
O O5 0.528966 0.246179 0.880871
O O6 0.479402 0.405019 0.749709
O O7 0.290642 0.104676 0.878538
O O8 0.853557 0.189613 0.729514
O O9 0.862962 0.180609 0.966782
O O10 0.195173 0.051359 0.477939
O O11 0.500000 0.000000 0.000000
O O12 0.500000 0.500000 0.500000
O O13 0.492179 0.179675 0.457574
#
# Coordination Sequence:
#
# PCOD9038071 Si02
#       6
#     2   2   2   2   2   2
#     4  10  25  41  66 108 137 173 228 279 353 401
#     4  10  24  43  69 103 140 185 225 278 344 409
#     4  11  25  43  73  98 136 186 234 277 340 408
#     4  11  25  48  69  95 139 189 235 280 334 404
#     4  10  23  41  66 105 141 179 216 284 358 394
#     4  12  21  40  71 104 143 176 220 285 346 419
#
# _framework density 25.898161999999999
#
# number of rings (size 3 to 8) (size 9 to 14) (size 15 to 20)
#    1.000    0.333    3.333    1.500    2.333    3.333 
#    0.000    0.833    0.000    0.000    0.000    0.000 
#    0.000    0.000    0.000    0.000    0.000    0.000 
#
# Total GULP energy -66946.391198 kJ/mol
# GULP energy per Si atom -5578.865933 kJ/mol
# Density = 2.583922 g / cm^3
# Si number density = 25.898162 Si / 1000 Ang^3
#
#
#
# Elastic Constant Matrix: (Units=GPa)
#
#
# Indices 1 2 3 4 5 6 
#
# 1 176.3207 12.5510 7.3621 -13.0291 2.3361 -7.9397
# 2 12.5510 67.0428 -3.5422 -14.6184 -1.6913 -2.3972
# 3 7.3621 -3.5422 67.4163 -0.7380 -3.1893 5.4879
# 4 -13.0291 -14.6184 -0.7380 37.3069 -4.1862 -4.0663
# 5 2.3361 -1.6913 -3.1893 -4.1862 14.2613 -13.2301
# 6 -7.9397 -2.3972 5.4879 -4.0663 -13.2301 42.0264
#
#
#
# Elastic Compliance Matrix: (Units=1/GPa)
#
#
# Indices 1 2 3 4 5 6 
#
# 1 0.005967 -0.000606 -0.000752 0.002129 0.000994 0.001710
# 2 -0.000606 0.017196 0.001123 0.007977 0.008638 0.004211
# 3 -0.000752 0.001123 0.015206 0.000674 0.002826 -0.001109
# 4 0.002129 0.007977 0.000674 0.034142 0.020550 0.010542
# 5 0.000994 0.008638 0.002826 0.020550 0.112689 0.037775
# 6 0.001710 0.004211 -0.001109 0.010542 0.037775 0.037414
#
#
# Mechanical properties :
#
#
# Convention : Reuss Voigt Hill
#
# Bulk Modulus (GPa) = 26.38674 38.16909 32.27791
# Shear Modulus (GPa) = 21.21169 38.34617 29.77893
#
# Velocity S-wave (km/s) = 2.86500 3.85210 3.39462
# Velocity P-wave (km/s) = 4.59946 5.87835 5.27779
#
# Compressibility (1/GPa) = 0.03789783
#
# Stress axis : x y z
#
# Youngs Moduli (GPa) = 167.58160 58.15140 65.76479
#
# Poissons Ratio (x) = 0.03526 0.04948
# Poissons Ratio (y) = 0.10162 -0.07385
# Poissons Ratio (z) = 0.12608 -0.06530
#
# Static dielectric constant tensor:
#      x y z
#    x 2.221600 -0.072940 -0.043880 
#    y -0.072940 2.110270 0.052820 
#    z -0.043880 0.052820 2.041770 
# 
# From -- ./inp_files/240082.got.cif
#   From: 2010.05.17/outbox.cif.g08.bks.cpg/sg2_121_cif.got.tgz:240082.got - 2010.06.03 11:33:40.
