data_PCOD9038824
_publ_section_title
;
Structure prediction by ZEFSAII (Michael W. Deem and Ramdas Pophale) SiO2 
 PCOD9038824
Probable space group: P -1
;
_chemical_formula_sum "Si O2"
_cell_formula_units_Z 16
_cell_length_a 13.889872
_cell_length_b 11.951654
_cell_length_c 14.361170
_cell_angle_alpha 38.282096
_cell_angle_beta 149.126320
_cell_angle_gamma 144.319840
_cell_volume 682.161142
_symmetry_space_group_name_H-M "P -1"
_symmetry_group_IT_number 2
_symmetry_cell_setting 'triclinic'
loop_
_space_group_symop_operation_xyz
x,y,z
-x,-y,-z
loop_
_atom_site_type_symbol
_atom_site_label
_atom_site_fract_x
_atom_site_fract_y
_atom_site_fract_z
Si Si1 0.167521 0.232513 0.474190
Si Si2 0.727127 0.464259 0.482436
Si Si3 0.707771 0.608553 0.863931
Si Si4 0.407004 0.279909 0.111492
Si Si5 0.034143 0.766435 0.878313
Si Si6 0.147828 0.167164 0.794442
Si Si7 0.824243 0.280339 0.528430
Si Si8 0.579950 0.232937 0.893510
O O1 0.142862 0.389888 0.422710
O O2 0.135589 0.289395 0.307040
O O3 0.396680 0.254370 0.671567
O O4 0.000000 0.000000 0.500000
O O5 0.479851 0.358798 0.364320
O O6 0.749724 0.618795 0.314171
O O7 0.802423 0.307505 0.603242
O O8 0.714378 0.698360 0.912613
O O9 0.922514 0.700112 0.927316
O O10 0.632202 0.369349 0.940973
O O11 0.598094 0.231304 0.330862
O O12 0.500000 0.500000 0.000000
O O13 0.268219 0.150527 0.996474
O O14 0.138561 0.007315 0.815819
O O15 0.210048 0.701479 0.035022
O O16 0.922287 0.138276 0.663848
O O17 0.000000 0.500000 0.500000
O O18 0.500000 0.000000 0.000000
#
# Coordination Sequence:
#
# PCOD9038824 Si02
#       8
#     2   2   2   2   2   2   2   2
#     4  11  21  40  65  94 119 171 207 258 320 366
#     4   9  18  37  59  89 120 153 219 254 303 379
#     4  10  23  42  63  94 131 164 207 266 323 371
#     4  11  20  38  66  90 120 168 208 262 315 365
#     4  12  25  42  61  92 137 167 206 266 314 378
#     4  11  21  38  60  90 125 162 213 261 302 374
#     4   9  18  34  58  94 115 151 212 264 302 361
#     4  11  23  42  68  97 124 161 221 259 306 392
#
# _framework density 23.45487
#
# number of rings (size 3 to 8) (size 9 to 14) (size 15 to 20)
#    0.000    1.500    6.250    1.125    0.000    4.500 
#    0.000    5.000    0.000    0.000    0.000    0.000 
#    0.000    0.000    0.000    0.000    0.000    0.000 
#
# Total GULP energy -89365.147791 kJ/mol
# GULP energy per Si atom -5585.321737 kJ/mol
# Density = 2.340149 g / cm^3
# Si number density = 23.454870 Si / 1000 Ang^3
#
#
#
# Elastic Constant Matrix: (Units=GPa)
#
#
# Indices 1 2 3 4 5 6 
#
# 1 136.9219 11.0502 48.3404 19.6654 19.0868 -14.7363
# 2 11.0502 38.0167 25.2674 13.6757 -5.5421 -13.3122
# 3 48.3404 25.2674 103.3804 23.3900 10.4043 -16.7088
# 4 19.6654 13.6757 23.3900 30.8795 -8.4084 -6.8708
# 5 19.0868 -5.5421 10.4043 -8.4084 41.0172 4.0315
# 6 -14.7363 -13.3122 -16.7088 -6.8708 4.0315 47.3662
#
#
#
# Elastic Compliance Matrix: (Units=1/GPa)
#
#
# Indices 1 2 3 4 5 6 
#
# 1 0.009942 0.000911 -0.002764 -0.005598 -0.005147 0.002000
# 2 0.000911 0.036600 -0.006547 -0.009380 0.003611 0.006592
# 3 -0.002764 -0.006547 0.015184 -0.007833 -0.005249 0.001967
# 4 -0.005598 -0.009380 -0.007833 0.049485 0.013579 -0.001119
# 5 -0.005147 0.003611 -0.005249 0.013579 0.031689 -0.003165
# 6 0.002000 0.006592 0.001967 -0.001119 -0.003165 0.024388
#
#
# Mechanical properties :
#
#
# Convention : Reuss Voigt Hill
#
# Bulk Modulus (GPa) = 22.25870 49.73721 35.99795
# Shear Modulus (GPa) = 25.11751 36.76333 30.94042
#
# Velocity S-wave (km/s) = 3.27599 3.96334 3.63595
# Velocity P-wave (km/s) = 4.88058 6.49582 5.74525
#
# Compressibility (1/GPa) = 0.04492626
#
# Stress axis : x y z
#
# Youngs Moduli (GPa) = 100.57912 27.32240 65.85842
#
# Poissons Ratio (x) = -0.02489 0.18203
# Poissons Ratio (y) = -0.09163 0.43119
# Poissons Ratio (z) = 0.27799 0.17889
#
# Static dielectric constant tensor:
#      x y z
#    x 1.907640 0.030240 0.009630 
#    y 0.030240 1.964220 -0.020790 
#    z 0.009630 -0.020790 1.875650 
# 
# From -- ./inp_files/531673.got.cif
#   From: 2010.05.17/outbox.cif.g08.bks.cpg/sg2_266_cif.got.tgz:531673.got - 2010.06.03 11:33:40.
