data_PCOD9038894
_publ_section_title
;
Structure prediction by ZEFSAII (Michael W. Deem and Ramdas Pophale) SiO2 
 PCOD9038894
Probable space group: P -1
;
_chemical_formula_sum "Si O2"
_cell_formula_units_Z 14
_cell_length_a 9.886837
_cell_length_b 4.990045
_cell_length_c 11.280452
_cell_angle_alpha 98.981278
_cell_angle_beta 89.744691
_cell_angle_gamma 73.064405
_cell_volume 525.132380
_symmetry_space_group_name_H-M "P -1"
_symmetry_group_IT_number 2
_symmetry_cell_setting 'triclinic'
loop_
_space_group_symop_operation_xyz
x,y,z
-x,-y,-z
loop_
_atom_site_type_symbol
_atom_site_label
_atom_site_fract_x
_atom_site_fract_y
_atom_site_fract_z
Si Si1 0.973294 0.898013 0.818900
Si Si2 0.140552 0.673010 0.582762
Si Si3 0.824605 0.309105 0.678194
Si Si4 0.734328 0.440737 0.099341
Si Si5 0.688519 0.876252 0.349317
Si Si6 0.316647 0.059503 0.041778
Si Si7 0.380680 0.063226 0.290259
O O1 0.016012 0.718176 0.683304
O O2 0.105807 0.761915 0.892579
O O3 0.834573 0.905864 0.892202
O O4 0.933243 0.213325 0.781312
O O5 0.098048 0.733774 0.451234
O O6 0.242602 0.351018 0.565274
O O7 0.229188 0.887175 0.638644
O O8 0.716459 0.618336 0.703246
O O9 0.718080 0.115742 0.671783
O O10 0.709346 0.660939 0.222780
O O11 0.702096 0.640252 0.998532
O O12 0.653302 0.203986 0.067793
O O13 0.521280 0.026214 0.362508
O O14 0.421198 0.970203 0.146711
#
# Coordination Sequence:
#
# PCOD9038894 Si02
#       7
#     2   2   2   2   2   2   2
#     4  10  23  42  64  94 128 158 207 258 306 372
#     4  11  24  42  66  93 125 165 204 255 314 365
#     4  11  24  42  66  93 125 165 204 255 314 365
#     4  11  23  40  64  93 126 165 204 253 312 366
#     4  11  25  43  63  93 127 162 211 257 301 368
#     4  11  23  40  64  93 126 165 204 253 312 366
#     4  11  25  43  63  93 127 162 211 257 301 368
#
# _framework density 26.659942999999998
#
# number of rings (size 3 to 8) (size 9 to 14) (size 15 to 20)
#    0.000    1.143    0.000    6.429    0.000   13.714 
#    0.000    7.143    0.000    0.000    0.000    0.000 
#    0.000    0.000    0.000    0.000    0.000    0.000 
#
# Total GULP energy -78418.350252 kJ/mol
# GULP energy per Si atom -5601.310732 kJ/mol
# Density = 2.659926 g / cm^3
# Si number density = 26.659943 Si / 1000 Ang^3
#
#
#
# Elastic Constant Matrix: (Units=GPa)
#
#
# Indices 1 2 3 4 5 6 
#
# 1 103.1886 45.9598 34.5784 0.5525 5.2726 0.1965
# 2 45.9598 176.1653 27.6758 0.4072 4.5504 9.8263
# 3 34.5784 27.6758 80.9576 -5.1850 5.2228 -0.6324
# 4 0.5525 0.4072 -5.1850 50.9123 6.6596 5.9317
# 5 5.2726 4.5504 5.2228 6.6596 23.2595 2.7012
# 6 0.1965 9.8263 -0.6324 5.9317 2.7012 44.2179
#
#
#
# Elastic Compliance Matrix: (Units=1/GPa)
#
#
# Indices 1 2 3 4 5 6 
#
# 1 0.012344 -0.002536 -0.004349 -0.000460 -0.001262 0.000585
# 2 -0.002536 0.006610 -0.001164 0.000067 -0.000306 -0.001465
# 3 -0.004349 -0.001164 0.014907 0.001883 -0.002720 0.000405
# 4 -0.000460 0.000067 0.001883 0.020910 -0.006037 -0.002422
# 5 -0.001262 -0.000306 -0.002720 -0.006037 0.045906 -0.001960
# 6 0.000585 -0.001465 0.000405 -0.002422 -0.001960 0.023389
#
#
# Mechanical properties :
#
#
# Convention : Reuss Voigt Hill
#
# Bulk Modulus (GPa) = 56.29622 64.08214 60.18918
# Shear Modulus (GPa) = 34.22692 40.48444 37.35568
#
# Velocity S-wave (km/s) = 3.58695 3.90108 3.74731
# Velocity P-wave (km/s) = 6.19009 6.66186 6.43030
#
# Compressibility (1/GPa) = 0.01776318
#
# Stress axis : x y z
#
# Youngs Moduli (GPa) = 81.01345 151.27547 67.08393
#
# Poissons Ratio (x) = 0.38366 0.29172
# Poissons Ratio (y) = 0.20546 0.07809
# Poissons Ratio (z) = 0.35230 0.17609
#
# Static dielectric constant tensor:
#      x y z
#    x 2.046690 -0.004100 0.003990 
#    y -0.004100 2.073940 0.033310 
#    z 0.003990 0.033310 2.196300 
# 
# From -- ./inp_files/123291.got.cif
#   From: 2010.05.17/outbox.cif.g08.bks.cpg/sg2_62_cif.got.tgz:123291.got - 2010.06.03 11:33:40.
