data_PCOD9038474
_publ_section_title
;
Structure prediction by ZEFSAII (Michael W. Deem and Ramdas Pophale) SiO2 
 PCOD9038474
Probable space group: P -1
;
_chemical_formula_sum "Si O2"
_cell_formula_units_Z 14
_cell_length_a 13.482158
_cell_length_b 21.942372
_cell_length_c 14.430560
_cell_angle_alpha 19.757841
_cell_angle_beta 149.901365
_cell_angle_gamma 156.459449
_cell_volume 576.290004
_symmetry_space_group_name_H-M "P -1"
_symmetry_group_IT_number 2
_symmetry_cell_setting 'triclinic'
loop_
_space_group_symop_operation_xyz
x,y,z
-x,-y,-z
loop_
_atom_site_type_symbol
_atom_site_label
_atom_site_fract_x
_atom_site_fract_y
_atom_site_fract_z
Si Si1 0.754821 0.744276 0.079937
Si Si2 0.727319 0.107342 0.432791
Si Si3 0.779061 0.248699 0.568256
Si Si4 0.445590 0.545696 0.492795
Si Si5 0.019312 0.461443 0.858027
Si Si6 0.978335 0.859364 0.550489
Si Si7 0.534125 0.652731 0.723688
O O1 0.688069 0.677818 0.229040
O O2 0.548656 0.509173 0.198460
O O3 0.015693 0.792205 0.195754
O O4 0.754042 0.943894 0.752276
O O5 0.918011 0.195077 0.376381
O O6 0.789996 0.315296 0.245877
O O7 0.457473 0.958554 0.381748
O O8 0.658466 0.286512 0.503528
O O9 0.906273 0.465480 0.292438
O O10 0.500000 0.500000 0.500000
O O11 0.247966 0.597134 0.256561
O O12 0.700865 0.755759 0.444581
O O13 0.021515 0.266388 0.180110
O O14 0.187740 0.122068 0.363587
O O15 0.500000 0.500000 0.000000
#
# Coordination Sequence:
#
# PCOD9038474 Si02
#       7
#     2   2   2   2   2   2   2
#     4  11  24  45  69 100 135 179 224 273 335 387
#     4  11  22  41  67 104 134 177 221 276 331 397
#     4  10  23  41  69  99 131 177 224 277 327 394
#     4  11  25  44  66 100 137 176 219 275 335 400
#     4  11  24  44  63 103 139 174 223 268 343 395
#     4  11  24  42  68  97 136 179 216 278 333 393
#     4  11  23  48  68  98 133 174 233 273 328 400
#
# _framework density 24.293323999999998
#
# number of rings (size 3 to 8) (size 9 to 14) (size 15 to 20)
#    0.000    1.143    4.286    2.143    0.000    6.286 
#    5.143    1.429    0.000    0.000    0.000    0.000 
#    0.000    0.000    0.000    0.000    0.000    0.000 
#
# Total GULP energy -78487.508618 kJ/mol
# GULP energy per Si atom -5606.250616 kJ/mol
# Density = 2.423803 g / cm^3
# Si number density = 24.293324 Si / 1000 Ang^3
#
#
#
# Elastic Constant Matrix: (Units=GPa)
#
#
# Indices 1 2 3 4 5 6 
#
# 1 99.5080 -2.4423 1.6216 -1.4909 -4.9417 9.5023
# 2 -2.4423 124.7412 37.1620 -3.8744 1.6084 25.5085
# 3 1.6216 37.1620 87.4550 -13.6587 7.8795 -3.0126
# 4 -1.4909 -3.8744 -13.6587 33.9573 -3.4835 5.2486
# 5 -4.9417 1.6084 7.8795 -3.4835 16.6739 1.4544
# 6 9.5023 25.5085 -3.0126 5.2486 1.4544 42.9597
#
#
#
# Elastic Compliance Matrix: (Units=1/GPa)
#
#
# Indices 1 2 3 4 5 6 
#
# 1 0.010638 0.001187 -0.001006 0.001140 0.004049 -0.003405
# 2 0.001187 0.011046 -0.005089 0.000653 0.002468 -0.007342
# 3 -0.001006 -0.005089 0.014972 0.004125 -0.006370 0.004006
# 4 0.001140 0.000653 0.004125 0.032494 0.005507 -0.004507
# 5 0.004049 0.002468 -0.006370 0.005507 0.065594 -0.005701
# 6 -0.003405 -0.007342 0.004006 -0.004507 -0.005701 0.029415
#
#
# Mechanical properties :
#
#
# Convention : Reuss Voigt Hill
#
# Bulk Modulus (GPa) = 37.25660 42.70964 39.98312
# Shear Modulus (GPa) = 27.33440 37.07571 32.20505
#
# Velocity S-wave (km/s) = 3.35801 3.91086 3.64493
# Velocity P-wave (km/s) = 5.51402 6.16539 5.84878
#
# Compressibility (1/GPa) = 0.02684088
#
# Stress axis : x y z
#
# Youngs Moduli (GPa) = 94.00018 90.53366 66.79325
#
# Poissons Ratio (x) = -0.10750 0.06719
# Poissons Ratio (y) = -0.11162 0.33990
# Poissons Ratio (z) = 0.09456 0.46071
#
# Static dielectric constant tensor:
#      x y z
#    x 2.019720 0.012360 -0.002740 
#    y 0.012360 1.936040 0.015170 
#    z -0.002740 0.015170 1.894460 
# 
# From -- ./inp_files/535390.got.cif
#   From: 2010.05.17/outbox.cif.g08.bks.cpg/sg2_268_cif.got.tgz:535390.got - 2010.06.03 11:33:40.
