data_PCOD9038160
_publ_section_title
;
Structure prediction by ZEFSAII (Michael W. Deem and Ramdas Pophale) SiO2 
 PCOD9038160
Probable space group: P -1
;
_chemical_formula_sum "Si O2"
_cell_formula_units_Z 14
_cell_length_a 13.476275
_cell_length_b 5.608452
_cell_length_c 25.543288
_cell_angle_alpha 125.227378
_cell_angle_beta 158.604563
_cell_angle_gamma 56.971437
_cell_volume 575.101145
_symmetry_space_group_name_H-M "P -1"
_symmetry_group_IT_number 2
_symmetry_cell_setting 'triclinic'
loop_
_space_group_symop_operation_xyz
x,y,z
-x,-y,-z
loop_
_atom_site_type_symbol
_atom_site_label
_atom_site_fract_x
_atom_site_fract_y
_atom_site_fract_z
Si Si1 0.655853 0.865726 0.395075
Si Si2 0.135207 0.403697 0.999605
Si Si3 0.261811 0.198546 0.884065
Si Si4 0.599284 0.547228 0.700081
Si Si5 0.560567 0.181769 0.920787
Si Si6 0.847054 0.828195 0.592460
Si Si7 0.721426 0.664986 0.296430
O O1 0.464528 0.123019 0.308538
O O2 0.204656 0.011511 0.468640
O O3 0.529354 0.577218 0.323723
O O4 0.835981 0.779140 0.422149
O O5 0.915169 0.498713 0.860157
O O6 0.431878 0.534676 0.154642
O O7 0.000000 0.500000 0.000000
O O8 0.205010 0.061614 0.988066
O O9 0.346180 0.204672 0.865507
O O10 0.976423 0.039535 0.724940
O O11 0.296919 0.508790 0.966616
O O12 0.500000 0.000000 0.000000
O O13 0.432330 0.334069 0.552664
O O14 0.386668 0.123797 0.775887
O O15 0.072650 0.571987 0.657767
#
# Coordination Sequence:
#
# PCOD9038160 Si02
#       7
#     2   2   2   2   2   2   2
#     4  10  24  41  63 100 140 185 219 281 341 422
#     4  12  23  42  63 102 141 187 223 282 341 425
#     4  11  22  46  66 101 132 173 242 290 341 404
#     4  10  25  40  64  94 144 181 226 269 351 406
#     4  11  25  38  74  99 134 180 233 294 341 400
#     4  10  23  41  66  99 134 181 225 292 340 410
#     4  12  23  39  67 102 138 177 235 277 350 409
#
# _framework density 24.343544000000001
#
# number of rings (size 3 to 8) (size 9 to 14) (size 15 to 20)
#    0.857    0.286    4.286    1.286    4.000    1.714 
#    0.000    0.714    0.000    4.286    0.000    0.000 
#    0.000    0.000    0.000    0.000    0.000    0.000 
#
# Total GULP energy -78140.128370 kJ/mol
# GULP energy per Si atom -5581.437741 kJ/mol
# Density = 2.428814 g / cm^3
# Si number density = 24.343544 Si / 1000 Ang^3
#
#
#
# Elastic Constant Matrix: (Units=GPa)
#
#
# Indices 1 2 3 4 5 6 
#
# 1 69.8182 7.0506 4.2037 -8.0872 3.0758 8.9433
# 2 7.0506 120.3738 33.6926 -22.4312 -5.2004 10.6873
# 3 4.2037 33.6926 112.9998 -18.4969 -10.3816 -7.0646
# 4 -8.0872 -22.4312 -18.4969 36.3612 -0.2553 -11.7221
# 5 3.0758 -5.2004 -10.3816 -0.2553 42.7484 -9.3458
# 6 8.9433 10.6873 -7.0646 -11.7221 -9.3458 29.2398
#
#
#
# Elastic Compliance Matrix: (Units=1/GPa)
#
#
# Indices 1 2 3 4 5 6 
#
# 1 0.015294 -0.000064 -0.000897 0.001224 -0.002448 -0.005163
# 2 -0.000064 0.009991 -0.002463 0.004068 0.000084 -0.002569
# 3 -0.000897 -0.002463 0.011659 0.006873 0.004421 0.008160
# 4 0.001224 0.004068 0.006873 0.039498 0.006160 0.017603
# 5 -0.002448 0.000084 0.004421 0.006160 0.027545 0.013060
# 6 -0.005163 -0.002569 0.008160 0.017603 0.013060 0.049921
#
#
# Mechanical properties :
#
#
# Convention : Reuss Voigt Hill
#
# Bulk Modulus (GPa) = 33.22835 43.67619 38.45227
# Shear Modulus (GPa) = 29.27593 38.88621 34.08107
#
# Velocity S-wave (km/s) = 3.47164 4.00108 3.74572
# Velocity P-wave (km/s) = 5.45427 6.27099 5.87684
#
# Compressibility (1/GPa) = 0.03009479
#
# Stress axis : x y z
#
# Youngs Moduli (GPa) = 65.38364 100.09450 85.77087
#
# Poissons Ratio (x) = 0.00640 0.07695
# Poissons Ratio (y) = 0.00418 0.21129
# Poissons Ratio (z) = 0.05866 0.24658
#
# Static dielectric constant tensor:
#      x y z
#    x 1.422760 0.106480 0.183860 
#    y 0.106480 1.918590 0.041590 
#    z 0.183860 0.041590 1.966420 
# 
# From -- ./inp_files/127004.got.cif
#   From: 2010.05.17/outbox.cif.g08.bks.cpg/sg2_64_cif.got.tgz:127004.got - 2010.06.03 11:33:40.
