data_PCOD9038773
_publ_section_title
;
Structure prediction by ZEFSAII (Michael W. Deem and Ramdas Pophale) SiO2 
 PCOD9038773
Probable space group: P -1
;
_chemical_formula_sum "Si O2"
_cell_formula_units_Z 14
_cell_length_a 13.668290
_cell_length_b 6.526351
_cell_length_c 9.008673
_cell_angle_alpha 51.615218
_cell_angle_beta 92.843608
_cell_angle_gamma 99.757168
_cell_volume 619.193501
_symmetry_space_group_name_H-M "P -1"
_symmetry_group_IT_number 2
_symmetry_cell_setting 'triclinic'
loop_
_space_group_symop_operation_xyz
x,y,z
-x,-y,-z
loop_
_atom_site_type_symbol
_atom_site_label
_atom_site_fract_x
_atom_site_fract_y
_atom_site_fract_z
Si Si1 0.506282 0.852642 0.413098
Si Si2 0.584744 0.743905 0.944635
Si Si3 0.100177 0.718700 0.928770
Si Si4 0.204628 0.277531 0.146849
Si Si5 0.651135 0.681008 0.310400
Si Si6 0.909205 0.158270 0.450974
Si Si7 0.869622 0.716976 0.202014
O O1 0.618997 0.850261 0.368722
O O2 0.429162 0.583091 0.551445
O O3 0.500000 0.000000 0.500000
O O4 0.458914 0.998409 0.213606
O O5 0.679432 0.717072 0.863275
O O6 0.500000 0.500000 0.000000
O O7 0.621433 0.765950 0.106395
O O8 0.139545 0.825363 0.722182
O O9 0.080633 0.983116 0.888560
O O10 0.176333 0.551757 0.085405
O O11 0.000000 0.500000 0.000000
O O12 0.156237 0.021655 0.352062
O O13 0.160678 0.272892 0.978023
O O14 0.765982 0.655359 0.315586
O O15 0.928880 0.474975 0.347779
O O16 0.000000 0.000000 0.500000
#
# Coordination Sequence:
#
# PCOD9038773 Si02
#       7
#     2   2   2   2   2   2   2
#     4  11  22  39  66  93 135 177 226 275 333 391
#     4  11  22  40  65  95 134 182 218 278 332 393
#     4  11  24  46  67  98 132 174 222 283 344 403
#     4  10  24  44  65  97 136 173 233 275 338 407
#     4  10  23  42  61  97 131 177 228 274 330 408
#     4  11  23  45  68 100 133 173 227 280 342 414
#     4  10  25  42  69  94 136 178 224 281 341 400
#
# _framework density 22.610056
#
# number of rings (size 3 to 8) (size 9 to 14) (size 15 to 20)
#    0.000    1.429    2.857    1.286    2.000    6.286 
#    0.000    0.000    0.000    0.000    0.000    0.000 
#    0.000    0.000    0.000    0.000    0.000    0.000 
#
# Total GULP energy -78137.970071 kJ/mol
# GULP energy per Si atom -5581.283577 kJ/mol
# Density = 2.255859 g / cm^3
# Si number density = 22.610056 Si / 1000 Ang^3
#
#
#
# Elastic Constant Matrix: (Units=GPa)
#
#
# Indices 1 2 3 4 5 6 
#
# 1 113.3395 37.2382 15.9162 -11.1048 -32.5449 -21.3752
# 2 37.2382 108.5232 25.3714 -14.9443 -9.4693 -23.3738
# 3 15.9162 25.3714 113.8371 -20.6670 -19.3834 -10.1398
# 4 -11.1048 -14.9443 -20.6670 28.7668 -7.7061 4.1990
# 5 -32.5449 -9.4693 -19.3834 -7.7061 30.8675 2.7149
# 6 -21.3752 -23.3738 -10.1398 4.1990 2.7149 29.8643
#
#
#
# Elastic Compliance Matrix: (Units=1/GPa)
#
#
# Indices 1 2 3 4 5 6 
#
# 1 0.020354 -0.001214 0.006563 0.018093 0.028786 0.010686
# 2 -0.001214 0.012363 -0.000457 0.005278 0.002871 0.007649
# 3 0.006563 -0.000457 0.015116 0.017839 0.020274 0.005120
# 4 0.018093 0.005278 0.017839 0.068924 0.048308 0.009055
# 5 0.028786 0.002871 0.020274 0.048308 0.087097 0.015024
# 6 0.010686 0.007649 0.005120 0.009055 0.015024 0.046219
#
#
# Mechanical properties :
#
#
# Convention : Reuss Voigt Hill
#
# Bulk Modulus (GPa) = 17.35637 54.75013 36.05325
# Shear Modulus (GPa) = 19.26825 35.04465 27.15645
#
# Velocity S-wave (km/s) = 2.92241 3.94122 3.46942
# Velocity P-wave (km/s) = 4.36811 6.70660 5.65946
#
# Compressibility (1/GPa) = 0.05761573
#
# Stress axis : x y z
#
# Youngs Moduli (GPa) = 49.13055 80.88868 66.15606
#
# Poissons Ratio (x) = 0.09817 -0.43417
# Poissons Ratio (y) = 0.05963 0.03026
# Poissons Ratio (z) = -0.32243 0.03700
#
# Static dielectric constant tensor:
#      x y z
#    x 1.947880 0.029780 -0.064140 
#    y 0.029780 2.072660 -0.090940 
#    z -0.064140 -0.090940 1.873990 
# 
# From -- ./inp_files/288315.got.cif
#   From: 2010.05.17/outbox.cif.g08.bks.cpg/sg2_145_cif.got.tgz:288315.got - 2010.06.03 11:33:40.
