data_PCOD9038493
_publ_section_title
;
Structure prediction by ZEFSAII (Michael W. Deem and Ramdas Pophale) SiO2 
 PCOD9038493
Probable space group: P -1
;
_chemical_formula_sum "Si O2"
_cell_formula_units_Z 10
_cell_length_a 7.539235
_cell_length_b 5.542850
_cell_length_c 11.045660
_cell_angle_alpha 55.594920
_cell_angle_beta 96.929914
_cell_angle_gamma 96.039290
_cell_volume 377.668319
_symmetry_space_group_name_H-M "P -1"
_symmetry_group_IT_number 2
_symmetry_cell_setting 'triclinic'
loop_
_space_group_symop_operation_xyz
x,y,z
-x,-y,-z
loop_
_atom_site_type_symbol
_atom_site_label
_atom_site_fract_x
_atom_site_fract_y
_atom_site_fract_z
Si Si1 0.033984 0.341884 0.418745
Si Si2 0.203623 0.242799 0.843087
Si Si3 0.905007 0.799557 0.888038
Si Si4 0.588152 0.803396 0.461418
Si Si5 0.515216 0.647042 0.826458
O O1 0.242734 0.342014 0.425051
O O2 0.000000 0.500000 0.500000
O O3 0.916005 0.479025 0.267457
O O4 0.000000 0.000000 0.500000
O O5 0.405466 0.394024 0.808918
O O6 0.179865 0.112894 0.013113
O O7 0.075626 0.021439 0.813622
O O8 0.727495 0.744779 0.806798
O O9 0.000000 0.500000 0.000000
O O10 0.500000 0.500000 0.500000
O O11 0.500000 0.000000 0.500000
O O12 0.588538 0.049543 0.284897
O O13 0.500000 0.500000 0.000000
#
# Coordination Sequence:
#
# PCOD9038493 Si02
#       5
#     2   2   2   2   2
#     4  12  26  45  75 105 144 194 251 301 373 453
#     4  10  23  44  67 103 140 190 246 305 373 445
#     4  10  23  41  70 101 142 185 244 311 374 442
#     4  12  27  48  74 110 154 195 249 318 381 449
#     4  10  23  47  70 107 144 197 253 306 376 454
#
# _framework density 26.478259999999999
#
# number of rings (size 3 to 8) (size 9 to 14) (size 15 to 20)
#    0.000    1.200    2.000    2.400    5.600    0.800 
#    0.000    0.000    0.000    0.000    0.000    0.000 
#    0.000    0.000    0.000    0.000    0.000    0.000 
#
# Total GULP energy -55672.090478 kJ/mol
# GULP energy per Si atom -5567.209048 kJ/mol
# Density = 2.641799 g / cm^3
# Si number density = 26.478260 Si / 1000 Ang^3
#
#
#
# Elastic Constant Matrix: (Units=GPa)
#
#
# Indices 1 2 3 4 5 6 
#
# 1 140.5153 97.1815 12.6426 23.8573 28.2448 47.1423
# 2 97.1815 202.7592 39.7275 -12.8785 -11.2250 49.9472
# 3 12.6426 39.7275 134.8277 6.5488 -3.1549 0.9068
# 4 23.8573 -12.8785 6.5488 56.1600 11.3434 -2.7793
# 5 28.2448 -11.2250 -3.1549 11.3434 39.6730 6.7889
# 6 47.1423 49.9472 0.9068 -2.7793 6.7889 82.4948
#
#
#
# Elastic Compliance Matrix: (Units=1/GPa)
#
#
# Indices 1 2 3 4 5 6 
#
# 1 0.019037 -0.009515 0.001127 -0.007960 -0.013141 -0.004317
# 2 -0.009515 0.011234 -0.002450 0.005068 0.008630 -0.001877
# 3 0.001127 -0.002450 0.008108 -0.001861 -0.000442 0.000724
# 4 -0.007960 0.005068 -0.001861 0.022661 0.000087 0.002257
# 5 -0.013141 0.008630 -0.000442 0.000087 0.037073 -0.000759
# 6 -0.004317 -0.001877 0.000724 0.002257 -0.000759 0.015856
#
#
# Mechanical properties :
#
#
# Convention : Reuss Voigt Hill
#
# Bulk Modulus (GPa) = 59.86527 86.35614 73.11071
# Shear Modulus (GPa) = 35.40737 57.56893 46.48815
#
# Velocity S-wave (km/s) = 3.66077 4.66789 4.19467
# Velocity P-wave (km/s) = 6.36606 7.85729 7.15065
#
# Compressibility (1/GPa) = 0.01670417
#
# Stress axis : x y z
#
# Youngs Moduli (GPa) = 52.52895 89.01244 123.33205
#
# Poissons Ratio (x) = 0.84693 -0.13895
# Poissons Ratio (y) = 0.49980 0.30212
# Poissons Ratio (z) = -0.05918 0.21805
#
# Static dielectric constant tensor:
#      x y z
#    x -8.141130 -8.829910 2.525900 
#    y -8.829910 -5.440100 2.334340 
#    z 2.525900 2.334340 1.337510 
# 
# From -- ./inp_files/16495.got.cif
#   From: 2010.05.17/outbox.cif.g08.bks.cpg/sg2_9_cif.got.tgz:16495.got - 2010.06.03 11:33:40.
