data_PCOD9038209
_publ_section_title
;
Structure prediction by ZEFSAII (Michael W. Deem and Ramdas Pophale) SiO2 
 PCOD9038209
Probable space group: P -1
;
_chemical_formula_sum "Si O2"
_cell_formula_units_Z 16
_cell_length_a 8.682356
_cell_length_b 8.461975
_cell_length_c 15.917607
_cell_angle_alpha 136.533961
_cell_angle_beta 117.868240
_cell_angle_gamma 65.878827
_cell_volume 706.553781
_symmetry_space_group_name_H-M "P -1"
_symmetry_group_IT_number 2
_symmetry_cell_setting 'triclinic'
loop_
_space_group_symop_operation_xyz
x,y,z
-x,-y,-z
loop_
_atom_site_type_symbol
_atom_site_label
_atom_site_fract_x
_atom_site_fract_y
_atom_site_fract_z
Si Si1 0.464124 0.192653 0.637364
Si Si2 0.987971 0.762232 0.258554
Si Si3 0.263180 0.461755 0.139024
Si Si4 0.521116 0.891164 0.701170
Si Si5 0.133669 0.358547 0.233156
Si Si6 0.126036 0.537420 0.672002
Si Si7 0.172090 0.722789 0.580363
Si Si8 0.377547 0.312951 0.927361
O O1 0.578375 0.405402 0.734290
O O2 0.265082 0.315295 0.640828
O O3 0.500000 0.000000 0.500000
O O4 0.522329 0.060005 0.686876
O O5 0.802411 0.665053 0.162941
O O6 0.105174 0.672676 0.173692
O O7 0.094844 0.637978 0.315588
O O8 0.945915 0.031874 0.361123
O O9 0.187487 0.298092 0.126645
O O10 0.324349 0.348301 0.023984
O O11 0.703614 0.743789 0.709736
O O12 0.358618 0.741419 0.592531
O O13 0.471808 0.060530 0.832716
O O14 0.949870 0.310045 0.209184
O O15 0.204282 0.670953 0.667108
O O16 0.945964 0.459446 0.558080
O O17 0.500000 0.500000 0.000000
#
# Coordination Sequence:
#
# PCOD9038209 Si02
#       8
#     2   2   2   2   2   2   2   2
#     4  12  26  42  70  98 135 178 224 272 335 398
#     4   9  22  43  65  97 128 177 216 277 335 390
#     4  10  23  41  68  96 137 171 227 273 330 394
#     4  11  25  44  66  98 134 180 220 277 338 394
#     4  10  25  40  65  97 137 169 225 271 329 403
#     4  11  24  41  65  99 131 177 224 271 331 397
#     4  10  23  41  67  92 134 176 220 275 329 398
#     4  11  21  42  73  95 131 177 227 275 336 394
#
# _framework density 22.645129000000001
#
# number of rings (size 3 to 8) (size 9 to 14) (size 15 to 20)
#    0.750    0.750    1.250    3.375    7.000    2.000 
#    0.000    0.625    0.000    0.000    0.000    0.000 
#    0.000    0.000    0.000    0.000    0.000    0.000 
#
# Total GULP energy -89267.558384 kJ/mol
# GULP energy per Si atom -5579.222399 kJ/mol
# Density = 2.259359 g / cm^3
# Si number density = 22.645129 Si / 1000 Ang^3
#
#
#
# Elastic Constant Matrix: (Units=GPa)
#
#
# Indices 1 2 3 4 5 6 
#
# 1 125.5477 34.0661 38.4073 -0.6665 -24.0218 -18.6187
# 2 34.0661 117.7669 -3.3257 -2.1986 -23.9404 -20.9628
# 3 38.4073 -3.3257 51.8992 -2.5392 -13.8911 -5.8721
# 4 -0.6665 -2.1986 -2.5392 13.9339 7.5445 -11.4006
# 5 -24.0218 -23.9404 -13.8911 7.5445 42.0936 1.6551
# 6 -18.6187 -20.9628 -5.8721 -11.4006 1.6551 47.7724
#
#
#
# Elastic Compliance Matrix: (Units=1/GPa)
#
#
# Indices 1 2 3 4 5 6 
#
# 1 0.012059 -0.002821 -0.008203 -0.001100 0.002685 0.002098
# 2 -0.002821 0.011672 0.005198 0.003908 0.005831 0.005392
# 3 -0.008203 0.005198 0.028047 0.004834 0.006528 0.003459
# 4 -0.001100 0.003908 0.004834 0.104677 -0.016650 0.027438
# 5 0.002685 0.005831 0.006528 -0.016650 0.033773 -0.000736
# 6 0.002098 0.005392 0.003459 0.027438 -0.000736 0.031115
#
#
# Mechanical properties :
#
#
# Convention : Reuss Voigt Hill
#
# Bulk Modulus (GPa) = 24.92148 48.16770 36.54459
# Shear Modulus (GPa) = 20.29468 35.83106 28.06287
#
# Velocity S-wave (km/s) = 2.99692 3.98211 3.52411
# Velocity P-wave (km/s) = 4.79630 6.51612 5.72120
#
# Compressibility (1/GPa) = 0.04012603
#
# Stress axis : x y z
#
# Youngs Moduli (GPa) = 82.92573 85.67223 35.65488
#
# Poissons Ratio (x) = 0.24170 0.29246
# Poissons Ratio (y) = 0.23395 -0.18533
# Poissons Ratio (z) = 0.68021 -0.44531
#
# Static dielectric constant tensor:
#      x y z
#    x 1.920560 0.040410 -0.045560 
#    y 0.040410 1.844280 -0.057370 
#    z -0.045560 -0.057370 1.876920 
# 
# From -- ./inp_files/557680.got.cif
#   From: 2010.05.17/outbox.cif.g08.bks.cpg/sg2_279_cif.got.tgz:557680.got - 2010.06.03 11:33:40.
