data_PCOD9038809
_publ_section_title
;
Structure prediction by ZEFSAII (Michael W. Deem and Ramdas Pophale) SiO2 
 PCOD9038809
Probable space group: P -1
;
_chemical_formula_sum "Si O2"
_cell_formula_units_Z 16
_cell_length_a 9.227017
_cell_length_b 13.467891
_cell_length_c 6.739060
_cell_angle_alpha 87.506965
_cell_angle_beta 81.834841
_cell_angle_gamma 117.019165
_cell_volume 732.924202
_symmetry_space_group_name_H-M "P -1"
_symmetry_group_IT_number 2
_symmetry_cell_setting 'triclinic'
loop_
_space_group_symop_operation_xyz
x,y,z
-x,-y,-z
loop_
_atom_site_type_symbol
_atom_site_label
_atom_site_fract_x
_atom_site_fract_y
_atom_site_fract_z
Si Si1 0.120098 0.170912 0.514988
Si Si2 0.360518 0.293020 0.107969
Si Si3 0.654747 0.391160 0.350632
Si Si4 0.505047 0.987503 0.231696
Si Si5 0.765930 0.013396 0.458402
Si Si6 0.119016 0.633949 0.980738
Si Si7 0.816798 0.644707 0.185410
Si Si8 0.588932 0.262229 0.770942
O O1 0.207624 0.213083 0.281388
O O2 0.177656 0.080886 0.587275
O O3 0.172288 0.267946 0.657727
O O4 0.924217 0.112728 0.520492
O O5 0.504563 0.361480 0.231003
O O6 0.307337 0.364677 0.966048
O O7 0.435834 0.234248 0.950805
O O8 0.759993 0.525425 0.313766
O O9 0.591760 0.339340 0.581588
O O10 0.768022 0.338951 0.239548
O O11 0.689575 0.043212 0.279035
O O12 0.427128 0.854012 0.297452
O O13 0.389942 0.031409 0.357993
O O14 0.500000 0.000000 0.000000
O O15 0.246295 0.669872 0.136393
O O16 0.994120 0.683722 0.042472
O O17 0.000000 0.500000 0.000000
#
# Coordination Sequence:
#
# PCOD9038809 Si02
#       8
#     2   2   2   2   2   2   2   2
#     4  11  24  42  63  91 129 163 204 257 308 366
#     4  11  23  39  62  92 128 164 204 252 302 366
#     4  10  23  42  63  90 128 165 206 254 299 367
#     4  11  23  42  67  92 120 159 209 258 309 365
#     4  10  24  43  64  92 122 160 207 260 311 359
#     4   9  22  40  61  92 125 160 206 254 302 360
#     4  11  23  39  63  94 125 166 206 248 312 369
#     4  11  23  42  66  91 123 168 208 248 310 371
#
# _framework density 21.830359999999999
#
# number of rings (size 3 to 8) (size 9 to 14) (size 15 to 20)
#    0.000    1.500    0.000    4.125    0.000   14.000 
#    0.000    3.125    0.000    0.000    0.000    0.000 
#    0.000    0.000    0.000    0.000    0.000    0.000 
#
# Total GULP energy -89459.405634 kJ/mol
# GULP energy per Si atom -5591.212852 kJ/mol
# Density = 2.178067 g / cm^3
# Si number density = 21.830360 Si / 1000 Ang^3
#
#
#
# Elastic Constant Matrix: (Units=GPa)
#
#
# Indices 1 2 3 4 5 6 
#
# 1 124.5375 17.1447 37.1407 10.4717 -0.9899 6.4765
# 2 17.1447 50.8322 1.4857 11.5734 2.3389 11.2268
# 3 37.1407 1.4857 74.3090 13.1810 -0.2297 10.3473
# 4 10.4717 11.5734 13.1810 29.8341 1.7643 0.1295
# 5 -0.9899 2.3389 -0.2297 1.7643 26.0210 3.6849
# 6 6.4765 11.2268 10.3473 0.1295 3.6849 18.0432
#
#
#
# Elastic Compliance Matrix: (Units=1/GPa)
#
#
# Indices 1 2 3 4 5 6 
#
# 1 0.009973 -0.003602 -0.005148 0.000139 0.000432 0.001524
# 2 -0.003602 0.027776 0.006147 -0.012202 0.001029 -0.019637
# 3 -0.005148 0.006147 0.019421 -0.009215 0.001952 -0.013446
# 4 0.000139 -0.012202 -0.009215 0.042438 -0.003738 0.013286
# 5 0.000432 0.001029 0.001952 -0.003738 0.040051 -0.010067
# 6 0.001524 -0.019637 -0.013446 0.013286 -0.010067 0.076766
#
#
# Mechanical properties :
#
#
# Convention : Reuss Voigt Hill
#
# Bulk Modulus (GPa) = 19.24440 40.13565 29.69002
# Shear Modulus (GPa) = 20.92476 27.70684 24.31580
#
# Velocity S-wave (km/s) = 3.09935 3.56643 3.34106
# Velocity P-wave (km/s) = 4.65215 5.94848 5.33980
#
# Compressibility (1/GPa) = 0.05196317
#
# Stress axis : x y z
#
# Youngs Moduli (GPa) = 100.26663 36.00294 51.49185
#
# Poissons Ratio (x) = 0.12966 0.26510
# Poissons Ratio (y) = 0.36111 -0.31651
# Poissons Ratio (z) = 0.51621 -0.22130
#
# Static dielectric constant tensor:
#      x y z
#    x 1.814420 -0.008910 -0.015510 
#    y -0.008910 1.791490 -0.005150 
#    z -0.015510 -0.005150 1.764180 
# 
# From -- ./inp_files/38648.got.cif
#   From: 2010.05.17/outbox.cif.g08.bks.cpg/sg2_20_cif.got.tgz:38648.got - 2010.06.03 11:33:40.
