data_PCOD9038656
_publ_section_title
;
Structure prediction by ZEFSAII (Michael W. Deem and Ramdas Pophale) SiO2 
 PCOD9038656
Probable space group: P -1
;
_chemical_formula_sum "Si O2"
_cell_formula_units_Z 16
_cell_length_a 7.470703
_cell_length_b 11.481947
_cell_length_c 9.686322
_cell_angle_alpha 68.718475
_cell_angle_beta 56.228008
_cell_angle_gamma 83.605092
_cell_volume 639.176286
_symmetry_space_group_name_H-M "P -1"
_symmetry_group_IT_number 2
_symmetry_cell_setting 'triclinic'
loop_
_space_group_symop_operation_xyz
x,y,z
-x,-y,-z
loop_
_atom_site_type_symbol
_atom_site_label
_atom_site_fract_x
_atom_site_fract_y
_atom_site_fract_z
Si Si1 0.392461 0.295024 0.400837
Si Si2 0.480583 0.101310 0.845800
Si Si3 0.319459 0.470016 0.900116
Si Si4 0.058323 0.340387 0.292878
Si Si5 0.586196 0.116686 0.227235
Si Si6 0.056996 0.228660 0.055389
Si Si7 0.108724 0.445255 0.615606
Si Si8 0.675150 0.291905 0.859231
O O1 0.607311 0.386161 0.222826
O O2 0.183385 0.297456 0.389631
O O3 0.461716 0.158521 0.397389
O O4 0.311399 0.367136 0.537719
O O5 0.674837 0.207217 0.757521
O O6 0.477730 0.023911 0.739798
O O7 0.259927 0.162460 0.942320
O O8 0.500000 0.000000 0.000000
O O9 0.536511 0.402422 0.827540
O O10 0.234320 0.446271 0.101335
O O11 0.135389 0.379982 0.933563
O O12 0.027099 0.235460 0.232696
O O13 0.862656 0.423930 0.368379
O O14 0.841948 0.150010 0.126380
O O15 0.549956 0.211184 0.071828
O O16 0.000000 0.500000 0.500000
O O17 0.913523 0.339758 0.785842
#
# Coordination Sequence:
#
# PCOD9038656 Si02
#       8
#     2   2   2   2   2   2   2   2
#     4  11  18  30  50  76 103 134 174 208 243 301
#     4   9  18  34  56  81  93 126 173 220 247 288
#     4   9  16  30  51  73 101 129 172 209 253 285
#     4   9  16  30  49  74  98 132 164 211 249 290
#     4  11  20  32  52  75 106 138 164 206 255 301
#     4   9  20  31  52  78 106 127 166 206 261 304
#     4  10  19  29  52  77 104 131 173 211 253 288
#     4  10  17  33  54  77 102 128 172 218 248 291
#
# _framework density 25.032218
#
# number of rings (size 3 to 8) (size 9 to 14) (size 15 to 20)
#    0.750    1.500    3.750    2.250    0.000    0.500 
#    0.000    1.250    0.000    0.000    0.000    7.875 
#    0.000    0.000    0.000    0.000    0.000    0.000 
#
# Total GULP energy -89185.589759 kJ/mol
# GULP energy per Si atom -5574.099360 kJ/mol
# Density = 2.497524 g / cm^3
# Si number density = 25.032218 Si / 1000 Ang^3
#
#
#
# Elastic Constant Matrix: (Units=GPa)
#
#
# Indices 1 2 3 4 5 6 
#
# 1 79.3034 28.3113 0.9636 2.5046 -6.8093 22.1796
# 2 28.3113 145.3664 18.4554 38.9874 -2.9798 14.4704
# 3 0.9636 18.4554 43.3586 15.1661 -8.8301 -5.5596
# 4 2.5046 38.9874 15.1661 26.2724 -7.7025 -10.3697
# 5 -6.8093 -2.9798 -8.8301 -7.7025 29.6557 0.3774
# 6 22.1796 14.4704 -5.5596 -10.3697 0.3774 33.7524
#
#
#
# Elastic Compliance Matrix: (Units=1/GPa)
#
#
# Indices 1 2 3 4 5 6 
#
# 1 0.016620 -0.000881 0.000643 -0.004470 0.002909 -0.011843
# 2 -0.000881 0.019031 0.001477 -0.038838 -0.007693 -0.019183
# 3 0.000643 0.001477 0.029642 -0.018927 0.004232 -0.002036
# 4 -0.004470 -0.038838 -0.018927 0.137215 0.024332 0.058354
# 5 0.002909 -0.007693 0.004232 0.024332 0.041079 0.009100
# 6 -0.011843 -0.019183 -0.002036 0.058354 0.009100 0.063125
#
#
# Mechanical properties :
#
#
# Convention : Reuss Voigt Hill
#
# Bulk Modulus (GPa) = 14.75556 40.38766 27.57161
# Shear Modulus (GPa) = 15.29877 32.62266 23.96071
#
# Velocity S-wave (km/s) = 2.47485 3.61394 3.09721
# Velocity P-wave (km/s) = 3.75153 5.79512 4.88146
#
# Compressibility (1/GPa) = 0.06777108
#
# Stress axis : x y z
#
# Youngs Moduli (GPa) = 60.16910 52.54495 33.73629
#
# Poissons Ratio (x) = 0.04629 -0.02169
# Poissons Ratio (y) = 0.05301 -0.04984
# Poissons Ratio (z) = -0.03868 -0.07762
#
# Static dielectric constant tensor:
#      x y z
#    x 1.996750 0.023110 0.089140 
#    y 0.023110 2.037330 0.056360 
#    z 0.089140 0.056360 2.156350 
# 
# From -- ./inp_files/390175.got.cif
#   From: 2010.05.17/outbox.cif.g08.bks.cpg/sg2_196_cif.got.tgz:390175.got - 2010.06.03 11:33:40.
