data_PCOD9038502
_publ_section_title
;
Structure prediction by ZEFSAII (Michael W. Deem and Ramdas Pophale) SiO2 
 PCOD9038502
Probable space group: P -1
;
_chemical_formula_sum "Si O2"
_cell_formula_units_Z 16
_cell_length_a 15.428288
_cell_length_b 10.195802
_cell_length_c 14.196421
_cell_angle_alpha 56.831271
_cell_angle_beta 34.737300
_cell_angle_gamma 35.879841
_cell_volume 697.059124
_symmetry_space_group_name_H-M "P -1"
_symmetry_group_IT_number 2
_symmetry_cell_setting 'triclinic'
loop_
_space_group_symop_operation_xyz
x,y,z
-x,-y,-z
loop_
_atom_site_type_symbol
_atom_site_label
_atom_site_fract_x
_atom_site_fract_y
_atom_site_fract_z
Si Si1 0.591197 0.019770 0.546164
Si Si2 0.248895 0.376986 0.352370
Si Si3 0.983836 0.134573 0.681280
Si Si4 0.913243 0.282944 0.302560
Si Si5 0.715412 0.469150 0.206745
Si Si6 0.657566 0.863975 0.109515
Si Si7 0.526827 0.641743 0.632435
Si Si8 0.865280 0.047842 0.009610
O O1 0.697531 0.763243 0.544810
O O2 0.767024 0.978499 0.474565
O O3 0.350528 0.177155 0.755147
O O4 0.573917 0.132987 0.424534
O O5 0.195495 0.601421 0.304164
O O6 0.000000 0.500000 0.500000
O O7 0.442564 0.155715 0.193274
O O8 0.897569 0.138205 0.858051
O O9 0.014785 0.954706 0.663430
O O10 0.721686 0.442430 0.325505
O O11 0.796166 0.425078 0.448789
O O12 0.129608 0.218224 0.099582
O O13 0.640367 0.699976 0.149375
O O14 0.572433 0.442985 0.293489
O O15 0.988465 0.221281 0.039114
O O16 0.402596 0.750117 0.801862
O O17 0.000000 0.000000 0.000000
#
# Coordination Sequence:
#
# PCOD9038502 Si02
#       8
#     2   2   2   2   2   2   2   2
#     4   9  16  30  50  73  96 123 160 203 241 279
#     4   8  18  31  50  74  95 127 165 206 243 278
#     4  10  17  33  54  71  96 133 165 200 240 291
#     4  11  19  28  51  75 103 126 164 201 248 288
#     4  10  18  31  50  73 101 132 162 199 246 289
#     4  10  20  30  47  78 102 125 157 214 243 287
#     4  11  18  31  52  76 102 129 160 202 244 297
#     4   9  18  30  51  76  97 127 165 202 239 291
#
# _framework density 22.953576999999999
#
# number of rings (size 3 to 8) (size 9 to 14) (size 15 to 20)
#    0.750    1.500    5.000    1.500    0.000    0.500 
#    0.000    0.625    0.000    5.250    0.000    0.000 
#    0.000    0.000    0.000    0.000    0.000    0.000 
#
# Total GULP energy -89082.709563 kJ/mol
# GULP energy per Si atom -5567.669348 kJ/mol
# Density = 2.290133 g / cm^3
# Si number density = 22.953577 Si / 1000 Ang^3
#
#
#
# Elastic Constant Matrix: (Units=GPa)
#
#
# Indices 1 2 3 4 5 6 
#
# 1 29.4632 23.6499 17.9684 0.7743 -2.7459 2.6569
# 2 23.6499 199.7094 59.8255 -8.6898 4.0504 1.9258
# 3 17.9684 59.8255 178.8937 20.3170 -2.4517 12.5001
# 4 0.7743 -8.6898 20.3170 35.7745 11.6617 1.1331
# 5 -2.7459 4.0504 -2.4517 11.6617 27.6587 7.3426
# 6 2.6569 1.9258 12.5001 1.1331 7.3426 22.4309
#
#
#
# Elastic Compliance Matrix: (Units=1/GPa)
#
#
# Indices 1 2 3 4 5 6 
#
# 1 0.039794 -0.004452 -0.001649 -0.003209 0.007307 -0.005642
# 2 -0.004452 0.006516 -0.002451 0.004326 -0.004089 0.002453
# 3 -0.001649 -0.002451 0.007734 -0.006405 0.004963 -0.005205
# 4 -0.003209 0.004326 -0.006405 0.039019 -0.020149 0.008203
# 5 0.007307 -0.004089 0.004963 -0.020149 0.051489 -0.019117
# 6 -0.005642 0.002453 -0.005205 0.008203 -0.019117 0.053783
#
#
# Mechanical properties :
#
#
# Convention : Reuss Voigt Hill
#
# Bulk Modulus (GPa) = 27.07040 67.88377 47.47709
# Shear Modulus (GPa) = 21.95354 37.61434 29.78394
#
# Velocity S-wave (km/s) = 3.09598 4.05249 3.60609
# Velocity P-wave (km/s) = 4.95976 7.17882 6.16988
#
# Compressibility (1/GPa) = 0.03694072
#
# Stress axis : x y z
#
# Youngs Moduli (GPa) = 25.12931 153.46527 129.29369
#
# Poissons Ratio (x) = 0.68320 0.21325
# Poissons Ratio (y) = 0.11187 0.31687
# Poissons Ratio (z) = 0.04145 0.37611
#
# Static dielectric constant tensor:
#      x y z
#    x 2.042230 0.041840 -0.088890 
#    y 0.041840 1.919000 0.037530 
#    z -0.088890 0.037530 1.910360 
# 
# From -- ./inp_files/465556.got.cif
#   From: 2010.05.17/outbox.cif.g08.bks.cpg/sg2_233_cif.got.tgz:465556.got - 2010.06.03 11:33:40.
