data_PCOD9038289
_publ_section_title
;
Structure prediction by ZEFSAII (Michael W. Deem and Ramdas Pophale) SiO2 
 PCOD9038289
Probable space group: P -1
;
_chemical_formula_sum "Si O2"
_cell_formula_units_Z 14
_cell_length_a 26.335469
_cell_length_b 5.560496
_cell_length_c 10.963702
_cell_angle_alpha 64.686582
_cell_angle_beta 32.409102
_cell_angle_gamma 46.003362
_cell_volume 564.036435
_symmetry_space_group_name_H-M "P -1"
_symmetry_group_IT_number 2
_symmetry_cell_setting 'triclinic'
loop_
_space_group_symop_operation_xyz
x,y,z
-x,-y,-z
loop_
_atom_site_type_symbol
_atom_site_label
_atom_site_fract_x
_atom_site_fract_y
_atom_site_fract_z
Si Si1 0.291009 0.762208 0.356619
Si Si2 0.105169 0.470222 0.217565
Si Si3 0.908490 0.223808 0.347408
Si Si4 0.504916 0.999766 0.839818
Si Si5 0.767829 0.615241 0.788455
Si Si6 0.268787 0.193819 0.732425
Si Si7 0.849164 0.975362 0.186169
O O1 0.222129 0.620956 0.486540
O O2 0.425240 0.424337 0.222711
O O3 0.201202 0.058355 0.579886
O O4 0.281449 0.983311 0.216671
O O5 0.170008 0.538548 0.172257
O O6 0.000000 0.500000 0.500000
O O7 0.232260 0.139110 0.952102
O O8 0.004933 0.783648 0.254676
O O9 0.878237 0.346572 0.522120
O O10 0.999471 0.242884 0.083095
O O11 0.594273 0.027172 0.571809
O O12 0.500000 0.000000 0.000000
O O13 0.360612 0.293238 0.013420
O O14 0.222432 0.593268 0.759432
O O15 0.194453 0.127796 0.811817
#
# Coordination Sequence:
#
# PCOD9038289 Si02
#       7
#     2   2   2   2   2   2   2
#     4  11  23  41  66 102 133 177 225 286 348 405
#     4  11  23  45  68  99 137 177 234 278 341 410
#     4  11  23  41  66 102 133 177 225 286 348 405
#     4  11  23  45  68  99 137 177 234 278 341 410
#     4  12  24  40  70  94 136 186 224 279 340 403
#     4  10  24  45  68  99 137 182 225 288 332 406
#     4  10  23  41  68 100 137 171 225 289 354 404
#
# _framework density 24.821089000000001
#
# number of rings (size 3 to 8) (size 9 to 14) (size 15 to 20)
#    0.000    1.143    2.857    3.000    4.000    3.429 
#    0.000    0.000    0.000   10.286    0.000    0.000 
#    0.000    0.000    0.000    0.000    0.000    0.000 
#
# Total GULP energy -77995.889667 kJ/mol
# GULP energy per Si atom -5571.134976 kJ/mol
# Density = 2.476459 g / cm^3
# Si number density = 24.821089 Si / 1000 Ang^3
#
#
#
# Elastic Constant Matrix: (Units=GPa)
#
#
# Indices 1 2 3 4 5 6 
#
# 1 138.7029 -7.2701 45.8682 -1.5280 13.9179 15.0034
# 2 -7.2701 45.0120 9.7464 -8.6936 -9.1024 8.4589
# 3 45.8682 9.7464 166.8463 -13.2735 14.8447 -3.9553
# 4 -1.5280 -8.6936 -13.2735 42.9765 -1.5710 -1.3266
# 5 13.9179 -9.1024 14.8447 -1.5710 46.7119 2.8716
# 6 15.0034 8.4589 -3.9553 -1.3266 2.8716 30.3068
#
#
#
# Elastic Compliance Matrix: (Units=1/GPa)
#
#
# Indices 1 2 3 4 5 6 
#
# 1 0.008928 0.002839 -0.002679 -0.000139 -0.000923 -0.005480
# 2 0.002839 0.027244 -0.002773 0.004678 0.006101 -0.009744
# 3 -0.002679 -0.002773 0.007297 0.001619 -0.002211 0.003333
# 4 -0.000139 0.004678 0.001619 0.024755 0.001275 -0.000063
# 5 -0.000923 0.006101 -0.002211 0.001275 0.023847 -0.003738
# 6 -0.005480 -0.009744 0.003333 -0.000063 -0.003738 0.039215
#
#
# Mechanical properties :
#
#
# Convention : Reuss Voigt Hill
#
# Bulk Modulus (GPa) = 26.15021 49.69445 37.92233
# Shear Modulus (GPa) = 33.49843 44.14682 38.82263
#
# Velocity S-wave (km/s) = 3.67767 4.22192 3.95916
# Velocity P-wave (km/s) = 5.34715 6.62048 6.01759
#
# Compressibility (1/GPa) = 0.03824061
#
# Stress axis : x y z
#
# Youngs Moduli (GPa) = 112.00260 36.70576 137.04851
#
# Poissons Ratio (x) = -0.10419 0.36717
# Poissons Ratio (y) = -0.31793 0.38010
# Poissons Ratio (z) = 0.30007 0.10180
#
# Static dielectric constant tensor:
#      x y z
#    x 1.916410 0.055790 0.064560 
#    y 0.055790 2.138400 -0.020620 
#    z 0.064560 -0.020620 2.078630 
# 
# From -- ./inp_files/82775.got.cif
#   From: 2010.05.17/outbox.cif.g08.bks.cpg/sg2_42_cif.got.tgz:82775.got - 2010.06.03 11:33:40.
