data_PCOD9038190
_publ_section_title
;
Structure prediction by ZEFSAII (Michael W. Deem and Ramdas Pophale) SiO2 
 PCOD9038190
Probable space group: P -1
;
_chemical_formula_sum "Si O2"
_cell_formula_units_Z 16
_cell_length_a 9.435112
_cell_length_b 5.624369
_cell_length_c 18.057544
_cell_angle_alpha 108.479393
_cell_angle_beta 136.700074
_cell_angle_gamma 76.492931
_cell_volume 623.293491
_symmetry_space_group_name_H-M "P -1"
_symmetry_group_IT_number 2
_symmetry_cell_setting 'triclinic'
loop_
_space_group_symop_operation_xyz
x,y,z
-x,-y,-z
loop_
_atom_site_type_symbol
_atom_site_label
_atom_site_fract_x
_atom_site_fract_y
_atom_site_fract_z
Si Si1 0.562141 0.261058 0.589169
Si Si2 0.794429 0.452183 0.963287
Si Si3 0.246435 0.785041 0.928631
Si Si4 0.826014 0.552517 0.599290
Si Si5 0.904651 0.718086 0.430794
Si Si6 0.177823 0.031560 0.242472
Si Si7 0.499859 0.965096 0.253144
Si Si8 0.564234 0.152474 0.145483
O O1 0.703433 0.391512 0.595805
O O2 0.341293 0.396919 0.524210
O O3 0.500000 0.000000 0.500000
O O4 0.708767 0.218063 0.710929
O O5 0.686198 0.193750 0.870298
O O6 0.626168 0.659851 0.901591
O O7 0.814832 0.433026 0.058755
O O8 0.000000 0.500000 0.000000
O O9 0.291453 0.744436 0.854903
O O10 0.048343 0.971786 0.879107
O O11 0.463608 0.896078 0.050646
O O12 0.862323 0.806990 0.682917
O O13 0.020071 0.400320 0.629617
O O14 0.661833 0.785523 0.339329
O O15 0.000000 0.500000 0.500000
O O16 0.000000 0.000000 0.500000
O O17 0.363846 0.142275 0.273382
O O18 0.628307 0.097319 0.248850
#
# Coordination Sequence:
#
# PCOD9038190 Si02
#       8
#     2   2   2   2   2   2   2   2
#     4   9  21  40  67  92 137 179 244 303 362 446
#     4  11  23  43  71 101 151 190 255 313 386 452
#     4  10  23  41  67 104 135 199 242 308 381 458
#     4  10  24  42  70  99 138 193 244 306 374 450
#     4  12  31  50  79 111 158 201 257 318 391 456
#     4  11  23  40  69  99 143 179 251 295 382 447
#     4  11  27  44  71 111 147 197 250 319 385 453
#     4  10  23  44  69  96 149 185 248 309 378 460
#
# _framework density 25.670088
#
# number of rings (size 3 to 8) (size 9 to 14) (size 15 to 20)
#    0.000    1.500    0.000    2.625   14.000    5.000 
#    0.000    0.000    0.000    0.000    0.000    0.000 
#    0.000    0.000    0.000    0.000    0.000    0.000 
#
# Total GULP energy -89310.337716 kJ/mol
# GULP energy per Si atom -5581.896107 kJ/mol
# Density = 2.561166 g / cm^3
# Si number density = 25.670088 Si / 1000 Ang^3
#
#
#
# Elastic Constant Matrix: (Units=GPa)
#
#
# Indices 1 2 3 4 5 6 
#
# 1 168.0524 34.8572 43.6245 -27.8182 -4.7695 -16.4927
# 2 34.8572 77.0575 28.0722 -24.4809 -4.5567 2.9776
# 3 43.6245 28.0722 95.0105 -22.1321 3.7389 8.9214
# 4 -27.8182 -24.4809 -22.1321 46.6012 2.1033 -9.3348
# 5 -4.7695 -4.5567 3.7389 2.1033 39.5253 -13.0061
# 6 -16.4927 2.9776 8.9214 -9.3348 -13.0061 45.1808
#
#
#
# Elastic Compliance Matrix: (Units=1/GPa)
#
#
# Indices 1 2 3 4 5 6 
#
# 1 0.008250 -0.001508 -0.003102 0.003587 0.002644 0.005226
# 2 -0.001508 0.016929 -0.002908 0.006695 0.001971 0.000859
# 3 -0.003102 -0.002908 0.013937 0.002562 -0.003541 -0.004183
# 4 0.003587 0.006695 0.002562 0.029655 0.001679 0.006972
# 5 0.002644 0.001971 -0.003541 0.001679 0.029506 0.010375
# 6 0.005226 0.000859 -0.004183 0.006972 0.010375 0.029237
#
#
# Mechanical properties :
#
#
# Convention : Reuss Voigt Hill
#
# Bulk Modulus (GPa) = 41.52640 61.46980 51.49810
# Shear Modulus (GPa) = 33.20543 41.83256 37.51899
#
# Velocity S-wave (km/s) = 3.60049 4.04124 3.82721
# Velocity P-wave (km/s) = 5.78764 6.76561 6.29565
#
# Compressibility (1/GPa) = 0.02408107
#
# Stress axis : x y z
#
# Youngs Moduli (GPa) = 121.21055 59.06903 71.74929
#
# Poissons Ratio (x) = 0.08908 0.22254
# Poissons Ratio (y) = 0.18279 0.20866
# Poissons Ratio (z) = 0.37595 0.17179
#
# Static dielectric constant tensor:
#      x y z
#    x 2.232570 -0.069170 -0.173500 
#    y -0.069170 1.935050 0.026200 
#    z -0.173500 0.026200 2.161400 
# 
# From -- ./inp_files/553669.got.cif
#   From: 2010.05.17/outbox.cif.g08.bks.cpg/sg2_277_cif.got.tgz:553669.got - 2010.06.03 11:33:40.
