data_PCOD9038166
_publ_section_title
;
Structure prediction by ZEFSAII (Michael W. Deem and Ramdas Pophale) SiO2 
 PCOD9038166
Probable space group: P -1
;
_chemical_formula_sum "Si O2"
_cell_formula_units_Z 15
_cell_length_a 19.891512
_cell_length_b 9.103300
_cell_length_c 17.834697
_cell_angle_alpha 34.799373
_cell_angle_beta 22.489856
_cell_angle_gamma 34.653698
_cell_volume 674.136073
_symmetry_space_group_name_H-M "P -1"
_symmetry_group_IT_number 2
_symmetry_cell_setting 'triclinic'
loop_
_space_group_symop_operation_xyz
x,y,z
-x,-y,-z
loop_
_atom_site_type_symbol
_atom_site_label
_atom_site_fract_x
_atom_site_fract_y
_atom_site_fract_z
Si Si1 0.927277 0.610311 0.774910
Si Si2 0.649536 0.136612 0.142486
Si Si3 0.476014 0.412610 0.791042
Si Si4 0.450728 0.676673 0.552296
Si Si5 0.500000 0.500000 0.000000
Si Si6 0.169076 0.264057 0.452660
Si Si7 0.945929 0.960678 0.183577
Si Si8 0.843882 0.030304 0.557753
O O1 0.016814 0.287585 0.810268
O O2 0.030726 0.768701 0.654854
O O3 0.936353 0.758283 0.623494
O O4 0.712688 0.664611 0.991712
O O5 0.563787 0.359070 0.200820
O O6 0.638561 0.299959 0.007498
O O7 0.536202 0.921695 0.349253
O O8 0.858646 0.997389 0.014280
O O9 0.531155 0.516261 0.611919
O O10 0.651291 0.174846 0.735839
O O11 0.500000 0.500000 0.500000
O O12 0.232251 0.787184 0.752056
O O13 0.342133 0.370167 0.239683
O O14 0.116786 0.153816 0.628836
O O15 0.000000 0.500000 0.500000
O O16 0.204456 0.043878 0.443458
#
# Coordination Sequence:
#
# PCOD9038166 Si02
#       8
#     2   2   2   2   1   2   2   2
#     4  10  23  41  67 100 132 177 220 283 346 391
#     4  11  25  44  72 101 133 186 227 280 343 401
#     4  11  25  44  67 100 138 180 228 277 335 414
#     4  12  27  46  68  98 140 185 230 279 337 406
#     4  12  24  40  74 102 136 178 224 276 348 398
#     4  12  22  39  65  98 134 176 220 275 340 398
#     4  11  23  45  68  97 134 176 233 276 335 409
#     4  11  23  40  65 101 139 170 222 283 338 407
#
# _framework density 22.250702
#
# number of rings (size 3 to 8) (size 9 to 14) (size 15 to 20)
#    0.000    0.800    4.000    3.200    0.000    5.867 
#    0.000    0.000    0.000    0.000    0.000    0.000 
#    0.000    0.000    0.000    0.000    0.000    0.000 
#
# Total GULP energy -83607.682613 kJ/mol
# GULP energy per Si atom -5573.845508 kJ/mol
# Density = 2.220006 g / cm^3
# Si number density = 22.250702 Si / 1000 Ang^3
#
#
#
# Elastic Constant Matrix: (Units=GPa)
#
#
# Indices 1 2 3 4 5 6 
#
# 1 -28.1055 -18.8941 4.9592 24.1635 18.3850 -56.3787
# 2 -18.8941 73.3852 28.6315 34.4900 -10.1319 -31.8402
# 3 4.9592 28.6315 94.1228 2.0032 -20.9750 17.6506
# 4 24.1635 34.4900 2.0032 6.1866 -21.1824 24.2214
# 5 18.3850 -10.1319 -20.9750 -21.1824 39.7350 9.3365
# 6 -56.3787 -31.8402 17.6506 24.2214 9.3365 -4.8606
#
#
#
# Elastic Compliance Matrix: (Units=1/GPa)
#
#
# Indices 1 2 3 4 5 6 
#
# 1 0.026073 -0.014043 0.005434 0.033720 0.007252 -0.008734
# 2 -0.014043 0.015951 -0.002623 -0.011656 0.003535 -0.002418
# 3 0.005434 -0.002623 0.011787 -0.000485 0.002801 -0.000088
# 4 0.033720 -0.011656 -0.000485 0.062938 0.010612 0.017489
# 5 0.007252 0.003535 0.002801 0.010612 0.027725 0.009036
# 6 -0.008734 -0.002418 -0.000088 0.017489 0.009036 0.015599
#
#
# Mechanical properties :
#
#
# Convention : Reuss Voigt Hill
#
# Bulk Modulus (GPa) = 31.90064 18.75508 25.32786
# Shear Modulus (GPa) = 25.90864 16.52594 21.21729
#
# Velocity S-wave (km/s) = 3.41603 2.72824 3.09132
# Velocity P-wave (km/s) = 5.47056 4.28622 4.91420
#
# Compressibility (1/GPa) = 0.03134734
#
# Stress axis : x y z
#
# Youngs Moduli (GPa) = 38.35409 62.69125 84.83970
#
# Poissons Ratio (x) = 0.88039 -0.46105
# Poissons Ratio (y) = 0.53862 0.22253
# Poissons Ratio (z) = -0.20843 0.16444
#
# Static dielectric constant tensor:
#      x y z
#    x 1.821860 -0.098760 -0.023870 
#    y -0.098760 1.944580 0.034810 
#    z -0.023870 0.034810 1.768170 
# 
# From -- ./inp_files/577537.got.cif
#   From: 2010.05.17/outbox.cif.g08.bks.cpg/sg2_289_cif.got.tgz:577537.got - 2010.06.03 11:33:40.
