data_PCOD9038995
_publ_section_title
;
Structure prediction by ZEFSAII (Michael W. Deem and Ramdas Pophale) SiO2 
 PCOD9038995
Probable space group: P -1
;
_chemical_formula_sum "Si O2"
_cell_formula_units_Z 16
_cell_length_a 27.410486
_cell_length_b 6.505721
_cell_length_c 10.954979
_cell_angle_alpha 98.514963
_cell_angle_beta 21.496492
_cell_angle_gamma 100.735906
_cell_volume 701.602707
_symmetry_space_group_name_H-M "P -1"
_symmetry_group_IT_number 2
_symmetry_cell_setting 'triclinic'
loop_
_space_group_symop_operation_xyz
x,y,z
-x,-y,-z
loop_
_atom_site_type_symbol
_atom_site_label
_atom_site_fract_x
_atom_site_fract_y
_atom_site_fract_z
Si Si1 0.777714 0.226682 0.804690
Si Si2 0.379523 0.458856 0.111971
Si Si3 0.497106 0.695347 0.618749
Si Si4 0.749965 0.920447 0.170603
Si Si5 0.850096 0.555793 0.845849
Si Si6 0.038812 0.117258 0.577096
Si Si7 0.094828 0.440238 0.667138
Si Si8 0.575269 0.188087 0.762298
O O1 0.764262 0.352759 0.974161
O O2 0.852298 0.375830 0.537413
O O3 0.875777 0.059934 0.592658
O O4 0.624351 0.171696 0.116366
O O5 0.231889 0.373839 0.398040
O O6 0.366132 0.622718 0.267616
O O7 0.459134 0.586855 0.827993
O O8 0.466839 0.283910 0.939206
O O9 0.500000 0.500000 0.500000
O O10 0.635121 0.849078 0.330599
O O11 0.682042 0.076303 0.428885
O O12 0.901446 0.041404 0.819176
O O13 0.786333 0.687908 0.109825
O O14 0.865627 0.723400 0.714935
O O15 0.000000 0.500000 0.500000
O O16 0.011545 0.253049 0.769469
O O17 0.000000 0.500000 0.000000
O O18 0.500000 0.000000 0.000000
#
# Coordination Sequence:
#
# PCOD9038995 Si02
#       8
#     2   2   2   2   2   2   2   2
#     4  10  23  42  65  94 133 171 217 276 334 395
#     4  10  24  45  68  96 142 179 219 288 334 392
#     4  11  23  43  68 101 138 176 220 274 344 402
#     4  12  24  40  70 100 129 182 229 271 335 410
#     4  11  23  44  66  95 137 170 217 286 335 393
#     4  11  25  42  68  99 128 175 227 274 339 400
#     4  10  23  43  66  95 132 174 224 278 335 397
#     4  11  24  44  67 101 135 179 229 278 332 396
#
# _framework density 22.804928
#
# number of rings (size 3 to 8) (size 9 to 14) (size 15 to 20)
#    0.000    1.250    3.750    1.125    1.750    3.500 
#    0.000    1.250    0.000    0.000    0.000    0.000 
#    0.000    0.000    0.000    0.000    0.000    0.000 
#
# Total GULP energy -89312.317236 kJ/mol
# GULP energy per Si atom -5582.019827 kJ/mol
# Density = 2.275302 g / cm^3
# Si number density = 22.804928 Si / 1000 Ang^3
#
#
#
# Elastic Constant Matrix: (Units=GPa)
#
#
# Indices 1 2 3 4 5 6 
#
# 1 104.0148 44.8652 51.7188 10.0056 -16.6882 -0.6995
# 2 44.8652 88.8791 48.2744 27.9277 -4.7406 2.7676
# 3 51.7188 48.2744 149.8520 22.6916 -18.7880 2.9054
# 4 10.0056 27.9277 22.6916 41.9261 12.6276 -4.7168
# 5 -16.6882 -4.7406 -18.7880 12.6276 40.8860 10.9472
# 6 -0.6995 2.7676 2.9054 -4.7168 10.9472 50.1412
#
#
#
# Elastic Compliance Matrix: (Units=1/GPa)
#
#
# Indices 1 2 3 4 5 6 
#
# 1 0.013841 -0.005608 -0.002643 0.000787 0.003554 -0.000046
# 2 -0.005608 0.019079 -0.001969 -0.011642 0.003377 -0.002850
# 3 -0.002643 -0.001969 0.009709 -0.005154 0.005318 -0.002137
# 4 0.000787 -0.011642 -0.005154 0.040715 -0.018324 0.008783
# 5 0.003554 0.003377 0.005318 -0.018324 0.037156 -0.010281
# 6 -0.000046 -0.002850 -0.002137 0.008783 -0.010281 0.023295
#
#
# Mechanical properties :
#
#
# Convention : Reuss Voigt Hill
#
# Bulk Modulus (GPa) = 45.06871 70.27364 57.67118
# Shear Modulus (GPa) = 29.13230 39.78313 34.45772
#
# Velocity S-wave (km/s) = 3.57803 4.18125 3.89135
# Velocity P-wave (km/s) = 6.07251 7.36155 6.74788
#
# Compressibility (1/GPa) = 0.02218834
#
# Stress axis : x y z
#
# Youngs Moduli (GPa) = 72.24795 52.41494 103.00180
#
# Poissons Ratio (x) = 0.29392 0.27227
# Poissons Ratio (y) = 0.40513 0.20282
# Poissons Ratio (z) = 0.19098 0.10321
#
# Static dielectric constant tensor:
#      x y z
#    x 1.901910 0.044050 0.058060 
#    y 0.044050 1.932930 0.078610 
#    z 0.058060 0.078610 1.937730 
# 
# From -- ./inp_files/477389.got.cif
#   From: 2010.05.17/outbox.cif.g08.bks.cpg/sg2_239_cif.got.tgz:477389.got - 2010.06.03 11:33:40.
