data_PCOD9038790
_publ_section_title
;
Structure prediction by ZEFSAII (Michael W. Deem and Ramdas Pophale) SiO2 
 PCOD9038790
Probable space group: P -1
;
_chemical_formula_sum "Si O2"
_cell_formula_units_Z 12
_cell_length_a 7.436452
_cell_length_b 5.248607
_cell_length_c 22.092816
_cell_angle_alpha 71.618565
_cell_angle_beta 40.322988
_cell_angle_gamma 81.855699
_cell_volume 522.632172
_symmetry_space_group_name_H-M "P -1"
_symmetry_group_IT_number 2
_symmetry_cell_setting 'triclinic'
loop_
_space_group_symop_operation_xyz
x,y,z
-x,-y,-z
loop_
_atom_site_type_symbol
_atom_site_label
_atom_site_fract_x
_atom_site_fract_y
_atom_site_fract_z
Si Si1 0.797516 0.317807 0.756226
Si Si2 0.796298 0.852930 0.011679
Si Si3 0.816049 0.451771 0.932994
Si Si4 0.952679 0.582474 0.435735
Si Si5 0.103375 0.789520 0.725719
Si Si6 0.262221 0.986591 0.480021
O O1 0.791199 0.370144 0.681149
O O2 0.973476 0.585520 0.721256
O O3 0.498347 0.255568 0.871239
O O4 0.954438 0.057618 0.744777
O O5 0.792818 0.128019 0.953128
O O6 0.886194 0.609406 0.967162
O O7 0.000000 0.000000 0.000000
O O8 0.022016 0.614844 0.819820
O O9 0.500000 0.500000 0.000000
O O10 0.819822 0.854899 0.452523
O O11 0.000000 0.500000 0.500000
O O12 0.737780 0.328352 0.485912
O O13 0.561516 0.128703 0.369409
O O14 0.000000 0.000000 0.500000
#
# Coordination Sequence:
#
# PCOD9038790 Si02
#       6
#     2   2   2   2   2   2
#     4  12  24  42  66 100 132 174 229 273 335 406
#     4  12  26  43  69 105 142 181 227 285 334 402
#     4  12  23  46  72  99 143 180 228 280 341 408
#     4  10  23  42  65  88 134 171 217 277 335 392
#     4  12  25  40  72  98 130 180 221 275 340 399
#     4  10  23  42  62  93 127 169 221 270 331 399
#
# _framework density 22.960699999999999
#
# number of rings (size 3 to 8) (size 9 to 14) (size 15 to 20)
#    0.000    0.667    3.333    4.000    0.000    9.333 
#    0.000    0.000    0.000    0.000    0.000    0.000 
#    0.000    0.000    0.000    0.000    0.000    0.000 
#
# Total GULP energy -67019.598386 kJ/mol
# GULP energy per Si atom -5584.966532 kJ/mol
# Density = 2.290844 g / cm^3
# Si number density = 22.960700 Si / 1000 Ang^3
#
#
#
# Elastic Constant Matrix: (Units=GPa)
#
#
# Indices 1 2 3 4 5 6 
#
# 1 73.0095 14.5491 26.7755 -3.8996 -2.0350 21.0436
# 2 14.5491 158.8607 29.4726 2.6505 4.6117 37.5563
# 3 26.7755 29.4726 180.8784 -12.9990 6.6718 20.7770
# 4 -3.8996 2.6505 -12.9990 38.0700 11.3067 4.0287
# 5 -2.0350 4.6117 6.6718 11.3067 38.7738 -6.9446
# 6 21.0436 37.5563 20.7770 4.0287 -6.9446 31.0454
#
#
#
# Elastic Compliance Matrix: (Units=1/GPa)
#
#
# Indices 1 2 3 4 5 6 
#
# 1 0.018216 0.002223 -0.000852 0.004014 -0.003143 -0.015690
# 2 0.002223 0.009570 0.000102 0.002409 -0.004326 -0.014432
# 3 -0.000852 0.000102 0.006610 0.003654 -0.003183 -0.005156
# 4 0.004014 0.002409 0.003654 0.033291 -0.013160 -0.015344
# 5 -0.003143 -0.004326 -0.003183 -0.013160 0.033890 0.018783
# 6 -0.015690 -0.014432 -0.005156 -0.015344 0.018783 0.069949
#
#
# Mechanical properties :
#
#
# Convention : Reuss Voigt Hill
#
# Bulk Modulus (GPa) = 26.77927 61.59368 44.18648
# Shear Modulus (GPa) = 27.62046 44.37460 35.99753
#
# Velocity S-wave (km/s) = 3.47211 4.40094 3.96383
# Velocity P-wave (km/s) = 5.26901 7.26005 6.34314
#
# Compressibility (1/GPa) = 0.03734231
#
# Stress axis : x y z
#
# Youngs Moduli (GPa) = 54.89825 104.49763 151.27823
#
# Poissons Ratio (x) = -0.23235 0.12890
# Poissons Ratio (y) = -0.12206 -0.01544
# Poissons Ratio (z) = 0.04678 -0.01066
#
# Static dielectric constant tensor:
#      x y z
#    x 1.941700 -0.079950 0.085780 
#    y -0.079950 1.994380 0.011140 
#    z 0.085780 0.011140 1.807630 
# 
# From -- ./inp_files/96476.got.cif
#   From: 2010.05.17/outbox.cif.g08.bks.cpg/sg2_49_cif.got.tgz:96476.got - 2010.06.03 11:33:40.
