data_PCOD9038822
_publ_section_title
;
Structure prediction by ZEFSAII (Michael W. Deem and Ramdas Pophale) SiO2 
 PCOD9038822
Probable space group: P -1
;
_chemical_formula_sum "Si O2"
_cell_formula_units_Z 14
_cell_length_a 14.235060
_cell_length_b 9.222645
_cell_length_c 12.101071
_cell_angle_alpha 123.656763
_cell_angle_beta 147.099915
_cell_angle_gamma 70.207186
_cell_volume 689.499712
_symmetry_space_group_name_H-M "P -1"
_symmetry_group_IT_number 2
_symmetry_cell_setting 'triclinic'
loop_
_space_group_symop_operation_xyz
x,y,z
-x,-y,-z
loop_
_atom_site_type_symbol
_atom_site_label
_atom_site_fract_x
_atom_site_fract_y
_atom_site_fract_z
Si Si1 0.886698 0.300746 0.839870
Si Si2 0.738965 0.147917 0.194551
Si Si3 0.341236 0.837136 0.224759
Si Si4 0.343464 0.568089 0.931145
Si Si5 0.352181 0.899472 0.673758
Si Si6 0.040555 0.983781 0.904693
Si Si7 0.126559 0.180667 0.535079
O O1 0.789277 0.268912 0.850364
O O2 0.729066 0.222029 0.562050
O O3 0.000000 0.500000 0.000000
O O4 0.019905 0.170391 0.912575
O O5 0.734490 0.315065 0.183094
O O6 0.712003 0.198298 0.315522
O O7 0.924281 0.095877 0.342416
O O8 0.565962 0.982262 0.923154
O O9 0.500000 0.000000 0.500000
O O10 0.225742 0.930775 0.069565
O O11 0.405565 0.695218 0.152695
O O12 0.192464 0.383222 0.730992
O O13 0.500000 0.500000 0.000000
O O14 0.265788 0.069367 0.656581
O O15 0.000000 0.000000 0.000000
O O16 0.898333 0.831587 0.628150
#
# Coordination Sequence:
#
# PCOD9038822 Si02
#       7
#     2   2   2   2   2   2   2
#     4  10  23  43  66  95 133 171 223 277 328 405
#     4  11  22  40  64  93 129 172 209 275 336 392
#     4  11  24  44  68  95 133 179 222 269 340 406
#     4  12  25  41  66 101 133 168 231 284 325 387
#     4  10  23  42  63  93 132 171 216 268 340 399
#     4   9  21  39  66  90 126 174 215 264 339 394
#     4  11  22  40  65  95 128 171 222 272 329 400
#
# _framework density 20.304576999999998
#
# number of rings (size 3 to 8) (size 9 to 14) (size 15 to 20)
#    0.000    1.429    2.857    1.714    6.000    1.143 
#    0.000    0.714    0.000    0.000    0.000    0.000 
#    0.000    0.000    0.000    0.000    0.000    0.000 
#
# Total GULP energy -78151.554445 kJ/mol
# GULP energy per Si atom -5582.253889 kJ/mol
# Density = 2.025836 g / cm^3
# Si number density = 20.304577 Si / 1000 Ang^3
#
#
#
# Elastic Constant Matrix: (Units=GPa)
#
#
# Indices 1 2 3 4 5 6 
#
# 1 103.7581 31.7813 38.0660 7.0203 -0.2748 -12.3961
# 2 31.7813 65.2628 41.9301 16.8334 -6.7847 -5.6899
# 3 38.0660 41.9301 108.0799 6.0783 -4.6970 -7.6314
# 4 7.0203 16.8334 6.0783 30.1821 -4.0243 -3.0219
# 5 -0.2748 -6.7847 -4.6970 -4.0243 35.1078 -0.4204
# 6 -12.3961 -5.6899 -7.6314 -3.0219 -0.4204 34.0606
#
#
#
# Elastic Compliance Matrix: (Units=1/GPa)
#
#
# Indices 1 2 3 4 5 6 
#
# 1 0.012210 -0.004223 -0.002492 0.000204 -0.000992 0.003186
# 2 -0.004223 0.025491 -0.007650 -0.011348 0.002569 0.000032
# 3 -0.002492 -0.007650 0.013055 0.002384 0.000533 0.000958
# 4 0.000204 -0.011348 0.002384 0.039517 0.002684 0.002252
# 5 -0.000992 0.002569 0.000533 0.002684 0.029361 0.000788
# 6 0.003186 0.000032 0.000958 0.002252 0.000788 0.030948
#
#
# Mechanical properties :
#
#
# Convention : Reuss Voigt Hill
#
# Bulk Modulus (GPa) = 45.40011 55.62842 50.51427
# Shear Modulus (GPa) = 26.78770 30.89166 28.83968
#
# Velocity S-wave (km/s) = 3.63615 3.90476 3.77285
# Velocity P-wave (km/s) = 6.32747 6.91274 6.62657
#
# Compressibility (1/GPa) = 0.02202638
#
# Stress axis : x y z
#
# Youngs Moduli (GPa) = 81.90297 39.22945 76.60175
#
# Poissons Ratio (x) = 0.16566 0.19086
# Poissons Ratio (y) = 0.34587 0.58600
# Poissons Ratio (z) = 0.20407 0.30010
#
# Static dielectric constant tensor:
#      x y z
#    x 1.786300 -0.009630 -0.004210 
#    y -0.009630 1.707600 0.002220 
#    z -0.004210 0.002220 1.731980 
# 
# From -- ./inp_files/201371.got.cif
#   From: 2010.05.17/outbox.cif.g08.bks.cpg/sg2_101_cif.got.tgz:201371.got - 2010.06.03 11:33:40.
