data_PCOD9038815
_publ_section_title
;
Structure prediction by ZEFSAII (Michael W. Deem and Ramdas Pophale) SiO2 
 PCOD9038815
Probable space group: P -1
;
_chemical_formula_sum "Si O2"
_cell_formula_units_Z 14
_cell_length_a 5.364136
_cell_length_b 20.870168
_cell_length_c 10.899948
_cell_angle_alpha 147.982865
_cell_angle_beta 66.769882
_cell_angle_gamma 116.743811
_cell_volume 577.526500
_symmetry_space_group_name_H-M "P -1"
_symmetry_group_IT_number 2
_symmetry_cell_setting 'triclinic'
loop_
_space_group_symop_operation_xyz
x,y,z
-x,-y,-z
loop_
_atom_site_type_symbol
_atom_site_label
_atom_site_fract_x
_atom_site_fract_y
_atom_site_fract_z
Si Si1 0.346194 0.779486 0.703803
Si Si2 0.719177 0.608040 0.249000
Si Si3 0.089766 0.230180 0.026703
Si Si4 0.242963 0.799010 0.395751
Si Si5 0.295113 0.997781 0.888019
Si Si6 0.634032 0.123563 0.752884
Si Si7 0.637659 0.633272 0.026907
O O1 0.476301 0.673286 0.448838
O O2 0.382970 0.889381 0.773592
O O3 0.053420 0.741623 0.772282
O O4 0.538855 0.861693 0.903095
O O5 0.730075 0.589858 0.069843
O O6 0.010970 0.707682 0.375123
O O7 0.647604 0.475681 0.114989
O O8 0.855596 0.127951 0.828058
O O9 0.374173 0.187181 0.928574
O O10 0.180881 0.342952 0.093224
O O11 0.270694 0.938193 0.663261
O O12 0.173717 0.794425 0.258198
O O13 0.532070 0.757518 0.278860
O O14 0.000000 0.000000 0.000000
O O15 0.500000 0.000000 0.500000
#
# Coordination Sequence:
#
# PCOD9038815 Si02
#       7
#     2   2   2   2   2   2   2
#     4  11  25  39  65  95 131 170 214 266 332 394
#     4  11  21  41  67  89 125 169 224 270 319 381
#     4  11  25  43  63  97 136 169 219 268 334 390
#     4  11  21  39  67  93 126 166 224 267 325 383
#     4  11  23  39  62  93 131 168 210 263 327 396
#     4  11  24  40  66  94 135 175 214 269 327 394
#     4  10  23  42  63  92 126 170 221 270 321 382
#
# _framework density 24.241313999999999
#
# number of rings (size 3 to 8) (size 9 to 14) (size 15 to 20)
#    0.000    1.143    4.286    1.714    4.000    1.714 
#    0.000    0.000    0.000    3.429    0.000    0.000 
#    0.000    0.000    0.000    0.000    0.000    0.000 
#
# Total GULP energy -78050.463930 kJ/mol
# GULP energy per Si atom -5575.033138 kJ/mol
# Density = 2.418614 g / cm^3
# Si number density = 24.241314 Si / 1000 Ang^3
#
#
#
# Elastic Constant Matrix: (Units=GPa)
#
#
# Indices 1 2 3 4 5 6 
#
# 1 53.1853 -4.8802 14.3699 -9.2921 0.7515 -1.0381
# 2 -4.8802 121.8186 34.5330 -27.2266 2.5383 3.5518
# 3 14.3699 34.5330 97.4048 -22.8108 -18.1367 1.6646
# 4 -9.2921 -27.2266 -22.8108 45.4833 6.4202 1.2234
# 5 0.7515 2.5383 -18.1367 6.4202 31.5615 -5.7369
# 6 -1.0381 3.5518 1.6646 1.2234 -5.7369 33.1035
#
#
#
# Elastic Compliance Matrix: (Units=1/GPa)
#
#
# Indices 1 2 3 4 5 6 
#
# 1 0.021000 0.003085 -0.003801 0.004800 -0.003972 -0.000347
# 2 0.003085 0.010884 -0.003751 0.005975 -0.004667 -0.001912
# 3 -0.003801 -0.003751 0.014373 0.003006 0.008198 0.000870
# 4 0.004800 0.005975 0.003006 0.028856 -0.005212 -0.002611
# 5 -0.003972 -0.004667 0.008198 -0.005212 0.039188 0.006948
# 6 -0.000347 -0.001912 0.000870 -0.002611 0.006948 0.031659
#
#
# Mechanical properties :
#
#
# Convention : Reuss Voigt Hill
#
# Bulk Modulus (GPa) = 26.79400 40.05047 33.42223
# Shear Modulus (GPa) = 29.87985 37.25541 33.56763
#
# Velocity S-wave (km/s) = 3.51465 3.92453 3.72523
# Velocity P-wave (km/s) = 5.24856 6.09043 5.68510
#
# Compressibility (1/GPa) = 0.03732179
#
# Stress axis : x y z
#
# Youngs Moduli (GPa) = 47.61835 91.87666 69.57715
#
# Poissons Ratio (x) = -0.28341 0.26448
# Poissons Ratio (y) = -0.14689 0.26099
# Poissons Ratio (z) = 0.18101 0.34463
#
# Static dielectric constant tensor:
#      x y z
#    x 2.002630 0.037330 0.135540 
#    y 0.037330 2.092010 -0.071140 
#    z 0.135540 -0.071140 1.902670 
# 
# From -- ./inp_files/27083.got.cif
#   From: 2010.05.17/outbox.cif.g08.bks.cpg/sg2_14_cif.got.tgz:27083.got - 2010.06.03 11:33:40.
