data_PCOD9038123
_publ_section_title
;
Structure prediction by ZEFSAII (Michael W. Deem and Ramdas Pophale) SiO2 
 PCOD9038123
Probable space group: P -1
;
_chemical_formula_sum "Si O2"
_cell_formula_units_Z 16
_cell_length_a 17.652411
_cell_length_b 20.518830
_cell_length_c 6.974539
_cell_angle_alpha 64.401757
_cell_angle_beta 62.774231
_cell_angle_gamma 19.911004
_cell_volume 765.000987
_symmetry_space_group_name_H-M "P -1"
_symmetry_group_IT_number 2
_symmetry_cell_setting 'triclinic'
loop_
_space_group_symop_operation_xyz
x,y,z
-x,-y,-z
loop_
_atom_site_type_symbol
_atom_site_label
_atom_site_fract_x
_atom_site_fract_y
_atom_site_fract_z
Si Si1 0.130687 0.824484 0.512753
Si Si2 0.478710 0.483431 0.838515
Si Si3 0.909002 0.434775 0.412085
Si Si4 0.388541 0.035447 0.242316
Si Si5 0.791918 0.961782 0.801385
Si Si6 0.322139 0.358789 0.983251
Si Si7 0.264180 0.309470 0.446976
Si Si8 0.134814 0.628313 0.123884
O O1 0.317098 0.659371 0.668880
O O2 0.280196 0.716340 0.286676
O O3 0.965466 0.884404 0.611098
O O4 0.000000 0.000000 0.500000
O O5 0.500000 0.500000 0.000000
O O6 0.343027 0.516559 0.983541
O O7 0.828605 0.512870 0.191889
O O8 0.745458 0.614448 0.494952
O O9 0.891534 0.371533 0.622651
O O10 0.176397 0.237942 0.339554
O O11 0.575097 0.870717 0.396103
O O12 0.290732 0.039307 0.241154
O O13 0.500000 0.000000 0.000000
O O14 0.573468 0.177015 0.852623
O O15 0.916513 0.831713 0.010888
O O16 0.340044 0.270350 0.194356
O O17 0.199403 0.506310 0.088136
O O18 0.000000 0.500000 0.500000
#
# Coordination Sequence:
#
# PCOD9038123 Si02
#       8
#     2   2   2   2   2   2   2   2
#     4  10  23  44  67  98 135 175 220 275 336 392
#     4  10  23  41  66  99 135 172 218 274 332 407
#     4  11  24  42  69  91 128 174 217 271 328 386
#     4  12  26  42  67  97 131 177 219 265 332 384
#     4  11  23  42  67  95 134 172 218 273 322 396
#     4  11  22  43  65  93 130 168 221 271 325 387
#     4  11  26  43  65  95 128 171 222 274 326 387
#     4  10  23  41  66  97 128 174 218 266 334 388
#
# _framework density 20.915005000000001
#
# number of rings (size 3 to 8) (size 9 to 14) (size 15 to 20)
#    0.000    1.250    2.500    2.250    5.250    4.000 
#    0.000    0.000    0.000    0.000    0.000    0.000 
#    0.000    0.000    0.000    0.000    0.000    0.000 
#
# Total GULP energy -89245.358744 kJ/mol
# GULP energy per Si atom -5577.834921 kJ/mol
# Density = 2.086740 g / cm^3
# Si number density = 20.915005 Si / 1000 Ang^3
#
#
#
# Elastic Constant Matrix: (Units=GPa)
#
#
# Indices 1 2 3 4 5 6 
#
# 1 53.8479 9.7040 41.1188 -12.5357 -6.7318 -9.8462
# 2 9.7040 135.8667 55.5017 -6.5003 -13.6064 -15.5054
# 3 41.1188 55.5017 164.4190 -11.1475 -3.3758 -12.7174
# 4 -12.5357 -6.5003 -11.1475 37.9116 -3.1172 2.0340
# 5 -6.7318 -13.6064 -3.3758 -3.1172 27.5952 1.6206
# 6 -9.8462 -15.5054 -12.7174 2.0340 1.6206 31.7401
#
#
#
# Elastic Compliance Matrix: (Units=1/GPa)
#
#
# Indices 1 2 3 4 5 6 
#
# 1 0.026878 0.002526 -0.006423 0.007723 0.007530 0.006119
# 2 0.002526 0.009545 -0.003349 0.001688 0.004884 0.003747
# 3 -0.006423 -0.003349 0.008754 -0.000304 -0.002182 0.000010
# 4 0.007723 0.001688 -0.000304 0.029573 0.005967 0.000899
# 5 0.007530 0.004884 -0.002182 0.005967 0.040809 0.001381
# 6 0.006119 0.003747 0.000010 0.000899 0.001381 0.035110
#
#
# Mechanical properties :
#
#
# Convention : Reuss Voigt Hill
#
# Bulk Modulus (GPa) = 32.58901 62.97584 47.78243
# Shear Modulus (GPa) = 28.50759 35.97000 32.23879
#
# Velocity S-wave (km/s) = 3.69592 4.15157 3.93035
# Velocity P-wave (km/s) = 5.81623 7.29084 6.59488
#
# Compressibility (1/GPa) = 0.03068519
#
# Stress axis : x y z
#
# Youngs Moduli (GPa) = 37.20456 104.76255 114.22956
#
# Poissons Ratio (x) = -0.26463 0.73371
# Poissons Ratio (y) = -0.09398 0.38260
# Poissons Ratio (z) = 0.23897 0.35089
#
# Static dielectric constant tensor:
#      x y z
#    x 1.819190 0.042730 -0.021770 
#    y 0.042730 1.744360 -0.026970 
#    z -0.021770 -0.026970 1.808000 
# 
# From -- ./inp_files/52369.got.cif
#   From: 2010.05.17/outbox.cif.g08.bks.cpg/sg2_27_cif.got.tgz:52369.got - 2010.06.03 11:33:40.
