data_PCOD9038349
_publ_section_title
;
Structure prediction by ZEFSAII (Michael W. Deem and Ramdas Pophale) SiO2 
 PCOD9038349
Probable space group: P -1
;
_chemical_formula_sum "Si O2"
_cell_formula_units_Z 16
_cell_length_a 18.824509
_cell_length_b 12.388252
_cell_length_c 9.107850
_cell_angle_alpha 133.083322
_cell_angle_beta 133.532301
_cell_angle_gamma 28.812966
_cell_volume 722.636349
_symmetry_space_group_name_H-M "P -1"
_symmetry_group_IT_number 2
_symmetry_cell_setting 'triclinic'
loop_
_space_group_symop_operation_xyz
x,y,z
-x,-y,-z
loop_
_atom_site_type_symbol
_atom_site_label
_atom_site_fract_x
_atom_site_fract_y
_atom_site_fract_z
Si Si1 0.162037 0.740378 0.025048
Si Si2 0.021357 0.665117 0.582742
Si Si3 0.706445 0.943649 0.927860
Si Si4 0.210173 0.671529 0.371932
Si Si5 0.568357 0.562763 0.075563
Si Si6 0.934024 0.862675 0.328407
Si Si7 0.425559 0.232462 0.450131
Si Si8 0.780845 0.849454 0.626320
O O1 0.291187 0.652343 0.021059
O O2 0.136614 0.602831 0.805814
O O3 0.203768 0.699211 0.215119
O O4 0.000000 0.000000 0.000000
O O5 0.005379 0.771641 0.507568
O O6 0.857650 0.848324 0.600738
O O7 0.095758 0.422654 0.426954
O O8 0.659111 0.827546 0.733480
O O9 0.763596 0.939261 0.846719
O O10 0.555017 0.212806 0.994142
O O11 0.837893 0.827864 0.122622
O O12 0.360629 0.415389 0.403058
O O13 0.068114 0.736822 0.286976
O O14 0.179226 0.865823 0.583804
O O15 0.607531 0.641754 0.327880
O O16 0.500000 0.500000 0.000000
O O17 0.607931 0.001094 0.484472
#
# Coordination Sequence:
#
# PCOD9038349 Si02
#       8
#     2   2   2   2   2   2   2   2
#     4  12  25  42  69  97 131 173 222 276 335 394
#     4  11  23  43  67  98 134 170 226 275 330 398
#     4  11  23  42  68  97 134 178 225 270 337 397
#     4  11  25  42  68  96 136 172 224 279 335 393
#     4  11  25  43  71 100 135 178 223 276 331 398
#     4  11  24  42  65 100 132 177 222 277 332 396
#     4  11  24  44  68  96 137 176 224 273 337 400
#     4  10  23  41  68  96 131 176 218 274 331 398
#
# _framework density 22.14115
#
# number of rings (size 3 to 8) (size 9 to 14) (size 15 to 20)
#    0.000    1.000    1.250    6.000    7.000    5.000 
#    0.000    3.750    0.000    0.000    0.000    0.000 
#    0.000    0.000    0.000    0.000    0.000    0.000 
#
# Total GULP energy -89473.447462 kJ/mol
# GULP energy per Si atom -5592.090466 kJ/mol
# Density = 2.209076 g / cm^3
# Si number density = 22.141150 Si / 1000 Ang^3
#
#
#
# Elastic Constant Matrix: (Units=GPa)
#
#
# Indices 1 2 3 4 5 6 
#
# 1 115.0342 36.1307 20.6266 3.5482 -13.8461 -24.4671
# 2 36.1307 105.1169 15.6505 4.5654 -14.6759 -6.1943
# 3 20.6266 15.6505 67.9733 -12.3857 6.6044 -14.7496
# 4 3.5482 4.5654 -12.3857 27.8037 1.7498 -2.2650
# 5 -13.8461 -14.6759 6.6044 1.7498 30.4179 6.5117
# 6 -24.4671 -6.1943 -14.7496 -2.2650 6.5117 36.9657
#
#
#
# Elastic Compliance Matrix: (Units=1/GPa)
#
#
# Indices 1 2 3 4 5 6 
#
# 1 0.011636 -0.002771 -0.002339 -0.001829 0.003375 0.005597
# 2 -0.002771 0.011888 -0.003770 -0.003877 0.006085 -0.002656
# 3 -0.002339 -0.003770 0.021330 0.011773 -0.010082 0.008828
# 4 -0.001829 -0.003877 0.011773 0.043245 -0.009271 0.007121
# 5 0.003375 0.006085 -0.010082 -0.009271 0.041938 -0.008725
# 6 0.005597 -0.002656 0.008828 0.007121 -0.008725 0.035808
#
#
# Mechanical properties :
#
#
# Convention : Reuss Voigt Hill
#
# Bulk Modulus (GPa) = 36.90965 48.10446 42.50705
# Shear Modulus (GPa) = 25.95556 33.41858 29.68707
#
# Velocity S-wave (km/s) = 3.42757 3.88924 3.66568
# Velocity P-wave (km/s) = 5.68952 6.47624 6.09559
#
# Compressibility (1/GPa) = 0.02709319
#
# Stress axis : x y z
#
# Youngs Moduli (GPa) = 85.94064 84.11567 46.88183
#
# Poissons Ratio (x) = 0.23307 0.10968
# Poissons Ratio (y) = 0.23812 0.17677
# Poissons Ratio (z) = 0.20106 0.31715
#
# Static dielectric constant tensor:
#      x y z
#    x 1.829420 -0.010130 0.045080 
#    y -0.010130 1.820210 0.019740 
#    z 0.045080 0.019740 1.841010 
# 
# From -- ./inp_files/333830.got.cif
#   From: 2010.05.17/outbox.cif.g08.bks.cpg/sg2_167_cif.got.tgz:333830.got - 2010.06.03 11:33:40.
