data_PCOD9038710
_publ_section_title
;
Structure prediction by ZEFSAII (Michael W. Deem and Ramdas Pophale) SiO2 
 PCOD9038710
Probable space group: P -1
;
_chemical_formula_sum "Si O2"
_cell_formula_units_Z 14
_cell_length_a 5.193621
_cell_length_b 22.241454
_cell_length_c 11.327999
_cell_angle_alpha 145.072320
_cell_angle_beta 122.650934
_cell_angle_gamma 56.623603
_cell_volume 614.827046
_symmetry_space_group_name_H-M "P -1"
_symmetry_group_IT_number 2
_symmetry_cell_setting 'triclinic'
loop_
_space_group_symop_operation_xyz
x,y,z
-x,-y,-z
loop_
_atom_site_type_symbol
_atom_site_label
_atom_site_fract_x
_atom_site_fract_y
_atom_site_fract_z
Si Si1 0.763868 0.596274 0.210720
Si Si2 0.628316 0.310074 0.502694
Si Si3 0.456052 0.005939 0.689897
Si Si4 0.668310 0.070715 0.073267
Si Si5 0.279485 0.425082 0.376670
Si Si6 0.097476 0.635989 0.033861
Si Si7 0.967761 0.881644 0.449631
O O1 0.595549 0.634686 0.357287
O O2 0.910124 0.468828 0.057327
O O3 0.040070 0.656640 0.357614
O O4 0.476042 0.619634 0.083997
O O5 0.675682 0.182350 0.315255
O O6 0.475779 0.346879 0.397016
O O7 0.784759 0.947182 0.619014
O O8 0.295154 0.914417 0.557537
O O9 0.243850 0.069951 0.637477
O O10 0.479927 0.088280 0.931908
O O11 0.500000 0.000000 0.000000
O O12 0.000000 0.000000 0.000000
O O13 0.500000 0.500000 0.500000
O O14 0.000000 0.500000 0.500000
O O15 0.114470 0.371666 0.145186
O O16 0.994329 0.754381 0.254835
#
# Coordination Sequence:
#
# PCOD9038710 Si02
#       7
#     2   2   2   2   2   2   2
#     4  11  27  43  71 105 144 178 237 281 353 425
#     4  12  25  49  69 104 142 187 230 295 344 424
#     4  10  23  45  62 107 128 181 234 285 339 415
#     4  12  27  43  72 100 139 185 232 285 354 411
#     4  12  24  45  71 101 138 185 232 283 344 420
#     4  11  25  45  70 108 137 189 227 287 351 416
#     4  10  23  41  74  92 142 175 229 289 343 407
#
# _framework density 22.770633
#
# number of rings (size 3 to 8) (size 9 to 14) (size 15 to 20)
#    0.000    0.857    2.857    2.571    6.000    5.714 
#    0.000    5.714    0.000    0.000    0.000    0.000 
#    0.000    0.000    0.000    0.000    0.000    0.000 
#
# Total GULP energy -78411.071643 kJ/mol
# GULP energy per Si atom -5600.790832 kJ/mol
# Density = 2.271881 g / cm^3
# Si number density = 22.770633 Si / 1000 Ang^3
#
#
#
# Elastic Constant Matrix: (Units=GPa)
#
#
# Indices 1 2 3 4 5 6 
#
# 1 163.9215 39.2588 52.1406 11.8297 16.6223 10.1283
# 2 39.2588 115.0473 46.6855 -5.3022 14.5714 6.0746
# 3 52.1406 46.6855 156.2213 8.4086 14.2178 11.4409
# 4 11.8297 -5.3022 8.4086 61.7415 3.5363 3.1900
# 5 16.6223 14.5714 14.2178 3.5363 36.8540 -1.7202
# 6 10.1283 6.0746 11.4409 3.1900 -1.7202 22.0625
#
#
#
# Elastic Compliance Matrix: (Units=1/GPa)
#
#
# Indices 1 2 3 4 5 6 
#
# 1 0.007406 -0.001548 -0.001601 -0.001102 -0.002105 -0.002148
# 2 -0.001548 0.010722 -0.002417 0.001786 -0.002848 -0.001468
# 3 -0.001601 -0.002417 0.008037 -0.000767 -0.001479 -0.002771
# 4 -0.001102 0.001786 -0.000767 0.016870 -0.001632 -0.002154
# 5 -0.002105 -0.002848 -0.001479 -0.001632 0.030175 0.005106
# 6 -0.002148 -0.001468 -0.002771 -0.002154 0.005106 0.048863
#
#
# Mechanical properties :
#
#
# Convention : Reuss Voigt Hill
#
# Bulk Modulus (GPa) = 66.52245 79.03999 72.78122
# Shear Modulus (GPa) = 36.17526 43.93862 40.05694
#
# Velocity S-wave (km/s) = 3.99015 4.39751 4.19877
# Velocity P-wave (km/s) = 7.10675 7.78273 7.45241
#
# Compressibility (1/GPa) = 0.01503252
#
# Stress axis : x y z
#
# Youngs Moduli (GPa) = 135.01980 93.26888 124.43168
#
# Poissons Ratio (x) = 0.14442 0.19921
# Poissons Ratio (y) = 0.20907 0.30071
# Poissons Ratio (z) = 0.21616 0.22540
#
# Static dielectric constant tensor:
#      x y z
#    x 1.816670 0.004860 -0.001130 
#    y 0.004860 1.885400 -0.068400 
#    z -0.001130 -0.068400 1.835710 
# 
# From -- ./inp_files/371176.got.cif
#   From: 2010.05.17/outbox.cif.g08.bks.cpg/sg2_186_cif.got.tgz:371176.got - 2010.06.03 11:33:40.
