data_PCOD9038491
_publ_section_title
;
Structure prediction by ZEFSAII (Michael W. Deem and Ramdas Pophale) SiO2 
 PCOD9038491
Probable space group: P -1
;
_chemical_formula_sum "Si O2"
_cell_formula_units_Z 10
_cell_length_a 11.474249
_cell_length_b 14.247909
_cell_length_c 11.186111
_cell_angle_alpha 18.284701
_cell_angle_beta 43.437100
_cell_angle_gamma 40.397302
_cell_volume 371.797599
_symmetry_space_group_name_H-M "P -1"
_symmetry_group_IT_number 2
_symmetry_cell_setting 'triclinic'
loop_
_space_group_symop_operation_xyz
x,y,z
-x,-y,-z
loop_
_atom_site_type_symbol
_atom_site_label
_atom_site_fract_x
_atom_site_fract_y
_atom_site_fract_z
Si Si1 0.610777 0.130279 0.359301
Si Si2 0.121837 0.703217 0.195177
Si Si3 0.386490 0.362777 0.606806
Si Si4 0.720696 0.263255 0.362338
Si Si5 0.049596 0.403979 0.942576
O O1 0.650335 0.077932 0.535488
O O2 0.500000 0.000000 0.500000
O O3 0.500000 0.500000 0.000000
O O4 0.799296 0.128906 0.167153
O O5 0.282317 0.447718 0.456622
O O6 0.000000 0.500000 0.500000
O O7 0.000000 0.000000 0.000000
O O8 0.556503 0.476073 0.309640
O O9 0.212128 0.518790 0.633843
O O10 0.500000 0.000000 0.000000
O O11 0.846857 0.452681 0.985269
O O12 0.850513 0.974068 0.692547
O O13 0.000000 0.500000 0.000000
#
# Coordination Sequence:
#
# PCOD9038491 Si02
#       5
#     2   2   2   2   2
#     4  12  26  46  75 106 149 198 252 309 380 459
#     4  12  27  48  76 111 152 197 254 318 383 455
#     4  10  23  48  71 104 149 195 253 309 383 452
#     4  10  23  44  66 101 143 190 247 303 380 446
#     4  10  23  41  70 101 140 188 246 314 371 445
#
# _framework density 26.896355
#
# number of rings (size 3 to 8) (size 9 to 14) (size 15 to 20)
#    0.000    1.200    2.000    2.400    5.600    0.800 
#    3.600    0.000    0.000    0.000    0.000    0.000 
#    0.000    0.000    0.000    0.000    0.000    0.000 
#
# Total GULP energy -55672.547163 kJ/mol
# GULP energy per Si atom -5567.254716 kJ/mol
# Density = 2.683514 g / cm^3
# Si number density = 26.896355 Si / 1000 Ang^3
#
#
#
# Elastic Constant Matrix: (Units=GPa)
#
#
# Indices 1 2 3 4 5 6 
#
# 1 133.5125 34.1876 56.3253 9.0461 -34.5989 -16.7983
# 2 34.1876 231.8283 46.3456 62.0864 -43.8333 -23.2316
# 3 56.3253 46.3456 108.4178 0.7122 -30.1753 3.6007
# 4 9.0461 62.0864 0.7122 56.7243 -3.4872 -6.3667
# 5 -34.5989 -43.8333 -30.1753 -3.4872 59.7634 -5.2026
# 6 -16.7983 -23.2316 3.6007 -6.3667 -5.2026 50.9575
#
#
#
# Elastic Compliance Matrix: (Units=1/GPa)
#
#
# Indices 1 2 3 4 5 6 
#
# 1 0.011576 0.001621 -0.005332 -0.002636 0.005494 0.005164
# 2 0.001621 0.008434 -0.003007 -0.008660 0.005454 0.004067
# 3 -0.005332 -0.003007 0.013814 0.003676 0.001594 -0.003483
# 4 -0.002636 -0.008660 0.003676 0.026952 -0.004639 -0.002183
# 5 0.005494 0.005454 0.001594 -0.004639 0.024984 0.006156
# 6 0.005164 0.004067 -0.003483 -0.002183 0.006156 0.023782
#
#
# Mechanical properties :
#
#
# Convention : Reuss Voigt Hill
#
# Bulk Modulus (GPa) = 49.04928 83.05285 66.05106
# Shear Modulus (GPa) = 38.52802 55.94905 47.23853
#
# Velocity S-wave (km/s) = 3.78889 4.56584 4.19539
# Velocity P-wave (km/s) = 6.11694 7.66431 6.93393
#
# Compressibility (1/GPa) = 0.02038766
#
# Stress axis : x y z
#
# Youngs Moduli (GPa) = 86.38240 118.57012 72.38823
#
# Poissons Ratio (x) = -0.19222 0.38598
# Poissons Ratio (y) = -0.14004 0.21771
# Poissons Ratio (z) = 0.46060 0.35660
#
# Static dielectric constant tensor:
#      x y z
#    x 2.084000 -0.108810 -0.176210 
#    y -0.108810 3.105850 0.039530 
#    z -0.176210 0.039530 1.958750 
# 
# From -- ./inp_files/18245.got.cif
#   From: 2010.05.17/outbox.cif.g08.bks.cpg/sg2_10_cif.got.tgz:18245.got - 2010.06.03 11:33:40.
