data_PCOD9038423
_publ_section_title
;
Structure prediction by ZEFSAII (Michael W. Deem and Ramdas Pophale) SiO2 
 PCOD9038423
Probable space group: P -1
;
_chemical_formula_sum "Si O2"
_cell_formula_units_Z 14
_cell_length_a 14.821499
_cell_length_b 23.679672
_cell_length_c 5.253551
_cell_angle_alpha 79.349105
_cell_angle_beta 109.194150
_cell_angle_gamma 160.007539
_cell_volume 549.600879
_symmetry_space_group_name_H-M "P -1"
_symmetry_group_IT_number 2
_symmetry_cell_setting 'triclinic'
loop_
_space_group_symop_operation_xyz
x,y,z
-x,-y,-z
loop_
_atom_site_type_symbol
_atom_site_label
_atom_site_fract_x
_atom_site_fract_y
_atom_site_fract_z
Si Si1 0.264588 0.918414 0.901280
Si Si2 0.302766 0.545715 0.608592
Si Si3 0.047597 0.157750 0.572984
Si Si4 0.675231 0.550049 0.974616
Si Si5 0.107016 0.518498 0.801721
Si Si6 0.953730 0.915349 0.858399
Si Si7 0.729892 0.271810 0.039058
O O1 0.120387 0.876391 0.579399
O O2 0.975256 0.735208 0.945773
O O3 0.500000 0.000000 0.000000
O O4 0.477377 0.089152 0.072859
O O5 0.336648 0.603446 0.845474
O O6 0.613204 0.727996 0.612048
O O7 0.036721 0.421594 0.311125
O O8 0.238626 0.446268 0.730874
O O9 0.404305 0.371629 0.697077
O O10 0.928418 0.046327 0.331508
O O11 0.009389 0.110749 0.860329
O O12 0.500000 0.500000 0.000000
O O13 0.272456 0.660302 0.006211
O O14 0.000000 0.500000 0.500000
O O15 0.815740 0.316485 0.783831
O O16 0.000000 0.000000 0.000000
#
# Coordination Sequence:
#
# PCOD9038423 Si02
#       7
#     2   2   2   2   2   2   2
#     4  12  27  44  77 112 154 205 276 330 383 482
#     4  10  23  41  72 100 144 196 254 317 403 459
#     4  11  27  51  74 112 159 209 263 330 408 476
#     4  11  26  52  76 107 161 219 263 324 403 477
#     4   9  20  42  64  99 145 190 233 320 398 466
#     4  11  26  47  81 111 152 206 271 327 398 495
#     4  10  23  41  69 107 145 192 253 323 400 459
#
# _framework density 25.473030999999999
#
# number of rings (size 3 to 8) (size 9 to 14) (size 15 to 20)
#    0.000    1.429    0.000    3.429   10.000    4.000 
#   10.286    0.000    0.000    0.000    0.000    0.000 
#    0.000    0.000    0.000    0.000    0.000    0.000 
#
# Total GULP energy -77958.884190 kJ/mol
# GULP energy per Si atom -5568.491728 kJ/mol
# Density = 2.541505 g / cm^3
# Si number density = 25.473031 Si / 1000 Ang^3
#
#
#
# Elastic Constant Matrix: (Units=GPa)
#
#
# Indices 1 2 3 4 5 6 
#
# 1 136.9540 35.3331 20.0555 -3.9306 1.3094 -4.8470
# 2 35.3331 116.9954 40.2760 20.8657 5.8444 -2.5504
# 3 20.0555 40.2760 94.8150 8.1164 7.1538 -2.8262
# 4 -3.9306 20.8657 8.1164 27.4696 -4.8635 4.4110
# 5 1.3094 5.8444 7.1538 -4.8635 49.9796 -3.3315
# 6 -4.8470 -2.5504 -2.8262 4.4110 -3.3315 33.1904
#
#
#
# Elastic Compliance Matrix: (Units=1/GPa)
#
#
# Indices 1 2 3 4 5 6 
#
# 1 0.008289 -0.002875 -0.000879 0.003663 0.000634 0.000492
# 2 -0.002875 0.012465 -0.003729 -0.009280 -0.001666 0.001287
# 3 -0.000879 -0.003729 0.012562 -0.001369 -0.001426 0.000694
# 4 0.003663 -0.009280 -0.001369 0.046268 0.005293 -0.005912
# 5 0.000634 -0.001666 -0.001426 0.005293 0.020989 0.001246
# 6 0.000492 0.001287 0.000694 -0.005912 0.001246 0.031270
#
#
# Mechanical properties :
#
#
# Convention : Reuss Voigt Hill
#
# Bulk Modulus (GPa) = 54.49103 60.01040 57.25072
# Shear Modulus (GPa) = 32.69594 39.00124 35.84859
#
# Velocity S-wave (km/s) = 3.58656 3.91715 3.75549
# Velocity P-wave (km/s) = 6.21203 6.63839 6.42875
#
# Compressibility (1/GPa) = 0.01835164
#
# Stress axis : x y z
#
# Youngs Moduli (GPa) = 120.64838 80.22174 79.60480
#
# Poissons Ratio (x) = 0.23062 0.06995
# Poissons Ratio (y) = 0.34685 0.29682
# Poissons Ratio (z) = 0.10602 0.29912
#
# Static dielectric constant tensor:
#      x y z
#    x 2.655080 0.254880 -0.403510 
#    y 0.254880 2.217970 -0.085900 
#    z -0.403510 -0.085900 2.230360 
# 
# From -- ./inp_files/101116.got.cif
#   From: 2010.05.17/outbox.cif.g08.bks.cpg/sg2_51_cif.got.tgz:101116.got - 2010.06.03 11:33:40.
