data_PCOD9038520
_publ_section_title
;
Structure prediction by ZEFSAII (Michael W. Deem and Ramdas Pophale) SiO2 
 PCOD9038520
Probable space group: P -1
;
_chemical_formula_sum "Si O2"
_cell_formula_units_Z 14
_cell_length_a 10.096687
_cell_length_b 16.264537
_cell_length_c 12.356391
_cell_angle_alpha 153.586424
_cell_angle_beta 134.439436
_cell_angle_gamma 54.628646
_cell_volume 637.028548
_symmetry_space_group_name_H-M "P -1"
_symmetry_group_IT_number 2
_symmetry_cell_setting 'triclinic'
loop_
_space_group_symop_operation_xyz
x,y,z
-x,-y,-z
loop_
_atom_site_type_symbol
_atom_site_label
_atom_site_fract_x
_atom_site_fract_y
_atom_site_fract_z
Si Si1 0.358393 0.331613 0.772877
Si Si2 0.235948 0.232616 0.995568
Si Si3 0.006775 0.539045 0.178483
Si Si4 0.386171 0.328653 0.423068
Si Si5 0.687666 0.135635 0.314053
Si Si6 0.470161 0.743087 0.000592
Si Si7 0.781842 0.945418 0.827353
O O1 0.292994 0.194727 0.476211
O O2 0.182270 0.409616 0.818767
O O3 0.500000 0.500000 0.000000
O O4 0.453308 0.225173 0.796962
O O5 0.064629 0.347939 0.032108
O O6 0.361727 0.325904 0.277179
O O7 0.357001 0.256028 0.983040
O O8 0.196726 0.011641 0.738033
O O9 0.172894 0.717226 0.503433
O O10 0.000000 0.500000 0.000000
O O11 0.590087 0.271141 0.496642
O O12 0.364735 0.530621 0.690816
O O13 0.246654 0.164704 0.205591
O O14 0.500000 0.000000 0.000000
O O15 0.338162 0.885290 0.049295
O O16 0.000000 0.000000 0.000000
#
# Coordination Sequence:
#
# PCOD9038520 Si02
#       7
#     2   2   2   2   2   2   2
#     4  12  28  53  74 105 159 201 244 307 373 451
#     4  11  24  40  77 112 142 187 244 318 368 429
#     4  12  26  47  74 109 146 192 256 302 367 446
#     4  11  23  42  74 109 147 187 244 308 375 429
#     4  10  23  41  70 108 144 178 238 311 368 423
#     4  12  24  49  75 104 148 205 242 304 384 433
#     4  12  30  47  75 108 149 201 255 302 368 460
#
# _framework density 21.977035999999998
#
# number of rings (size 3 to 8) (size 9 to 14) (size 15 to 20)
#    0.000    0.571    5.714    0.857    8.000    2.286 
#    2.571    0.000    0.000    0.000    0.000    0.000 
#    0.000    0.000    0.000    0.000    0.000    0.000 
#
# Total GULP energy -78246.671516 kJ/mol
# GULP energy per Si atom -5589.047965 kJ/mol
# Density = 2.192702 g / cm^3
# Si number density = 21.977036 Si / 1000 Ang^3
#
#
#
# Elastic Constant Matrix: (Units=GPa)
#
#
# Indices 1 2 3 4 5 6 
#
# 1 106.3741 16.6994 30.9748 11.9320 19.5363 -2.1163
# 2 16.6994 89.6503 27.3427 25.6463 -12.1321 -1.9283
# 3 30.9748 27.3427 99.3675 10.0068 -1.3815 -2.1882
# 4 11.9320 25.6463 10.0068 38.5181 0.6842 -14.3317
# 5 19.5363 -12.1321 -1.3815 0.6842 30.8554 2.8628
# 6 -2.1163 -1.9283 -2.1882 -14.3317 2.8628 44.2906
#
#
#
# Elastic Compliance Matrix: (Units=1/GPa)
#
#
# Indices 1 2 3 4 5 6 
#
# 1 0.012485 -0.002174 -0.003284 -0.001213 -0.008928 0.000524
# 2 -0.002174 0.016666 -0.002742 -0.011234 0.008398 -0.003692
# 3 -0.003284 -0.002742 0.011888 -0.000220 0.001525 0.000141
# 4 -0.001213 -0.011234 -0.000220 0.038544 -0.005653 0.012280
# 5 -0.008928 0.008398 0.001525 -0.005653 0.041978 -0.004528
# 6 0.000524 -0.003692 0.000141 0.012280 -0.004528 0.026716
#
#
# Mechanical properties :
#
#
# Convention : Reuss Voigt Hill
#
# Bulk Modulus (GPa) = 40.58378 49.49175 45.03777
# Shear Modulus (GPa) = 28.92026 37.42448 33.17237
#
# Velocity S-wave (km/s) = 3.63151 4.13109 3.88933
# Velocity P-wave (km/s) = 6.00753 6.73225 6.38018
#
# Compressibility (1/GPa) = 0.02464038
#
# Stress axis : x y z
#
# Youngs Moduli (GPa) = 80.09924 60.00102 84.11684
#
# Poissons Ratio (x) = 0.13043 0.27623
# Poissons Ratio (y) = 0.17412 0.23062
# Poissons Ratio (z) = 0.26304 0.16450
#
# Static dielectric constant tensor:
#      x y z
#    x 1.776140 -0.010830 -0.010930 
#    y -0.010830 1.847980 -0.018530 
#    z -0.010930 -0.018530 1.864250 
# 
# From -- ./inp_files/400191.got.cif
#   From: 2010.05.17/outbox.cif.g08.bks.cpg/sg2_201_cif.got.tgz:400191.got - 2010.06.03 11:33:40.
