data_PCOD9038021
_publ_section_title
;
Structure prediction by ZEFSAII (Michael W. Deem and Ramdas Pophale) SiO2 
 PCOD9038021
Probable space group: P -1
;
_chemical_formula_sum "Si O2"
_cell_formula_units_Z 16
_cell_length_a 5.332427
_cell_length_b 8.826975
_cell_length_c 15.765043
_cell_angle_alpha 119.516804
_cell_angle_beta 88.244602
_cell_angle_gamma 93.596170
_cell_volume 644.466934
_symmetry_space_group_name_H-M "P -1"
_symmetry_group_IT_number 2
_symmetry_cell_setting 'triclinic'
loop_
_space_group_symop_operation_xyz
x,y,z
-x,-y,-z
loop_
_atom_site_type_symbol
_atom_site_label
_atom_site_fract_x
_atom_site_fract_y
_atom_site_fract_z
Si Si1 0.753744 0.411361 0.386731
Si Si2 0.485524 0.738862 0.485660
Si Si3 0.315823 0.646507 0.015212
Si Si4 0.959449 0.261726 0.099575
Si Si5 0.287101 0.059224 0.909451
Si Si6 0.946487 0.122107 0.791721
Si Si7 0.189350 0.920109 0.408183
Si Si8 0.247483 0.263283 0.262491
O O1 0.717900 0.616871 0.437995
O O2 0.692890 0.347557 0.464768
O O3 0.516103 0.333174 0.312722
O O4 0.020570 0.349029 0.338789
O O5 0.330227 0.766242 0.409595
O O6 0.596162 0.926264 0.567303
O O7 0.467106 0.827462 0.038623
O O8 0.159147 0.710158 0.114722
O O9 0.500000 0.500000 0.000000
O O10 0.167840 0.594638 0.916095
O O11 0.178234 0.303826 0.176765
O O12 0.754391 0.141313 0.120786
O O13 0.076372 0.148761 0.992374
O O14 0.218460 0.092999 0.821861
O O15 0.937916 0.129222 0.693018
O O16 0.790494 0.944450 0.776085
O O17 0.000000 0.000000 0.500000
#
# Coordination Sequence:
#
# PCOD9038021 Si02
#       8
#     2   2   2   2   2   2   2   2
#     4  11  25  44  69 104 137 179 229 293 340 403
#     4  10  25  42  67  97 137 181 232 283 350 404
#     4  11  24  41  65  94 138 174 221 282 347 406
#     4   9  21  38  64  97 120 175 218 274 329 401
#     4   9  20  40  64  88 127 170 221 275 329 404
#     4  10  23  41  65  98 127 183 230 276 346 412
#     4  11  23  43  68  96 141 184 232 278 346 414
#     4  11  24  41  72 103 138 175 234 283 345 402
#
# _framework density 24.826718
#
# number of rings (size 3 to 8) (size 9 to 14) (size 15 to 20)
#    0.000    1.750    1.250    1.875    7.000    6.000 
#    2.250    0.000    0.000    0.000    0.000    0.000 
#    0.000    0.000    0.000    0.000    0.000    0.000 
#
# Total GULP energy -89554.416351 kJ/mol
# GULP energy per Si atom -5597.151022 kJ/mol
# Density = 2.477021 g / cm^3
# Si number density = 24.826718 Si / 1000 Ang^3
#
#
#
# Elastic Constant Matrix: (Units=GPa)
#
#
# Indices 1 2 3 4 5 6 
#
# 1 95.5793 43.5758 45.6403 -5.3422 8.5170 -13.5330
# 2 43.5758 102.8282 53.3009 -12.1569 -0.9954 -26.8781
# 3 45.6403 53.3009 137.9592 -35.3286 17.2884 -29.6070
# 4 -5.3422 -12.1569 -35.3286 31.5215 -13.6960 10.7184
# 5 8.5170 -0.9954 17.2884 -13.6960 49.9620 7.5082
# 6 -13.5330 -26.8781 -29.6070 10.7184 7.5082 45.1825
#
#
#
# Elastic Compliance Matrix: (Units=1/GPa)
#
#
# Indices 1 2 3 4 5 6 
#
# 1 0.014423 -0.004571 -0.003781 -0.005000 -0.002727 0.000763
# 2 -0.004571 0.014665 -0.003220 0.000252 0.001513 0.004934
# 3 -0.003781 -0.003220 0.013620 0.011605 -0.001457 0.003366
# 4 -0.005000 0.000252 0.011605 0.052125 0.012357 -0.008162
# 5 -0.002727 0.001513 -0.001457 0.012357 0.025613 -0.008059
# 6 0.000763 0.004934 0.003366 -0.008162 -0.008059 0.030777
#
#
# Mechanical properties :
#
#
# Convention : Reuss Voigt Hill
#
# Bulk Modulus (GPa) = 51.10958 69.04453 60.07705
# Shear Modulus (GPa) = 27.64143 38.25650 32.94896
#
# Velocity S-wave (km/s) = 3.34035 3.92974 3.64697
# Velocity P-wave (km/s) = 5.95890 6.96142 6.47958
#
# Compressibility (1/GPa) = 0.01956580
#
# Stress axis : x y z
#
# Youngs Moduli (GPa) = 69.33329 68.18957 73.42093
#
# Poissons Ratio (x) = 0.31166 0.27757
# Poissons Ratio (y) = 0.31689 0.23642
# Poissons Ratio (z) = 0.26212 0.21958
#
# Static dielectric constant tensor:
#      x y z
#    x 2.009780 -0.004300 0.011100 
#    y -0.004300 1.972360 0.010040 
#    z 0.011100 0.010040 1.963800 
# 
# From -- ./inp_files/299816.got.cif
#   From: 2010.05.17/outbox.cif.g08.bks.cpg/sg2_150_cif.got.tgz:299816.got - 2010.06.03 11:33:40.
