data_PCOD9038217
_publ_section_title
;
Structure prediction by ZEFSAII (Michael W. Deem and Ramdas Pophale) SiO2 
 PCOD9038217
Probable space group: P -1
;
_chemical_formula_sum "Si O2"
_cell_formula_units_Z 16
_cell_length_a 7.075446
_cell_length_b 9.988565
_cell_length_c 13.999486
_cell_angle_alpha 118.854089
_cell_angle_beta 89.597742
_cell_angle_gamma 126.445377
_cell_volume 639.816482
_symmetry_space_group_name_H-M "P -1"
_symmetry_group_IT_number 2
_symmetry_cell_setting 'triclinic'
loop_
_space_group_symop_operation_xyz
x,y,z
-x,-y,-z
loop_
_atom_site_type_symbol
_atom_site_label
_atom_site_fract_x
_atom_site_fract_y
_atom_site_fract_z
Si Si1 0.212446 0.195147 0.634515
Si Si2 0.715965 0.379817 0.918598
Si Si3 0.967093 0.877322 0.682884
Si Si4 0.738768 0.328647 0.698594
Si Si5 0.919807 0.621581 0.422453
Si Si6 0.278522 0.101962 0.156827
Si Si7 0.702176 0.718141 0.978091
Si Si8 0.205527 0.755494 0.766200
O O1 0.487282 0.274250 0.645405
O O2 0.229046 0.378946 0.665114
O O3 0.117614 0.097254 0.706428
O O4 0.000000 0.000000 0.500000
O O5 0.691230 0.253590 0.782822
O O6 0.510878 0.290589 0.973535
O O7 0.656934 0.513047 0.915478
O O8 0.000000 0.500000 0.000000
O O9 0.909378 0.722583 0.547988
O O10 0.125815 0.869873 0.758998
O O11 0.718926 0.806295 0.711722
O O12 0.807131 0.244593 0.586615
O O13 0.990689 0.578143 0.781014
O O14 0.829134 0.400455 0.364610
O O15 0.504318 0.101461 0.150598
O O16 0.292645 0.221822 0.108882
O O17 0.987735 0.883770 0.077901
#
# Coordination Sequence:
#
# PCOD9038217 Si02
#       8
#     2   2   2   2   2   2   2   2
#     4  10  23  42  64  94 132 175 215 265 324 379
#     4  11  23  42  70  95 126 168 221 267 329 377
#     4  11  23  41  65  99 129 170 216 268 319 388
#     4  10  23  41  67  93 133 170 220 268 320 395
#     4   9  24  41  65  96 130 169 217 258 324 387
#     4  11  24  44  65  91 137 168 213 269 328 373
#     4  10  25  43  64  97 127 168 217 272 317 389
#     4  10  24  40  66  95 131 175 216 260 321 389
#
# _framework density 25.007169999999999
#
# number of rings (size 3 to 8) (size 9 to 14) (size 15 to 20)
#    0.750    1.000    0.000    2.625    3.500    9.500 
#    0.000    3.125    0.000    0.000    0.000    0.000 
#    0.000    0.000    0.000    0.000    0.000    0.000 
#
# Total GULP energy -89330.952180 kJ/mol
# GULP energy per Si atom -5583.184511 kJ/mol
# Density = 2.495025 g / cm^3
# Si number density = 25.007170 Si / 1000 Ang^3
#
#
#
# Elastic Constant Matrix: (Units=GPa)
#
#
# Indices 1 2 3 4 5 6 
#
# 1 132.3904 27.2565 17.2275 -5.6996 17.2329 34.2239
# 2 27.2565 62.3330 20.3702 -12.5579 -9.5818 17.9331
# 3 17.2275 20.3702 64.3708 -6.3498 -17.0417 21.8953
# 4 -5.6996 -12.5579 -6.3498 37.5771 10.1469 0.0680
# 5 17.2329 -9.5818 -17.0417 10.1469 40.7990 -1.3599
# 6 34.2239 17.9331 21.8953 0.0680 -1.3599 56.3119
#
#
#
# Elastic Compliance Matrix: (Units=1/GPa)
#
#
# Indices 1 2 3 4 5 6 
#
# 1 0.010692 -0.003313 -0.001696 0.002039 -0.006675 -0.004947
# 2 -0.003313 0.021075 -0.003166 0.005022 0.003665 -0.003385
# 3 -0.001696 -0.003166 0.021348 -0.000046 0.008700 -0.006051
# 4 0.002039 0.005022 -0.000046 0.030599 -0.007412 -0.003037
# 5 -0.006675 0.003665 0.008700 -0.007412 0.033679 0.000329
# 6 -0.004947 -0.003385 -0.006051 -0.003037 0.000329 0.024207
#
#
# Mechanical properties :
#
#
# Convention : Reuss Voigt Hill
#
# Bulk Modulus (GPa) = 27.19989 43.20029 35.20009
# Shear Modulus (GPa) = 29.37665 39.88694 34.63180
#
# Velocity S-wave (km/s) = 3.43115 3.99810 3.72543
# Velocity P-wave (km/s) = 5.15728 6.21496 5.71066
#
# Compressibility (1/GPa) = 0.03676485
#
# Stress axis : x y z
#
# Youngs Moduli (GPa) = 93.53117 47.44980 46.84355
#
# Poissons Ratio (x) = 0.15719 0.07946
# Poissons Ratio (y) = 0.30984 0.14829
# Poissons Ratio (z) = 0.15865 0.15021
#
# Static dielectric constant tensor:
#      x y z
#    x 1.968550 -0.007740 -0.028450 
#    y -0.007740 2.063660 0.035870 
#    z -0.028450 0.035870 2.063670 
# 
# From -- ./inp_files/482890.got.cif
#   From: 2010.05.17/outbox.cif.g08.bks.cpg/sg2_242_cif.got.tgz:482890.got - 2010.06.03 11:33:40.
