data_PCOD9038454
_publ_section_title
;
Structure prediction by ZEFSAII (Michael W. Deem and Ramdas Pophale) SiO2 
 PCOD9038454
Probable space group: P -1
;
_chemical_formula_sum "Si O2"
_cell_formula_units_Z 16
_cell_length_a 11.328497
_cell_length_b 5.485491
_cell_length_c 12.379045
_cell_angle_alpha 125.674487
_cell_angle_beta 88.557229
_cell_angle_gamma 101.746311
_cell_volume 607.572748
_symmetry_space_group_name_H-M "P -1"
_symmetry_group_IT_number 2
_symmetry_cell_setting 'triclinic'
loop_
_space_group_symop_operation_xyz
x,y,z
-x,-y,-z
loop_
_atom_site_type_symbol
_atom_site_label
_atom_site_fract_x
_atom_site_fract_y
_atom_site_fract_z
Si Si1 0.485953 0.206233 0.351776
Si Si2 0.110040 0.365893 0.418635
Si Si3 0.555284 0.963605 0.103134
Si Si4 0.763930 0.125875 0.685371
Si Si5 0.693550 0.051780 0.423195
Si Si6 0.015276 0.840491 0.842607
Si Si7 0.308477 0.516911 0.043606
Si Si8 0.840098 0.629004 0.187376
O O1 0.500000 0.500000 0.500000
O O2 0.559706 0.994812 0.362491
O O3 0.562096 0.260178 0.252952
O O4 0.342777 0.107191 0.304031
O O5 0.227362 0.608407 0.523688
O O6 0.000000 0.500000 0.500000
O O7 0.093762 0.338398 0.281525
O O8 0.122173 0.027419 0.366533
O O9 0.446858 0.716362 0.103361
O O10 0.672642 0.828207 0.057353
O O11 0.500000 0.000000 0.000000
O O12 0.700515 0.092758 0.562263
O O13 0.771292 0.420319 0.838098
O O14 0.767757 0.813755 0.314047
O O15 0.089149 0.582948 0.803532
O O16 0.079742 0.117790 0.831315
O O17 0.000000 0.000000 0.000000
O O18 0.251133 0.587008 0.950729
#
# Coordination Sequence:
#
# PCOD9038454 Si02
#       8
#     2   2   2   2   2   2   2   2
#     4  11  23  45  67 108 143 187 251 298 379 444
#     4  12  26  48  70 105 144 188 249 303 377 436
#     4  10  23  41  69  96 148 191 237 307 366 446
#     4  11  26  43  72 101 146 189 244 307 366 448
#     4  12  26  44  74 103 146 197 237 308 371 452
#     4  12  29  49  78 108 146 195 255 314 370 443
#     4  10  24  43  64 106 139 190 249 295 378 434
#     4  12  27  49  76 108 148 196 251 307 376 449
#
# _framework density 26.334296999999999
#
# number of rings (size 3 to 8) (size 9 to 14) (size 15 to 20)
#    0.000    0.750    3.750    2.250    7.000    2.000 
#    0.000    0.000    0.000    0.000    0.000    0.000 
#    0.000    0.000    0.000    0.000    0.000    0.000 
#
# Total GULP energy -89446.791425 kJ/mol
# GULP energy per Si atom -5590.424464 kJ/mol
# Density = 2.627436 g / cm^3
# Si number density = 26.334297 Si / 1000 Ang^3
#
#
#
# Elastic Constant Matrix: (Units=GPa)
#
#
# Indices 1 2 3 4 5 6 
#
# 1 71.6645 25.4060 26.8388 9.3186 6.2683 -13.9255
# 2 25.4060 81.1771 10.6810 -4.9655 -7.7233 -14.7763
# 3 26.8388 10.6810 187.6314 -1.7331 -12.7955 -14.7931
# 4 9.3186 -4.9655 -1.7331 37.2450 -21.0136 6.4412
# 5 6.2683 -7.7233 -12.7955 -21.0136 60.9999 2.7552
# 6 -13.9255 -14.7763 -14.7931 6.4412 2.7552 47.0814
#
#
#
# Elastic Compliance Matrix: (Units=1/GPa)
#
#
# Indices 1 2 3 4 5 6 
#
# 1 0.020434 -0.006516 -0.002773 -0.011301 -0.007631 0.005120
# 2 -0.006516 0.015467 0.000589 0.006050 0.004745 0.002007
# 3 -0.002773 0.000589 0.005935 0.002231 0.002337 0.000787
# 4 -0.011301 0.006050 0.002231 0.041469 0.017016 -0.007412
# 5 -0.007631 0.004745 0.002337 0.017016 0.024301 -0.003783
# 6 0.005120 0.002007 0.000787 -0.007412 -0.003783 0.024867
#
#
# Mechanical properties :
#
#
# Convention : Reuss Voigt Hill
#
# Bulk Modulus (GPa) = 40.92123 51.81384 46.36753
# Shear Modulus (GPa) = 31.64192 47.56841 39.60516
#
# Velocity S-wave (km/s) = 3.47010 4.25470 3.88227
# Velocity P-wave (km/s) = 5.62390 6.62230 6.14341
#
# Compressibility (1/GPa) = 0.02443719
#
# Stress axis : x y z
#
# Youngs Moduli (GPa) = 48.93755 64.65284 168.49735
#
# Poissons Ratio (x) = 0.42126 0.46726
# Poissons Ratio (y) = 0.31886 -0.09928
# Poissons Ratio (z) = 0.13571 -0.03809
#
# Static dielectric constant tensor:
#      x y z
#    x 2.149640 0.110810 0.025940 
#    y 0.110810 2.115470 0.091440 
#    z 0.025940 0.091440 2.171370 
# 
# From -- ./inp_files/411297.got.cif
#   From: 2010.05.17/outbox.cif.g08.bks.cpg/sg2_206_cif.got.tgz:411297.got - 2010.06.03 11:33:40.
