data_PCOD9038936
_publ_section_title
;
Structure prediction by ZEFSAII (Michael W. Deem and Ramdas Pophale) SiO2 
 PCOD9038936
Probable space group: P -1
;
_chemical_formula_sum "Si O2"
_cell_formula_units_Z 16
_cell_length_a 10.861645
_cell_length_b 11.464779
_cell_length_c 15.997345
_cell_angle_alpha 143.635126
_cell_angle_beta 127.206209
_cell_angle_gamma 34.292784
_cell_volume 654.453637
_symmetry_space_group_name_H-M "P -1"
_symmetry_group_IT_number 2
_symmetry_cell_setting 'triclinic'
loop_
_space_group_symop_operation_xyz
x,y,z
-x,-y,-z
loop_
_atom_site_type_symbol
_atom_site_label
_atom_site_fract_x
_atom_site_fract_y
_atom_site_fract_z
Si Si1 0.522460 0.595887 0.934867
Si Si2 0.599580 0.721736 0.264656
Si Si3 0.717321 0.803796 0.835010
Si Si4 0.234176 0.336481 0.534970
Si Si5 0.991450 0.690712 0.042424
Si Si6 0.859199 0.829907 0.368859
Si Si7 0.458910 0.600674 0.356730
Si Si8 0.681288 0.126381 0.291594
O O1 0.452822 0.457441 0.871829
O O2 0.528584 0.542558 0.805155
O O3 0.771476 0.443918 0.966509
O O4 0.346846 0.928095 0.077504
O O5 0.786998 0.573835 0.327053
O O6 0.688211 0.799186 0.279843
O O7 0.387784 0.006959 0.390336
O O8 0.480338 0.914520 0.810861
O O9 0.897382 0.478910 0.689225
O O10 0.838214 0.757154 0.942938
O O11 0.355353 0.403011 0.577559
O O12 0.000000 0.500000 0.500000
O O13 0.862298 0.973413 0.204240
O O14 0.000000 0.500000 0.000000
O O15 0.770416 0.068065 0.537270
O O16 0.818287 0.969437 0.342557
O O17 0.509833 0.452079 0.380697
#
# Coordination Sequence:
#
# PCOD9038936 Si02
#       8
#     2   2   2   2   2   2   2   2
#     4  11  23  42  70  96 122 167 220 268 307 374
#     4   9  22  41  60  95 130 162 215 259 312 380
#     4  12  24  42  65  93 127 172 215 261 318 374
#     4   9  19  39  66  90 125 171 211 262 311 367
#     4  12  22  41  69  94 124 167 220 268 316 368
#     4  11  25  44  61  94 138 171 201 259 329 382
#     4  10  23  42  64  99 130 160 217 264 313 382
#     4  12  24  42  66  96 129 168 215 261 320 383
#
# _framework density 24.447873999999999
#
# number of rings (size 3 to 8) (size 9 to 14) (size 15 to 20)
#    0.000    1.250    3.750    2.250    1.750    3.000 
#    2.250    2.500    0.000    0.000    0.000    0.000 
#    0.000    0.000    0.000    0.000    0.000    0.000 
#
# Total GULP energy -89366.490398 kJ/mol
# GULP energy per Si atom -5585.405650 kJ/mol
# Density = 2.439223 g / cm^3
# Si number density = 24.447874 Si / 1000 Ang^3
#
#
#
# Elastic Constant Matrix: (Units=GPa)
#
#
# Indices 1 2 3 4 5 6 
#
# 1 57.4225 15.7520 8.0558 1.7100 6.3824 8.5966
# 2 15.7520 68.6325 32.8318 5.5102 7.8764 -20.6565
# 3 8.0558 32.8318 79.0643 21.7243 1.3147 -2.0109
# 4 1.7100 5.5102 21.7243 55.2549 -0.7475 3.5588
# 5 6.3824 7.8764 1.3147 -0.7475 30.5945 11.5086
# 6 8.5966 -20.6565 -2.0109 3.5588 11.5086 38.8603
#
#
#
# Elastic Compliance Matrix: (Units=1/GPa)
#
#
# Indices 1 2 3 4 5 6 
#
# 1 0.020773 -0.008177 0.000902 0.000434 0.001243 -0.009303
# 2 -0.008177 0.029240 -0.010557 -0.000024 -0.013157 0.020704
# 3 0.000902 -0.010557 0.018331 -0.005785 0.003636 -0.005410
# 4 0.000434 -0.000024 -0.005785 0.020565 0.001720 -0.002801
# 5 0.001243 -0.013157 0.003636 0.001720 0.043239 -0.020043
# 6 -0.009303 0.020704 -0.005410 -0.002801 -0.020043 0.044709
#
#
# Mechanical properties :
#
#
# Convention : Reuss Voigt Hill
#
# Bulk Modulus (GPa) = 30.59808 35.37759 32.98784
# Shear Modulus (GPa) = 22.37994 34.84061 28.61027
#
# Velocity S-wave (km/s) = 3.02886 3.77914 3.42461
# Velocity P-wave (km/s) = 4.97743 5.79177 5.39997
#
# Compressibility (1/GPa) = 0.03268179
#
# Stress axis : x y z
#
# Youngs Moduli (GPa) = 48.13991 34.19915 54.55138
#
# Poissons Ratio (x) = 0.27963 -0.04923
# Poissons Ratio (y) = 0.39362 0.57591
# Poissons Ratio (z) = -0.04344 0.36105
#
# Static dielectric constant tensor:
#      x y z
#    x 1.951580 0.063090 -0.025300 
#    y 0.063090 1.966550 0.034690 
#    z -0.025300 0.034690 2.010110 
# 
# From -- ./inp_files/568896.got.cif
#   From: 2010.05.17/outbox.cif.g08.bks.cpg/sg2_285_cif.got.tgz:568896.got - 2010.06.03 11:33:40.
