data_PCOD9038110
_publ_section_title
;
Structure prediction by ZEFSAII (Michael W. Deem and Ramdas Pophale) SiO2 
 PCOD9038110
Probable space group: P -1
;
_chemical_formula_sum "Si O2"
_cell_formula_units_Z 16
_cell_length_a 11.699916
_cell_length_b 12.693729
_cell_length_c 9.672662
_cell_angle_alpha 39.719770
_cell_angle_beta 85.030188
_cell_angle_gamma 112.475228
_cell_volume 648.468718
_symmetry_space_group_name_H-M "P -1"
_symmetry_group_IT_number 2
_symmetry_cell_setting 'triclinic'
loop_
_space_group_symop_operation_xyz
x,y,z
-x,-y,-z
loop_
_atom_site_type_symbol
_atom_site_label
_atom_site_fract_x
_atom_site_fract_y
_atom_site_fract_z
Si Si1 0.686073 0.713598 0.092996
Si Si2 0.431157 0.353887 0.298501
Si Si3 0.896656 0.735556 0.817256
Si Si4 0.883705 0.730499 0.254573
Si Si5 0.875885 0.155043 0.114937
Si Si6 0.713380 0.275144 0.845588
Si Si7 0.627108 0.237699 0.333769
Si Si8 0.327409 0.925246 0.248000
O O1 0.788692 0.715364 0.967787
O O2 0.737630 0.954516 0.860681
O O3 0.505891 0.531697 0.235958
O O4 0.720340 0.643258 0.296081
O O5 0.512572 0.256912 0.397511
O O6 0.243357 0.123523 0.569729
O O7 0.500000 0.500000 0.000000
O O8 0.027233 0.739044 0.859720
O O9 0.765894 0.493686 0.989907
O O10 0.000000 0.000000 0.500000
O O11 0.828514 0.550470 0.559410
O O12 0.988685 0.738666 0.122210
O O13 0.000000 0.000000 0.000000
O O14 0.775271 0.207862 0.019177
O O15 0.726453 0.211304 0.752850
O O16 0.523993 0.124501 0.030146
O O17 0.500000 0.000000 0.500000
O O18 0.711785 0.216007 0.466513
#
# Coordination Sequence:
#
# PCOD9038110 Si02
#       8
#     2   2   2   2   2   2   2   2
#     4  10  23  41  66  95 131 176 229 273 334 411
#     4  11  22  41  68  96 132 175 229 280 336 406
#     4  10  23  45  70  98 139 179 225 284 350 411
#     4  11  25  42  62  96 135 175 223 275 342 412
#     4  11  22  41  69  98 133 180 220 284 351 401
#     4  11  24  42  67  97 138 179 224 286 341 408
#     4  11  23  44  68 100 136 178 233 282 339 414
#     4  11  23  42  69  99 132 177 232 281 340 399
#
# _framework density 24.67351
#
# number of rings (size 3 to 8) (size 9 to 14) (size 15 to 20)
#    0.000    1.250    1.250    5.625    3.500    1.500 
#    2.250    3.750    0.000    0.000    0.000    0.000 
#    0.000    0.000    0.000    0.000    0.000    0.000 
#
# Total GULP energy -89366.200418 kJ/mol
# GULP energy per Si atom -5585.387526 kJ/mol
# Density = 2.461735 g / cm^3
# Si number density = 24.673510 Si / 1000 Ang^3
#
#
#
# Elastic Constant Matrix: (Units=GPa)
#
#
# Indices 1 2 3 4 5 6 
#
# 1 78.7037 25.6927 32.4496 5.6030 18.5814 17.0822
# 2 25.6927 62.7166 46.4973 -13.5905 0.4713 13.2857
# 3 32.4496 46.4973 204.2927 -12.1108 -0.7096 18.1890
# 4 5.6030 -13.5905 -12.1108 38.1820 6.4654 0.9440
# 5 18.5814 0.4713 -0.7096 6.4654 42.3871 -4.5497
# 6 17.0822 13.2857 18.1890 0.9440 -4.5497 37.3062
#
#
#
# Elastic Compliance Matrix: (Units=1/GPa)
#
#
# Indices 1 2 3 4 5 6 
#
# 1 0.018969 -0.006148 -0.001260 -0.003777 -0.008423 -0.006813
# 2 -0.006148 0.023741 -0.003581 0.008199 0.000690 -0.004017
# 3 -0.001260 -0.003581 0.006052 0.000778 0.000461 -0.001062
# 4 -0.003777 0.008199 0.000778 0.030550 -0.003378 -0.002755
# 5 -0.008423 0.000690 0.000461 -0.003378 0.028546 0.006954
# 6 -0.006813 -0.004017 -0.001062 -0.002755 0.006954 0.032791
#
#
# Mechanical properties :
#
#
# Convention : Reuss Voigt Hill
#
# Bulk Modulus (GPa) = 37.33636 61.66578 49.50107
# Shear Modulus (GPa) = 29.14493 39.64661 34.39577
#
# Velocity S-wave (km/s) = 3.44062 4.01290 3.73773
# Velocity P-wave (km/s) = 5.56317 6.82042 6.22362
#
# Compressibility (1/GPa) = 0.02678354
#
# Stress axis : x y z
#
# Youngs Moduli (GPa) = 52.71746 42.12163 165.22407
#
# Poissons Ratio (x) = 0.25898 0.20821
# Poissons Ratio (y) = 0.32413 0.59162
# Poissons Ratio (z) = 0.06643 0.15083
#
# Static dielectric constant tensor:
#      x y z
#    x 1.956640 0.050170 -0.018880 
#    y 0.050170 2.023770 0.012850 
#    z -0.018880 0.012850 1.908220 
# 
# From -- ./inp_files/433683.got.cif
#   From: 2010.05.17/outbox.cif.g08.bks.cpg/sg2_217_cif.got.tgz:433683.got - 2010.06.03 11:33:40.
