data_PCOD9038406
_publ_section_title
;
Structure prediction by ZEFSAII (Michael W. Deem and Ramdas Pophale) SiO2 
 PCOD9038406
Probable space group: P -1
;
_chemical_formula_sum "Si O2"
_cell_formula_units_Z 14
_cell_length_a 18.697029
_cell_length_b 7.751620
_cell_length_c 8.623937
_cell_angle_alpha 69.044458
_cell_angle_beta 30.055371
_cell_angle_gamma 62.333688
_cell_volume 551.652697
_symmetry_space_group_name_H-M "P -1"
_symmetry_group_IT_number 2
_symmetry_cell_setting 'triclinic'
loop_
_space_group_symop_operation_xyz
x,y,z
-x,-y,-z
loop_
_atom_site_type_symbol
_atom_site_label
_atom_site_fract_x
_atom_site_fract_y
_atom_site_fract_z
Si Si1 0.225942 0.428599 0.703258
Si Si2 0.929321 0.716308 0.348105
Si Si3 0.384304 0.071317 0.052806
Si Si4 0.836230 0.294210 0.866039
Si Si5 0.408513 0.355274 0.675700
Si Si6 0.787217 0.233329 0.620073
Si Si7 0.876693 0.928469 0.084759
O O1 0.373275 0.357547 0.559657
O O2 0.252876 0.572805 0.475283
O O3 0.201932 0.231733 0.753508
O O4 0.062777 0.550082 0.057302
O O5 0.754478 0.740403 0.684804
O O6 0.905571 0.902988 0.221097
O O7 0.991426 0.736915 0.396369
O O8 0.313174 0.903692 0.189607
O O9 0.451225 0.153129 0.753281
O O10 0.500000 0.000000 0.000000
O O11 0.789113 0.265821 0.790854
O O12 0.755338 0.512650 0.999721
O O13 0.792468 0.145844 0.112534
O O14 0.500000 0.500000 0.500000
O O15 0.965826 0.136260 0.281454
#
# Coordination Sequence:
#
# PCOD9038406 Si02
#       7
#     2   2   2   2   2   2   2
#     4  10  24  43  73 101 144 170 224 281 338 403
#     4  10  23  41  69 103 133 181 224 274 342 390
#     4  12  27  45  71  95 140 181 231 276 333 406
#     4  11  24  41  75 100 137 173 229 281 337 398
#     4  11  27  48  67  97 137 184 227 277 339 405
#     4  11  23  43  67 108 136 172 223 282 336 393
#     4  11  22  41  69 104 141 171 218 281 336 402
#
# _framework density 25.378288000000001
#
# number of rings (size 3 to 8) (size 9 to 14) (size 15 to 20)
#    0.000    1.143    1.429    4.286   12.000    1.143 
#    2.571    2.857    0.000    0.000    0.000    0.000 
#    0.000    0.000    0.000    0.000    0.000    0.000 
#
# Total GULP energy -78157.218423 kJ/mol
# GULP energy per Si atom -5582.658459 kJ/mol
# Density = 2.532053 g / cm^3
# Si number density = 25.378288 Si / 1000 Ang^3
#
#
#
# Elastic Constant Matrix: (Units=GPa)
#
#
# Indices 1 2 3 4 5 6 
#
# 1 171.7101 50.1904 24.7437 -8.8460 -25.6005 -17.5159
# 2 50.1904 124.2201 33.0074 -48.8103 -3.1550 -24.4316
# 3 24.7437 33.0074 56.8979 -20.6770 -22.7225 -15.0356
# 4 -8.8460 -48.8103 -20.6770 41.3109 6.1701 -0.0904
# 5 -25.6005 -3.1550 -22.7225 6.1701 40.5551 -7.3279
# 6 -17.5159 -24.4316 -15.0356 -0.0904 -7.3279 47.0608
#
#
#
# Elastic Compliance Matrix: (Units=1/GPa)
#
#
# Indices 1 2 3 4 5 6 
#
# 1 0.007898 -0.004534 0.000334 -0.004357 0.005769 0.001582
# 2 -0.004534 0.021217 -0.000764 0.024300 -0.003794 0.008539
# 3 0.000334 -0.000764 0.034316 0.013412 0.019832 0.013805
# 4 -0.004357 0.024300 0.013412 0.058654 0.000527 0.015474
# 5 0.005769 -0.003794 0.019832 0.000527 0.041377 0.012958
# 6 0.001582 0.008539 0.013805 0.015474 0.012958 0.032729
#
#
# Mechanical properties :
#
#
# Convention : Reuss Voigt Hill
#
# Bulk Modulus (GPa) = 18.69076 63.19014 40.94045
# Shear Modulus (GPa) = 22.32614 42.11113 32.21863
#
# Velocity S-wave (km/s) = 2.96925 4.07791 3.56692
# Velocity P-wave (km/s) = 4.37448 6.86483 5.75595
#
# Compressibility (1/GPa) = 0.05350236
#
# Stress axis : x y z
#
# Youngs Moduli (GPa) = 126.61399 47.13237 29.14129
#
# Poissons Ratio (x) = 0.21371 -0.00975
# Poissons Ratio (y) = 0.57410 0.02227
# Poissons Ratio (z) = -0.04235 0.03602
#
# Static dielectric constant tensor:
#      x y z
#    x 2.114450 -0.022230 0.061560 
#    y -0.022230 2.057790 0.058190 
#    z 0.061560 0.058190 2.235850 
# 
# From -- ./inp_files/178159.got.cif
#   From: 2010.05.17/outbox.cif.g08.bks.cpg/sg2_90_cif.got.tgz:178159.got - 2010.06.03 11:33:40.
