data_PCOD9038100
_publ_section_title
;
Structure prediction by ZEFSAII (Michael W. Deem and Ramdas Pophale) SiO2 
 PCOD9038100
Probable space group: P -1
;
_chemical_formula_sum "Si O2"
_cell_formula_units_Z 14
_cell_length_a 15.852256
_cell_length_b 7.030318
_cell_length_c 10.125625
_cell_angle_alpha 68.071609
_cell_angle_beta 57.377279
_cell_angle_gamma 44.030377
_cell_volume 660.397886
_symmetry_space_group_name_H-M "P -1"
_symmetry_group_IT_number 2
_symmetry_cell_setting 'triclinic'
loop_
_space_group_symop_operation_xyz
x,y,z
-x,-y,-z
loop_
_atom_site_type_symbol
_atom_site_label
_atom_site_fract_x
_atom_site_fract_y
_atom_site_fract_z
Si Si1 0.066472 0.633145 0.901054
Si Si2 0.655163 0.252314 0.960834
Si Si3 0.471976 0.329413 0.493682
Si Si4 0.338209 0.128176 0.751002
Si Si5 0.156562 0.724009 0.069504
Si Si6 0.041115 0.676702 0.420110
Si Si7 0.783588 0.261225 0.585268
O O1 0.194204 0.414840 0.760289
O O2 0.132953 0.653491 0.967206
O O3 0.948313 0.951488 0.889951
O O4 0.000000 0.500000 0.000000
O O5 0.703892 0.355706 0.999851
O O6 0.738191 0.191192 0.772318
O O7 0.500000 0.500000 0.000000
O O8 0.674250 0.002202 0.076485
O O9 0.500000 0.500000 0.500000
O O10 0.435629 0.192481 0.659120
O O11 0.347597 0.525263 0.447040
O O12 0.599048 0.092296 0.360937
O O13 0.118216 0.606107 0.237095
O O14 0.145168 0.628779 0.450246
O O15 0.000000 0.500000 0.500000
O O16 0.901878 0.988327 0.476203
#
# Coordination Sequence:
#
# PCOD9038100 Si02
#       7
#     2   2   2   2   2   2   2
#     4  11  23  41  69  95 133 166 220 273 325 386
#     4  11  22  45  69  93 138 169 218 278 321 388
#     4  11  26  46  66  96 135 173 219 271 331 391
#     4  11  25  42  70  98 125 180 222 264 333 390
#     4  10  24  41  65 102 127 175 217 269 333 379
#     4  10  23  41  66  94 131 170 217 262 328 392
#     4  10  23  44  66  95 133 172 215 275 322 385
#
# _framework density 21.199339999999999
#
# number of rings (size 3 to 8) (size 9 to 14) (size 15 to 20)
#    0.000    1.429    2.857    0.857    4.000    5.714 
#    0.000    1.429    0.000    0.000    0.000    0.000 
#    0.000    0.000    0.000    0.000    0.000    0.000 
#
# Total GULP energy -78132.674191 kJ/mol
# GULP energy per Si atom -5580.905299 kJ/mol
# Density = 2.115109 g / cm^3
# Si number density = 21.199340 Si / 1000 Ang^3
#
#
#
# Elastic Constant Matrix: (Units=GPa)
#
#
# Indices 1 2 3 4 5 6 
#
# 1 107.8757 55.5658 41.9793 3.4705 -20.4814 -0.1884
# 2 55.5658 85.6008 34.0361 4.8432 -15.0851 17.4076
# 3 41.9793 34.0361 99.8120 -12.8677 -16.9797 9.2034
# 4 3.4705 4.8432 -12.8677 51.0984 -2.5901 -14.5408
# 5 -20.4814 -15.0851 -16.9797 -2.5901 22.1185 -9.3795
# 6 -0.1884 17.4076 9.2034 -14.5408 -9.3795 34.9873
#
#
#
# Elastic Compliance Matrix: (Units=1/GPa)
#
#
# Indices 1 2 3 4 5 6 
#
# 1 0.018121 -0.010973 -0.002399 0.002870 0.012321 0.010684
# 2 -0.010973 0.022684 -0.003335 -0.006509 -0.004060 -0.014261
# 3 -0.002399 -0.003335 0.013915 0.004971 0.007661 0.002106
# 4 0.002870 -0.006509 0.004971 0.026446 0.011979 0.016149
# 5 0.012321 -0.004060 0.007661 0.011979 0.071393 0.024189
# 6 0.010684 -0.014261 0.002106 0.016149 0.024189 0.048377
#
#
# Mechanical properties :
#
#
# Convention : Reuss Voigt Hill
#
# Bulk Modulus (GPa) = 46.93342 61.82788 54.38065
# Shear Modulus (GPa) = 20.70805 32.42134 26.56470
#
# Velocity S-wave (km/s) = 3.12881 3.91494 3.54374
# Velocity P-wave (km/s) = 5.93631 7.04727 6.51551
#
# Compressibility (1/GPa) = 0.02130678
#
# Stress axis : x y z
#
# Youngs Moduli (GPa) = 55.18440 44.08421 71.86528
#
# Poissons Ratio (x) = 0.48373 0.17239
# Poissons Ratio (y) = 0.60553 0.23967
# Poissons Ratio (z) = 0.13237 0.14702
#
# Static dielectric constant tensor:
#      x y z
#    x 1.777620 -0.004450 0.014220 
#    y -0.004450 1.785190 -0.032630 
#    z 0.014220 -0.032630 1.797810 
# 
# From -- ./inp_files/94532.got.cif
#   From: 2010.05.17/outbox.cif.g08.bks.cpg/sg2_48_cif.got.tgz:94532.got - 2010.06.03 11:33:40.
