data_PCOD9038394
_publ_section_title
;
Structure prediction by ZEFSAII (Michael W. Deem and Ramdas Pophale) SiO2 
 PCOD9038394
Probable space group: P -1
;
_chemical_formula_sum "Si O2"
_cell_formula_units_Z 14
_cell_length_a 15.516197
_cell_length_b 10.019302
_cell_length_c 13.296247
_cell_angle_alpha 113.999315
_cell_angle_beta 161.255736
_cell_angle_gamma 67.322193
_cell_volume 606.813175
_symmetry_space_group_name_H-M "P -1"
_symmetry_group_IT_number 2
_symmetry_cell_setting 'triclinic'
loop_
_space_group_symop_operation_xyz
x,y,z
-x,-y,-z
loop_
_atom_site_type_symbol
_atom_site_label
_atom_site_fract_x
_atom_site_fract_y
_atom_site_fract_z
Si Si1 0.984054 0.123787 0.438963
Si Si2 0.464284 0.177172 0.496358
Si Si3 0.961067 0.857694 0.844639
Si Si4 0.588491 0.868523 0.261391
Si Si5 0.770338 0.594321 0.837757
Si Si6 0.553287 0.548608 0.188250
Si Si7 0.898388 0.589398 0.214463
O O1 0.245074 0.137975 0.660378
O O2 0.980271 0.273558 0.545764
O O3 0.709489 0.071462 0.063867
O O4 0.000000 0.000000 0.500000
O O5 0.330416 0.246940 0.270366
O O6 0.257747 0.234961 0.367233
O O7 0.500000 0.000000 0.500000
O O8 0.760883 0.227727 0.868988
O O9 0.821413 0.920976 0.610444
O O10 0.000000 0.000000 0.000000
O O11 0.499473 0.717765 0.167671
O O12 0.500000 0.500000 0.500000
O O13 0.847812 0.614674 0.047376
O O14 0.000000 0.500000 0.000000
O O15 0.865570 0.527682 0.549129
O O16 0.500000 0.500000 0.000000
O O17 0.366118 0.464838 0.035009
#
# Coordination Sequence:
#
# PCOD9038394 Si02
#       7
#     2   2   2   2   2   2   2
#     4  12  26  46  70 103 140 186 235 292 365 432
#     4  10  23  46  69  99 137 192 244 287 349 434
#     4  10  23  41  69 100 138 178 236 290 350 412
#     4  12  25  42  70 106 137 179 240 298 347 423
#     4  12  28  46  70 108 150 190 239 298 370 434
#     4  12  23  44  75 102 138 182 241 290 354 424
#     4  12  26  46  71 104 143 189 228 297 368 424
#
# _framework density 23.071351
#
# number of rings (size 3 to 8) (size 9 to 14) (size 15 to 20)
#    0.000    0.571    2.857    4.286    6.000    4.571 
#    0.000    0.000    0.000    0.000    0.000    0.000 
#    0.000    0.000    0.000    0.000    0.000    0.000 
#
# Total GULP energy -77970.681044 kJ/mol
# GULP energy per Si atom -5569.334360 kJ/mol
# Density = 2.301884 g / cm^3
# Si number density = 23.071351 Si / 1000 Ang^3
#
#
#
# Elastic Constant Matrix: (Units=GPa)
#
#
# Indices 1 2 3 4 5 6 
#
# 1 83.5266 5.1320 -8.3911 68.9304 44.8880 46.0667
# 2 5.1320 50.4251 1.7421 -17.5632 -15.3275 14.4389
# 3 -8.3911 1.7421 63.8260 68.7182 66.8491 49.2689
# 4 68.9304 -17.5632 68.7182 -62.3348 -57.3561 -53.3437
# 5 44.8880 -15.3275 66.8491 -57.3561 26.0872 -30.9413
# 6 46.0667 14.4389 49.2689 -53.3437 -30.9413 11.0712
#
#
#
# Elastic Compliance Matrix: (Units=1/GPa)
#
#
# Indices 1 2 3 4 5 6 
#
# 1 0.008250 0.000759 -0.003942 0.002517 0.002076 0.000158
# 2 0.000759 0.026368 0.001912 0.004829 0.003076 -0.014189
# 3 -0.003942 0.001912 0.009360 0.006602 -0.001407 0.000133
# 4 0.002517 0.004829 0.006602 0.011697 -0.008386 -0.013230
# 5 0.002076 0.003076 -0.001407 -0.008386 0.014587 -0.006028
# 6 0.000158 -0.014189 0.000133 -0.013230 -0.006028 0.026988
#
#
# Mechanical properties :
#
#
# Convention : Reuss Voigt Hill
#
# Bulk Modulus (GPa) = 24.13446 21.63818 22.88632
# Shear Modulus (GPa) = 44.01209 8.25103 26.13156
#
# Velocity S-wave (km/s) = 4.37240 1.89317 3.36912
# Velocity P-wave (km/s) = 5.99784 3.76536 5.00759
#
# Compressibility (1/GPa) = 0.04143453
#
# Stress axis : x y z
#
# Youngs Moduli (GPa) = 121.21941 37.92464 106.83297
#
# Poissons Ratio (x) = -0.02878 0.42118
# Poissons Ratio (y) = -0.09200 -0.20423
# Poissons Ratio (z) = 0.47789 -0.07250
#
# Static dielectric constant tensor:
#      x y z
#    x 1.995040 -0.144860 0.030270 
#    y -0.144860 2.216580 -0.448510 
#    z 0.030270 -0.448510 2.491640 
# 
# From -- ./inp_files/452526.got.cif
#   From: 2010.05.17/outbox.cif.g08.bks.cpg/sg2_227_cif.got.tgz:452526.got - 2010.06.03 11:33:40.
