data_PCOD9038231
_publ_section_title
;
Structure prediction by ZEFSAII (Michael W. Deem and Ramdas Pophale) SiO2 
 PCOD9038231
Probable space group: P -1
;
_chemical_formula_sum "Si O2"
_cell_formula_units_Z 14
_cell_length_a 12.046110
_cell_length_b 9.764948
_cell_length_c 9.350646
_cell_angle_alpha 57.409615
_cell_angle_beta 77.965100
_cell_angle_gamma 50.607988
_cell_volume 701.019832
_symmetry_space_group_name_H-M "P -1"
_symmetry_group_IT_number 2
_symmetry_cell_setting 'triclinic'
loop_
_space_group_symop_operation_xyz
x,y,z
-x,-y,-z
loop_
_atom_site_type_symbol
_atom_site_label
_atom_site_fract_x
_atom_site_fract_y
_atom_site_fract_z
Si Si1 0.096686 0.017421 0.657567
Si Si2 0.428963 0.725360 0.830621
Si Si3 0.919126 0.429114 0.649189
Si Si4 0.573422 0.961193 0.153342
Si Si5 0.117506 0.314146 0.912450
Si Si6 0.029649 0.217117 0.259069
Si Si7 0.570805 0.779968 0.525666
O O1 0.102841 0.110359 0.452599
O O2 0.974075 0.216736 0.675242
O O3 0.253632 0.879214 0.770585
O O4 0.047335 0.878919 0.715496
O O5 0.469964 0.836986 0.862753
O O6 0.496899 0.697643 0.671637
O O7 0.500000 0.500000 0.000000
O O8 0.745834 0.613240 0.590272
O O9 0.000000 0.500000 0.500000
O O10 0.977678 0.379492 0.823306
O O11 0.745361 0.821704 0.152265
O O12 0.542768 0.837101 0.334845
O O13 0.500000 0.000000 0.000000
O O14 0.086638 0.530766 0.833052
O O15 0.133905 0.194151 0.119502
O O16 0.500000 0.000000 0.500000
#
# Coordination Sequence:
#
# PCOD9038231 Si02
#       7
#     2   2   2   2   2   2   2
#     4  11  23  45  64  92 133 168 215 261 326 378
#     4  11  26  44  63  93 132 174 211 264 326 384
#     4  12  20  41  71  93 125 165 221 260 313 387
#     4  11  24  42  66  92 129 167 220 264 318 384
#     4  11  23  41  67  98 123 167 219 267 318 376
#     4  10  25  38  67  96 126 164 209 275 315 375
#     4  10  23  41  67  95 124 174 210 261 323 386
#
# _framework density 19.970903
#
# number of rings (size 3 to 8) (size 9 to 14) (size 15 to 20)
#    0.000    1.143    4.286    0.857    6.000    4.000 
#    0.000    0.714    0.000    0.000    0.000    0.000 
#    0.000    0.000    0.000    0.000    0.000    0.000 
#
# Total GULP energy -78206.955450 kJ/mol
# GULP energy per Si atom -5586.211104 kJ/mol
# Density = 1.992545 g / cm^3
# Si number density = 19.970903 Si / 1000 Ang^3
#
#
#
# Elastic Constant Matrix: (Units=GPa)
#
#
# Indices 1 2 3 4 5 6 
#
# 1 55.1030 41.7519 37.9843 -10.7605 13.5801 4.9249
# 2 41.7519 104.9536 61.3205 1.7032 -0.1342 -3.4019
# 3 37.9843 61.3205 145.1692 -6.2066 -8.6920 6.8622
# 4 -10.7605 1.7032 -6.2066 25.7482 -1.3887 1.8961
# 5 13.5801 -0.1342 -8.6920 -1.3887 40.7987 0.0394
# 6 4.9249 -3.4019 6.8622 1.8961 0.0394 39.3869
#
#
#
# Elastic Compliance Matrix: (Units=1/GPa)
#
#
# Indices 1 2 3 4 5 6 
#
# 1 0.037506 -0.012916 -0.004205 0.015246 -0.012898 -0.005794
# 2 -0.012916 0.017471 -0.004343 -0.007742 0.003164 0.004250
# 3 -0.004205 -0.004343 0.010174 0.001301 0.003599 -0.001688
# 4 0.015246 -0.007742 0.001301 0.046230 -0.003245 -0.005024
# 5 -0.012898 0.003164 0.003599 -0.003245 0.029469 0.001386
# 6 -0.005794 0.004250 -0.001688 -0.005024 0.001386 0.027015
#
#
# Mechanical properties :
#
#
# Convention : Reuss Voigt Hill
#
# Bulk Modulus (GPa) = 44.99443 65.25992 55.12718
# Shear Modulus (GPa) = 22.91476 32.13136 27.52306
#
# Velocity S-wave (km/s) = 3.39101 4.01547 3.71638
# Velocity P-wave (km/s) = 6.15718 7.36526 6.78815
#
# Compressibility (1/GPa) = 0.02222497
#
# Stress axis : x y z
#
# Youngs Moduli (GPa) = 26.66220 57.23828 98.28934
#
# Poissons Ratio (x) = 0.73926 0.41327
# Poissons Ratio (y) = 0.34436 0.42686
# Poissons Ratio (z) = 0.11211 0.24858
#
# Static dielectric constant tensor:
#      x y z
#    x 1.730900 -0.014260 0.028190 
#    y -0.014260 1.702740 0.000160 
#    z 0.028190 0.000160 1.757680 
# 
# From -- ./inp_files/159138.got.cif
#   From: 2010.05.17/outbox.cif.g08.bks.cpg/sg2_80_cif.got.tgz:159138.got - 2010.06.03 11:33:40.
