data_PCOD9038623
_publ_section_title
;
Structure prediction by ZEFSAII (Michael W. Deem and Ramdas Pophale) SiO2 
 PCOD9038623
Probable space group: P -1
;
_chemical_formula_sum "Si O2"
_cell_formula_units_Z 16
_cell_length_a 22.752440
_cell_length_b 14.170861
_cell_length_c 18.128265
_cell_angle_alpha 149.545117
_cell_angle_beta 161.823494
_cell_angle_gamma 22.159043
_cell_volume 679.708687
_symmetry_space_group_name_H-M "P -1"
_symmetry_group_IT_number 2
_symmetry_cell_setting 'triclinic'
loop_
_space_group_symop_operation_xyz
x,y,z
-x,-y,-z
loop_
_atom_site_type_symbol
_atom_site_label
_atom_site_fract_x
_atom_site_fract_y
_atom_site_fract_z
Si Si1 0.417055 0.565213 0.084336
Si Si2 0.728658 0.080167 0.740613
Si Si3 0.009644 0.056772 0.444912
Si Si4 0.520822 0.700947 0.634198
Si Si5 0.993421 0.815466 0.631926
Si Si6 0.176241 0.316982 0.892007
Si Si7 0.928778 0.460348 0.241277
Si Si8 0.778548 0.490246 0.650808
O O1 0.264412 0.648071 0.882190
O O2 0.269161 0.527123 0.938564
O O3 0.367966 0.808116 0.217474
O O4 0.713008 0.314413 0.272598
O O5 0.512540 0.318713 0.594631
O O6 0.796751 0.825193 0.629826
O O7 0.000000 0.000000 0.000000
O O8 0.039013 0.034409 0.376917
O O9 0.172749 0.108730 0.715203
O O10 0.089269 0.800090 0.392698
O O11 0.500000 0.500000 0.500000
O O12 0.737090 0.575859 0.744301
O O13 0.246891 0.961683 0.454481
O O14 0.594068 0.777931 0.844407
O O15 0.961256 0.631095 0.437601
O O16 0.933084 0.504719 0.783650
O O17 0.161407 0.449088 0.889399
#
# Coordination Sequence:
#
# PCOD9038623 Si02
#       8
#     2   2   2   2   2   2   2   2
#     4  11  23  44  74 103 142 188 231 290 356 419
#     4  10  23  41  72 100 138 185 237 282 349 415
#     4  11  25  47  73 107 145 183 232 295 359 422
#     4  12  27  46  72 102 143 188 236 293 351 419
#     4  11  25  47  70 107 140 186 238 289 354 415
#     4  11  27  45  71 106 141 185 236 290 354 417
#     4  10  25  45  70 105 139 187 239 290 341 423
#     4  12  25  49  69 108 146 185 233 291 358 418
#
# _framework density 23.539496
#
# number of rings (size 3 to 8) (size 9 to 14) (size 15 to 20)
#    0.000    1.000    2.500    3.000    7.000    3.500 
#    2.250    0.000    0.000    0.000    0.000    0.000 
#    0.000    0.000    0.000    0.000    0.000    0.000 
#
# Total GULP energy -89451.310257 kJ/mol
# GULP energy per Si atom -5590.706891 kJ/mol
# Density = 2.348592 g / cm^3
# Si number density = 23.539496 Si / 1000 Ang^3
#
#
#
# Elastic Constant Matrix: (Units=GPa)
#
#
# Indices 1 2 3 4 5 6 
#
# 1 101.1627 -3.8262 13.3704 1.2850 -6.0014 -9.2978
# 2 -3.8262 112.0717 25.1221 -19.9023 6.7174 -20.1176
# 3 13.3704 25.1221 96.6429 -17.5641 -19.6827 -2.2244
# 4 1.2850 -19.9023 -17.5641 29.0275 -9.5173 1.0371
# 5 -6.0014 6.7174 -19.6827 -9.5173 32.0438 -2.8808
# 6 -9.2978 -20.1176 -2.2244 1.0371 -2.8808 32.7302
#
#
#
# Elastic Compliance Matrix: (Units=1/GPa)
#
#
# Indices 1 2 3 4 5 6 
#
# 1 0.010549 0.001264 -0.001568 -0.000363 0.000978 0.003765
# 2 0.001264 0.011924 -0.002230 0.006131 -0.001161 0.007240
# 3 -0.001568 -0.002230 0.016414 0.013111 0.014162 0.000130
# 4 -0.000363 0.006131 0.013111 0.054031 0.023187 0.004885
# 5 0.000978 -0.001161 0.014162 0.023187 0.047577 0.003980
# 6 0.003765 0.007240 0.000130 0.004885 0.003980 0.036277
#
#
# Mechanical properties :
#
#
# Convention : Reuss Voigt Hill
#
# Bulk Modulus (GPa) = 29.56899 42.13442 35.85171
# Shear Modulus (GPa) = 25.89174 37.10771 31.49972
#
# Velocity S-wave (km/s) = 3.32011 3.97470 3.66206
# Velocity P-wave (km/s) = 5.22362 6.24521 5.75712
#
# Compressibility (1/GPa) = 0.03381922
#
# Stress axis : x y z
#
# Youngs Moduli (GPa) = 94.79747 83.86503 60.92333
#
# Poissons Ratio (x) = -0.10604 0.09554
# Poissons Ratio (y) = -0.11986 0.13586
# Poissons Ratio (z) = 0.14866 0.18702
#
# Static dielectric constant tensor:
#      x y z
#    x 1.977890 -0.026320 0.018660 
#    y -0.026320 1.902550 0.026290 
#    z 0.018660 0.026290 1.928480 
# 
# From -- ./inp_files/333756.got.cif
#   From: 2010.05.17/outbox.cif.g08.bks.cpg/sg2_167_cif.got.tgz:333756.got - 2010.06.03 11:33:40.
