data_PCOD9038305
_publ_section_title
;
Structure prediction by ZEFSAII (Michael W. Deem and Ramdas Pophale) SiO2 
 PCOD9038305
Probable space group: P -1
;
_chemical_formula_sum "Si O2"
_cell_formula_units_Z 14
_cell_length_a 11.309769
_cell_length_b 9.851739
_cell_length_c 8.853921
_cell_angle_alpha 138.227908
_cell_angle_beta 72.157424
_cell_angle_gamma 111.936628
_cell_volume 608.985576
_symmetry_space_group_name_H-M "P -1"
_symmetry_group_IT_number 2
_symmetry_cell_setting 'triclinic'
loop_
_space_group_symop_operation_xyz
x,y,z
-x,-y,-z
loop_
_atom_site_type_symbol
_atom_site_label
_atom_site_fract_x
_atom_site_fract_y
_atom_site_fract_z
Si Si1 0.201005 0.134678 0.494558
Si Si2 0.273211 0.396693 0.394812
Si Si3 0.247925 0.838607 0.657152
Si Si4 0.380610 0.904627 0.362274
Si Si5 0.018109 0.283122 0.242557
Si Si6 0.994726 0.272747 0.885878
Si Si7 0.466390 0.154444 0.011341
O O1 0.333267 0.097852 0.471254
O O2 0.126695 0.910875 0.267794
O O3 0.227182 0.314433 0.509380
O O4 0.114972 0.194231 0.708798
O O5 0.273024 0.637047 0.568916
O O6 0.158039 0.272417 0.230763
O O7 0.406779 0.336280 0.256082
O O8 0.273332 0.798527 0.437130
O O9 0.105176 0.870114 0.762613
O O10 0.351842 0.024997 0.844522
O O11 0.419065 0.779824 0.100860
O O12 0.500000 0.000000 0.500000
O O13 0.000000 0.500000 0.500000
O O14 0.000452 0.287653 0.075419
O O15 0.000000 0.500000 0.000000
O O16 0.500000 0.000000 0.000000
#
# Coordination Sequence:
#
# PCOD9038305 Si02
#       7
#     2   2   2   2   2   2   2
#     4  11  25  43  68 101 139 174 227 276 339 400
#     4  11  24  43  68 100 130 176 223 273 340 399
#     4  10  24  43  67  92 136 171 217 284 332 396
#     4  10  24  45  65  95 135 177 226 277 325 396
#     4  10  23  41  68 102 134 168 223 273 339 402
#     4  11  25  42  69 102 140 180 218 278 340 405
#     4  11  23  44  66  95 131 176 228 274 328 392
#
# _framework density 22.989051
#
# number of rings (size 3 to 8) (size 9 to 14) (size 15 to 20)
#    0.000    1.429    1.429    2.571   12.000    2.286 
#    0.000    0.000    0.000    0.000    0.000    0.000 
#    0.000    0.000    0.000    0.000    0.000    0.000 
#
# Total GULP energy -78264.364602 kJ/mol
# GULP energy per Si atom -5590.311757 kJ/mol
# Density = 2.293673 g / cm^3
# Si number density = 22.989051 Si / 1000 Ang^3
#
#
#
# Elastic Constant Matrix: (Units=GPa)
#
#
# Indices 1 2 3 4 5 6 
#
# 1 64.3446 -5.0838 17.6527 -21.0063 -14.4664 -17.4471
# 2 -5.0838 104.8725 28.9550 -30.9279 -6.2072 -8.0978
# 3 17.6527 28.9550 100.9619 -27.4092 -2.1589 -4.9519
# 4 -21.0063 -30.9279 -27.4092 51.5709 -3.8160 -1.2189
# 5 -14.4664 -6.2072 -2.1589 -3.8160 23.0836 2.9453
# 6 -17.4471 -8.0978 -4.9519 -1.2189 2.9453 25.6833
#
#
#
# Elastic Compliance Matrix: (Units=1/GPa)
#
#
# Indices 1 2 3 4 5 6 
#
# 1 0.041248 0.014786 -0.001813 0.027667 0.030382 0.030162
# 2 0.014786 0.017843 -0.002043 0.017077 0.014861 0.014383
# 3 -0.001813 -0.002043 0.012054 0.004465 0.000097 0.000649
# 4 0.027667 0.017077 0.004465 0.045832 0.026845 0.024136
# 5 0.030382 0.014861 0.000097 0.026845 0.068408 0.018772
# 6 0.030162 0.014383 0.000649 0.024136 0.018772 0.063078
#
#
# Mechanical properties :
#
#
# Convention : Reuss Voigt Hill
#
# Bulk Modulus (GPa) = 10.75201 39.24742 24.99972
# Shear Modulus (GPa) = 19.40967 35.31125 27.36046
#
# Velocity S-wave (km/s) = 2.90884 3.92344 3.45360
# Velocity P-wave (km/s) = 3.99612 6.13464 5.17700
#
# Compressibility (1/GPa) = 0.09300586
#
# Stress axis : x y z
#
# Youngs Moduli (GPa) = 24.24350 56.04549 82.96151
#
# Poissons Ratio (x) = -0.82871 0.15038
# Poissons Ratio (y) = -0.35847 0.16950
# Poissons Ratio (z) = 0.04394 0.11451
#
# Static dielectric constant tensor:
#      x y z
#    x 1.896460 0.058190 -0.006230 
#    y 0.058190 1.875470 -0.001740 
#    z -0.006230 -0.001740 1.872980 
# 
# From -- ./inp_files/241287.got.cif
#   From: 2010.05.17/outbox.cif.g08.bks.cpg/sg2_121_cif.got.tgz:241287.got - 2010.06.03 11:33:40.
