data_PCOD9038694
_publ_section_title
;
Structure prediction by ZEFSAII (Michael W. Deem and Ramdas Pophale) SiO2 
 PCOD9038694
Probable space group: P -1
;
_chemical_formula_sum "Si O2"
_cell_formula_units_Z 16
_cell_length_a 10.368862
_cell_length_b 11.753415
_cell_length_c 17.391830
_cell_angle_alpha 138.225082
_cell_angle_beta 30.760609
_cell_angle_gamma 121.878590
_cell_volume 681.526864
_symmetry_space_group_name_H-M "P -1"
_symmetry_group_IT_number 2
_symmetry_cell_setting 'triclinic'
loop_
_space_group_symop_operation_xyz
x,y,z
-x,-y,-z
loop_
_atom_site_type_symbol
_atom_site_label
_atom_site_fract_x
_atom_site_fract_y
_atom_site_fract_z
Si Si1 0.997250 0.376045 0.687922
Si Si2 0.830162 0.185755 0.541263
Si Si3 0.636056 0.884450 0.445012
Si Si4 0.102024 0.689298 0.006935
Si Si5 0.735590 0.510765 0.037366
Si Si6 0.147134 0.214327 0.079032
Si Si7 0.595174 0.166575 0.316662
Si Si8 0.208003 0.061677 0.140871
O O1 0.316822 0.313673 0.507516
O O2 0.971646 0.238858 0.567118
O O3 0.860924 0.582737 0.832239
O O4 0.831714 0.370449 0.847465
O O5 0.537896 0.332926 0.761595
O O6 0.997976 0.166917 0.366928
O O7 0.779302 0.995928 0.478154
O O8 0.429040 0.838097 0.580940
O O9 0.864822 0.723391 0.208978
O O10 0.500000 0.000000 0.500000
O O11 0.972403 0.603379 0.964344
O O12 0.149265 0.874639 0.056522
O O13 0.325077 0.566588 0.888069
O O14 0.181750 0.173720 0.132275
O O15 0.863352 0.211953 0.188868
O O16 0.358474 0.034927 0.841913
O O17 0.500000 0.000000 0.000000
#
# Coordination Sequence:
#
# PCOD9038694 Si02
#       8
#     2   2   2   2   2   2   2   2
#     4  12  26  46  67 107 146 181 230 289 361 416
#     4  11  25  42  71 101 138 179 230 290 354 409
#     4  11  20  42  72  97 131 179 233 292 345 398
#     4  10  23  41  73  98 133 176 238 284 343 408
#     4  11  23  43  69 107 132 178 228 299 346 408
#     4  11  27  43  72  99 143 196 231 281 342 428
#     4  11  24  46  69 104 142 187 238 282 347 419
#     4  11  26  49  69 100 138 187 233 286 349 419
#
# _framework density 23.476697999999999
#
# number of rings (size 3 to 8) (size 9 to 14) (size 15 to 20)
#    0.000    1.000    2.500    3.750    5.250    1.000 
#    4.500    0.000    0.000    0.000    0.000    0.000 
#    0.000    0.000    0.000    0.000    0.000    0.000 
#
# Total GULP energy -89395.169355 kJ/mol
# GULP energy per Si atom -5587.198085 kJ/mol
# Density = 2.342326 g / cm^3
# Si number density = 23.476698 Si / 1000 Ang^3
#
#
#
# Elastic Constant Matrix: (Units=GPa)
#
#
# Indices 1 2 3 4 5 6 
#
# 1 102.1822 26.9273 18.3232 7.2347 -1.5833 -10.5527
# 2 26.9273 55.5648 6.8972 5.7078 -4.9189 -13.9405
# 3 18.3232 6.8972 100.9279 6.2694 -5.6770 -4.3921
# 4 7.2347 5.7078 6.2694 27.9164 -4.5436 3.2283
# 5 -1.5833 -4.9189 -5.6770 -4.5436 39.4581 7.6443
# 6 -10.5527 -13.9405 -4.3921 3.2283 7.6443 28.4296
#
#
#
# Elastic Compliance Matrix: (Units=1/GPa)
#
#
# Indices 1 2 3 4 5 6 
#
# 1 0.011705 -0.004774 -0.001627 -0.002125 -0.001045 0.002275
# 2 -0.004774 0.023357 0.000015 -0.004681 0.000216 0.010157
# 3 -0.001627 0.000015 0.010417 -0.001862 0.001038 0.000946
# 4 -0.002125 -0.004681 -0.001862 0.039715 0.005447 -0.009346
# 5 -0.001045 0.000216 0.001038 0.005447 0.027691 -0.008186
# 6 0.002275 0.010157 0.000946 -0.009346 -0.008186 0.044408
#
#
# Mechanical properties :
#
#
# Convention : Reuss Voigt Hill
#
# Bulk Modulus (GPa) = 30.57231 40.33004 35.45117
# Shear Modulus (GPa) = 27.62937 32.92930 30.27934
#
# Velocity S-wave (km/s) = 3.43430 3.74924 3.59522
# Velocity P-wave (km/s) = 5.36438 5.99654 5.68925
#
# Compressibility (1/GPa) = 0.03270934
#
# Stress axis : x y z
#
# Youngs Moduli (GPa) = 85.43048 42.81390 95.99252
#
# Poissons Ratio (x) = 0.20440 0.15614
# Poissons Ratio (y) = 0.40786 -0.00149
# Poissons Ratio (z) = 0.13896 -0.00066
#
# Static dielectric constant tensor:
#      x y z
#    x 2.297860 -0.187680 -0.156520 
#    y -0.187680 1.993690 0.096740 
#    z -0.156520 0.096740 1.964620 
# 
# From -- ./inp_files/500776.got.cif
#   From: 2010.05.17/outbox.cif.g08.bks.cpg/sg2_251_cif.got.tgz:500776.got - 2010.06.03 11:33:40.
