data_PCOD9038455
_publ_section_title
;
Structure prediction by ZEFSAII (Michael W. Deem and Ramdas Pophale) SiO2 
 PCOD9038455
Probable space group: P -1
;
_chemical_formula_sum "Si O2"
_cell_formula_units_Z 12
_cell_length_a 13.325028
_cell_length_b 6.531994
_cell_length_c 11.922730
_cell_angle_alpha 56.141158
_cell_angle_beta 43.649980
_cell_angle_gamma 65.823831
_cell_volume 594.789798
_symmetry_space_group_name_H-M "P -1"
_symmetry_group_IT_number 2
_symmetry_cell_setting 'triclinic'
loop_
_space_group_symop_operation_xyz
x,y,z
-x,-y,-z
loop_
_atom_site_type_symbol
_atom_site_label
_atom_site_fract_x
_atom_site_fract_y
_atom_site_fract_z
Si Si1 0.237672 0.557168 0.990193
Si Si2 0.459912 0.717573 0.132762
Si Si3 0.142009 0.002185 0.806558
Si Si4 0.188111 0.542521 0.523775
Si Si5 0.985624 0.832394 0.763416
Si Si6 0.819795 0.346837 0.742261
O O1 0.393027 0.432995 0.922304
O O2 0.251276 0.818990 0.838363
O O3 0.131137 0.383982 0.057035
O O4 0.158925 0.583450 0.167430
O O5 0.346835 0.660188 0.342284
O O6 0.355953 0.656470 0.130144
O O7 0.500000 0.000000 0.000000
O O8 0.090356 0.888219 0.765569
O O9 0.191362 0.281605 0.663225
O O10 0.000000 0.000000 0.000000
O O11 0.136382 0.493912 0.451160
O O12 0.085800 0.739180 0.608804
O O13 0.889742 0.078237 0.745254
#
# Coordination Sequence:
#
# PCOD9038455 Si02
#       6
#     2   2   2   2   2   2
#     4  12  23  43  71  93 134 174 215 265 324 388
#     4  10  23  45  68  98 128 173 215 270 327 379
#     4  12  25  42  65  98 133 175 213 265 328 383
#     4  10  25  42  65 101 134 162 222 266 327 381
#     4  12  22  42  70  96 131 169 223 266 320 382
#     4  10  23  41  69  97 127 166 224 266 323 372
#
# _framework density 20.175194999999999
#
# number of rings (size 3 to 8) (size 9 to 14) (size 15 to 20)
#    1.000    0.000    5.000    1.500    0.000    6.000 
#    0.000    0.833    0.000    0.000    0.000    0.000 
#    0.000    0.000    0.000    0.000    0.000    0.000 
#
# Total GULP energy -66936.696511 kJ/mol
# GULP energy per Si atom -5578.058043 kJ/mol
# Density = 2.012927 g / cm^3
# Si number density = 20.175195 Si / 1000 Ang^3
#
#
#
# Elastic Constant Matrix: (Units=GPa)
#
#
# Indices 1 2 3 4 5 6 
#
# 1 70.6619 41.9685 27.6208 11.0725 4.1713 -15.7705
# 2 41.9685 118.2330 59.6680 -4.2383 -7.6127 -38.5687
# 3 27.6208 59.6680 118.9155 -9.7403 -7.1695 -13.6798
# 4 11.0725 -4.2383 -9.7403 35.5628 -6.4778 5.3346
# 5 4.1713 -7.6127 -7.1695 -6.4778 26.5560 -2.5299
# 6 -15.7705 -38.5687 -13.6798 5.3346 -2.5299 43.6013
#
#
#
# Elastic Compliance Matrix: (Units=1/GPa)
#
#
# Indices 1 2 3 4 5 6 
#
# 1 0.021640 -0.006501 -0.002872 -0.010104 -0.008319 0.001929
# 2 -0.006501 0.017932 -0.005580 0.001993 0.006273 0.011881
# 3 -0.002872 -0.005580 0.012129 0.004475 0.002975 -0.002544
# 4 -0.010104 0.001993 0.004475 0.035468 0.011623 -0.004152
# 5 -0.008319 0.006273 0.002975 0.011623 0.044843 0.004654
# 6 0.001929 0.011881 -0.002544 -0.004152 0.004654 0.034122
#
#
# Mechanical properties :
#
#
# Convention : Reuss Voigt Hill
#
# Bulk Modulus (GPa) = 45.87651 62.92498 54.40074
# Shear Modulus (GPa) = 24.59352 33.04755 28.82053
#
# Velocity S-wave (km/s) = 3.49520 4.05165 3.78367
# Velocity P-wave (km/s) = 6.25116 7.29005 6.79050
#
# Compressibility (1/GPa) = 0.02179765
#
# Stress axis : x y z
#
# Youngs Moduli (GPa) = 46.21005 55.76573 82.44451
#
# Poissons Ratio (x) = 0.36251 0.23676
# Poissons Ratio (y) = 0.30040 0.46001
# Poissons Ratio (z) = 0.13271 0.31115
#
# Static dielectric constant tensor:
#      x y z
#    x 1.785280 0.011260 -0.010590 
#    y 0.011260 1.706240 -0.003890 
#    z -0.010590 -0.003890 1.730860 
# 
# From -- ./inp_files/18968.got.cif
#   From: 2010.05.17/outbox.cif.g08.bks.cpg/sg2_10_cif.got.tgz:18968.got - 2010.06.03 11:33:40.
