data_PCOD9038112
_publ_section_title
;
Structure prediction by ZEFSAII (Michael W. Deem and Ramdas Pophale) SiO2 
 PCOD9038112
Probable space group: P -1
;
_chemical_formula_sum "Si O2"
_cell_formula_units_Z 16
_cell_length_a 11.745089
_cell_length_b 18.331184
_cell_length_c 9.299504
_cell_angle_alpha 135.620416
_cell_angle_beta 109.801423
_cell_angle_gamma 37.351107
_cell_volume 714.741453
_symmetry_space_group_name_H-M "P -1"
_symmetry_group_IT_number 2
_symmetry_cell_setting 'triclinic'
loop_
_space_group_symop_operation_xyz
x,y,z
-x,-y,-z
loop_
_atom_site_type_symbol
_atom_site_label
_atom_site_fract_x
_atom_site_fract_y
_atom_site_fract_z
Si Si1 0.807356 0.987044 0.268313
Si Si2 0.537279 0.687273 0.832062
Si Si3 0.002576 0.364811 0.217776
Si Si4 0.649928 0.081617 0.647084
Si Si5 0.841757 0.556930 0.125405
Si Si6 0.167777 0.854658 0.734347
Si Si7 0.079705 0.683547 0.364038
Si Si8 0.619204 0.764501 0.739087
O O1 0.775563 0.031530 0.486788
O O2 0.862461 0.043041 0.266377
O O3 0.570698 0.113811 0.287447
O O4 0.976163 0.769981 0.006315
O O5 0.409698 0.700419 0.691556
O O6 0.789104 0.473251 0.676776
O O7 0.522868 0.809567 0.918851
O O8 0.403863 0.796030 0.078512
O O9 0.233923 0.238157 0.205981
O O10 0.795682 0.542667 0.479113
O O11 0.951551 0.474506 0.211887
O O12 0.407429 0.219410 0.684193
O O13 0.813578 0.878302 0.502845
O O14 0.830683 0.442629 0.914552
O O15 0.000000 0.500000 0.000000
O O16 0.141700 0.758165 0.524881
O O17 0.000000 0.000000 0.000000
#
# Coordination Sequence:
#
# PCOD9038112 Si02
#       8
#     2   2   2   2   2   2   2   2
#     4  11  24  43  66  96 135 170 221 273 332 383
#     4  10  23  43  68  96 133 171 222 268 330 391
#     4  11  21  41  65  96 130 175 217 269 332 387
#     4  11  22  43  66  98 135 166 220 272 324 396
#     4  11  24  44  64 100 137 174 218 267 329 397
#     4  11  24  45  67  97 133 174 223 276 325 396
#     4  11  23  43  67  95 131 174 221 269 333 388
#     4  10  23  41  66  95 134 170 220 272 321 396
#
# _framework density 22.385717
#
# number of rings (size 3 to 8) (size 9 to 14) (size 15 to 20)
#    0.000    1.250    3.750    2.250    1.750    1.000 
#    2.250    2.500    0.000    0.000    0.000    0.000 
#    0.000    0.000    0.000    0.000    0.000    0.000 
#
# Total GULP energy -89274.116685 kJ/mol
# GULP energy per Si atom -5579.632293 kJ/mol
# Density = 2.233477 g / cm^3
# Si number density = 22.385717 Si / 1000 Ang^3
#
#
#
# Elastic Constant Matrix: (Units=GPa)
#
#
# Indices 1 2 3 4 5 6 
#
# 1 42.2394 11.1098 33.8544 -15.1962 2.5780 7.8952
# 2 11.1098 107.7414 25.6264 -0.2631 -0.5616 8.1225
# 3 33.8544 25.6264 93.2413 -11.3700 0.9822 17.1251
# 4 -15.1962 -0.2631 -11.3700 40.6195 2.4809 -8.4229
# 5 2.5780 -0.5616 0.9822 2.4809 28.1821 -3.8307
# 6 7.8952 8.1225 17.1251 -8.4229 -3.8307 30.8209
#
#
#
# Elastic Compliance Matrix: (Units=1/GPa)
#
#
# Indices 1 2 3 4 5 6 
#
# 1 0.037824 -0.001015 -0.012028 0.010974 -0.004060 -0.000244
# 2 -0.001015 0.010036 -0.002285 -0.001268 0.000290 -0.001425
# 3 -0.012028 -0.002285 0.016678 -0.001056 -0.000236 -0.005901
# 4 0.010974 -0.001268 -0.001056 0.029818 -0.002814 0.005908
# 5 -0.004060 0.000290 -0.000236 -0.002814 0.036782 0.004897
# 6 -0.000244 -0.001425 -0.005901 0.005908 0.004897 0.038386
#
#
# Mechanical properties :
#
#
# Convention : Reuss Voigt Hill
#
# Bulk Modulus (GPa) = 29.51682 42.71148 36.11415
# Shear Modulus (GPa) = 23.64358 31.43328 27.53843
#
# Velocity S-wave (km/s) = 3.25343 3.75129 3.51120
# Velocity P-wave (km/s) = 5.22755 6.15500 5.71014
#
# Compressibility (1/GPa) = 0.03387899
#
# Stress axis : x y z
#
# Youngs Moduli (GPa) = 26.43848 99.64496 59.95977
#
# Poissons Ratio (x) = 0.10116 0.72122
# Poissons Ratio (y) = 0.02684 0.13704
# Poissons Ratio (z) = 0.31801 0.22773
#
# Static dielectric constant tensor:
#      x y z
#    x 1.812650 -0.022770 -0.004190 
#    y -0.022770 1.855180 0.005180 
#    z -0.004190 0.005180 1.850770 
# 
# From -- ./inp_files/279906.got.cif
#   From: 2010.05.17/outbox.cif.g08.bks.cpg/sg2_140_cif.got.tgz:279906.got - 2010.06.03 11:33:40.
