data_PCOD9038135
_publ_section_title
;
Structure prediction by ZEFSAII (Michael W. Deem and Ramdas Pophale) SiO2 
 PCOD9038135
Probable space group: P -1
;
_chemical_formula_sum "Si O2"
_cell_formula_units_Z 16
_cell_length_a 13.500753
_cell_length_b 15.091916
_cell_length_c 8.211265
_cell_angle_alpha 55.439377
_cell_angle_beta 72.542902
_cell_angle_gamma 29.158763
_cell_volume 586.336296
_symmetry_space_group_name_H-M "P -1"
_symmetry_group_IT_number 2
_symmetry_cell_setting 'triclinic'
loop_
_space_group_symop_operation_xyz
x,y,z
-x,-y,-z
loop_
_atom_site_type_symbol
_atom_site_label
_atom_site_fract_x
_atom_site_fract_y
_atom_site_fract_z
Si Si1 0.958705 0.246231 0.975774
Si Si2 0.781247 0.178807 0.537134
Si Si3 0.439822 0.103746 0.212883
Si Si4 0.527900 0.573926 0.064338
Si Si5 0.221927 0.409128 0.481455
Si Si6 0.980954 0.917584 0.214637
Si Si7 0.685166 0.584034 0.258010
Si Si8 0.855687 0.758023 0.567771
O O1 0.885841 0.439431 0.788526
O O2 0.009752 0.181317 0.825586
O O3 0.731978 0.407100 0.008309
O O4 0.165427 0.988483 0.235963
O O5 0.561835 0.423887 0.285218
O O6 0.817526 0.237129 0.598279
O O7 0.000000 0.000000 0.500000
O O8 0.594378 0.855863 0.356611
O O9 0.605264 0.018409 0.343574
O O10 0.212744 0.266700 0.240988
O O11 0.380195 0.235325 0.957302
O O12 0.561928 0.621960 0.151347
O O13 0.276386 0.832905 0.845467
O O14 0.353140 0.375803 0.570793
O O15 0.013747 0.568542 0.539709
O O16 0.029737 0.688723 0.620941
O O17 0.000000 0.000000 0.000000
#
# Coordination Sequence:
#
# PCOD9038135 Si02
#       8
#     2   2   2   2   2   2   2   2
#     4  10  23  41  66  98 129 176 215 268 331 387
#     4   9  21  43  69  97 127 171 215 267 328 391
#     4  11  21  43  69  94 130 185 212 274 341 377
#     4  11  24  44  68  96 136 172 219 274 330 390
#     4  10  23  42  63  99 134 169 226 273 321 396
#     4  10  23  43  71  94 130 169 216 270 330 389
#     4  10  24  42  65 100 132 172 224 275 322 396
#     4   9  24  40  67  94 137 165 232 267 334 385
#
# _framework density 27.288095999999999
#
# number of rings (size 3 to 8) (size 9 to 14) (size 15 to 20)
#    0.750    1.250    0.000    1.875    5.250    6.500 
#    2.250    3.750    0.000    0.000    0.000    0.000 
#    0.000    0.000    0.000    0.000    0.000    0.000 
#
# Total GULP energy -89241.295725 kJ/mol
# GULP energy per Si atom -5577.580983 kJ/mol
# Density = 2.722599 g / cm^3
# Si number density = 27.288096 Si / 1000 Ang^3
#
#
#
# Elastic Constant Matrix: (Units=GPa)
#
#
# Indices 1 2 3 4 5 6 
#
# 1 80.9940 17.1409 2.4816 -6.6934 6.6611 0.1156
# 2 17.1409 129.0150 29.4767 -2.8607 -10.1644 -11.4888
# 3 2.4816 29.4767 201.7669 -25.0836 -18.3042 -3.8537
# 4 -6.6934 -2.8607 -25.0836 34.2534 -2.2973 5.0851
# 5 6.6611 -10.1644 -18.3042 -2.2973 35.1484 -6.3073
# 6 0.1156 -11.4888 -3.8537 5.0851 -6.3073 38.1188
#
#
#
# Elastic Compliance Matrix: (Units=1/GPa)
#
#
# Indices 1 2 3 4 5 6 
#
# 1 0.013263 -0.002124 0.000147 0.002537 -0.003160 -0.001527
# 2 -0.002124 0.008758 -0.001015 -0.000694 0.002921 0.003119
# 3 0.000147 -0.001015 0.005945 0.004474 0.003105 0.000212
# 4 0.002537 -0.000694 0.004474 0.033675 0.003180 -0.003731
# 5 -0.003160 0.002921 0.003105 0.003180 0.032834 0.006212
# 6 -0.001527 0.003119 0.000212 -0.003731 0.006212 0.028726
#
#
# Mechanical properties :
#
#
# Convention : Reuss Voigt Hill
#
# Bulk Modulus (GPa) = 45.49514 56.66379 51.07947
# Shear Modulus (GPa) = 36.62676 45.68258 41.15467
#
# Velocity S-wave (km/s) = 3.66761 4.09600 3.88771
# Velocity P-wave (km/s) = 5.88588 6.57113 6.23792
#
# Compressibility (1/GPa) = 0.02198037
#
# Stress axis : x y z
#
# Youngs Moduli (GPa) = 75.39582 114.18532 168.21989
#
# Poissons Ratio (x) = 0.24257 -0.02469
# Poissons Ratio (y) = 0.16017 0.17075
# Poissons Ratio (z) = -0.01107 0.11590
#
# Static dielectric constant tensor:
#      x y z
#    x 2.373850 0.142480 -0.027020 
#    y 0.142480 2.588940 -0.231360 
#    z -0.027020 -0.231360 2.263160 
# 
# From -- ./inp_files/107327.got.cif
#   From: 2010.05.17/outbox.cif.g08.bks.cpg/sg2_54_cif.got.tgz:107327.got - 2010.06.03 11:33:40.
