data_PCOD9038676
_publ_section_title
;
Structure prediction by ZEFSAII (Michael W. Deem and Ramdas Pophale) SiO2 
 PCOD9038676
Probable space group: P -1
;
_chemical_formula_sum "Si O2"
_cell_formula_units_Z 15
_cell_length_a 6.157058
_cell_length_b 19.580477
_cell_length_c 10.984210
_cell_angle_alpha 31.703703
_cell_angle_beta 118.417061
_cell_angle_gamma 111.676837
_cell_volume 610.259308
_symmetry_space_group_name_H-M "P -1"
_symmetry_group_IT_number 2
_symmetry_cell_setting 'triclinic'
loop_
_space_group_symop_operation_xyz
x,y,z
-x,-y,-z
loop_
_atom_site_type_symbol
_atom_site_label
_atom_site_fract_x
_atom_site_fract_y
_atom_site_fract_z
Si Si1 0.425956 0.353585 0.209385
Si Si2 0.500000 0.500000 0.500000
Si Si3 0.238794 0.953814 0.540360
Si Si4 0.549508 0.315523 0.566787
Si Si5 0.832475 0.131230 0.610495
Si Si6 0.980652 0.767326 0.868118
Si Si7 0.309942 0.112745 0.936958
Si Si8 0.090425 0.321177 0.743425
O O1 0.401411 0.321251 0.393991
O O2 0.655438 0.262417 0.353073
O O3 0.175333 0.322206 0.121285
O O4 0.500000 0.500000 0.000000
O O5 0.442677 0.415948 0.487934
O O6 0.267819 0.436481 0.603918
O O7 0.104166 0.927615 0.416279
O O8 0.245023 0.811331 0.824752
O O9 0.500000 0.000000 0.500000
O O10 0.144161 0.085035 0.388453
O O11 0.539597 0.173315 0.842078
O O12 0.830603 0.342782 0.571214
O O13 0.080931 0.136508 0.746434
O O14 0.668094 0.034865 0.790204
O O15 0.982875 0.709176 0.091093
O O16 0.230911 0.194779 0.911551
#
# Coordination Sequence:
#
# PCOD9038676 Si02
#       8
#     2   1   2   2   2   2   2   2
#     4  12  26  46  70 103 148 193 236 289 359 440
#     4  10  24  42  70  94 142 180 238 294 342 430
#     4  11  23  41  69  99 143 186 228 290 360 419
#     4  11  24  45  71 101 138 187 241 292 357 419
#     4  11  22  45  69 102 147 182 237 300 355 422
#     4  11  25  42  69 106 144 183 236 291 355 431
#     4  10  23  41  73 105 136 179 239 305 356 410
#     4  11  22  43  70 105 137 183 239 296 357 419
#
# _framework density 24.579713999999999
#
# number of rings (size 3 to 8) (size 9 to 14) (size 15 to 20)
#    0.000    1.067    4.000    2.000    1.867    0.533 
#    2.400    1.333    0.000    0.000    0.000    0.000 
#    0.000    0.000    0.000    0.000    0.000    0.000 
#
# Total GULP energy -83671.813833 kJ/mol
# GULP energy per Si atom -5578.120922 kJ/mol
# Density = 2.452377 g / cm^3
# Si number density = 24.579714 Si / 1000 Ang^3
#
#
#
# Elastic Constant Matrix: (Units=GPa)
#
#
# Indices 1 2 3 4 5 6 
#
# 1 42.5216 35.1154 39.6934 -4.3902 -28.0495 8.8970
# 2 35.1154 159.2596 43.9619 6.3721 -13.7732 5.2809
# 3 39.6934 43.9619 88.3217 -13.6954 -32.2734 11.4711
# 4 -4.3902 6.3721 -13.6954 45.7622 -0.8232 -7.8632
# 5 -28.0495 -13.7732 -32.2734 -0.8232 49.7242 -5.6835
# 6 8.8970 5.2809 11.4711 -7.8632 -5.6835 38.3092
#
#
#
# Elastic Compliance Matrix: (Units=1/GPa)
#
#
# Indices 1 2 3 4 5 6 
#
# 1 0.056798 -0.006895 -0.013585 0.001911 0.020808 -0.004693
# 2 -0.006895 0.008363 -0.002737 -0.002668 -0.003368 0.000221
# 3 -0.013585 -0.002737 0.021890 0.005556 0.005761 -0.001027
# 4 0.001911 -0.002668 0.005556 0.024857 0.004823 0.004078
# 5 0.020808 -0.003368 0.005761 0.004823 0.034740 0.000051
# 6 -0.004693 0.000221 -0.001027 0.004078 0.000051 0.028315
#
#
# Mechanical properties :
#
#
# Convention : Reuss Voigt Hill
#
# Bulk Modulus (GPa) = 24.62009 58.62713 41.62361
# Shear Modulus (GPa) = 21.28232 38.18127 29.73179
#
# Velocity S-wave (km/s) = 2.94572 3.94555 3.48171
# Velocity P-wave (km/s) = 4.64843 6.68282 5.75621
#
# Compressibility (1/GPa) = 0.04061724
#
# Stress axis : x y z
#
# Youngs Moduli (GPa) = 17.60619 119.57455 45.68298
#
# Poissons Ratio (x) = 0.82445 0.62060
# Poissons Ratio (y) = 0.12139 0.12504
# Poissons Ratio (z) = 0.23918 0.32729
#
# Static dielectric constant tensor:
#      x y z
#    x -4.680600 0.816690 1.356420 
#    y 0.816690 1.822290 -0.170680 
#    z 1.356420 -0.170680 1.710880 
# 
# From -- ./inp_files/369979.got.cif
#   From: 2010.05.17/outbox.cif.g08.bks.cpg/sg2_185_cif.got.tgz:369979.got - 2010.06.03 11:33:40.
