data_PCOD9038405
_publ_section_title
;
Structure prediction by ZEFSAII (Michael W. Deem and Ramdas Pophale) SiO2 
 PCOD9038405
Probable space group: P -1
;
_chemical_formula_sum "Si O2"
_cell_formula_units_Z 14
_cell_length_a 5.064043
_cell_length_b 9.648709
_cell_length_c 12.422548
_cell_angle_alpha 122.378320
_cell_angle_beta 75.375723
_cell_angle_gamma 95.263734
_cell_volume 495.306888
_symmetry_space_group_name_H-M "P -1"
_symmetry_group_IT_number 2
_symmetry_cell_setting 'triclinic'
loop_
_space_group_symop_operation_xyz
x,y,z
-x,-y,-z
loop_
_atom_site_type_symbol
_atom_site_label
_atom_site_fract_x
_atom_site_fract_y
_atom_site_fract_z
Si Si1 0.220652 0.850382 0.230842
Si Si2 0.212330 0.098349 0.539262
Si Si3 0.601983 0.607729 0.216776
Si Si4 0.598184 0.107042 0.187818
Si Si5 0.891458 0.249059 0.025357
Si Si6 0.343885 0.416483 0.573465
Si Si7 0.906744 0.701116 0.758876
O O1 0.384072 0.686561 0.190179
O O2 0.095063 0.950387 0.393710
O O3 0.461835 0.959081 0.199492
O O4 0.054205 0.818722 0.125682
O O5 0.204991 0.248917 0.701080
O O6 0.267777 0.230227 0.494182
O O7 0.500000 0.000000 0.500000
O O8 0.748595 0.432184 0.100309
O O9 0.474194 0.576541 0.334128
O O10 0.720212 0.116646 0.055748
O O11 0.858918 0.174683 0.249977
O O12 0.357812 0.246422 0.256435
O O13 0.132863 0.272609 0.096519
O O14 0.500000 0.500000 0.500000
O O15 0.068072 0.527712 0.662464
#
# Coordination Sequence:
#
# PCOD9038405 Si02
#       7
#     2   2   2   2   2   2   2
#     4  12  24  40  67 104 148 182 231 305 372 420
#     4  10  25  41  65 100 136 183 235 303 363 424
#     4   9  23  43  66 103 135 180 239 294 366 430
#     4  10  23  41  69 102 147 192 240 287 361 436
#     4   9  22  42  70 101 141 194 238 290 353 450
#     4   9  21  46  70  99 134 191 248 301 356 437
#     4   9  22  42  70 103 140 187 254 286 350 436
#
# _framework density 28.265308000000001
#
# number of rings (size 3 to 8) (size 9 to 14) (size 15 to 20)
#    1.714    0.571    0.000    0.857    6.000    2.857 
#    2.571    1.429    0.000    0.000    0.000    0.000 
#    0.000    0.000    0.000    0.000    0.000    0.000 
#
# Total GULP energy -78209.646710 kJ/mol
# GULP energy per Si atom -5586.403336 kJ/mol
# Density = 2.820097 g / cm^3
# Si number density = 28.265308 Si / 1000 Ang^3
#
#
#
# Elastic Constant Matrix: (Units=GPa)
#
#
# Indices 1 2 3 4 5 6 
#
# 1 121.2276 42.3824 64.6040 9.3984 0.6628 -3.5572
# 2 42.3824 216.6225 100.3442 8.7245 -10.0463 -12.1369
# 3 64.6040 100.3442 158.2997 -27.0485 7.2006 7.9453
# 4 9.3984 8.7245 -27.0485 60.9690 -4.2927 -2.6287
# 5 0.6628 -10.0463 7.2006 -4.2927 20.0634 3.0238
# 6 -3.5572 -12.1369 7.9453 -2.6287 3.0238 39.0427
#
#
#
# Elastic Compliance Matrix: (Units=1/GPa)
#
#
# Indices 1 2 3 4 5 6 
#
# 1 0.011710 0.001031 -0.006385 -0.004610 0.001089 0.002292
# 2 0.001031 0.007998 -0.006515 -0.003699 0.005025 0.003268
# 3 -0.006385 -0.006515 0.014910 0.007908 -0.006011 -0.004643
# 4 -0.004610 -0.003699 0.007908 0.021090 0.000242 -0.001778
# 5 0.001089 0.005025 -0.006011 0.000242 0.054733 -0.001338
# 6 0.002292 0.003268 -0.004643 -0.001778 -0.001338 0.027766
#
#
# Mechanical properties :
#
#
# Convention : Reuss Voigt Hill
#
# Bulk Modulus (GPa) = 91.90900 101.20122 96.55511
# Shear Modulus (GPa) = 30.19859 43.26964 36.73412
#
# Velocity S-wave (km/s) = 3.27218 3.91684 3.60893
# Velocity P-wave (km/s) = 6.84568 7.50582 7.18334
#
# Compressibility (1/GPa) = 0.01088033
#
# Stress axis : x y z
#
# Youngs Moduli (GPa) = 85.40005 125.03812 67.06822
#
# Poissons Ratio (x) = -0.12892 0.42821
# Poissons Ratio (y) = -0.08805 0.43695
# Poissons Ratio (z) = 0.54525 0.81462
#
# Static dielectric constant tensor:
#      x y z
#    x 2.665630 0.404360 -0.132150 
#    y 0.404360 2.310620 -0.111720 
#    z -0.132150 -0.111720 2.400360 
# 
# From -- ./inp_files/480702.got.cif
#   From: 2010.05.17/outbox.cif.g08.bks.cpg/sg2_241_cif.got.tgz:480702.got - 2010.06.03 11:33:40.
