data_PCOD9038398
_publ_section_title
;
Structure prediction by ZEFSAII (Michael W. Deem and Ramdas Pophale) SiO2 
 PCOD9038398
Probable space group: P -1
;
_chemical_formula_sum "Si O2"
_cell_formula_units_Z 16
_cell_length_a 11.956997
_cell_length_b 8.869214
_cell_length_c 15.776928
_cell_angle_alpha 111.188203
_cell_angle_beta 26.386703
_cell_angle_gamma 108.024176
_cell_volume 692.900689
_symmetry_space_group_name_H-M "P -1"
_symmetry_group_IT_number 2
_symmetry_cell_setting 'triclinic'
loop_
_space_group_symop_operation_xyz
x,y,z
-x,-y,-z
loop_
_atom_site_type_symbol
_atom_site_label
_atom_site_fract_x
_atom_site_fract_y
_atom_site_fract_z
Si Si1 0.576340 0.382220 0.057226
Si Si2 0.097385 0.441310 0.785753
Si Si3 0.444906 0.755496 0.235758
Si Si4 0.021173 0.728521 0.005244
Si Si5 0.420230 0.266907 0.400265
Si Si6 0.590945 0.961012 0.334845
Si Si7 0.423310 0.902828 0.117176
Si Si8 0.128204 0.205744 0.422119
O O1 0.548366 0.574618 0.113672
O O2 0.336040 0.312819 0.254711
O O3 0.851954 0.349832 0.903007
O O4 0.589515 0.281407 0.941131
O O5 0.026717 0.627861 0.892977
O O6 0.311357 0.408316 0.564206
O O7 0.144975 0.362792 0.830258
O O8 0.482470 0.818566 0.319068
O O9 0.555741 0.880560 0.115412
O O10 0.148725 0.750259 0.413397
O O11 0.317353 0.711899 0.823027
O O12 0.885541 0.903806 0.127769
O O13 0.201551 0.233632 0.475499
O O14 0.500717 0.118680 0.376162
O O15 0.500000 0.000000 0.500000
O O16 0.187282 0.018838 0.322180
O O17 0.500000 0.000000 0.000000
#
# Coordination Sequence:
#
# PCOD9038398 Si02
#       8
#     2   2   2   2   2   2   2   2
#     4  11  23  44  69 105 146 187 234 299 366 427
#     4  11  23  42  73  97 141 189 236 297 359 425
#     4  12  24  45  72 102 152 184 240 302 357 430
#     4  11  24  46  67 101 141 185 243 298 352 430
#     4  12  24  44  73 102 141 189 243 294 363 430
#     4  12  26  46  71 104 144 192 237 299 366 421
#     4  10  23  41  69 101 135 187 239 285 362 426
#     4  11  24  43  69 107 142 188 240 298 356 433
#
# _framework density 23.091332000000001
#
# number of rings (size 3 to 8) (size 9 to 14) (size 15 to 20)
#    0.000    0.750    5.000    2.625    1.750    0.000 
#    4.500    0.000    0.000    0.000    0.000    0.000 
#    0.000    0.000    0.000    0.000    0.000    0.000 
#
# Total GULP energy -89156.468635 kJ/mol
# GULP energy per Si atom -5572.279290 kJ/mol
# Density = 2.303878 g / cm^3
# Si number density = 23.091332 Si / 1000 Ang^3
#
#
#
# Elastic Constant Matrix: (Units=GPa)
#
#
# Indices 1 2 3 4 5 6 
#
# 1 126.7148 23.2663 58.9802 3.0282 16.7164 13.6788
# 2 23.2663 62.9536 31.3383 9.8651 15.1371 -2.4102
# 3 58.9802 31.3383 150.7490 20.5679 24.9651 1.6861
# 4 3.0282 9.8651 20.5679 42.8054 6.3054 4.2166
# 5 16.7164 15.1371 24.9651 6.3054 43.7982 0.5518
# 6 13.6788 -2.4102 1.6861 4.2166 0.5518 33.0859
#
#
#
# Elastic Compliance Matrix: (Units=1/GPa)
#
#
# Indices 1 2 3 4 5 6 
#
# 1 0.010679 -0.002278 -0.003719 0.002226 -0.001430 -0.004651
# 2 -0.002278 0.019349 -0.002053 -0.002971 -0.004256 0.002906
# 3 -0.003719 -0.002053 0.009439 -0.003531 -0.002760 0.001403
# 4 0.002226 -0.002971 -0.003531 0.026232 -0.001533 -0.004274
# 5 -0.001430 -0.004256 -0.002760 -0.001533 0.026641 0.000173
# 6 -0.004651 0.002906 0.001403 -0.004274 0.000173 0.032829
#
#
# Mechanical properties :
#
#
# Convention : Reuss Voigt Hill
#
# Bulk Modulus (GPa) = 42.79903 63.06522 52.93213
# Shear Modulus (GPa) = 33.54394 39.06005 36.30199
#
# Velocity S-wave (km/s) = 3.81552 4.11730 3.96928
# Velocity P-wave (km/s) = 6.16326 7.06919 6.63171
#
# Compressibility (1/GPa) = 0.02336501
#
# Stress axis : x y z
#
# Youngs Moduli (GPa) = 93.64402 51.68226 105.94717
#
# Poissons Ratio (x) = 0.11774 0.39404
# Poissons Ratio (y) = 0.21333 0.21755
# Poissons Ratio (z) = 0.34828 0.10612
#
# Static dielectric constant tensor:
#      x y z
#    x 1.962610 -0.029050 0.022300 
#    y -0.029050 1.949650 -0.074660 
#    z 0.022300 -0.074660 1.884100 
# 
# From -- ./inp_files/422910.got.cif
#   From: 2010.05.17/outbox.cif.g08.bks.cpg/sg2_212_cif.got.tgz:422910.got - 2010.06.03 11:33:40.
