data_PCOD9038140
_publ_section_title
;
Structure prediction by ZEFSAII (Michael W. Deem and Ramdas Pophale) SiO2 
 PCOD9038140
Probable space group: P -1
;
_chemical_formula_sum "Si O2"
_cell_formula_units_Z 10
_cell_length_a 22.473633
_cell_length_b 4.985851
_cell_length_c 6.689225
_cell_angle_alpha 104.735965
_cell_angle_beta 141.886664
_cell_angle_gamma 71.153590
_cell_volume 437.821258
_symmetry_space_group_name_H-M "P -1"
_symmetry_group_IT_number 2
_symmetry_cell_setting 'triclinic'
loop_
_space_group_symop_operation_xyz
x,y,z
-x,-y,-z
loop_
_atom_site_type_symbol
_atom_site_label
_atom_site_fract_x
_atom_site_fract_y
_atom_site_fract_z
Si Si1 0.589801 0.721147 0.704161
Si Si2 0.113511 0.651773 0.400142
Si Si3 0.061946 0.348374 0.822172
Si Si4 0.791501 0.859165 0.156567
Si Si5 0.491890 0.307782 0.130516
O O1 0.567786 0.431848 0.497818
O O2 0.601099 0.663192 0.960451
O O3 0.500000 0.000000 0.500000
O O4 0.682145 0.806190 0.859110
O O5 0.150589 0.373557 0.579174
O O6 0.011352 0.802991 0.270013
O O7 0.193096 0.844215 0.662049
O O8 0.091531 0.563470 0.102674
O O9 0.158687 0.171840 0.937126
O O10 0.000000 0.500000 0.500000
O O11 0.500000 0.500000 0.000000
O O12 0.500000 0.000000 0.000000
#
# Coordination Sequence:
#
# PCOD9038140 Si02
#       5
#     2   2   2   2   2
#     4  11  26  44  69 100 139 180 235 281 334 405
#     4  10  23  41  66  98 131 172 217 271 331 401
#     4   9  21  43  67  96 133 171 215 271 335 395
#     4  11  25  40  66  96 135 170 223 271 330 390
#     4  11  24  44  68  92 128 179 227 283 341 390
#
# _framework density 22.84037
#
# number of rings (size 3 to 8) (size 9 to 14) (size 15 to 20)
#    0.000    1.600    2.000    0.600    5.600   13.600 
#    0.000    0.000    0.000    0.000    0.000    0.000 
#    0.000    0.000    0.000    0.000    0.000    0.000 
#
# Total GULP energy -55797.139803 kJ/mol
# GULP energy per Si atom -5579.713980 kJ/mol
# Density = 2.278838 g / cm^3
# Si number density = 22.840370 Si / 1000 Ang^3
#
#
#
# Elastic Constant Matrix: (Units=GPa)
#
#
# Indices 1 2 3 4 5 6 
#
# 1 111.1036 33.3916 53.7042 19.6150 -11.8905 -17.8330
# 2 33.3916 106.2266 44.3652 33.4896 -20.9942 11.1859
# 3 53.7042 44.3652 82.2146 34.7651 -9.4400 -19.2964
# 4 19.6150 33.4896 34.7651 46.9165 4.5911 0.8957
# 5 -11.8905 -20.9942 -9.4400 4.5911 41.8417 -2.5159
# 6 -17.8330 11.1859 -19.2964 0.8957 -2.5159 34.5690
#
#
#
# Elastic Compliance Matrix: (Units=1/GPa)
#
#
# Indices 1 2 3 4 5 6 
#
# 1 0.013623 -0.001425 -0.007349 0.000539 0.001649 0.003493
# 2 -0.001425 0.017366 -0.006763 -0.007295 0.007016 -0.009430
# 3 -0.007349 -0.006763 0.032304 -0.016825 0.004687 0.017207
# 4 0.000539 -0.007295 -0.016825 0.040126 -0.012228 -0.008683
# 5 0.001649 0.007016 0.004687 -0.012228 0.030512 0.003735
# 6 0.003493 -0.009430 0.017207 -0.008683 0.003735 0.043882
#
#
# Mechanical properties :
#
#
# Convention : Reuss Voigt Hill
#
# Bulk Modulus (GPa) = 31.03641 62.49630 46.76635
# Shear Modulus (GPa) = 22.76587 35.87105 29.31846
#
# Velocity S-wave (km/s) = 3.16054 3.96727 3.58666
# Velocity P-wave (km/s) = 5.19005 6.95753 6.13774
#
# Compressibility (1/GPa) = 0.03222023
#
# Stress axis : x y z
#
# Youngs Moduli (GPa) = 73.40561 57.58414 30.95567
#
# Poissons Ratio (x) = 0.08205 0.22748
# Poissons Ratio (y) = 0.10459 0.20936
# Poissons Ratio (z) = 0.53942 0.38945
#
# Static dielectric constant tensor:
#      x y z
#    x 1.923540 -0.041320 0.009100 
#    y -0.041320 1.887760 -0.053270 
#    z 0.009100 -0.053270 1.886020 
# 
# From -- ./inp_files/2424.got.cif
#   From: 2010.05.17/outbox.cif.g08.bks.cpg/sg2_2_cif.got.tgz:2424.got - 2010.06.03 11:33:40.
