data_PCOD9038388
_publ_section_title
;
Structure prediction by ZEFSAII (Michael W. Deem and Ramdas Pophale) SiO2 
 PCOD9038388
Probable space group: P -1
;
_chemical_formula_sum "Si O2"
_cell_formula_units_Z 16
_cell_length_a 8.928068
_cell_length_b 14.798172
_cell_length_c 7.391314
_cell_angle_alpha 92.268515
_cell_angle_beta 87.098669
_cell_angle_gamma 45.540053
_cell_volume 692.230658
_symmetry_space_group_name_H-M "P -1"
_symmetry_group_IT_number 2
_symmetry_cell_setting 'triclinic'
loop_
_space_group_symop_operation_xyz
x,y,z
-x,-y,-z
loop_
_atom_site_type_symbol
_atom_site_label
_atom_site_fract_x
_atom_site_fract_y
_atom_site_fract_z
Si Si1 0.989876 0.875509 0.195686
Si Si2 0.177381 0.340053 0.380148
Si Si3 0.914366 0.324579 0.553771
Si Si4 0.471747 0.387071 0.371295
Si Si5 0.859812 0.291957 0.148839
Si Si6 0.163144 0.491711 0.878854
Si Si7 0.545707 0.079960 0.423332
Si Si8 0.592801 0.228841 0.695730
O O1 0.045606 0.764936 0.304973
O O2 0.184622 0.860887 0.221234
O O3 0.998265 0.834383 0.988890
O O4 0.762987 0.000327 0.293951
O O5 0.311363 0.372932 0.349978
O O6 0.354506 0.190143 0.310921
O O7 0.083775 0.334280 0.567684
O O8 0.958716 0.449211 0.299825
O O9 0.679891 0.463505 0.582212
O O10 0.946187 0.270839 0.345378
O O11 0.634486 0.339994 0.199617
O O12 0.594619 0.300679 0.535260
O O13 0.825267 0.405766 0.067314
O O14 0.390419 0.348254 0.833373
O O15 0.000000 0.500000 0.000000
O O16 0.554484 0.149386 0.592582
O O17 0.500000 0.000000 0.500000
#
# Coordination Sequence:
#
# PCOD9038388 Si02
#       8
#     2   2   2   2   2   2   2   2
#     4  12  26  44  70 101 142 185 235 279 339 416
#     4  10  23  41  69 100 133 181 229 287 344 408
#     4  11  21  42  68  99 141 180 219 290 347 415
#     4  11  21  40  68 101 139 177 224 282 367 410
#     4  11  25  42  66 107 141 179 226 279 353 422
#     4  11  26  43  67 110 143 175 230 294 360 411
#     4  11  25  45  72 100 130 192 244 276 338 416
#     4  11  24  44  72  99 140 184 228 290 349 409
#
# _framework density 23.113683000000002
#
# number of rings (size 3 to 8) (size 9 to 14) (size 15 to 20)
#    0.000    1.000    5.000    1.875    7.000    1.000 
#    0.000    6.250    0.000    0.000    0.000    0.000 
#    0.000    0.000    0.000    0.000    0.000    0.000 
#
# Total GULP energy -89302.885765 kJ/mol
# GULP energy per Si atom -5581.430360 kJ/mol
# Density = 2.306108 g / cm^3
# Si number density = 23.113683 Si / 1000 Ang^3
#
#
#
# Elastic Constant Matrix: (Units=GPa)
#
#
# Indices 1 2 3 4 5 6 
#
# 1 127.4589 19.3777 16.0635 20.5053 -21.6289 1.8837
# 2 19.3777 73.5149 11.4265 25.6266 -1.3899 -8.8406
# 3 16.0635 11.4265 70.8047 24.1596 -7.7070 -0.7204
# 4 20.5053 25.6266 24.1596 36.0188 -0.2776 -14.8405
# 5 -21.6289 -1.3899 -7.7070 -0.2776 39.0517 4.0106
# 6 1.8837 -8.8406 -0.7204 -14.8405 4.0106 48.3758
#
#
#
# Elastic Compliance Matrix: (Units=1/GPa)
#
#
# Indices 1 2 3 4 5 6 
#
# 1 0.010035 -0.000550 0.000879 -0.007174 0.005987 -0.003175
# 2 -0.000550 0.018429 0.002282 -0.014813 0.000819 -0.001189
# 3 0.000879 0.002282 0.020069 -0.017668 0.004932 -0.005147
# 4 -0.007174 -0.014813 -0.017668 0.061097 -0.009280 0.016821
# 5 0.005987 0.000819 0.004932 -0.009280 0.030412 -0.005378
# 6 -0.003175 -0.001189 -0.005147 0.016821 -0.005378 0.026108
#
#
# Mechanical properties :
#
#
# Convention : Reuss Voigt Hill
#
# Bulk Modulus (GPa) = 18.60252 40.61266 29.60759
# Shear Modulus (GPa) = 27.95715 39.68331 33.82023
#
# Velocity S-wave (km/s) = 3.48163 4.14801 3.82935
# Velocity P-wave (km/s) = 4.92220 6.36791 5.69115
#
# Compressibility (1/GPa) = 0.05375616
#
# Stress axis : x y z
#
# Youngs Moduli (GPa) = 99.64656 54.26188 49.82902
#
# Poissons Ratio (x) = 0.02983 -0.04381
# Poissons Ratio (y) = 0.05479 -0.11372
# Poissons Ratio (z) = -0.08761 -0.12383
#
# Static dielectric constant tensor:
#      x y z
#    x 2.031560 0.002300 0.042910 
#    y 0.002300 1.871220 -0.005210 
#    z 0.042910 -0.005210 1.927680 
# 
# From -- ./inp_files/207728.got.cif
#   From: 2010.05.17/outbox.cif.g08.bks.cpg/sg2_104_cif.got.tgz:207728.got - 2010.06.03 11:33:40.
