data_PCOD9038899
_publ_section_title
;
Structure prediction by ZEFSAII (Michael W. Deem and Ramdas Pophale) SiO2 
 PCOD9038899
Probable space group: P -1
;
_chemical_formula_sum "Si O2"
_cell_formula_units_Z 16
_cell_length_a 14.552854
_cell_length_b 11.380117
_cell_length_c 8.018527
_cell_angle_alpha 138.809771
_cell_angle_beta 111.854266
_cell_angle_gamma 84.880820
_cell_volume 771.098153
_symmetry_space_group_name_H-M "P -1"
_symmetry_group_IT_number 2
_symmetry_cell_setting 'triclinic'
loop_
_space_group_symop_operation_xyz
x,y,z
-x,-y,-z
loop_
_atom_site_type_symbol
_atom_site_label
_atom_site_fract_x
_atom_site_fract_y
_atom_site_fract_z
Si Si1 0.377226 0.953835 0.887618
Si Si2 0.315764 0.467673 0.690986
Si Si3 0.950625 0.334573 0.659721
Si Si4 0.433741 0.183094 0.488793
Si Si5 0.356602 0.835052 0.286264
Si Si6 0.787934 0.051473 0.480340
Si Si7 0.231158 0.532136 0.368852
Si Si8 0.831009 0.693273 0.264677
O O1 0.318358 0.030685 0.785566
O O2 0.320146 0.731007 0.615050
O O3 0.500000 0.000000 0.000000
O O4 0.367165 0.057458 0.162122
O O5 0.407798 0.376236 0.676853
O O6 0.264675 0.423979 0.427380
O O7 0.239007 0.390929 0.712776
O O8 0.350801 0.692266 0.978732
O O9 0.877807 0.159561 0.528969
O O10 0.870533 0.410444 0.582121
O O11 0.049432 0.293280 0.603660
O O12 0.000000 0.500000 0.000000
O O13 0.555966 0.205468 0.580519
O O14 0.397433 0.051437 0.486078
O O15 0.245729 0.807057 0.267577
O O16 0.820731 0.896641 0.436476
O O17 0.206451 0.423141 0.058746
#
# Coordination Sequence:
#
# PCOD9038899 Si02
#       8
#     2   2   2   2   2   2   2   2
#     4  11  21  40  63  89 129 174 210 261 319 373
#     4  12  23  41  65  94 131 166 216 265 316 383
#     4   9  20  40  67  91 123 166 212 267 323 376
#     4  11  23  39  60  90 129 169 216 256 313 377
#     4  11  22  40  59  88 130 170 209 263 315 372
#     4  11  21  40  67  90 128 168 214 264 319 384
#     4  10  23  42  64  94 131 167 215 268 318 380
#     4  11  23  41  65  97 125 169 217 264 325 379
#
# _framework density 20.749627
#
# number of rings (size 3 to 8) (size 9 to 14) (size 15 to 20)
#    0.000    1.250    3.750    3.750    0.000    0.500 
#    2.250    1.250    0.000    7.500    0.000    0.000 
#    0.000    0.000    0.000    0.000    0.000    0.000 
#
# Total GULP energy -89291.695469 kJ/mol
# GULP energy per Si atom -5580.730967 kJ/mol
# Density = 2.070240 g / cm^3
# Si number density = 20.749627 Si / 1000 Ang^3
#
#
#
# Elastic Constant Matrix: (Units=GPa)
#
#
# Indices 1 2 3 4 5 6 
#
# 1 88.2128 31.8386 17.1611 -1.9574 3.0725 -25.2254
# 2 31.8386 101.9875 6.3572 -6.1379 -2.6894 -21.8547
# 3 17.1611 6.3572 50.1314 -3.8954 0.5545 -2.8696
# 4 -1.9574 -6.1379 -3.8954 26.8282 -3.3156 -6.6306
# 5 3.0725 -2.6894 0.5545 -3.3156 30.5984 -4.4836
# 6 -25.2254 -21.8547 -2.8696 -6.6306 -4.4836 33.0957
#
#
#
# Elastic Compliance Matrix: (Units=1/GPa)
#
#
# Indices 1 2 3 4 5 6 
#
# 1 0.016234 -0.002242 -0.004423 0.002793 0.000181 0.011094
# 2 -0.002242 0.012620 -0.000010 0.005094 0.003068 0.008060
# 3 -0.004423 -0.000010 0.021608 0.002600 0.000193 -0.000957
# 4 0.002793 0.005094 0.002600 0.043717 0.007120 0.015441
# 5 0.000181 0.003068 0.000193 0.007120 0.034923 0.008338
# 6 0.011094 0.008060 -0.000957 0.015441 0.008338 0.048133
#
#
# Mechanical properties :
#
#
# Convention : Reuss Voigt Hill
#
# Bulk Modulus (GPa) = 26.94477 39.00504 32.97491
# Shear Modulus (GPa) = 24.63596 30.43612 27.53604
#
# Velocity S-wave (km/s) = 3.44946 3.83407 3.64684
# Velocity P-wave (km/s) = 5.37390 6.19991 5.80163
#
# Compressibility (1/GPa) = 0.03711295
#
# Stress axis : x y z
#
# Youngs Moduli (GPa) = 61.59956 79.23751 46.27922
#
# Poissons Ratio (x) = 0.17766 0.20469
# Poissons Ratio (y) = 0.13811 0.00045
# Poissons Ratio (z) = 0.27245 0.00076
#
# Static dielectric constant tensor:
#      x y z
#    x 1.795780 0.023720 -0.048170 
#    y 0.023720 1.762280 -0.026610 
#    z -0.048170 -0.026610 1.795840 
# 
# From -- ./inp_files/258810.got.cif
#   From: 2010.05.17/outbox.cif.g08.bks.cpg/sg2_130_cif.got.tgz:258810.got - 2010.06.03 11:33:40.
