data_PCOD9038535
_publ_section_title
;
Structure prediction by ZEFSAII (Michael W. Deem and Ramdas Pophale) SiO2 
 PCOD9038535
Probable space group: P -1
;
_chemical_formula_sum "Si O2"
_cell_formula_units_Z 15
_cell_length_a 9.314959
_cell_length_b 8.081918
_cell_length_c 10.382733
_cell_angle_alpha 115.610166
_cell_angle_beta 87.891186
_cell_angle_gamma 69.395609
_cell_volume 643.025499
_symmetry_space_group_name_H-M "P -1"
_symmetry_group_IT_number 2
_symmetry_cell_setting 'triclinic'
loop_
_space_group_symop_operation_xyz
x,y,z
-x,-y,-z
loop_
_atom_site_type_symbol
_atom_site_label
_atom_site_fract_x
_atom_site_fract_y
_atom_site_fract_z
Si Si1 0.072339 0.621009 0.947874
Si Si2 0.867245 0.728213 0.589701
Si Si3 0.082000 0.868572 0.262140
Si Si4 0.218526 0.216338 0.676250
Si Si5 0.578047 0.330597 0.741725
Si Si6 0.749478 0.816723 0.896213
Si Si7 0.516875 0.263377 0.019216
Si Si8 0.500000 0.000000 0.500000
O O1 0.926992 0.760235 0.913054
O O2 0.190644 0.437316 0.798639
O O3 0.000000 0.500000 0.000000
O O4 0.121334 0.762356 0.084554
O O5 0.761450 0.790795 0.483828
O O6 0.761652 0.747701 0.724640
O O7 0.000000 0.500000 0.500000
O O8 0.934168 0.902136 0.659881
O O9 0.233111 0.742481 0.301863
O O10 0.928845 0.836866 0.304447
O O11 0.383563 0.045805 0.651008
O O12 0.481891 0.567872 0.826143
O O13 0.528458 0.201246 0.602828
O O14 0.554439 0.283752 0.876614
O O15 0.662623 0.715148 0.954907
O O16 0.640746 0.049328 0.987384
#
# Coordination Sequence:
#
# PCOD9038535 Si02
#       8
#     2   2   2   2   2   2   2   1
#     4  10  23  41  70  97 127 174 232 272 322 398
#     4  12  24  43  65  97 135 178 222 272 333 398
#     4  11  24  45  70  97 130 180 230 271 322 404
#     4  11  24  44  69  98 134 175 223 272 333 394
#     4  11  24  43  68 102 131 178 228 268 335 406
#     4  11  22  43  68 102 136 175 221 285 334 385
#     4  10  23  41  72  96 136 177 222 275 341 388
#     4  12  26  38  68 100 136 164 220 282 326 392
#
# _framework density 23.327224999999999
#
# number of rings (size 3 to 8) (size 9 to 14) (size 15 to 20)
#    0.000    1.067    4.000    2.000    7.467    0.533 
#    2.400    0.000    0.000    3.200    0.000    0.000 
#    0.000    0.000    0.000    0.000    0.000    0.000 
#
# Total GULP energy -83608.370079 kJ/mol
# GULP energy per Si atom -5573.891339 kJ/mol
# Density = 2.327413 g / cm^3
# Si number density = 23.327225 Si / 1000 Ang^3
#
#
#
# Elastic Constant Matrix: (Units=GPa)
#
#
# Indices 1 2 3 4 5 6 
#
# 1 97.7576 -3.3054 46.6177 17.5489 -16.2143 16.2002
# 2 -3.3054 49.0036 26.0781 28.5458 -5.8535 -7.0986
# 3 46.6177 26.0781 153.6894 49.1710 5.6148 -8.9503
# 4 17.5489 28.5458 49.1710 58.9080 0.4073 -7.1209
# 5 -16.2143 -5.8535 5.6148 0.4073 42.5817 3.1719
# 6 16.2002 -7.0986 -8.9503 -7.1209 3.1719 20.3545
#
#
#
# Elastic Compliance Matrix: (Units=1/GPa)
#
#
# Indices 1 2 3 4 5 6 
#
# 1 0.020106 0.006980 -0.006913 -0.006156 0.011113 -0.020494
# 2 0.006980 0.032071 -0.003048 -0.015410 0.007788 -0.002315
# 3 -0.006913 -0.003048 0.011369 -0.004886 -0.005139 0.008530
# 4 -0.006156 -0.015410 -0.004886 0.031494 -0.004800 0.009142
# 5 0.011113 0.007788 -0.005139 -0.004800 0.030615 -0.014838
# 6 -0.020494 -0.002315 0.008530 0.009142 -0.014838 0.073894
#
#
# Mechanical properties :
#
#
# Convention : Reuss Voigt Hill
#
# Bulk Modulus (GPa) = 17.36624 48.80351 33.08488
# Shear Modulus (GPa) = 22.25122 39.77283 31.01203
#
# Velocity S-wave (km/s) = 3.09183 4.13364 3.65010
# Velocity P-wave (km/s) = 4.49519 6.61433 5.65491
#
# Compressibility (1/GPa) = 0.05758298
#
# Stress axis : x y z
#
# Youngs Moduli (GPa) = 49.73529 31.18077 87.96194
#
# Poissons Ratio (x) = -0.21763 0.60809
# Poissons Ratio (y) = -0.34714 0.26812
# Poissons Ratio (z) = 0.34383 0.09504
#
# Static dielectric constant tensor:
#      x y z
#    x 1.759250 0.158850 0.016440 
#    y 0.158850 1.790100 -0.021370 
#    z 0.016440 -0.021370 1.883820 
# 
# From -- ./inp_files/383540.got.cif
#   From: 2010.05.17/outbox.cif.g08.bks.cpg/sg2_192_cif.got.tgz:383540.got - 2010.06.03 11:33:40.
