data_PCOD9038864
_publ_section_title
;
Structure prediction by ZEFSAII (Michael W. Deem and Ramdas Pophale) SiO2 
 PCOD9038864
Probable space group: P -1
;
_chemical_formula_sum "Si O2"
_cell_formula_units_Z 15
_cell_length_a 15.074538
_cell_length_b 14.164087
_cell_length_c 8.559240
_cell_angle_alpha 105.689033
_cell_angle_beta 139.624321
_cell_angle_gamma 42.980689
_cell_volume 613.584610
_symmetry_space_group_name_H-M "P -1"
_symmetry_group_IT_number 2
_symmetry_cell_setting 'triclinic'
loop_
_space_group_symop_operation_xyz
x,y,z
-x,-y,-z
loop_
_atom_site_type_symbol
_atom_site_label
_atom_site_fract_x
_atom_site_fract_y
_atom_site_fract_z
Si Si1 0.000000 0.000000 0.000000
Si Si2 0.593468 0.925661 0.768185
Si Si3 0.906809 0.845329 0.690371
Si Si4 0.164132 0.500090 0.321597
Si Si5 0.935585 0.469800 0.147830
Si Si6 0.172370 0.050628 0.720102
Si Si7 0.356258 0.588896 0.685300
Si Si8 0.566685 0.260137 0.266253
O O1 0.959788 0.145938 0.036164
O O2 0.233354 0.866209 0.380345
O O3 0.395482 0.970738 0.597651
O O4 0.500000 0.000000 0.500000
O O5 0.617961 0.006820 0.945063
O O6 0.880171 0.714251 0.052736
O O7 0.929249 0.842483 0.532168
O O8 0.975854 0.694538 0.775624
O O9 0.191233 0.448891 0.158303
O O10 0.348817 0.480486 0.577127
O O11 0.159991 0.414330 0.402619
O O12 0.705738 0.627913 0.028121
O O13 0.291763 0.874977 0.752223
O O14 0.932002 0.197259 0.579367
O O15 0.489445 0.590648 0.761949
O O16 0.500000 0.500000 0.000000
#
# Coordination Sequence:
#
# PCOD9038864 Si02
#       8
#     1   2   2   2   2   2   2   2
#     4  10  24  40  68  96 132 180 226 278 330 412
#     4  11  22  43  70  94 130 179 230 280 334 399
#     4  11  22  42  68 102 135 178 225 281 346 401
#     4  10  23  42  64 101 134 175 233 278 335 409
#     4  11  23  42  68  99 136 179 224 282 340 407
#     4  10  24  43  67 101 134 176 233 283 335 407
#     4  11  24  44  66  98 138 179 224 283 346 406
#     4  11  24  44  67  99 139 181 229 277 346 410
#
# _framework density 24.446505999999999
#
# number of rings (size 3 to 8) (size 9 to 14) (size 15 to 20)
#    0.000    1.333    1.333    4.000    1.867    6.400 
#    0.000    4.000    0.000    0.000    0.000    0.000 
#    0.000    0.000    0.000    0.000    0.000    0.000 
#
# Total GULP energy -83593.051747 kJ/mol
# GULP energy per Si atom -5572.870116 kJ/mol
# Density = 2.439086 g / cm^3
# Si number density = 24.446506 Si / 1000 Ang^3
#
#
#
# Elastic Constant Matrix: (Units=GPa)
#
#
# Indices 1 2 3 4 5 6 
#
# 1 83.6194 19.0009 -2.8727 4.8304 10.6592 24.3562
# 2 19.0009 106.0912 23.6517 22.5178 4.7116 33.6305
# 3 -2.8727 23.6517 66.2085 28.3924 -1.8219 11.9937
# 4 4.8304 22.5178 28.3924 49.2344 6.2488 4.6309
# 5 10.6592 4.7116 -1.8219 6.2488 28.4426 -7.4197
# 6 24.3562 33.6305 11.9937 4.6309 -7.4197 52.5758
#
#
#
# Elastic Compliance Matrix: (Units=1/GPa)
#
#
# Indices 1 2 3 4 5 6 
#
# 1 0.015682 0.000028 0.002587 -0.001225 -0.007758 -0.008859
# 2 0.000028 0.013462 -0.001706 -0.003918 -0.003683 -0.008409
# 3 0.002587 -0.001706 0.021668 -0.011924 0.002364 -0.003667
# 4 -0.001225 -0.003918 -0.011924 0.029574 -0.005525 0.002409
# 5 -0.007758 -0.003683 0.002364 -0.005525 0.043168 0.011989
# 6 -0.008859 -0.008409 -0.003667 0.002409 0.011989 0.030820
#
#
# Mechanical properties :
#
#
# Convention : Reuss Voigt Hill
#
# Bulk Modulus (GPa) = 19.00036 37.27544 28.13790
# Shear Modulus (GPa) = 29.39459 40.45985 34.92722
#
# Velocity S-wave (km/s) = 3.47133 4.07263 3.78394
# Velocity P-wave (km/s) = 4.88426 6.11522 5.53407
#
# Compressibility (1/GPa) = 0.05263058
#
# Stress axis : x y z
#
# Youngs Moduli (GPa) = 63.76824 74.28314 46.15038
#
# Poissons Ratio (x) = -0.00205 -0.11941
# Poissons Ratio (y) = -0.00176 0.07872
# Poissons Ratio (z) = -0.16500 0.12671
#
# Static dielectric constant tensor:
#      x y z
#    x 2.167850 -0.011250 0.051350 
#    y -0.011250 2.150450 -0.029390 
#    z 0.051350 -0.029390 1.910160 
# 
# From -- ./inp_files/315517.got.cif
#   From: 2010.05.17/outbox.cif.g08.bks.cpg/sg2_158_cif.got.tgz:315517.got - 2010.06.03 11:33:40.
