data_PCOD9038556
_publ_section_title
;
Structure prediction by ZEFSAII (Michael W. Deem and Ramdas Pophale) SiO2 
 PCOD9038556
Probable space group: P -1
;
_chemical_formula_sum "Si O2"
_cell_formula_units_Z 16
_cell_length_a 11.659434
_cell_length_b 14.392854
_cell_length_c 9.141091
_cell_angle_alpha 144.627657
_cell_angle_beta 52.002642
_cell_angle_gamma 130.856712
_cell_volume 659.697059
_symmetry_space_group_name_H-M "P -1"
_symmetry_group_IT_number 2
_symmetry_cell_setting 'triclinic'
loop_
_space_group_symop_operation_xyz
x,y,z
-x,-y,-z
loop_
_atom_site_type_symbol
_atom_site_label
_atom_site_fract_x
_atom_site_fract_y
_atom_site_fract_z
Si Si1 0.519906 0.057362 0.889970
Si Si2 0.309003 0.788001 0.512384
Si Si3 0.316410 0.418243 0.136032
Si Si4 0.069764 0.136396 0.465222
Si Si5 0.944154 0.568738 0.989435
Si Si6 0.243240 0.126472 0.585392
Si Si7 0.584536 0.346388 0.005533
Si Si8 0.038640 0.318656 0.432024
O O1 0.553872 0.253540 0.067770
O O2 0.369977 0.939697 0.771911
O O3 0.655189 0.994782 0.637366
O O4 0.500000 0.000000 0.000000
O O5 0.316344 0.608285 0.342615
O O6 0.409497 0.798709 0.301171
O O7 0.139060 0.781616 0.590462
O O8 0.154675 0.327197 0.223946
O O9 0.317928 0.300325 0.842038
O O10 0.452048 0.415337 0.137651
O O11 0.003741 0.234122 0.767371
O O12 0.218688 0.138015 0.442919
O O13 0.095837 0.244636 0.436004
O O14 0.927188 0.966807 0.334271
O O15 0.758252 0.481792 0.029172
O O16 0.025516 0.505777 0.713954
O O17 0.000000 0.500000 0.000000
#
# Coordination Sequence:
#
# PCOD9038556 Si02
#       8
#     2   2   2   2   2   2   2   2
#     4  12  28  44  68 100 140 180 231 285 349 406
#     4  11  24  46  73  98 141 183 230 275 347 416
#     4  12  26  42  73 107 137 178 235 289 337 405
#     4  10  23  41  70  99 137 188 218 287 339 414
#     4   9  19  41  70  94 135 178 232 263 346 403
#     4  11  24  43  65  99 145 177 231 279 349 401
#     4  11  24  45  73  99 137 188 228 280 345 413
#     4  10  23  42  71 101 135 177 237 279 340 400
#
# _framework density 24.253556
#
# number of rings (size 3 to 8) (size 9 to 14) (size 15 to 20)
#    0.000    1.250    1.250    4.875    5.250    5.500 
#    0.000    3.125    0.000    0.000    0.000    0.000 
#    0.000    0.000    0.000    0.000    0.000    0.000 
#
# Total GULP energy -89346.968163 kJ/mol
# GULP energy per Si atom -5584.185510 kJ/mol
# Density = 2.419835 g / cm^3
# Si number density = 24.253556 Si / 1000 Ang^3
#
#
#
# Elastic Constant Matrix: (Units=GPa)
#
#
# Indices 1 2 3 4 5 6 
#
# 1 139.2887 19.2549 18.6723 -2.8601 -18.8219 -19.3910
# 2 19.2549 71.8670 19.4659 -6.9857 -7.8018 -30.9732
# 3 18.6723 19.4659 39.8171 -5.9618 2.4696 1.5483
# 4 -2.8601 -6.9857 -5.9618 26.3597 -5.1510 2.1891
# 5 -18.8219 -7.8018 2.4696 -5.1510 28.0703 5.9449
# 6 -19.3910 -30.9732 1.5483 2.1891 5.9449 36.2190
#
#
#
# Elastic Compliance Matrix: (Units=1/GPa)
#
#
# Indices 1 2 3 4 5 6 
#
# 1 0.009456 0.002850 -0.006328 0.001064 0.006478 0.006643
# 2 0.002850 0.030576 -0.017222 0.003609 0.006855 0.027066
# 3 -0.006328 -0.017222 0.038225 0.003419 -0.007811 -0.018674
# 4 0.001064 0.003609 0.003419 0.041614 0.009160 -0.000509
# 5 0.006478 0.006855 -0.007811 0.009160 0.043836 0.001915
# 6 0.006643 0.027066 -0.018674 -0.000509 0.001915 0.054827
#
#
# Mechanical properties :
#
#
# Convention : Reuss Voigt Hill
#
# Bulk Modulus (GPa) = 27.13274 40.63991 33.88633
# Shear Modulus (GPa) = 18.36762 31.03511 24.70136
#
# Velocity S-wave (km/s) = 2.75492 3.58105 3.19480
# Velocity P-wave (km/s) = 4.61854 5.82161 5.25462
#
# Compressibility (1/GPa) = 0.03685584
#
# Stress axis : x y z
#
# Youngs Moduli (GPa) = 105.75717 32.70591 26.16117
#
# Poissons Ratio (x) = -0.09322 0.16556
# Poissons Ratio (y) = -0.30144 0.45054
# Poissons Ratio (z) = 0.66928 0.56326
#
# Static dielectric constant tensor:
#      x y z
#    x 2.200470 -0.013540 -0.138260 
#    y -0.013540 1.933220 0.021790 
#    z -0.138260 0.021790 2.026110 
# 
# From -- ./inp_files/274562.got.cif
#   From: 2010.05.17/outbox.cif.g08.bks.cpg/sg2_138_cif.got.tgz:274562.got - 2010.06.03 11:33:40.
