data_PCOD9038102
_publ_section_title
;
Structure prediction by ZEFSAII (Michael W. Deem and Ramdas Pophale) SiO2 
 PCOD9038102
Probable space group: P -1
;
_chemical_formula_sum "Si O2"
_cell_formula_units_Z 16
_cell_length_a 9.474235
_cell_length_b 9.360266
_cell_length_c 9.021481
_cell_angle_alpha 83.190621
_cell_angle_beta 65.399993
_cell_angle_gamma 94.989112
_cell_volume 714.009888
_symmetry_space_group_name_H-M "P -1"
_symmetry_group_IT_number 2
_symmetry_cell_setting 'triclinic'
loop_
_space_group_symop_operation_xyz
x,y,z
-x,-y,-z
loop_
_atom_site_type_symbol
_atom_site_label
_atom_site_fract_x
_atom_site_fract_y
_atom_site_fract_z
Si Si1 0.813589 0.578736 0.230819
Si Si2 0.123304 0.096940 0.532389
Si Si3 0.617090 0.750325 0.776571
Si Si4 0.088933 0.680725 0.287372
Si Si5 0.391942 0.406853 0.929938
Si Si6 0.669846 0.466707 0.610914
Si Si7 0.837279 0.928377 0.153739
Si Si8 0.639651 0.098201 0.016110
O O1 0.738267 0.523362 0.113094
O O2 0.705066 0.495083 0.418907
O O3 0.809947 0.752688 0.191739
O O4 0.991443 0.583196 0.213243
O O5 0.280484 0.118232 0.366159
O O6 0.153145 0.028198 0.684343
O O7 0.045444 0.243408 0.581081
O O8 0.000000 0.000000 0.500000
O O9 0.634565 0.618692 0.675208
O O10 0.444210 0.782501 0.877264
O O11 0.686308 0.721294 0.912174
O O12 0.182628 0.587741 0.366463
O O13 0.216762 0.811305 0.150228
O O14 0.514483 0.365755 0.757135
O O15 0.500000 0.500000 0.000000
O O16 0.705793 0.993446 0.114988
O O17 0.000000 0.000000 0.000000
O O18 0.500000 0.000000 0.000000
#
# Coordination Sequence:
#
# PCOD9038102 Si02
#       8
#     2   2   2   2   2   2   2   2
#     4  11  22  42  71  97 133 182 230 283 336 414
#     4  11  24  43  67 102 139 176 226 291 342 401
#     4  11  23  42  67  97 140 174 224 288 341 402
#     4  11  23  43  73 101 132 186 231 275 348 418
#     4  10  23  41  66  94 136 178 219 279 348 404
#     4  11  22  45  68  99 136 178 233 283 344 408
#     4  11  23  43  69  99 133 179 232 275 341 414
#     4  12  24  42  71 103 136 184 231 277 347 414
#
# _framework density 22.408650999999999
#
# number of rings (size 3 to 8) (size 9 to 14) (size 15 to 20)
#    0.000    1.000    6.250    2.250    1.750    0.500 
#    0.000    5.000    0.000    0.000    0.000    0.000 
#    0.000    0.000    0.000    0.000    0.000    0.000 
#
# Total GULP energy -89252.021050 kJ/mol
# GULP energy per Si atom -5578.251316 kJ/mol
# Density = 2.235765 g / cm^3
# Si number density = 22.408651 Si / 1000 Ang^3
#
#
#
# Elastic Constant Matrix: (Units=GPa)
#
#
# Indices 1 2 3 4 5 6 
#
# 1 128.6084 25.0805 54.5749 0.9238 29.0164 3.0788
# 2 25.0805 51.0637 13.8957 -0.0142 12.4875 -4.7627
# 3 54.5749 13.8957 172.0444 -22.3201 10.4985 7.6240
# 4 0.9238 -0.0142 -22.3201 25.9065 -5.8692 -0.9545
# 5 29.0164 12.4875 10.4985 -5.8692 52.9969 -5.3022
# 6 3.0788 -4.7627 7.6240 -0.9545 -5.3022 42.6395
#
#
#
# Elastic Compliance Matrix: (Units=1/GPa)
#
#
# Indices 1 2 3 4 5 6 
#
# 1 0.011172 -0.003370 -0.003495 -0.004656 -0.005278 -0.001319
# 2 -0.003370 0.022467 -0.000818 -0.001199 -0.003172 0.002478
# 3 -0.003495 -0.000818 0.007882 0.007162 0.001245 -0.000933
# 4 -0.004656 -0.001199 0.007162 0.046469 0.006638 0.000787
# 5 -0.005278 -0.003172 0.001245 0.006638 0.023280 0.002848
# 6 -0.001319 0.002478 -0.000933 0.000787 0.002848 0.024363
#
#
# Mechanical properties :
#
#
# Convention : Reuss Voigt Hill
#
# Bulk Modulus (GPa) = 38.23197 59.86875 49.05036
# Shear Modulus (GPa) = 31.30559 41.51961 36.41260
#
# Velocity S-wave (km/s) = 3.74174 4.30913 4.03542
# Velocity P-wave (km/s) = 5.98045 7.17864 6.60677
#
# Compressibility (1/GPa) = 0.02615612
#
# Stress axis : x y z
#
# Youngs Moduli (GPa) = 89.51278 44.50908 126.87436
#
# Poissons Ratio (x) = 0.14998 0.44345
# Poissons Ratio (y) = 0.30162 0.10373
# Poissons Ratio (z) = 0.31286 0.03639
#
# Static dielectric constant tensor:
#      x y z
#    x 1.893120 0.085440 -0.047150 
#    y 0.085440 1.988680 -0.068550 
#    z -0.047150 -0.068550 1.912370 
# 
# From -- ./inp_files/176130.got.cif
#   From: 2010.05.17/outbox.cif.g08.bks.cpg/sg2_89_cif.got.tgz:176130.got - 2010.06.03 11:33:40.
