data_PCOD9038885
_publ_section_title
;
Structure prediction by ZEFSAII (Michael W. Deem and Ramdas Pophale) SiO2 
 PCOD9038885
Probable space group: P -1
;
_chemical_formula_sum "Si O2"
_cell_formula_units_Z 14
_cell_length_a 9.593247
_cell_length_b 12.500947
_cell_length_c 18.605586
_cell_angle_alpha 18.222592
_cell_angle_beta 70.751842
_cell_angle_gamma 71.026242
_cell_volume 658.189946
_symmetry_space_group_name_H-M "P -1"
_symmetry_group_IT_number 2
_symmetry_cell_setting 'triclinic'
loop_
_space_group_symop_operation_xyz
x,y,z
-x,-y,-z
loop_
_atom_site_type_symbol
_atom_site_label
_atom_site_fract_x
_atom_site_fract_y
_atom_site_fract_z
Si Si1 0.055479 0.019740 0.639635
Si Si2 0.074185 0.856525 0.281469
Si Si3 0.260811 0.872823 0.444812
Si Si4 0.880317 0.198663 0.847925
Si Si5 0.375513 0.032293 0.179024
Si Si6 0.346048 0.810851 0.634166
Si Si7 0.603891 0.880700 0.125329
O O1 0.076551 0.413301 0.404825
O O2 0.018532 0.891015 0.809567
O O3 0.908249 0.013983 0.619336
O O4 0.206147 0.895837 0.655930
O O5 0.115560 0.981289 0.115829
O O6 0.000000 0.500000 0.500000
O O7 0.231026 0.821762 0.317117
O O8 0.295962 0.915877 0.495022
O O9 0.303510 0.471205 0.680394
O O10 0.364951 0.059189 0.249859
O O11 0.720477 0.173246 0.925347
O O12 0.000000 0.000000 0.000000
O O13 0.513891 0.847207 0.235140
O O14 0.369813 0.403635 0.904443
O O15 0.500000 0.000000 0.500000
O O16 0.500000 0.000000 0.000000
#
# Coordination Sequence:
#
# PCOD9038885 Si02
#       7
#     2   2   2   2   2   2   2
#     4  10  23  42  64  93 129 173 218 267 323 392
#     4   9  20  38  63  93 131 160 211 269 320 386
#     4  11  24  43  66  95 127 172 224 269 324 392
#     4  11  20  38  64  98 128 164 221 267 328 387
#     4  11  24  43  67  97 132 173 221 267 331 386
#     4  12  26  46  67  92 135 175 219 270 328 395
#     4  12  21  40  69  94 136 172 211 277 334 379
#
# _framework density 21.270454999999998
#
# number of rings (size 3 to 8) (size 9 to 14) (size 15 to 20)
#    0.000    1.143    4.286    1.714    0.000    2.857 
#    5.143    0.000    0.000    0.000    0.000    0.000 
#    0.000    0.000    0.000    0.000    0.000    0.000 
#
# Total GULP energy -78031.143800 kJ/mol
# GULP energy per Si atom -5573.653129 kJ/mol
# Density = 2.122204 g / cm^3
# Si number density = 21.270455 Si / 1000 Ang^3
#
#
#
# Elastic Constant Matrix: (Units=GPa)
#
#
# Indices 1 2 3 4 5 6 
#
# 1 96.1476 44.4405 22.3137 4.5822 -16.8283 -11.1484
# 2 44.4405 152.6553 8.9581 24.0399 -0.6070 -15.2153
# 3 22.3137 8.9581 55.4101 11.6289 -1.1769 3.2861
# 4 4.5822 24.0399 11.6289 34.1023 -6.5244 -0.3296
# 5 -16.8283 -0.6070 -1.1769 -6.5244 29.8195 2.1968
# 6 -11.1484 -15.2153 3.2861 -0.3296 2.1968 33.0535
#
#
#
# Elastic Compliance Matrix: (Units=1/GPa)
#
#
# Indices 1 2 3 4 5 6 
#
# 1 0.015962 -0.004727 -0.006782 0.005363 0.009574 0.003299
# 2 -0.004727 0.009215 0.001678 -0.007208 -0.004189 0.002687
# 3 -0.006782 0.001678 0.022476 -0.008847 -0.004581 -0.003533
# 4 0.005363 -0.007208 -0.008847 0.038814 0.011095 -0.000980
# 5 0.009574 -0.004189 -0.004581 0.011095 0.041164 -0.000869
# 6 0.003299 0.002687 -0.003533 -0.000980 -0.000869 0.033003
#
#
# Mechanical properties :
#
#
# Convention : Reuss Voigt Hill
#
# Bulk Modulus (GPa) = 35.72433 50.62638 43.17535
# Shear Modulus (GPa) = 26.36797 34.62844 30.49821
#
# Velocity S-wave (km/s) = 3.52469 4.03923 3.79070
# Velocity P-wave (km/s) = 5.77896 6.75328 6.28503
#
# Compressibility (1/GPa) = 0.02799213
#
# Stress axis : x y z
#
# Youngs Moduli (GPa) = 62.64913 108.52452 44.49234
#
# Poissons Ratio (x) = 0.51294 0.30173
# Poissons Ratio (y) = 0.29611 -0.07466
# Poissons Ratio (z) = 0.42486 -0.18212
#
# Static dielectric constant tensor:
#      x y z
#    x 1.798250 -0.023730 -0.064580 
#    y -0.023730 1.911960 0.024030 
#    z -0.064580 0.024030 1.867990 
# 
# From -- ./inp_files/185779.got.cif
#   From: 2010.05.17/outbox.cif.g08.bks.cpg/sg2_93_cif.got.tgz:185779.got - 2010.06.03 11:33:40.
