data_PCOD9038681
_publ_section_title
;
Structure prediction by ZEFSAII (Michael W. Deem and Ramdas Pophale) SiO2 
 PCOD9038681
Probable space group: P -1
;
_chemical_formula_sum "Si O2"
_cell_formula_units_Z 14
_cell_length_a 12.697948
_cell_length_b 9.213236
_cell_length_c 8.654507
_cell_angle_alpha 94.325837
_cell_angle_beta 101.868620
_cell_angle_gamma 35.686320
_cell_volume 570.510663
_symmetry_space_group_name_H-M "P -1"
_symmetry_group_IT_number 2
_symmetry_cell_setting 'triclinic'
loop_
_space_group_symop_operation_xyz
x,y,z
-x,-y,-z
loop_
_atom_site_type_symbol
_atom_site_label
_atom_site_fract_x
_atom_site_fract_y
_atom_site_fract_z
Si Si1 0.373251 0.881583 0.248434
Si Si2 0.191691 0.604176 0.112565
Si Si3 0.701354 0.366646 0.147265
Si Si4 0.152612 0.081216 0.749069
Si Si5 0.371297 0.498519 0.450811
Si Si6 0.927129 0.934926 0.609111
Si Si7 0.290128 0.193213 0.993888
O O1 0.530467 0.719498 0.417520
O O2 0.201552 0.988420 0.286053
O O3 0.293919 0.107988 0.153726
O O4 0.499566 0.659572 0.140252
O O5 0.351693 0.439374 0.277646
O O6 0.191535 0.455946 0.004274
O O7 0.004603 0.803867 0.171030
O O8 0.230866 0.690286 0.012375
O O9 0.865598 0.269982 0.281875
O O10 0.694316 0.213331 0.203361
O O11 0.092932 0.141787 0.556640
O O12 0.209714 0.174350 0.838836
O O13 0.500000 0.500000 0.500000
O O14 0.171631 0.800044 0.438017
O O15 0.500000 0.000000 0.000000
#
# Coordination Sequence:
#
# PCOD9038681 Si02
#       7
#     2   2   2   2   2   2   2
#     4  11  25  45  74 104 148 188 240 293 365 426
#     4  12  26  48  74 106 149 190 242 293 363 437
#     4  12  24  45  80 111 142 185 245 303 366 416
#     4  12  26  46  77 105 146 190 239 305 358 428
#     4  10  23  41  73 108 142 178 233 302 355 420
#     4  11  24  46  73 117 142 179 244 305 367 420
#     4  12  29  49  67 105 150 195 240 290 361 437
#
# _framework density 24.53942
#
# number of rings (size 3 to 8) (size 9 to 14) (size 15 to 20)
#    0.000    0.571    4.286    3.000    8.000    1.143 
#    0.000    1.429    0.000    0.000    0.000    0.000 
#    0.000    0.000    0.000    0.000    0.000    0.000 
#
# Total GULP energy -78313.875920 kJ/mol
# GULP energy per Si atom -5593.848280 kJ/mol
# Density = 2.448357 g / cm^3
# Si number density = 24.539420 Si / 1000 Ang^3
#
#
#
# Elastic Constant Matrix: (Units=GPa)
#
#
# Indices 1 2 3 4 5 6 
#
# 1 119.1292 22.5391 55.5409 6.0274 -2.4394 -17.6743
# 2 22.5391 59.5241 11.2415 6.2350 8.9784 -4.2623
# 3 55.5409 11.2415 176.0920 1.1071 18.9654 8.4588
# 4 6.0274 6.2350 1.1071 36.5881 -0.3378 -1.4147
# 5 -2.4394 8.9784 18.9654 -0.3378 47.4473 8.1522
# 6 -17.6743 -4.2623 8.4588 -1.4147 8.1522 39.4529
#
#
#
# Elastic Compliance Matrix: (Units=1/GPa)
#
#
# Indices 1 2 3 4 5 6 
#
# 1 0.011778 -0.003521 -0.003947 -0.000998 0.001930 0.005307
# 2 -0.003521 0.019063 0.000299 -0.002670 -0.004129 0.001176
# 3 -0.003947 0.000299 0.007327 0.000247 -0.002716 -0.002737
# 4 -0.000998 -0.002670 0.000247 0.027952 0.000537 0.000103
# 5 0.001930 -0.004129 -0.002716 0.000537 0.023713 -0.003879
# 6 0.005307 0.001176 -0.002737 0.000103 -0.003879 0.029243
#
#
# Mechanical properties :
#
#
# Convention : Reuss Voigt Hill
#
# Bulk Modulus (GPa) = 41.96366 59.26537 50.61451
# Shear Modulus (GPa) = 35.37118 42.39258 38.88188
#
# Velocity S-wave (km/s) = 3.80070 4.16087 3.98485
# Velocity P-wave (km/s) = 6.03308 6.87657 6.46859
#
# Compressibility (1/GPa) = 0.02383015
#
# Stress axis : x y z
#
# Youngs Moduli (GPa) = 84.90503 52.45651 136.48077
#
# Poissons Ratio (x) = 0.18470 0.53864
# Poissons Ratio (y) = 0.29895 -0.04075
# Poissons Ratio (z) = 0.33509 -0.01566
#
# Static dielectric constant tensor:
#      x y z
#    x 1.982160 -0.096810 -0.040280 
#    y -0.096810 2.057320 0.068850 
#    z -0.040280 0.068850 2.045460 
# 
# From -- ./inp_files/245182.got.cif
#   From: 2010.05.17/outbox.cif.g08.bks.cpg/sg2_123_cif.got.tgz:245182.got - 2010.06.03 11:33:40.
