data_PCOD9038738
_publ_section_title
;
Structure prediction by ZEFSAII (Michael W. Deem and Ramdas Pophale) SiO2 
 PCOD9038738
Probable space group: P -1
;
_chemical_formula_sum "Si O2"
_cell_formula_units_Z 10
_cell_length_a 14.456388
_cell_length_b 10.020164
_cell_length_c 11.989030
_cell_angle_alpha 121.402274
_cell_angle_beta 29.043145
_cell_angle_gamma 141.540578
_cell_volume 440.798966
_symmetry_space_group_name_H-M "P -1"
_symmetry_group_IT_number 2
_symmetry_cell_setting 'triclinic'
loop_
_space_group_symop_operation_xyz
x,y,z
-x,-y,-z
loop_
_atom_site_type_symbol
_atom_site_label
_atom_site_fract_x
_atom_site_fract_y
_atom_site_fract_z
Si Si1 0.442158 0.909997 0.170623
Si Si2 0.806004 0.615783 0.441892
Si Si3 0.488432 0.253762 0.167227
Si Si4 0.507788 0.883783 0.338169
Si Si5 0.863344 0.578897 0.133137
O O1 0.369516 0.851197 0.351631
O O2 0.318433 0.990845 0.283974
O O3 0.355667 0.709612 0.094394
O O4 0.821646 0.160295 0.866413
O O5 0.718614 0.729236 0.627418
O O6 0.654945 0.381148 0.571007
O O7 0.666207 0.505075 0.415504
O O8 0.719166 0.450424 0.109582
O O9 0.500000 0.000000 0.500000
O O10 0.875246 0.119098 0.027601
O O11 0.000000 0.500000 0.000000
#
# Coordination Sequence:
#
# PCOD9038738 Si02
#       5
#     2   2   2   2   2
#     4  10  23  42  60  87 126 156 196 247 295 354
#     4  11  22  39  64  89 119 157 202 242 295 355
#     4  11  21  40  64  87 120 162 196 244 301 348
#     4  11  20  38  65  86 121 161 192 248 299 344
#     4  11  20  40  63  85 120 156 200 244 292 353
#
# _framework density 22.686077000000001
#
# number of rings (size 3 to 8) (size 9 to 14) (size 15 to 20)
#    0.000    1.200    6.000    1.200    0.000    1.600 
#    0.000   17.000    0.000    0.000    0.000    0.000 
#    0.000    0.000    0.000    0.000    0.000    0.000 
#
# Total GULP energy -55822.025697 kJ/mol
# GULP energy per Si atom -5582.202570 kJ/mol
# Density = 2.263444 g / cm^3
# Si number density = 22.686077 Si / 1000 Ang^3
#
#
#
# Elastic Constant Matrix: (Units=GPa)
#
#
# Indices 1 2 3 4 5 6 
#
# 1 134.2725 61.6591 36.5652 4.0459 39.6795 4.1851
# 2 61.6591 146.5627 62.3267 16.9650 8.9069 -14.5786
# 3 36.5652 62.3267 61.7978 -3.1165 18.9354 -19.5262
# 4 4.0459 16.9650 -3.1165 44.9904 3.9268 2.7162
# 5 39.6795 8.9069 18.9354 3.9268 43.1717 8.5302
# 6 4.1851 -14.5786 -19.5262 2.7162 8.5302 48.5960
#
#
#
# Elastic Compliance Matrix: (Units=1/GPa)
#
#
# Indices 1 2 3 4 5 6 
#
# 1 0.013028 -0.005789 0.001756 0.002168 -0.011704 -0.000220
# 2 -0.005789 0.017225 -0.019013 -0.008085 0.011543 -0.003547
# 3 0.001756 -0.019013 0.046953 0.011244 -0.022537 0.016338
# 4 0.002168 -0.008085 0.011244 0.026449 -0.008025 0.001836
# 5 -0.011704 0.011543 -0.022537 -0.008025 0.044515 -0.011950
# 6 -0.000220 -0.003547 0.016338 0.001836 -0.011950 0.028092
#
#
# Mechanical properties :
#
#
# Convention : Reuss Voigt Hill
#
# Bulk Modulus (GPa) = 32.13893 73.74831 52.94362
# Shear Modulus (GPa) = 21.48455 39.49042 30.48749
#
# Velocity S-wave (km/s) = 3.08073 4.17674 3.66988
# Velocity P-wave (km/s) = 5.18190 7.47254 6.43005
#
# Compressibility (1/GPa) = 0.03111491
#
# Stress axis : x y z
#
# Youngs Moduli (GPa) = 76.75832 58.05384 21.29794
#
# Poissons Ratio (x) = 0.33609 -0.03741
# Poissons Ratio (y) = 0.44438 0.40493
# Poissons Ratio (z) = -0.13482 1.10376
#
# Static dielectric constant tensor:
#      x y z
#    x 1.963010 0.067220 -0.051810 
#    y 0.067220 1.870680 0.010110 
#    z -0.051810 0.010110 1.905380 
# 
# From -- ./inp_files/20392.got.cif
#   From: 2010.05.17/outbox.cif.g08.bks.cpg/sg2_11_cif.got.tgz:20392.got - 2010.06.03 11:33:40.
