data_PCOD9038478
_publ_section_title
;
Structure prediction by ZEFSAII (Michael W. Deem and Ramdas Pophale) SiO2 
 PCOD9038478
Probable space group: P -1
;
_chemical_formula_sum "Si O2"
_cell_formula_units_Z 16
_cell_length_a 11.599829
_cell_length_b 17.680715
_cell_length_c 9.368989
_cell_angle_alpha 149.564260
_cell_angle_beta 129.066472
_cell_angle_gamma 60.324825
_cell_volume 750.032980
_symmetry_space_group_name_H-M "P -1"
_symmetry_group_IT_number 2
_symmetry_cell_setting 'triclinic'
loop_
_space_group_symop_operation_xyz
x,y,z
-x,-y,-z
loop_
_atom_site_type_symbol
_atom_site_label
_atom_site_fract_x
_atom_site_fract_y
_atom_site_fract_z
Si Si1 0.914730 0.277202 0.152688
Si Si2 0.020944 0.987380 0.827061
Si Si3 0.214300 0.734281 0.482700
Si Si4 0.526308 0.331934 0.221728
Si Si5 0.010791 0.403190 0.130930
Si Si6 0.777430 0.838073 0.176283
Si Si7 0.376606 0.910583 0.661058
Si Si8 0.421767 0.854544 0.287799
O O1 0.916480 0.338443 0.091695
O O2 0.942125 0.422310 0.511984
O O3 0.758664 0.179752 0.914777
O O4 0.035820 0.159539 0.065310
O O5 0.152559 0.888401 0.732726
O O6 0.879528 0.897471 0.487118
O O7 0.000000 0.000000 0.000000
O O8 0.316615 0.687684 0.613309
O O9 0.315873 0.769673 0.479831
O O10 0.079374 0.620409 0.126588
O O11 0.500000 0.500000 0.500000
O O12 0.390549 0.224341 0.011957
O O13 0.525224 0.286541 0.981516
O O14 0.143869 0.297325 0.050444
O O15 0.755994 0.985263 0.304869
O O16 0.449081 0.872835 0.506299
O O17 0.500000 0.000000 0.000000
O O18 0.500000 0.000000 0.500000
#
# Coordination Sequence:
#
# PCOD9038478 Si02
#       8
#     2   2   2   2   2   2   2   2
#     4  11  21  41  66 100 137 173 226 279 348 395
#     4  11  23  39  68  98 132 175 232 282 339 404
#     4  11  23  43  67 100 133 179 234 279 337 415
#     4  12  26  44  66  96 143 183 221 281 357 415
#     4  10  23  41  69  99 136 181 219 283 339 417
#     4  11  22  42  65  95 136 176 225 278 343 390
#     4  12  22  40  71  98 132 175 238 284 332 402
#     4  12  22  42  68  99 137 181 228 284 345 404
#
# _framework density 21.332395000000002
#
# number of rings (size 3 to 8) (size 9 to 14) (size 15 to 20)
#    0.000    0.750    5.000    2.250    0.000    4.000 
#    0.000    6.250    0.000    0.000    0.000    0.000 
#    0.000    0.000    0.000    0.000    0.000    0.000 
#
# Total GULP energy -89381.402640 kJ/mol
# GULP energy per Si atom -5586.337665 kJ/mol
# Density = 2.128384 g / cm^3
# Si number density = 21.332395 Si / 1000 Ang^3
#
#
#
# Elastic Constant Matrix: (Units=GPa)
#
#
# Indices 1 2 3 4 5 6 
#
# 1 89.1361 22.9169 42.8840 -1.1516 -23.9804 5.4205
# 2 22.9169 87.7496 57.8245 -8.7487 -11.0006 -3.2816
# 3 42.8840 57.8245 137.8930 0.2254 -42.7848 -5.6717
# 4 -1.1516 -8.7487 0.2254 41.1615 -0.4531 -5.3812
# 5 -23.9804 -11.0006 -42.7848 -0.4531 43.0919 -0.4760
# 6 5.4205 -3.2816 -5.6717 -5.3812 -0.4760 32.9264
#
#
#
# Elastic Compliance Matrix: (Units=1/GPa)
#
#
# Indices 1 2 3 4 5 6 
#
# 1 0.014326 -0.001775 -0.002177 -0.000282 0.005323 -0.002880
# 2 -0.001775 0.016901 -0.007870 0.003688 -0.004435 0.001160
# 3 -0.002177 -0.007870 0.014915 -0.001416 0.011596 0.002080
# 4 -0.000282 0.003688 -0.001416 0.025645 -0.000304 0.004357
# 5 0.005323 -0.004435 0.011596 -0.000304 0.036559 0.001158
# 6 -0.002880 0.001160 0.002080 0.004357 0.001158 0.032047
#
#
# Mechanical properties :
#
#
# Convention : Reuss Voigt Hill
#
# Bulk Modulus (GPa) = 44.44961 62.44772 53.44867
# Shear Modulus (GPa) = 29.14831 36.17952 32.66391
#
# Velocity S-wave (km/s) = 3.70048 4.12271 3.91729
# Velocity P-wave (km/s) = 6.25619 7.21107 6.75053
#
# Compressibility (1/GPa) = 0.02249739
#
# Stress axis : x y z
#
# Youngs Moduli (GPa) = 69.80223 59.16958 67.04615
#
# Poissons Ratio (x) = 0.10504 0.14599
# Poissons Ratio (y) = 0.12391 0.52763
# Poissons Ratio (z) = 0.15199 0.46564
#
# Static dielectric constant tensor:
#      x y z
#    x 1.821410 0.010240 0.032070 
#    y 0.010240 1.773620 0.003530 
#    z 0.032070 0.003530 1.802950 
# 
# From -- ./inp_files/280303.got.cif
#   From: 2010.05.17/outbox.cif.g08.bks.cpg/sg2_141_cif.got.tgz:280303.got - 2010.06.03 11:33:40.
