data_PCOD9038708
_publ_section_title
;
Structure prediction by ZEFSAII (Michael W. Deem and Ramdas Pophale) SiO2 
 PCOD9038708
Probable space group: P -1
;
_chemical_formula_sum "Si O2"
_cell_formula_units_Z 16
_cell_length_a 13.282437
_cell_length_b 12.335798
_cell_length_c 11.434092
_cell_angle_alpha 132.242337
_cell_angle_beta 156.104775
_cell_angle_gamma 46.857432
_cell_volume 546.653469
_symmetry_space_group_name_H-M "P -1"
_symmetry_group_IT_number 2
_symmetry_cell_setting 'triclinic'
loop_
_space_group_symop_operation_xyz
x,y,z
-x,-y,-z
loop_
_atom_site_type_symbol
_atom_site_label
_atom_site_fract_x
_atom_site_fract_y
_atom_site_fract_z
Si Si1 0.006028 0.174482 0.134911
Si Si2 0.244082 0.636176 0.431976
Si Si3 0.851642 0.874243 0.318791
Si Si4 0.691786 0.316737 0.093676
Si Si5 0.954453 0.613048 0.869499
Si Si6 0.791727 0.616943 0.217705
Si Si7 0.492402 0.044724 0.661322
Si Si8 0.454040 0.860866 0.702293
O O1 0.082629 0.237995 0.140598
O O2 0.226205 0.172367 0.463620
O O3 0.751135 0.284187 0.994718
O O4 0.000000 0.000000 0.000000
O O5 0.265844 0.477406 0.404585
O O6 0.462989 0.694425 0.638663
O O7 0.115468 0.760561 0.482401
O O8 0.052006 0.641228 0.121845
O O9 0.713239 0.779103 0.189545
O O10 0.811653 0.032446 0.456169
O O11 0.682942 0.907510 0.047322
O O12 0.569278 0.599375 0.058738
O O13 0.922671 0.388694 0.434092
O O14 0.693841 0.137424 0.989972
O O15 0.157784 0.496787 0.921519
O O16 0.500000 0.000000 0.500000
O O17 0.467834 0.906044 0.615854
#
# Coordination Sequence:
#
# PCOD9038708 Si02
#       8
#     2   2   2   2   2   2   2   2
#     4  12  25  47  79 110 152 205 262 331 397 469
#     4  10  23  47  70 106 155 200 262 329 396 470
#     4  10  23  41  74 113 150 199 263 323 395 465
#     4  12  25  49  79 111 161 208 266 323 389 471
#     4  10  26  49  71 111 150 210 266 325 398 475
#     4  11  26  50  76 112 162 211 262 324 395 473
#     4  12  26  45  73 122 159 206 262 329 393 470
#     4  11  23  42  74 116 149 208 256 329 397 469
#
# _framework density 29.268999000000001
#
# number of rings (size 3 to 8) (size 9 to 14) (size 15 to 20)
#    0.000    1.000    3.750    1.125    5.250    3.000 
#    4.500    1.875    0.000    0.000    0.000    0.000 
#    0.000    0.000    0.000    0.000    0.000    0.000 
#
# Total GULP energy -89451.707053 kJ/mol
# GULP energy per Si atom -5590.731691 kJ/mol
# Density = 2.920238 g / cm^3
# Si number density = 29.268999 Si / 1000 Ang^3
#
#
#
# Elastic Constant Matrix: (Units=GPa)
#
#
# Indices 1 2 3 4 5 6 
#
# 1 244.2393 76.1922 63.0646 19.2650 13.3658 7.7166
# 2 76.1922 149.1333 31.3051 16.9949 6.6169 40.0065
# 3 63.0646 31.3051 108.3028 -4.2567 8.9753 0.6025
# 4 19.2650 16.9949 -4.2567 35.5793 3.7878 -2.2145
# 5 13.3658 6.6169 8.9753 3.7878 47.7499 3.3255
# 6 7.7166 40.0065 0.6025 -2.2145 3.3255 83.2418
#
#
#
# Elastic Compliance Matrix: (Units=1/GPa)
#
#
# Indices 1 2 3 4 5 6 
#
# 1 0.005671 -0.002179 -0.002711 -0.002255 -0.000632 0.000506
# 2 -0.002179 0.009886 -0.001740 -0.004063 0.000213 -0.004653
# 3 -0.002711 -0.001740 0.011593 0.003927 -0.001572 0.001171
# 4 -0.002255 -0.004063 0.003927 0.032176 -0.002311 0.003082
# 5 -0.000632 0.000213 -0.001572 -0.002311 0.021635 -0.000958
# 6 0.000506 -0.004653 0.001171 0.003082 -0.000958 0.014314
#
#
# Mechanical properties :
#
#
# Convention : Reuss Voigt Hill
#
# Bulk Modulus (GPa) = 71.99993 93.64435 82.82214
# Shear Modulus (GPa) = 44.18329 55.38843 49.78586
#
# Velocity S-wave (km/s) = 3.88952 4.35488 4.12876
# Velocity P-wave (km/s) = 6.69507 7.57301 7.14753
#
# Compressibility (1/GPa) = 0.01388890
#
# Stress axis : x y z
#
# Youngs Moduli (GPa) = 176.34890 101.15734 86.25695
#
# Poissons Ratio (x) = 0.22040 0.23387
# Poissons Ratio (y) = 0.38422 0.15011
# Poissons Ratio (z) = 0.47813 0.17604
#
# Static dielectric constant tensor:
#      x y z
#    x 2.337590 -0.101910 0.080750 
#    y -0.101910 2.387330 -0.013790 
#    z 0.080750 -0.013790 2.379260 
# 
# From -- ./inp_files/451883.got.cif
#   From: 2010.05.17/outbox.cif.g08.bks.cpg/sg2_226_cif.got.tgz:451883.got - 2010.06.03 11:33:40.
