data_PCOD9038509
_publ_section_title
;
Structure prediction by ZEFSAII (Michael W. Deem and Ramdas Pophale) SiO2 
 PCOD9038509
Probable space group: P -1
;
_chemical_formula_sum "Si O2"
_cell_formula_units_Z 14
_cell_length_a 11.982439
_cell_length_b 5.099732
_cell_length_c 14.653067
_cell_angle_alpha 88.213994
_cell_angle_beta 41.118494
_cell_angle_gamma 99.173387
_cell_volume 565.306069
_symmetry_space_group_name_H-M "P -1"
_symmetry_group_IT_number 2
_symmetry_cell_setting 'triclinic'
loop_
_space_group_symop_operation_xyz
x,y,z
-x,-y,-z
loop_
_atom_site_type_symbol
_atom_site_label
_atom_site_fract_x
_atom_site_fract_y
_atom_site_fract_z
Si Si1 0.601050 0.413999 0.025144
Si Si2 0.509682 0.554735 0.347946
Si Si3 0.153159 0.457144 0.667739
Si Si4 0.813741 0.345203 0.549281
Si Si5 0.654539 0.105529 0.327313
Si Si6 0.222097 0.185265 0.319546
Si Si7 0.825503 0.988409 0.858723
O O1 0.434887 0.281141 0.191568
O O2 0.259330 0.301438 0.036727
O O3 0.500000 0.500000 0.000000
O O4 0.697665 0.185791 0.944306
O O5 0.649102 0.556385 0.478103
O O6 0.391820 0.665563 0.346904
O O7 0.590860 0.301664 0.292975
O O8 0.661574 0.824061 0.280703
O O9 0.095633 0.556555 0.604617
O O10 0.182088 0.691975 0.722760
O O11 0.013941 0.170943 0.775536
O O12 0.830413 0.055311 0.572302
O O13 0.848058 0.563633 0.607690
O O14 0.500000 0.000000 0.500000
O O15 0.167547 0.079551 0.252637
#
# Coordination Sequence:
#
# PCOD9038509 Si02
#       7
#     2   2   2   2   2   2   2
#     4  10  21  38  58  74  98 144 196 227 252 293
#     4   9  20  33  51  80 111 138 176 210 261 325
#     4   9  22  33  53  87 113 134 176 212 282 324
#     4  10  22  32  54  80 113 141 177 206 267 332
#     4  10  17  33  54  73 113 139 173 219 253 318
#     4  11  20  37  53  76 107 147 182 214 257 314
#     4  11  22  36  57  80 109 139 177 233 261 304
#
# _framework density 24.765346000000001
#
# number of rings (size 3 to 8) (size 9 to 14) (size 15 to 20)
#    0.857    1.143    0.000    6.857    0.000    5.714 
#    0.000    0.000    0.000    0.000    0.000   20.000 
#    0.000    0.000    0.000    0.000    0.000    0.000 
#
# Total GULP energy -78230.878619 kJ/mol
# GULP energy per Si atom -5587.919901 kJ/mol
# Density = 2.470898 g / cm^3
# Si number density = 24.765346 Si / 1000 Ang^3
#
#
#
# Elastic Constant Matrix: (Units=GPa)
#
#
# Indices 1 2 3 4 5 6 
#
# 1 83.5353 46.7854 13.7579 -3.6793 -8.7177 2.4521
# 2 46.7854 173.3987 41.6716 -12.5466 -22.9543 -0.8713
# 3 13.7579 41.6716 50.3246 -8.4313 -25.9246 8.9750
# 4 -3.6793 -12.5466 -8.4313 42.7271 0.0260 -19.2689
# 5 -8.7177 -22.9543 -25.9246 0.0260 25.3737 -10.1371
# 6 2.4521 -0.8713 8.9750 -19.2689 -10.1371 63.5445
#
#
#
# Elastic Compliance Matrix: (Units=1/GPa)
#
#
# Indices 1 2 3 4 5 6 
#
# 1 0.014167 -0.003621 -0.000155 -0.000048 0.001280 -0.000385
# 2 -0.003621 0.008341 -0.004808 0.002041 0.002143 0.001894
# 3 -0.000155 -0.004808 0.049344 0.009874 0.047412 0.003528
# 4 -0.000048 0.002041 0.009874 0.030675 0.016083 0.010503
# 5 0.001280 0.002143 0.047412 0.016083 0.095570 0.013407
# 6 -0.000385 0.001894 0.003528 0.010503 0.013407 0.020603
#
#
# Mechanical properties :
#
#
# Convention : Reuss Voigt Hill
#
# Bulk Modulus (GPa) = 18.28711 56.85427 37.57069
# Shear Modulus (GPa) = 19.67761 39.99864 29.83813
#
# Velocity S-wave (km/s) = 2.82186 4.02320 3.47484
# Velocity P-wave (km/s) = 4.24468 6.67746 5.59490
#
# Compressibility (1/GPa) = 0.05468334
#
# Stress axis : x y z
#
# Youngs Moduli (GPa) = 70.58447 119.89486 20.26600
#
# Poissons Ratio (x) = 0.43419 0.00313
# Poissons Ratio (y) = 0.25562 0.09744
# Poissons Ratio (z) = 0.01091 0.57648
#
# Static dielectric constant tensor:
#      x y z
#    x 2.128550 0.059830 0.005400 
#    y 0.059830 1.964490 -0.004980 
#    z 0.005400 -0.004980 2.012450 
# 
# From -- ./inp_files/510369.got.cif
#   From: 2010.05.17/outbox.cif.g08.bks.cpg/sg2_256_cif.got.tgz:510369.got - 2010.06.03 11:33:40.
