data_PCOD9038237
_publ_section_title
;
Structure prediction by ZEFSAII (Michael W. Deem and Ramdas Pophale) SiO2 
 PCOD9038237
Probable space group: P -1
;
_chemical_formula_sum "Si O2"
_cell_formula_units_Z 13
_cell_length_a 8.924824
_cell_length_b 8.498363
_cell_length_c 10.960533
_cell_angle_alpha 140.192004
_cell_angle_beta 102.264106
_cell_angle_gamma 75.536777
_cell_volume 515.072635
_symmetry_space_group_name_H-M "P -1"
_symmetry_group_IT_number 2
_symmetry_cell_setting 'triclinic'
loop_
_space_group_symop_operation_xyz
x,y,z
-x,-y,-z
loop_
_atom_site_type_symbol
_atom_site_label
_atom_site_fract_x
_atom_site_fract_y
_atom_site_fract_z
Si Si1 0.000000 0.000000 0.500000
Si Si2 0.972430 0.081135 0.771067
Si Si3 0.789926 0.546927 0.756050
Si Si4 0.718993 0.363794 0.056726
Si Si5 0.940310 0.335769 0.286674
Si Si6 0.542816 0.905221 0.814590
Si Si7 0.722049 0.793746 0.158134
O O1 0.897947 0.929857 0.565451
O O2 0.867221 0.264662 0.612424
O O3 0.101855 0.164093 0.746531
O O4 0.860193 0.289329 0.941484
O O5 0.063680 0.916838 0.790848
O O6 0.922968 0.686216 0.801510
O O7 0.644692 0.639939 0.696876
O O8 0.747316 0.651878 0.947508
O O9 0.783461 0.402724 0.225416
O O10 0.646768 0.623845 0.140385
O O11 0.637683 0.117419 0.902851
O O12 0.000000 0.500000 0.500000
O O13 0.386861 0.949718 0.734640
O O14 0.500000 0.000000 0.000000
#
# Coordination Sequence:
#
# PCOD9038237 Si02
#       7
#     1   2   2   2   2   2   2
#     4  12  24  38  64 102 130 170 214 288 326 384
#     4  12  23  39  68  98 132 168 226 274 330 386
#     4  11  21  41  61  94 133 166 219 271 330 380
#     4  12  22  41  69  97 130 175 226 273 324 391
#     4  12  23  37  64  97 133 167 217 280 331 382
#     4  10  23  41  67  95 134 177 223 267 327 401
#     4  11  23  41  68  98 130 175 224 269 325 403
#
# _framework density 25.239159999999998
#
# number of rings (size 3 to 8) (size 9 to 14) (size 15 to 20)
#    0.000    0.615    6.154    4.154    0.000    0.000 
#    0.000    0.769    3.385    1.846    0.000    0.000 
#    0.000    0.000    0.000    0.000    0.000    0.000 
#
# Total GULP energy -72416.534331 kJ/mol
# GULP energy per Si atom -5570.502641 kJ/mol
# Density = 2.518172 g / cm^3
# Si number density = 25.239160 Si / 1000 Ang^3
#
#
#
# Elastic Constant Matrix: (Units=GPa)
#
#
# Indices 1 2 3 4 5 6 
#
# 1 61.4546 47.7284 7.7625 11.1539 8.7599 -12.0187
# 2 47.7284 231.4645 45.3674 12.2736 -12.4708 -17.1995
# 3 7.7625 45.3674 112.4220 3.3086 -1.8762 -8.9133
# 4 11.1539 12.2736 3.3086 46.0748 -3.2953 -9.8342
# 5 8.7599 -12.4708 -1.8762 -3.2953 19.1205 2.2246
# 6 -12.0187 -17.1995 -8.9133 -9.8342 2.2246 51.1078
#
#
#
# Elastic Compliance Matrix: (Units=1/GPa)
#
#
# Indices 1 2 3 4 5 6 
#
# 1 0.024311 -0.005473 0.000705 -0.004812 -0.015905 0.003764
# 2 -0.005473 0.006185 -0.002003 0.000326 0.006374 0.000230
# 3 0.000705 -0.002003 0.009740 -0.000140 -0.000837 0.001200
# 4 -0.004812 0.000326 -0.000140 0.023934 0.006146 0.003292
# 5 -0.015905 0.006374 -0.000837 0.006146 0.065116 -0.003393
# 6 0.003764 0.000230 0.001200 0.003292 -0.003393 0.021520
#
#
# Mechanical properties :
#
#
# Convention : Reuss Voigt Hill
#
# Bulk Modulus (GPa) = 37.46350 67.45087 52.45718
# Shear Modulus (GPa) = 28.86090 43.55947 36.21018
#
# Velocity S-wave (km/s) = 3.38523 4.15886 3.79183
# Velocity P-wave (km/s) = 5.49139 7.06005 6.32454
#
# Compressibility (1/GPa) = 0.02669265
#
# Stress axis : x y z
#
# Youngs Moduli (GPa) = 41.13433 161.68993 102.67018
#
# Poissons Ratio (x) = 0.88494 -0.07235
# Poissons Ratio (y) = 0.22513 0.20563
# Poissons Ratio (z) = -0.02899 0.32384
#
# Static dielectric constant tensor:
#      x y z
#    x 2.123910 -0.077050 0.154200 
#    y -0.077050 2.125700 -0.130490 
#    z 0.154200 -0.130490 2.234380 
# 
# From -- ./inp_files/150849.got.cif
#   From: 2010.05.17/outbox.cif.g08.bks.cpg/sg2_76_cif.got.tgz:150849.got - 2010.06.03 11:33:40.
