data_PCOD9038466
_publ_section_title
;
Structure prediction by ZEFSAII (Michael W. Deem and Ramdas Pophale) SiO2 
 PCOD9038466
Probable space group: P -1
;
_chemical_formula_sum "Si O2"
_cell_formula_units_Z 16
_cell_length_a 12.110663
_cell_length_b 17.245287
_cell_length_c 6.339387
_cell_angle_alpha 86.167118
_cell_angle_beta 55.035475
_cell_angle_gamma 125.251507
_cell_volume 712.724008
_symmetry_space_group_name_H-M "P -1"
_symmetry_group_IT_number 2
_symmetry_cell_setting 'triclinic'
loop_
_space_group_symop_operation_xyz
x,y,z
-x,-y,-z
loop_
_atom_site_type_symbol
_atom_site_label
_atom_site_fract_x
_atom_site_fract_y
_atom_site_fract_z
Si Si1 0.998173 0.874424 0.020108
Si Si2 0.835199 0.926262 0.881150
Si Si3 0.314159 0.886937 0.580276
Si Si4 0.138043 0.709839 0.162164
Si Si5 0.582058 0.199921 0.829940
Si Si6 0.185376 0.316693 0.393368
Si Si7 0.470825 0.546713 0.329490
Si Si8 0.845576 0.458039 0.355559
O O1 0.869952 0.771227 0.354359
O O2 0.859832 0.860143 0.007638
O O3 0.125108 0.989289 0.005317
O O4 0.157663 0.889620 0.716614
O O5 0.624791 0.850380 0.006987
O O6 0.000000 0.000000 0.500000
O O7 0.398743 0.874035 0.296204
O O8 0.500000 0.000000 0.500000
O O9 0.176149 0.765336 0.884766
O O10 0.363638 0.790764 0.988353
O O11 0.021438 0.725279 0.424285
O O12 0.986371 0.571152 0.335753
O O13 0.753886 0.338262 0.561799
O O14 0.327553 0.439659 0.338558
O O15 0.315406 0.345439 0.045557
O O16 0.500000 0.500000 0.500000
O O17 0.340915 0.567898 0.516170
O O18 0.000000 0.500000 0.000000
#
# Coordination Sequence:
#
# PCOD9038466 Si02
#       8
#     2   2   2   2   2   2   2   2
#     4  10  24  46  69  93 144 176 227 295 335 411
#     4  11  27  45  67 104 137 182 235 287 351 409
#     4  11  23  45  70  99 135 183 234 275 345 411
#     4  10  24  44  71 100 139 177 231 291 337 422
#     4  12  26  44  72 102 134 186 231 283 358 407
#     4   9  22  43  65  99 130 181 223 282 344 403
#     4  10  23  41  69  98 133 175 234 274 341 417
#     4  11  24  46  68 103 140 180 227 287 354 407
#
# _framework density 22.449083000000002
#
# number of rings (size 3 to 8) (size 9 to 14) (size 15 to 20)
#    0.000    1.500    2.500    0.375    7.000    2.500 
#    2.250    0.000    0.000    0.000    0.000    0.000 
#    0.000    0.000    0.000    0.000    0.000    0.000 
#
# Total GULP energy -89388.034207 kJ/mol
# GULP energy per Si atom -5586.752138 kJ/mol
# Density = 2.239799 g / cm^3
# Si number density = 22.449083 Si / 1000 Ang^3
#
#
#
# Elastic Constant Matrix: (Units=GPa)
#
#
# Indices 1 2 3 4 5 6 
#
# 1 139.1025 33.3176 42.4716 13.6463 -16.0569 4.9888
# 2 33.3176 93.8958 10.1046 -1.9989 -8.8527 -4.2059
# 3 42.4716 10.1046 86.1824 1.8967 -13.6951 -7.4088
# 4 13.6463 -1.9989 1.8967 28.4736 -4.3063 -4.6081
# 5 -16.0569 -8.8527 -13.6951 -4.3063 26.4702 -6.7549
# 6 4.9888 -4.2059 -7.4088 -4.6081 -6.7549 38.8233
#
#
#
# Elastic Compliance Matrix: (Units=1/GPa)
#
#
# Indices 1 2 3 4 5 6 
#
# 1 0.010080 -0.003220 -0.004552 -0.005058 0.001114 -0.002919
# 2 -0.003220 0.012273 0.000965 0.003433 0.003982 0.003028
# 3 -0.004552 0.000965 0.015280 0.003191 0.007328 0.005259
# 4 -0.005058 0.003433 0.003191 0.040086 0.008249 0.007824
# 5 0.001114 0.003982 0.007328 0.008249 0.047718 0.010968
# 6 -0.002919 0.003028 0.005259 0.007824 0.010968 0.030302
#
#
# Mechanical properties :
#
#
# Convention : Reuss Voigt Hill
#
# Bulk Modulus (GPa) = 41.63464 54.55204 48.09334
# Shear Modulus (GPa) = 28.19140 34.30589 31.24864
#
# Velocity S-wave (km/s) = 3.54756 3.91342 3.73497
# Velocity P-wave (km/s) = 5.94700 6.69125 6.33007
#
# Compressibility (1/GPa) = 0.02401846
#
# Stress axis : x y z
#
# Youngs Moduli (GPa) = 99.20972 81.48019 65.44515
#
# Poissons Ratio (x) = 0.26237 0.29793
# Poissons Ratio (y) = 0.31946 -0.06318
# Poissons Ratio (z) = 0.45164 -0.07866
#
# Static dielectric constant tensor:
#      x y z
#    x 1.978580 -0.425510 -0.041390 
#    y -0.425510 3.482620 0.121500 
#    z -0.041390 0.121500 1.823270 
# 
# From -- ./inp_files/81402.got.cif
#   From: 2010.05.17/outbox.cif.g08.bks.cpg/sg2_41_cif.got.tgz:81402.got - 2010.06.03 11:33:40.
