data_PCOD9038605
_publ_section_title
;
Structure prediction by ZEFSAII (Michael W. Deem and Ramdas Pophale) SiO2 
 PCOD9038605
Probable space group: P -1
;
_chemical_formula_sum "Si O2"
_cell_formula_units_Z 12
_cell_length_a 4.905406
_cell_length_b 15.089950
_cell_length_c 9.416183
_cell_angle_alpha 56.584207
_cell_angle_beta 64.630623
_cell_angle_gamma 67.960625
_cell_volume 516.641445
_symmetry_space_group_name_H-M "P -1"
_symmetry_group_IT_number 2
_symmetry_cell_setting 'triclinic'
loop_
_space_group_symop_operation_xyz
x,y,z
-x,-y,-z
loop_
_atom_site_type_symbol
_atom_site_label
_atom_site_fract_x
_atom_site_fract_y
_atom_site_fract_z
Si Si1 0.348971 0.939246 0.967171
Si Si2 0.724446 0.477971 0.833442
Si Si3 0.272080 0.590834 0.617139
Si Si4 0.713595 0.062720 0.590520
Si Si5 0.754175 0.294119 0.769305
Si Si6 0.880223 0.800164 0.467201
O O1 0.400490 0.810028 0.081888
O O2 0.124068 0.878253 0.374252
O O3 0.508379 0.976837 0.759559
O O4 0.000000 0.000000 0.000000
O O5 0.565127 0.563908 0.674788
O O6 0.751178 0.362313 0.852361
O O7 0.500000 0.500000 0.000000
O O8 0.932178 0.501480 0.238022
O O9 0.359929 0.622461 0.409439
O O10 0.022544 0.697230 0.620612
O O11 0.471785 0.148860 0.480154
O O12 0.500000 0.000000 0.000000
O O13 0.079435 0.238568 0.672874
O O14 0.000000 0.000000 0.500000
#
# Coordination Sequence:
#
# PCOD9038605 Si02
#       6
#     2   2   2   2   2   2
#     4  12  22  42  67 101 135 180 238 288 332 424
#     4  12  25  43  67 106 140 175 229 300 354 413
#     4  10  23  44  69  93 139 180 237 278 348 425
#     4  12  23  42  66 104 143 179 228 299 352 405
#     4  10  24  42  75  97 137 189 242 274 354 415
#     4  10  23  41  71  95 132 189 238 267 357 420
#
# _framework density 23.226939999999999
#
# number of rings (size 3 to 8) (size 9 to 14) (size 15 to 20)
#    1.000    0.000    3.333    3.000    0.000    5.333 
#    0.000    5.000    0.000    0.000    0.000    0.000 
#    0.000    0.000    0.000    0.000    0.000    0.000 
#
# Total GULP energy -66960.121933 kJ/mol
# GULP energy per Si atom -5580.010161 kJ/mol
# Density = 2.317407 g / cm^3
# Si number density = 23.226940 Si / 1000 Ang^3
#
#
#
# Elastic Constant Matrix: (Units=GPa)
#
#
# Indices 1 2 3 4 5 6 
#
# 1 114.3169 18.0508 3.8083 1.6395 -16.1187 -8.8577
# 2 18.0508 131.9006 41.8956 -8.0140 -16.3377 5.6499
# 3 3.8083 41.8956 58.3080 -5.5348 -18.8198 9.0095
# 4 1.6395 -8.0140 -5.5348 33.6928 -0.7857 -9.2076
# 5 -16.1187 -16.3377 -18.8198 -0.7857 33.6710 1.4009
# 6 -8.8577 5.6499 9.0095 -9.2076 1.4009 38.2575
#
#
#
# Elastic Compliance Matrix: (Units=1/GPa)
#
#
# Indices 1 2 3 4 5 6 
#
# 1 0.009730 -0.001310 0.001577 0.000113 0.004826 0.001925
# 2 -0.001310 0.010088 -0.006918 0.001378 0.000427 0.000152
# 3 0.001577 -0.006918 0.027083 0.001641 0.012784 -0.005064
# 4 0.000113 0.001378 0.001641 0.032268 0.002096 0.007125
# 5 0.004826 0.000427 0.012784 0.002096 0.039532 -0.002899
# 6 0.001925 0.000152 -0.005064 0.007125 -0.002899 0.029576
#
#
# Mechanical properties :
#
#
# Convention : Reuss Voigt Hill
#
# Bulk Modulus (GPa) = 29.76359 48.00389 38.88374
# Shear Modulus (GPa) = 28.93882 37.17565 33.05724
#
# Velocity S-wave (km/s) = 3.53358 4.00502 3.77666
# Velocity P-wave (km/s) = 5.43050 6.48838 5.98287
#
# Compressibility (1/GPa) = 0.03359810
#
# Stress axis : x y z
#
# Youngs Moduli (GPa) = 102.77498 99.12550 36.92406
#
# Poissons Ratio (x) = 0.12988 -0.05822
# Poissons Ratio (y) = 0.13466 0.25544
# Poissons Ratio (z) = -0.16205 0.68574
#
# Static dielectric constant tensor:
#      x y z
#    x 1.690290 -0.000700 -0.104380 
#    y -0.000700 1.978100 -0.004390 
#    z -0.104380 -0.004390 1.848370 
# 
# From -- ./inp_files/174719.got.cif
#   From: 2010.05.17/outbox.cif.g08.bks.cpg/sg2_88_cif.got.tgz:174719.got - 2010.06.03 11:33:40.
