data_PCOD9038706
_publ_section_title
;
Structure prediction by ZEFSAII (Michael W. Deem and Ramdas Pophale) SiO2 
 PCOD9038706
Probable space group: P -1
;
_chemical_formula_sum "Si O2"
_cell_formula_units_Z 16
_cell_length_a 10.079124
_cell_length_b 12.460456
_cell_length_c 5.072417
_cell_angle_alpha 107.323603
_cell_angle_beta 87.810456
_cell_angle_gamma 91.323596
_cell_volume 607.659795
_symmetry_space_group_name_H-M "P -1"
_symmetry_group_IT_number 2
_symmetry_cell_setting 'triclinic'
loop_
_space_group_symop_operation_xyz
x,y,z
-x,-y,-z
loop_
_atom_site_type_symbol
_atom_site_label
_atom_site_fract_x
_atom_site_fract_y
_atom_site_fract_z
Si Si1 0.181590 0.840031 0.502445
Si Si2 0.354980 0.797407 0.953446
Si Si3 0.640013 0.466205 0.328062
Si Si4 0.574270 0.887053 0.350362
Si Si5 0.278475 0.220634 0.328687
Si Si6 0.763468 0.575705 0.879784
Si Si7 0.957399 0.712773 0.231766
Si Si8 0.859972 0.930014 0.143920
O O1 0.254931 0.843837 0.218912
O O2 0.089835 0.728312 0.400922
O O3 0.093343 0.944527 0.695942
O O4 0.296451 0.833609 0.706184
O O5 0.497368 0.842763 0.069362
O O6 0.358343 0.663129 0.849422
O O7 0.500000 0.500000 0.500000
O O8 0.744539 0.493163 0.574006
O O9 0.320903 0.467090 0.893564
O O10 0.590951 0.797656 0.519163
O O11 0.726761 0.919030 0.318522
O O12 0.500000 0.000000 0.500000
O O13 0.291049 0.305431 0.142755
O O14 0.166976 0.278480 0.557831
O O15 0.207238 0.104936 0.152600
O O16 0.914632 0.607843 0.977730
O O17 0.955330 0.828578 0.143334
#
# Coordination Sequence:
#
# PCOD9038706 Si02
#       8
#     2   2   2   2   2   2   2   2
#     4  12  27  48  71 107 154 194 240 304 355 435
#     4  12  30  47  70 109 150 192 241 296 382 431
#     4  12  28  49  78 107 146 187 244 311 366 438
#     4  11  23  44  69 104 156 195 233 293 367 447
#     4  10  23  41  76 111 138 196 248 299 355 439
#     4  11  24  48  75 110 141 183 251 300 372 416
#     4  10  24  45  77 107 146 192 253 295 352 431
#     4  10  23  41  74 108 146 194 248 289 363 430
#
# _framework density 26.330521000000001
#
# number of rings (size 3 to 8) (size 9 to 14) (size 15 to 20)
#    0.000    1.000    2.500    2.250   12.250    2.500 
#    0.000    3.750    0.000    0.000    0.000    0.000 
#    0.000    0.000    0.000    0.000    0.000    0.000 
#
# Total GULP energy -89532.723819 kJ/mol
# GULP energy per Si atom -5595.795239 kJ/mol
# Density = 2.627059 g / cm^3
# Si number density = 26.330521 Si / 1000 Ang^3
#
#
#
# Elastic Constant Matrix: (Units=GPa)
#
#
# Indices 1 2 3 4 5 6 
#
# 1 46.4276 28.9556 26.1059 -12.4832 20.3290 -2.6375
# 2 28.9556 98.5810 35.7434 -8.1224 13.8947 6.6666
# 3 26.1059 35.7434 183.9395 -1.6969 32.7713 11.3802
# 4 -12.4832 -8.1224 -1.6969 55.0833 8.4270 0.1852
# 5 20.3290 13.8947 32.7713 8.4270 40.5725 0.1310
# 6 -2.6375 6.6666 11.3802 0.1852 0.1310 31.2398
#
#
#
# Elastic Compliance Matrix: (Units=1/GPa)
#
#
# Indices 1 2 3 4 5 6 
#
# 1 0.037537 -0.007748 -0.000933 0.009994 -0.017493 0.005177
# 2 -0.007748 0.013040 -0.001339 0.000060 0.000495 -0.002951
# 3 -0.000933 -0.001339 0.006806 0.000523 -0.004673 -0.002256
# 4 0.009994 0.000060 0.000523 0.021975 -0.010017 0.000552
# 5 -0.017493 0.000495 -0.004673 -0.010017 0.039097 0.000015
# 6 0.005177 -0.002951 -0.002256 0.000552 0.000015 0.033896
#
#
# Mechanical properties :
#
#
# Convention : Reuss Voigt Hill
#
# Bulk Modulus (GPa) = 26.77978 56.72864 41.75421
# Shear Modulus (GPa) = 27.05047 41.25534 34.15290
#
# Velocity S-wave (km/s) = 3.20870 3.96261 3.60541
# Velocity P-wave (km/s) = 4.89084 6.52135 5.76404
#
# Compressibility (1/GPa) = 0.03734160
#
# Stress axis : x y z
#
# Youngs Moduli (GPa) = 26.64044 76.68662 146.92541
#
# Poissons Ratio (x) = 0.59417 0.13712
# Poissons Ratio (y) = 0.20641 0.19679
# Poissons Ratio (z) = 0.02486 0.10272
#
# Static dielectric constant tensor:
#      x y z
#    x 2.113920 0.025930 -0.009750 
#    y 0.025930 2.132800 -0.036120 
#    z -0.009750 -0.036120 2.113380 
# 
# From -- ./inp_files/78660.got.cif
#   From: 2010.05.17/outbox.cif.g08.bks.cpg/sg2_40_cif.got.tgz:78660.got - 2010.06.03 11:33:40.
