data_PCOD9038211
_publ_section_title
;
Structure prediction by ZEFSAII (Michael W. Deem and Ramdas Pophale) SiO2 
 PCOD9038211
Probable space group: P -1
;
_chemical_formula_sum "Si O2"
_cell_formula_units_Z 16
_cell_length_a 9.361596
_cell_length_b 14.183923
_cell_length_c 14.225304
_cell_angle_alpha 41.434107
_cell_angle_beta 86.902265
_cell_angle_gamma 119.010010
_cell_volume 756.783523
_symmetry_space_group_name_H-M "P -1"
_symmetry_group_IT_number 2
_symmetry_cell_setting 'triclinic'
loop_
_space_group_symop_operation_xyz
x,y,z
-x,-y,-z
loop_
_atom_site_type_symbol
_atom_site_label
_atom_site_fract_x
_atom_site_fract_y
_atom_site_fract_z
Si Si1 0.078417 0.068155 0.659700
Si Si2 0.799507 0.455665 0.525822
Si Si3 0.442793 0.601095 0.264175
Si Si4 0.078262 0.509948 0.132996
Si Si5 0.278102 0.762225 0.489848
Si Si6 0.610190 0.839918 0.886721
Si Si7 0.220140 0.878754 0.720502
Si Si8 0.168804 0.195389 0.769662
O O1 0.236357 0.333733 0.432919
O O2 0.137241 0.087296 0.753770
O O3 0.151036 0.987256 0.659737
O O4 0.800778 0.886555 0.796719
O O5 0.646968 0.339922 0.712552
O O6 0.683814 0.322544 0.530559
O O7 0.888501 0.687061 0.339690
O O8 0.000000 0.500000 0.500000
O O9 0.584086 0.621246 0.321303
O O10 0.598377 0.782223 0.038522
O O11 0.965129 0.441014 0.291588
O O12 0.893292 0.271075 0.258404
O O13 0.332036 0.632191 0.026990
O O14 0.115753 0.692666 0.945188
O O15 0.293864 0.927054 0.314608
O O16 0.498519 0.918398 0.435425
O O17 0.000000 0.000000 0.000000
#
# Coordination Sequence:
#
# PCOD9038211 Si02
#       8
#     2   2   2   2   2   2   2   2
#     4  11  22  40  63  92 122 163 207 252 313 375
#     4  11  23  38  62  95 127 166 211 253 306 370
#     4  11  23  42  60  90 132 164 208 255 302 381
#     4  10  23  43  64  91 124 157 209 270 311 371
#     4  11  22  42  64  89 127 165 210 257 315 366
#     4  11  23  40  62  90 127 167 203 258 316 372
#     4  10  23  41  67  93 116 163 213 258 321 370
#     4  11  22  39  62  90 128 165 206 251 307 369
#
# _framework density 21.142109999999999
#
# number of rings (size 3 to 8) (size 9 to 14) (size 15 to 20)
#    0.000    1.250    1.250    6.375    1.750    2.000 
#    0.000    2.500    0.000    0.000    0.000    0.000 
#    0.000    0.000    0.000    0.000    0.000    0.000 
#
# Total GULP energy -89330.745473 kJ/mol
# GULP energy per Si atom -5583.171592 kJ/mol
# Density = 2.109399 g / cm^3
# Si number density = 21.142110 Si / 1000 Ang^3
#
#
#
# Elastic Constant Matrix: (Units=GPa)
#
#
# Indices 1 2 3 4 5 6 
#
# 1 125.0651 19.2048 25.0302 -5.9831 -13.3124 -5.1623
# 2 19.2048 54.1064 6.2079 -12.6994 -0.8293 -3.9160
# 3 25.0302 6.2079 63.5369 9.7126 -18.6308 -5.8358
# 4 -5.9831 -12.6994 9.7126 31.6301 9.8849 -4.7746
# 5 -13.3124 -0.8293 -18.6308 9.8849 23.7919 -1.9838
# 6 -5.1623 -3.9160 -5.8358 -4.7746 -1.9838 27.9380
#
#
#
# Elastic Compliance Matrix: (Units=1/GPa)
#
#
# Indices 1 2 3 4 5 6 
#
# 1 0.009316 -0.002719 -0.002555 0.000716 0.002915 0.001136
# 2 -0.002719 0.023950 -0.006989 0.015595 -0.012373 0.003181
# 3 -0.002555 -0.006989 0.030309 -0.021915 0.031447 0.003367
# 4 0.000716 0.015595 -0.021915 0.057932 -0.039886 0.004809
# 5 0.002915 -0.012373 0.031447 -0.039886 0.084809 0.004579
# 6 0.001136 0.003181 0.003367 0.004809 0.004579 0.038300
#
#
# Mechanical properties :
#
#
# Convention : Reuss Voigt Hill
#
# Bulk Modulus (GPa) = 25.60829 38.17713 31.89271
# Shear Modulus (GPa) = 17.72067 29.48969 23.60518
#
# Velocity S-wave (km/s) = 2.89826 3.73880 3.34503
# Velocity P-wave (km/s) = 4.83100 6.06092 5.48057
#
# Compressibility (1/GPa) = 0.03904985
#
# Stress axis : x y z
#
# Youngs Moduli (GPa) = 107.34223 41.75407 32.99392
#
# Poissons Ratio (x) = 0.11351 0.08429
# Poissons Ratio (y) = 0.29183 0.23059
# Poissons Ratio (z) = 0.27424 0.29181
#
# Static dielectric constant tensor:
#      x y z
#    x 1.794680 0.043110 -0.058670 
#    y 0.043110 1.807200 -0.022760 
#    z -0.058670 -0.022760 1.778480 
# 
# From -- ./inp_files/503862.got.cif
#   From: 2010.05.17/outbox.cif.g08.bks.cpg/sg2_252_cif.got.tgz:503862.got - 2010.06.03 11:33:40.
