data_PCOD9038581
_publ_section_title
;
Structure prediction by ZEFSAII (Michael W. Deem and Ramdas Pophale) SiO2 
 PCOD9038581
Probable space group: P -1
;
_chemical_formula_sum "Si O2"
_cell_formula_units_Z 14
_cell_length_a 29.003011
_cell_length_b 20.221497
_cell_length_c 13.351669
_cell_angle_alpha 28.707047
_cell_angle_beta 159.054145
_cell_angle_gamma 166.418472
_cell_volume 611.773661
_symmetry_space_group_name_H-M "P -1"
_symmetry_group_IT_number 2
_symmetry_cell_setting 'triclinic'
loop_
_space_group_symop_operation_xyz
x,y,z
-x,-y,-z
loop_
_atom_site_type_symbol
_atom_site_label
_atom_site_fract_x
_atom_site_fract_y
_atom_site_fract_z
Si Si1 0.239402 0.848225 0.213632
Si Si2 0.643017 0.913630 0.647374
Si Si3 0.374872 0.879239 0.018281
Si Si4 0.134309 0.150022 0.857774
Si Si5 0.676005 0.648670 0.819977
Si Si6 0.442606 0.258110 0.700225
Si Si7 0.079629 0.210336 0.446006
O O1 0.500000 0.000000 0.500000
O O2 0.330051 0.012553 0.281523
O O3 0.399592 0.993582 0.628974
O O4 0.152195 0.887127 0.906762
O O5 0.053733 0.514678 0.870955
O O6 0.363928 0.559018 0.528432
O O7 0.878843 0.027943 0.941921
O O8 0.500000 0.000000 0.000000
O O9 0.389258 0.049356 0.855905
O O10 0.163932 0.237639 0.690906
O O11 0.360942 0.405814 0.064259
O O12 0.846706 0.945932 0.580398
O O13 0.638599 0.481887 0.894676
O O14 0.500514 0.606939 0.468387
O O15 0.000000 0.000000 0.000000
O O16 0.000000 0.000000 0.500000
#
# Coordination Sequence:
#
# PCOD9038581 Si02
#       7
#     2   2   2   2   2   2   2
#     4  11  28  48  74 107 149 191 247 304 361 434
#     4  11  26  44  70 106 148 189 239 304 367 431
#     4  11  27  49  74 106 148 195 242 292 370 445
#     4  11  23  39  71 102 140 187 238 300 363 423
#     4   9  21  41  65 102 138 178 238 297 358 419
#     4  10  23  41  71 105 140 188 243 299 353 440
#     4  11  25  44  70 106 139 191 248 298 363 436
#
# _framework density 22.884281000000001
#
# number of rings (size 3 to 8) (size 9 to 14) (size 15 to 20)
#    0.000    1.429    1.429    1.286    6.000    7.429 
#    0.000    0.000    0.000    0.000    0.000    0.000 
#    0.000    0.000    0.000    0.000    0.000    0.000 
#
# Total GULP energy -78123.894079 kJ/mol
# GULP energy per Si atom -5580.278148 kJ/mol
# Density = 2.283220 g / cm^3
# Si number density = 22.884281 Si / 1000 Ang^3
#
#
#
# Elastic Constant Matrix: (Units=GPa)
#
#
# Indices 1 2 3 4 5 6 
#
# 1 132.7653 52.5998 83.9720 -2.3366 3.1620 -26.0419
# 2 52.5998 130.0437 56.4137 -9.9776 15.9063 -32.5535
# 3 83.9720 56.4137 170.3262 -14.2022 15.4201 -11.2383
# 4 -2.3366 -9.9776 -14.2022 34.2644 -3.3828 4.3505
# 5 3.1620 15.9063 15.4201 -3.3828 55.1312 -1.0584
# 6 -26.0419 -32.5535 -11.2383 4.3505 -1.0584 39.5245
#
#
#
# Elastic Compliance Matrix: (Units=1/GPa)
#
#
# Indices 1 2 3 4 5 6 
#
# 1 0.012888 -0.001602 -0.005770 -0.002595 0.001290 0.005852
# 2 -0.001602 0.011614 -0.002237 0.001131 -0.002416 0.007685
# 3 -0.005770 -0.002237 0.009651 0.003217 -0.001589 -0.003297
# 4 -0.002595 0.001131 0.003217 0.031162 0.000772 -0.003273
# 5 0.001290 -0.002416 -0.001589 0.000772 0.019231 -0.001162
# 6 0.005852 0.007685 -0.003297 -0.003273 -0.001162 0.034878
#
#
# Mechanical properties :
#
#
# Convention : Reuss Voigt Hill
#
# Bulk Modulus (GPa) = 66.95477 91.01181 78.98329
# Shear Modulus (GPa) = 34.81391 41.79401 38.30396
#
# Velocity S-wave (km/s) = 3.90462 4.27818 4.09566
# Velocity P-wave (km/s) = 7.04624 8.01627 7.54686
#
# Compressibility (1/GPa) = 0.01493546
#
# Stress axis : x y z
#
# Youngs Moduli (GPa) = 77.59353 86.10223 103.61240
#
# Poissons Ratio (x) = 0.13790 0.59787
# Poissons Ratio (y) = 0.12428 0.23177
# Poissons Ratio (z) = 0.44774 0.19260
#
# Static dielectric constant tensor:
#      x y z
#    x 1.557610 -0.199850 0.187260 
#    y -0.199850 1.796610 0.207930 
#    z 0.187260 0.207930 1.781160 
# 
# From -- ./inp_files/476938.got.cif
#   From: 2010.05.17/outbox.cif.g08.bks.cpg/sg2_239_cif.got.tgz:476938.got - 2010.06.03 11:33:40.
