data_PCOD9038540
_publ_section_title
;
Structure prediction by ZEFSAII (Michael W. Deem and Ramdas Pophale) SiO2 
 PCOD9038540
Probable space group: P -1
;
_chemical_formula_sum "Si O2"
_cell_formula_units_Z 12
_cell_length_a 7.409278
_cell_length_b 10.524031
_cell_length_c 12.485268
_cell_angle_alpha 32.896826
_cell_angle_beta 108.040652
_cell_angle_gamma 106.368569
_cell_volume 502.316489
_symmetry_space_group_name_H-M "P -1"
_symmetry_group_IT_number 2
_symmetry_cell_setting 'triclinic'
loop_
_space_group_symop_operation_xyz
x,y,z
-x,-y,-z
loop_
_atom_site_type_symbol
_atom_site_label
_atom_site_fract_x
_atom_site_fract_y
_atom_site_fract_z
Si Si1 0.153909 0.192753 0.576322
Si Si2 0.462029 0.380321 0.963607
Si Si3 0.420649 0.854572 0.270075
Si Si4 0.118580 0.706367 0.930473
Si Si5 0.113414 0.705342 0.163301
Si Si6 0.798006 0.440760 0.391616
O O1 0.354573 0.171720 0.689439
O O2 0.173835 0.436781 0.344895
O O3 0.953098 0.242162 0.559013
O O4 0.128771 0.940937 0.694473
O O5 0.326004 0.529786 0.758822
O O6 0.500000 0.500000 0.000000
O O7 0.669386 0.371027 0.957293
O O8 0.397887 0.104398 0.147782
O O9 0.291480 0.845715 0.146989
O O10 0.338917 0.636584 0.481805
O O11 0.045817 0.780374 0.981720
O O12 0.000000 0.500000 0.000000
O O13 0.942977 0.671161 0.243999
#
# Coordination Sequence:
#
# PCOD9038540 Si02
#       6
#     2   2   2   2   2   2
#     4   9  24  41  67  96 129 174 215 268 331 382
#     4  11  26  44  66  99 133 177 220 269 330 388
#     4  11  23  45  67  97 137 170 220 272 324 395
#     4  11  24  45  69  94 135 175 220 272 325 395
#     4  10  23  41  70  98 129 175 219 268 333 384
#     4  10  24  41  67  98 131 172 215 274 326 385
#
# _framework density 23.889322
#
# number of rings (size 3 to 8) (size 9 to 14) (size 15 to 20)
#    1.000    0.667    0.000    3.000    4.667    6.000 
#    3.000    0.000    0.000    0.000    0.000    0.000 
#    0.000    0.000    0.000    0.000    0.000    0.000 
#
# Total GULP energy -66868.671581 kJ/mol
# GULP energy per Si atom -5572.389298 kJ/mol
# Density = 2.383495 g / cm^3
# Si number density = 23.889322 Si / 1000 Ang^3
#
#
#
# Elastic Constant Matrix: (Units=GPa)
#
#
# Indices 1 2 3 4 5 6 
#
# 1 127.6091 28.3429 39.4864 -3.9970 11.7071 23.2665
# 2 28.3429 86.4469 54.8417 -3.2371 -0.6725 5.1344
# 3 39.4864 54.8417 101.5135 1.1074 14.4408 -3.5120
# 4 -3.9970 -3.2371 1.1074 34.0650 6.2047 1.0886
# 5 11.7071 -0.6725 14.4408 6.2047 34.3941 0.7876
# 6 23.2665 5.1344 -3.5120 1.0886 0.7876 28.8496
#
#
#
# Elastic Compliance Matrix: (Units=1/GPa)
#
#
# Indices 1 2 3 4 5 6 
#
# 1 0.011226 -0.000398 -0.004186 0.002127 -0.002237 -0.009511
# 2 -0.000398 0.019055 -0.011024 0.001359 0.004997 -0.004600
# 3 -0.004186 -0.011024 0.018656 -0.001196 -0.006588 0.007834
# 4 0.002127 0.001359 -0.001196 0.030911 -0.005700 -0.003113
# 5 -0.002237 0.004997 -0.006588 -0.005700 0.033742 -0.000593
# 6 -0.009511 -0.004600 0.007834 -0.003113 -0.000593 0.044239
#
#
# Mechanical properties :
#
#
# Convention : Reuss Voigt Hill
#
# Bulk Modulus (GPa) = 56.42990 62.32351 59.37670
# Shear Modulus (GPa) = 25.64732 32.32163 28.98447
#
# Velocity S-wave (km/s) = 3.28012 3.68227 3.48700
# Velocity P-wave (km/s) = 6.16590 6.65010 6.41257
#
# Compressibility (1/GPa) = 0.01772110
#
# Stress axis : x y z
#
# Youngs Moduli (GPa) = 89.07822 52.47944 53.60235
#
# Poissons Ratio (x) = 0.02090 0.22435
# Poissons Ratio (y) = 0.03547 0.59093
# Poissons Ratio (z) = 0.37284 0.57855
#
# Static dielectric constant tensor:
#      x y z
#    x 1.997060 -0.111300 0.008640 
#    y -0.111300 2.004640 -0.060150 
#    z 0.008640 -0.060150 1.943120 
# 
# From -- ./inp_files/377517.got.cif
#   From: 2010.05.17/outbox.cif.g08.bks.cpg/sg2_189_cif.got.tgz:377517.got - 2010.06.03 11:33:40.
