data_PCOD9038468
_publ_section_title
;
Structure prediction by ZEFSAII (Michael W. Deem and Ramdas Pophale) SiO2 
 PCOD9038468
Probable space group: P -1
;
_chemical_formula_sum "Si O2"
_cell_formula_units_Z 16
_cell_length_a 5.050243
_cell_length_b 9.974780
_cell_length_c 17.002910
_cell_angle_alpha 86.797493
_cell_angle_beta 57.096942
_cell_angle_gamma 75.486627
_cell_volume 692.777463
_symmetry_space_group_name_H-M "P -1"
_symmetry_group_IT_number 2
_symmetry_cell_setting 'triclinic'
loop_
_space_group_symop_operation_xyz
x,y,z
-x,-y,-z
loop_
_atom_site_type_symbol
_atom_site_label
_atom_site_fract_x
_atom_site_fract_y
_atom_site_fract_z
Si Si1 0.590409 0.726495 0.189290
Si Si2 0.344148 0.872426 0.515776
Si Si3 0.344560 0.954454 0.343355
Si Si4 0.123822 0.865928 0.040410
Si Si5 0.933445 0.065732 0.201073
Si Si6 0.914103 0.437658 0.756166
Si Si7 0.226112 0.419482 0.534345
Si Si8 0.594360 0.756739 0.838244
O O1 0.367667 0.642679 0.185283
O O2 0.852858 0.780432 0.094754
O O3 0.795329 0.629943 0.228534
O O4 0.367507 0.861783 0.265134
O O5 0.582143 0.735633 0.516598
O O6 0.974993 0.918135 0.603747
O O7 0.500000 0.000000 0.500000
O O8 0.329062 0.858360 0.424220
O O9 0.672503 0.006195 0.292624
O O10 0.444936 0.772744 0.950082
O O11 0.146485 0.937598 0.118574
O O12 0.000000 0.000000 0.000000
O O13 0.702654 0.177671 0.175299
O O14 0.160336 0.144981 0.205993
O O15 0.771217 0.600111 0.792205
O O16 0.035522 0.417145 0.646963
O O17 0.500000 0.500000 0.500000
O O18 0.000000 0.500000 0.500000
#
# Coordination Sequence:
#
# PCOD9038468 Si02
#       8
#     2   2   2   2   2   2   2   2
#     4  11  24  45  71 100 143 183 232 297 353 422
#     4  11  25  43  73 101 137 182 247 305 349 437
#     4  10  24  41  69 102 134 178 243 299 358 411
#     4   9  22  44  71 104 138 179 229 293 361 416
#     4  10  23  41  69  98 137 181 226 299 352 408
#     4  12  26  45  68 101 140 191 237 282 357 435
#     4  12  29  49  71 101 150 195 235 298 368 429
#     4  11  24  42  66 101 141 179 236 280 348 437
#
# _framework density 23.095443
#
# number of rings (size 3 to 8) (size 9 to 14) (size 15 to 20)
#    0.000    1.250    1.250    2.625    7.000    8.000 
#    0.000    0.000    0.000    0.000    0.000    0.000 
#    0.000    0.000    0.000    0.000    0.000    0.000 
#
# Total GULP energy -89683.758523 kJ/mol
# GULP energy per Si atom -5605.234908 kJ/mol
# Density = 2.304288 g / cm^3
# Si number density = 23.095443 Si / 1000 Ang^3
#
#
#
# Elastic Constant Matrix: (Units=GPa)
#
#
# Indices 1 2 3 4 5 6 
#
# 1 92.2179 39.4572 18.4986 9.5091 -4.4617 -7.5978
# 2 39.4572 120.0740 15.9509 14.2065 -10.6451 -10.0219
# 3 18.4986 15.9509 100.1577 -2.0634 -13.3517 -11.4598
# 4 9.5091 14.2065 -2.0634 35.7876 -4.5491 -6.5716
# 5 -4.4617 -10.6451 -13.3517 -4.5491 22.1652 -4.6443
# 6 -7.5978 -10.0219 -11.4598 -6.5716 -4.6443 54.8094
#
#
#
# Elastic Compliance Matrix: (Units=1/GPa)
#
#
# Indices 1 2 3 4 5 6 
#
# 1 0.013075 -0.003826 -0.001893 -0.002076 -0.000686 0.000410
# 2 -0.003826 0.010360 -0.000335 -0.002389 0.003791 0.001329
# 3 -0.001893 -0.000335 0.011857 0.002901 0.007860 0.003169
# 4 -0.002076 -0.002389 0.002901 0.031350 0.007512 0.004277
# 5 -0.000686 0.003791 0.007860 0.007512 0.054705 0.007778
# 6 0.000410 0.001329 0.003169 0.004277 0.007778 0.020379
#
#
# Mechanical properties :
#
#
# Convention : Reuss Voigt Hill
#
# Bulk Modulus (GPa) = 43.13239 51.14035 47.13637
# Shear Modulus (GPa) = 30.94763 38.45530 34.70147
#
# Velocity S-wave (km/s) = 3.66456 4.08494 3.88045
# Velocity P-wave (km/s) = 6.05158 6.66634 6.36638
#
# Compressibility (1/GPa) = 0.02318443
#
# Stress axis : x y z
#
# Youngs Moduli (GPa) = 76.47963 96.52802 84.33547
#
# Poissons Ratio (x) = 0.36933 0.15964
# Poissons Ratio (y) = 0.29262 0.02825
# Poissons Ratio (z) = 0.14477 0.03233
#
# Static dielectric constant tensor:
#      x y z
#    x 1.875340 -0.027160 0.050400 
#    y -0.027160 1.826140 -0.017060 
#    z 0.050400 -0.017060 1.897400 
# 
# From -- ./inp_files/47412.got.cif
#   From: 2010.05.17/outbox.cif.g08.bks.cpg/sg2_24_cif.got.tgz:47412.got - 2010.06.03 11:33:40.
