data_PCOD9038103
_publ_section_title
;
Structure prediction by ZEFSAII (Michael W. Deem and Ramdas Pophale) SiO2 
 PCOD9038103
Probable space group: P -1
;
_chemical_formula_sum "Si O2"
_cell_formula_units_Z 10
_cell_length_a 5.441169
_cell_length_b 15.394423
_cell_length_c 4.926541
_cell_angle_alpha 81.229088
_cell_angle_beta 85.630218
_cell_angle_gamma 71.188060
_cell_volume 385.892336
_symmetry_space_group_name_H-M "P -1"
_symmetry_group_IT_number 2
_symmetry_cell_setting 'triclinic'
loop_
_space_group_symop_operation_xyz
x,y,z
-x,-y,-z
loop_
_atom_site_type_symbol
_atom_site_label
_atom_site_fract_x
_atom_site_fract_y
_atom_site_fract_z
Si Si1 0.557706 0.711601 0.897651
Si Si2 0.092538 0.668977 0.981451
Si Si3 0.805088 0.942073 0.984136
Si Si4 0.276809 0.482862 0.335764
Si Si5 0.166970 0.183744 0.456082
O O1 0.294114 0.715604 0.062019
O O2 0.629120 0.618844 0.753449
O O3 0.566300 0.797127 0.669939
O O4 0.796537 0.695172 0.093882
O O5 0.786592 0.439651 0.933461
O O6 0.036879 0.716390 0.663356
O O7 0.839209 0.860443 0.236729
O O8 0.867336 0.892574 0.713215
O O9 0.500000 0.000000 0.000000
O O10 0.000000 0.000000 0.000000
O O11 0.500000 0.500000 0.500000
O O12 0.000000 0.500000 0.500000
#
# Coordination Sequence:
#
# PCOD9038103 Si02
#       5
#     2   2   2   2   2
#     4  10  23  41  66  94 144 179 237 273 341 401
#     4  10  23  41  66  94 144 179 237 273 341 401
#     4  12  28  48  76 103 142 177 230 292 366 426
#     4  12  24  38  64 101 141 192 232 282 338 396
#     4  10  28  45  78 104 140 182 234 287 354 416
#
# _framework density 25.913964
#
# number of rings (size 3 to 8) (size 9 to 14) (size 15 to 20)
#    1.200    0.000    0.000    4.800    8.400    0.000 
#    0.000    0.000    0.000    0.000    0.000    0.000 
#    0.000    0.000    0.000    0.000    0.000    0.000 
#
# Total GULP energy -55922.359189 kJ/mol
# GULP energy per Si atom -5592.235919 kJ/mol
# Density = 2.585498 g / cm^3
# Si number density = 25.913964 Si / 1000 Ang^3
#
#
#
# Elastic Constant Matrix: (Units=GPa)
#
#
# Indices 1 2 3 4 5 6 
#
# 1 208.7909 69.3982 38.4366 -1.4331 15.2773 30.3830
# 2 69.3982 169.8062 41.7211 2.8155 10.5966 21.3524
# 3 38.4366 41.7211 73.9833 -3.9032 10.7027 -17.9916
# 4 -1.4331 2.8155 -3.9032 46.7482 -2.5025 6.4290
# 5 15.2773 10.5966 10.7027 -2.5025 29.4009 -1.3313
# 6 30.3830 21.3524 -17.9916 6.4290 -1.3313 59.3033
#
#
#
# Elastic Compliance Matrix: (Units=1/GPa)
#
#
# Indices 1 2 3 4 5 6 
#
# 1 0.006550 -0.001225 -0.003400 0.000446 -0.001869 -0.004036
# 2 -0.001225 0.008067 -0.004721 -0.000452 -0.000757 -0.003677
# 3 -0.003400 -0.004721 0.020838 0.000399 -0.003647 0.009639
# 4 0.000446 -0.000452 0.000399 0.021862 0.001544 -0.002280
# 5 -0.001869 -0.000757 -0.003647 0.001544 0.036751 0.000782
# 6 -0.004036 -0.003677 0.009639 -0.002280 0.000782 0.023443
#
#
# Mechanical properties :
#
#
# Convention : Reuss Voigt Hill
#
# Bulk Modulus (GPa) = 59.65639 83.52137 71.58888
# Shear Modulus (GPa) = 35.26350 47.29211 41.27780
#
# Velocity S-wave (km/s) = 3.69289 4.27660 3.99542
# Velocity P-wave (km/s) = 6.42294 7.52901 6.99786
#
# Compressibility (1/GPa) = 0.01676266
#
# Stress axis : x y z
#
# Youngs Moduli (GPa) = 152.68139 123.96502 47.98931
#
# Poissons Ratio (x) = 0.15181 0.16315
# Poissons Ratio (y) = 0.18698 0.22658
# Poissons Ratio (z) = 0.51908 0.58529
#
# Static dielectric constant tensor:
#      x y z
#    x 2.189850 -0.000360 0.009340 
#    y -0.000360 2.012210 0.031560 
#    z 0.009340 0.031560 2.006450 
# 
# From -- ./inp_files/956.got.cif
#   From: 2010.05.17/outbox.cif.g08.bks.cpg/sg2_1_cif.got.tgz:956.got - 2010.06.03 11:33:40.
