data_PCOD9038224
_publ_section_title
;
Structure prediction by ZEFSAII (Michael W. Deem and Ramdas Pophale) SiO2 
 PCOD9038224
Probable space group: P -1
;
_chemical_formula_sum "Si O2"
_cell_formula_units_Z 16
_cell_length_a 12.920853
_cell_length_b 9.026562
_cell_length_c 18.297620
_cell_angle_alpha 104.965918
_cell_angle_beta 47.316369
_cell_angle_gamma 142.158968
_cell_volume 759.214179
_symmetry_space_group_name_H-M "P -1"
_symmetry_group_IT_number 2
_symmetry_cell_setting 'triclinic'
loop_
_space_group_symop_operation_xyz
x,y,z
-x,-y,-z
loop_
_atom_site_type_symbol
_atom_site_label
_atom_site_fract_x
_atom_site_fract_y
_atom_site_fract_z
Si Si1 0.930428 0.534472 0.467419
Si Si2 0.504244 0.670617 0.286506
Si Si3 0.420639 0.198573 0.144295
Si Si4 0.070964 0.312823 0.148813
Si Si5 0.070217 0.505485 0.697562
Si Si6 0.831786 0.702368 0.734906
Si Si7 0.535281 0.704805 0.541063
Si Si8 0.409499 0.241496 0.313949
O O1 0.628900 0.323136 0.599579
O O2 0.947972 0.460985 0.374015
O O3 0.000000 0.500000 0.500000
O O4 0.141924 0.877689 0.401263
O O5 0.407065 0.600423 0.240286
O O6 0.361394 0.376714 0.342445
O O7 0.834427 0.981723 0.183391
O O8 0.239128 0.183195 0.220531
O O9 0.550373 0.324322 0.180520
O O10 0.660558 0.423059 0.997877
O O11 0.204249 0.854786 0.199283
O O12 0.155885 0.333956 0.191305
O O13 0.937287 0.355001 0.229627
O O14 0.339096 0.647181 0.590843
O O15 0.133566 0.954465 0.585534
O O16 0.500000 0.500000 0.500000
O O17 0.450730 0.634861 0.657948
#
# Coordination Sequence:
#
# PCOD9038224 Si02
#       8
#     2   2   2   2   2   2   2   2
#     4  11  22  40  66  94 136 169 213 282 346 390
#     4  11  24  40  66  99 134 178 213 280 339 398
#     4  10  24  47  68  91 132 187 227 271 321 397
#     4  12  26  45  64  99 140 179 230 268 329 402
#     4  11  25  41  69  98 132 178 219 281 340 394
#     4  11  23  42  71  99 131 171 224 284 333 393
#     4  12  22  41  70 104 128 166 225 278 346 397
#     4  10  23  41  67  94 130 170 223 270 330 402
#
# _framework density 21.074421000000001
#
# number of rings (size 3 to 8) (size 9 to 14) (size 15 to 20)
#    0.000    1.000    2.500    4.125    3.500    3.000 
#    2.250    0.625    0.000    0.000    0.000    0.000 
#    0.000    0.000    0.000    0.000    0.000    0.000 
#
# Total GULP energy -89403.259968 kJ/mol
# GULP energy per Si atom -5587.703748 kJ/mol
# Density = 2.102645 g / cm^3
# Si number density = 21.074421 Si / 1000 Ang^3
#
#
#
# Elastic Constant Matrix: (Units=GPa)
#
#
# Indices 1 2 3 4 5 6 
#
# 1 111.0263 39.6806 60.1008 -0.1954 18.7927 15.5672
# 2 39.6806 92.1863 39.0565 -1.2864 9.3034 3.6201
# 3 60.1008 39.0565 93.4720 -5.5569 20.0881 4.4335
# 4 -0.1954 -1.2864 -5.5569 18.8732 3.6294 0.9894
# 5 18.7927 9.3034 20.0881 3.6294 29.8090 12.2729
# 6 15.5672 3.6201 4.4335 0.9894 12.2729 39.8983
#
#
#
# Elastic Compliance Matrix: (Units=1/GPa)
#
#
# Indices 1 2 3 4 5 6 
#
# 1 0.015339 -0.002801 -0.008372 -0.002057 -0.001086 -0.004415
# 2 -0.002801 0.013716 -0.003980 -0.000298 0.000093 0.000270
# 3 -0.008372 -0.003980 0.020028 0.007159 -0.009564 0.004166
# 4 -0.002057 -0.000298 0.007159 0.057105 -0.011243 0.002076
# 5 -0.001086 0.000093 -0.009564 -0.011243 0.047281 -0.012787
# 6 -0.004415 0.000270 0.004166 0.002076 -0.012787 0.030181
#
#
# Mechanical properties :
#
#
# Convention : Reuss Voigt Hill
#
# Bulk Modulus (GPa) = 53.26001 63.81784 58.53892
# Shear Modulus (GPa) = 22.70518 28.23921 25.47219
#
# Velocity S-wave (km/s) = 3.28591 3.66454 3.48038
# Velocity P-wave (km/s) = 6.30266 6.94644 6.63236
#
# Compressibility (1/GPa) = 0.01877581
#
# Stress axis : x y z
#
# Youngs Moduli (GPa) = 65.19259 72.90965 49.93103
#
# Poissons Ratio (x) = 0.20425 0.41801
# Poissons Ratio (y) = 0.18263 0.19873
# Poissons Ratio (z) = 0.54577 0.29019
#
# Static dielectric constant tensor:
#      x y z
#    x 1.798690 0.014270 0.006890 
#    y 0.014270 1.795360 0.008650 
#    z 0.006890 0.008650 1.707770 
# 
# From -- ./inp_files/566775.got.cif
#   From: 2010.05.17/outbox.cif.g08.bks.cpg/sg2_284_cif.got.tgz:566775.got - 2010.06.03 11:33:40.
