data_PCOD9038510
_publ_section_title
;
Structure prediction by ZEFSAII (Michael W. Deem and Ramdas Pophale) SiO2 
 PCOD9038510
Probable space group: P -1
;
_chemical_formula_sum "Si O2"
_cell_formula_units_Z 14
_cell_length_a 14.868426
_cell_length_b 5.342672
_cell_length_c 10.824370
_cell_angle_alpha 110.848751
_cell_angle_beta 42.078381
_cell_angle_gamma 119.433384
_cell_volume 501.797207
_symmetry_space_group_name_H-M "P -1"
_symmetry_group_IT_number 2
_symmetry_cell_setting 'triclinic'
loop_
_space_group_symop_operation_xyz
x,y,z
-x,-y,-z
loop_
_atom_site_type_symbol
_atom_site_label
_atom_site_fract_x
_atom_site_fract_y
_atom_site_fract_z
Si Si1 0.411094 0.282267 0.403341
Si Si2 0.670700 0.773845 0.101787
Si Si3 0.786008 0.791539 0.749603
Si Si4 0.043300 0.335284 0.040174
Si Si5 0.989185 0.389001 0.630980
Si Si6 0.556614 0.171679 0.846433
Si Si7 0.328543 0.681168 0.707293
O O1 0.543207 0.489706 0.224176
O O2 0.313708 0.462841 0.571042
O O3 0.501577 0.229572 0.418362
O O4 0.345221 0.984831 0.346688
O O5 0.581833 0.886480 0.109242
O O6 0.708319 0.031866 0.208030
O O7 0.798792 0.755197 0.881042
O O8 0.642875 0.511089 0.825007
O O9 0.887748 0.748367 0.529887
O O10 0.833299 0.134997 0.755987
O O11 0.984859 0.411353 0.240958
O O12 0.218048 0.480244 0.885787
O O13 0.000000 0.500000 0.000000
O O14 0.000000 0.000000 0.000000
O O15 0.000000 0.500000 0.500000
O O16 0.500000 0.000000 0.000000
#
# Coordination Sequence:
#
# PCOD9038510 Si02
#       7
#     2   2   2   2   2   2   2
#     4  10  23  41  70 105 137 192 243 306 399 463
#     4  11  22  41  72  98 141 184 244 312 390 457
#     4  11  25  43  71 101 150 187 263 310 390 456
#     4  12  31  53  80 115 159 208 266 333 397 462
#     4  11  29  49  78 106 145 215 265 316 385 461
#     4  11  24  39  66 109 140 186 238 317 388 462
#     4  10  24  45  70  98 144 193 249 310 389 479
#
# _framework density 27.899718
#
# number of rings (size 3 to 8) (size 9 to 14) (size 15 to 20)
#    0.000    1.143    2.857    0.857   12.000    1.143 
#    0.000    0.000    0.000    0.000    0.000    0.000 
#    0.000    0.000    0.000    0.000    0.000    0.000 
#
# Total GULP energy -78229.889947 kJ/mol
# GULP energy per Si atom -5587.849282 kJ/mol
# Density = 2.783622 g / cm^3
# Si number density = 27.899718 Si / 1000 Ang^3
#
#
#
# Elastic Constant Matrix: (Units=GPa)
#
#
# Indices 1 2 3 4 5 6 
#
# 1 69.3213 9.2931 15.8257 3.9559 9.0475 -6.5297
# 2 9.2931 204.3318 79.8383 22.9545 14.5124 10.2835
# 3 15.8257 79.8383 195.5523 25.1748 28.1506 16.8696
# 4 3.9559 22.9545 25.1748 84.7610 4.0204 8.2723
# 5 9.0475 14.5124 28.1506 4.0204 37.5327 -4.3111
# 6 -6.5297 10.2835 16.8696 8.2723 -4.3111 28.8621
#
#
#
# Elastic Compliance Matrix: (Units=1/GPa)
#
#
# Indices 1 2 3 4 5 6 
#
# 1 0.015421 -0.000249 -0.001089 -0.000616 -0.002273 0.004051
# 2 -0.000249 0.005916 -0.002129 -0.000853 -0.000628 -0.000769
# 3 -0.001089 -0.002129 0.007223 -0.000888 -0.004714 -0.004159
# 4 -0.000616 -0.000853 -0.000888 0.012643 -0.000557 -0.003023
# 5 -0.002273 -0.000628 -0.004714 -0.000557 0.031878 0.007386
# 6 0.004051 -0.000769 -0.004159 -0.003023 0.007386 0.040239
#
#
# Mechanical properties :
#
#
# Convention : Reuss Voigt Hill
#
# Bulk Modulus (GPa) = 46.24036 75.45771 60.84904
# Shear Modulus (GPa) = 39.22730 54.51440 46.87085
#
# Velocity S-wave (km/s) = 3.75375 4.42514 4.10320
# Velocity P-wave (km/s) = 5.94956 7.29478 6.65624
#
# Compressibility (1/GPa) = 0.02162613
#
# Stress axis : x y z
#
# Youngs Moduli (GPa) = 64.84635 169.02625 138.45186
#
# Poissons Ratio (x) = 0.04208 0.15082
# Poissons Ratio (y) = 0.01614 0.29471
# Poissons Ratio (z) = 0.07064 0.35980
#
# Static dielectric constant tensor:
#      x y z
#    x 2.499760 -0.122720 -0.184130 
#    y -0.122720 2.198040 0.197360 
#    z -0.184130 0.197360 2.487240 
# 
# From -- ./inp_files/81164.got.cif
#   From: 2010.05.17/outbox.cif.g08.bks.cpg/sg2_41_cif.got.tgz:81164.got - 2010.06.03 11:33:40.
