data_PCOD9038884
_publ_section_title
;
Structure prediction by ZEFSAII (Michael W. Deem and Ramdas Pophale) SiO2 
 PCOD9038884
Probable space group: P -1
;
_chemical_formula_sum "Si O2"
_cell_formula_units_Z 14
_cell_length_a 9.104961
_cell_length_b 12.900734
_cell_length_c 9.545811
_cell_angle_alpha 37.860946
_cell_angle_beta 113.620913
_cell_angle_gamma 106.306970
_cell_volume 629.249713
_symmetry_space_group_name_H-M "P -1"
_symmetry_group_IT_number 2
_symmetry_cell_setting 'triclinic'
loop_
_space_group_symop_operation_xyz
x,y,z
-x,-y,-z
loop_
_atom_site_type_symbol
_atom_site_label
_atom_site_fract_x
_atom_site_fract_y
_atom_site_fract_z
Si Si1 0.228763 0.129863 0.526889
Si Si2 0.371554 0.199927 0.121993
Si Si3 0.072491 0.328208 0.998264
Si Si4 0.573226 0.049043 0.828704
Si Si5 0.917251 0.172388 0.847848
Si Si6 0.990098 0.696417 0.534105
Si Si7 0.277475 0.865896 0.615991
O O1 0.421629 0.141682 0.589639
O O2 0.154984 0.178053 0.597955
O O3 0.212404 0.941584 0.658923
O O4 0.129989 0.251993 0.250011
O O5 0.552900 0.236409 0.189283
O O6 0.374127 0.124082 0.048534
O O7 0.318975 0.035252 0.365900
O O8 0.239397 0.344647 0.958162
O O9 0.974774 0.506464 0.782665
O O10 0.977058 0.207660 0.988692
O O11 0.726610 0.158434 0.783197
O O12 0.500000 0.000000 0.000000
O O13 0.980695 0.304972 0.619109
O O14 0.000000 0.000000 0.000000
O O15 0.147410 0.768602 0.588087
#
# Coordination Sequence:
#
# PCOD9038884 Si02
#       7
#     2   2   2   2   2   2   2
#     4  10  23  42  64  93 129 166 214 263 304 376
#     4   9  18  37  59  91 122 157 210 262 301 364
#     4  11  24  40  64  93 137 166 207 255 324 383
#     4  11  22  40  69  95 120 162 221 267 308 362
#     4  12  23  43  67  93 125 167 217 261 312 374
#     4  12  23  39  66  97 129 169 208 259 321 376
#     4   9  18  36  64  90 120 160 215 257 300 361
#
# _framework density 22.248718
#
# number of rings (size 3 to 8) (size 9 to 14) (size 15 to 20)
#    0.000    1.429    2.857    3.857    0.000    2.857 
#    0.000    0.714    0.000    0.000    0.000    0.000 
#    0.000    0.000    0.000    0.000    0.000    0.000 
#
# Total GULP energy -78230.194083 kJ/mol
# GULP energy per Si atom -5587.871006 kJ/mol
# Density = 2.219808 g / cm^3
# Si number density = 22.248718 Si / 1000 Ang^3
#
#
#
# Elastic Constant Matrix: (Units=GPa)
#
#
# Indices 1 2 3 4 5 6 
#
# 1 100.6974 35.6041 14.0087 18.1787 9.5786 -6.3547
# 2 35.6041 74.0661 22.9625 12.0072 7.7899 -8.5606
# 3 14.0087 22.9625 56.0446 20.4749 2.4872 8.3221
# 4 18.1787 12.0072 20.4749 31.8107 -4.4658 0.3789
# 5 9.5786 7.7899 2.4872 -4.4658 30.6775 16.6308
# 6 -6.3547 -8.5606 8.3221 0.3789 16.6308 38.8258
#
#
#
# Elastic Compliance Matrix: (Units=1/GPa)
#
#
# Indices 1 2 3 4 5 6 
#
# 1 0.013613 -0.004479 0.000932 -0.007631 -0.006387 0.003851
# 2 -0.004479 0.020080 -0.007541 -0.001400 -0.008048 0.008772
# 3 0.000932 -0.007541 0.027250 -0.014922 0.001496 -0.007846
# 4 -0.007631 -0.001400 -0.014922 0.047864 0.013388 -0.004561
# 5 -0.006387 -0.008048 0.001496 0.013388 0.052406 -0.025719
# 6 0.003851 0.008772 -0.007846 -0.004561 -0.025719 0.041063
#
#
# Mechanical properties :
#
#
# Convention : Reuss Voigt Hill
#
# Bulk Modulus (GPa) = 25.79559 41.77321 33.78440
# Shear Modulus (GPa) = 21.06379 30.81164 25.93772
#
# Velocity S-wave (km/s) = 3.08026 3.72543 3.41810
# Velocity P-wave (km/s) = 4.92646 6.10912 5.54939
#
# Compressibility (1/GPa) = 0.03876631
#
# Stress axis : x y z
#
# Youngs Moduli (GPa) = 73.45960 49.80145 36.69714
#
# Poissons Ratio (x) = 0.22304 -0.03420
# Poissons Ratio (y) = 0.32900 0.27675
# Poissons Ratio (z) = -0.06845 0.37557
#
# Static dielectric constant tensor:
#      x y z
#    x 1.856330 -0.034130 -0.026330 
#    y -0.034130 1.820750 0.048400 
#    z -0.026330 0.048400 1.895600 
# 
# From -- ./inp_files/174527.got.cif
#   From: 2010.05.17/outbox.cif.g08.bks.cpg/sg2_88_cif.got.tgz:174527.got - 2010.06.03 11:33:40.
