data_PCOD9038469
_publ_section_title
;
Structure prediction by ZEFSAII (Michael W. Deem and Ramdas Pophale) SiO2 
 PCOD9038469
Probable space group: P -1
;
_chemical_formula_sum "Si O2"
_cell_formula_units_Z 16
_cell_length_a 14.697325
_cell_length_b 10.136907
_cell_length_c 16.255472
_cell_angle_alpha 144.433805
_cell_angle_beta 147.748050
_cell_angle_gamma 38.239681
_cell_volume 713.669075
_symmetry_space_group_name_H-M "P -1"
_symmetry_group_IT_number 2
_symmetry_cell_setting 'triclinic'
loop_
_space_group_symop_operation_xyz
x,y,z
-x,-y,-z
loop_
_atom_site_type_symbol
_atom_site_label
_atom_site_fract_x
_atom_site_fract_y
_atom_site_fract_z
Si Si1 0.300642 0.982639 0.343597
Si Si2 0.433584 0.644417 0.132836
Si Si3 0.844069 0.517489 0.454978
Si Si4 0.667394 0.287321 0.486621
Si Si5 0.851538 0.289187 0.785782
Si Si6 0.840949 0.127691 0.380599
Si Si7 0.535004 0.853882 0.155580
Si Si8 0.234393 0.169381 0.967731
O O1 0.300466 0.804731 0.179348
O O2 0.258616 0.865677 0.335606
O O3 0.500000 0.000000 0.500000
O O4 0.173729 0.253364 0.384958
O O5 0.644171 0.557499 0.282087
O O6 0.434701 0.804394 0.134897
O O7 0.379794 0.411554 0.949578
O O8 0.892285 0.283184 0.428518
O O9 0.000000 0.500000 0.500000
O O10 0.500000 0.500000 0.500000
O O11 0.823776 0.310327 0.676977
O O12 0.695835 0.303597 0.419599
O O13 0.652600 0.022737 0.354479
O O14 0.063666 0.166982 0.892195
O O15 0.783779 0.552221 0.906058
O O16 0.770257 0.940854 0.181592
O O17 0.000000 0.000000 0.500000
O O18 0.404954 0.009494 0.065943
#
# Coordination Sequence:
#
# PCOD9038469 Si02
#       8
#     2   2   2   2   2   2   2   2
#     4  10  23  41  69  98 138 181 243 283 347 422
#     4  10  24  43  68  99 139 186 241 288 351 427
#     4  11  24  44  75  99 142 188 233 292 360 420
#     4  12  26  41  71 104 143 182 235 296 358 415
#     4  11  24  45  71 104 144 189 231 298 362 424
#     4  12  27  45  72 109 142 185 242 287 354 433
#     4  11  24  43  71  98 143 184 240 293 360 418
#     4  11  24  46  71 100 146 185 231 300 363 423
#
# _framework density 22.419354999999999
#
# number of rings (size 3 to 8) (size 9 to 14) (size 15 to 20)
#    0.000    1.000    3.750    2.250    8.750    0.500 
#    0.000    0.625    0.000    0.000    0.000    0.000 
#    0.000    0.000    0.000    0.000    0.000    0.000 
#
# Total GULP energy -89436.754739 kJ/mol
# GULP energy per Si atom -5589.797171 kJ/mol
# Density = 2.236833 g / cm^3
# Si number density = 22.419355 Si / 1000 Ang^3
#
#
#
# Elastic Constant Matrix: (Units=GPa)
#
#
# Indices 1 2 3 4 5 6 
#
# 1 49.6093 21.5963 33.8938 20.5049 -0.6267 4.5340
# 2 21.5963 62.4590 30.8585 8.4466 -5.9179 1.6798
# 3 33.8938 30.8585 101.4024 18.0763 -28.3943 0.8039
# 4 20.5049 8.4466 18.0763 38.8594 -0.3552 -3.6459
# 5 -0.6267 -5.9179 -28.3943 -0.3552 41.2389 6.9211
# 6 4.5340 1.6798 0.8039 -3.6459 6.9211 34.7497
#
#
#
# Elastic Compliance Matrix: (Units=1/GPa)
#
#
# Indices 1 2 3 4 5 6 
#
# 1 0.034840 -0.006248 -0.009016 -0.013284 -0.005978 -0.004238
# 2 -0.006248 0.020127 -0.004231 0.000894 -0.000122 0.000058
# 3 -0.009016 -0.004231 0.018001 -0.002747 0.011911 -0.001696
# 4 -0.013284 0.000894 -0.002747 0.034355 -0.002657 0.005887
# 5 -0.005978 -0.000122 0.011911 -0.002657 0.033397 -0.006420
# 6 -0.004238 0.000058 -0.001696 0.005887 -0.006420 0.031263
#
#
# Mechanical properties :
#
#
# Convention : Reuss Voigt Hill
#
# Bulk Modulus (GPa) = 29.43014 42.90754 36.16884
# Shear Modulus (GPa) = 22.49229 31.44441 26.96835
#
# Velocity S-wave (km/s) = 3.17085 3.74914 3.47205
# Velocity P-wave (km/s) = 5.15377 6.15804 5.67815
#
# Compressibility (1/GPa) = 0.03397877
#
# Stress axis : x y z
#
# Youngs Moduli (GPa) = 28.70263 49.68459 55.55157
#
# Poissons Ratio (x) = 0.31043 0.50087
# Poissons Ratio (y) = 0.17933 0.23501
# Poissons Ratio (z) = 0.25879 0.21019
#
# Static dielectric constant tensor:
#      x y z
#    x 3.107910 -2.162890 -0.179050 
#    y -2.162890 5.469740 0.324280 
#    z -0.179050 0.324280 1.915610 
# 
# From -- ./inp_files/279127.got.cif
#   From: 2010.05.17/outbox.cif.g08.bks.cpg/sg2_140_cif.got.tgz:279127.got - 2010.06.03 11:33:40.
