data_PCOD9038229
_publ_section_title
;
Structure prediction by ZEFSAII (Michael W. Deem and Ramdas Pophale) SiO2 
 PCOD9038229
Probable space group: P -1
;
_chemical_formula_sum "Si O2"
_cell_formula_units_Z 16
_cell_length_a 15.986445
_cell_length_b 5.656103
_cell_length_c 9.017935
_cell_angle_alpha 85.288006
_cell_angle_beta 116.193559
_cell_angle_gamma 74.798154
_cell_volume 687.385611
_symmetry_space_group_name_H-M "P -1"
_symmetry_group_IT_number 2
_symmetry_cell_setting 'triclinic'
loop_
_space_group_symop_operation_xyz
x,y,z
-x,-y,-z
loop_
_atom_site_type_symbol
_atom_site_label
_atom_site_fract_x
_atom_site_fract_y
_atom_site_fract_z
Si Si1 0.993715 0.008511 0.744163
Si Si2 0.492368 0.263881 0.406323
Si Si3 0.916964 0.769189 0.451534
Si Si4 0.084514 0.626040 0.090214
Si Si5 0.596580 0.446670 0.253789
Si Si6 0.721411 0.460308 0.907456
Si Si7 0.392940 0.827455 0.034360
Si Si8 0.726538 0.664221 0.214062
O O1 0.930598 0.265358 0.761557
O O2 0.061354 0.050874 0.664395
O O3 0.928449 0.866508 0.618879
O O4 0.057944 0.848199 0.935167
O O5 0.500000 0.500000 0.500000
O O6 0.579466 0.240013 0.357200
O O7 0.387350 0.354035 0.233231
O O8 0.500000 0.000000 0.500000
O O9 0.810224 0.761133 0.335122
O O10 0.000000 0.500000 0.500000
O O11 0.200155 0.501214 0.149768
O O12 0.000000 0.500000 0.000000
O O13 0.601905 0.351545 0.093977
O O14 0.694419 0.519015 0.329048
O O15 0.501864 0.699124 0.192328
O O16 0.692714 0.204199 0.922459
O O17 0.760550 0.508896 0.096980
O O18 0.365290 0.102787 0.931281
#
# Coordination Sequence:
#
# PCOD9038229 Si02
#       8
#     2   2   2   2   2   2   2   2
#     4  10  23  41  67  94 138 179 227 287 348 412
#     4  11  27  49  67  98 144 194 228 289 352 426
#     4  11  23  43  64  97 139 176 224 291 347 410
#     4  11  22  44  67  98 133 178 233 283 346 417
#     4   9  21  39  64  96 126 165 225 284 338 412
#     4  10  23  41  67  96 129 178 234 284 354 421
#     4   9  19  38  65  94 122 163 219 293 339 397
#     4  11  21  37  72  96 124 173 226 293 349 413
#
# _framework density 23.276599000000001
#
# number of rings (size 3 to 8) (size 9 to 14) (size 15 to 20)
#    0.000    1.750    0.000    4.125    5.250    4.000 
#    6.750    0.000    0.000    0.000    0.000    0.000 
#    0.000    0.000    0.000    0.000    0.000    0.000 
#
# Total GULP energy -89291.559055 kJ/mol
# GULP energy per Si atom -5580.722441 kJ/mol
# Density = 2.322362 g / cm^3
# Si number density = 23.276599 Si / 1000 Ang^3
#
#
#
# Elastic Constant Matrix: (Units=GPa)
#
#
# Indices 1 2 3 4 5 6 
#
# 1 128.1365 27.0040 26.0659 15.3880 -13.0110 23.9377
# 2 27.0040 71.7565 23.8587 7.9787 0.1299 10.0171
# 3 26.0659 23.8587 83.1825 13.3751 1.4648 10.5564
# 4 15.3880 7.9787 13.3751 50.2942 11.8012 -7.7269
# 5 -13.0110 0.1299 1.4648 11.8012 17.5716 -0.0031
# 6 23.9377 10.0171 10.5564 -7.7269 -0.0031 31.7663
#
#
#
# Elastic Compliance Matrix: (Units=1/GPa)
#
#
# Indices 1 2 3 4 5 6 
#
# 1 0.013194 -0.002138 -0.000967 -0.008856 0.015812 -0.011100
# 2 -0.002138 0.016425 -0.003471 -0.001326 -0.000526 -0.002737
# 3 -0.000967 -0.003471 0.014398 -0.003719 0.000606 -0.003866
# 4 -0.008856 -0.001326 -0.003719 0.032959 -0.028370 0.016341
# 5 0.015812 -0.000526 0.000606 -0.028370 0.087622 -0.018843
# 6 -0.011100 -0.002737 -0.003866 0.016341 -0.018843 0.045965
#
#
# Mechanical properties :
#
#
# Convention : Reuss Voigt Hill
#
# Bulk Modulus (GPa) = 32.39980 48.54806 40.47393
# Shear Modulus (GPa) = 21.36703 33.66954 27.51829
#
# Velocity S-wave (km/s) = 3.03308 3.80741 3.44209
# Velocity P-wave (km/s) = 5.12013 6.34278 5.76396
#
# Compressibility (1/GPa) = 0.03086439
#
# Stress axis : x y z
#
# Youngs Moduli (GPa) = 75.79135 60.88149 69.45253
#
# Poissons Ratio (x) = 0.13018 0.06717
# Poissons Ratio (y) = 0.16206 0.24110
# Poissons Ratio (z) = 0.07330 0.21134
#
# Static dielectric constant tensor:
#      x y z
#    x 1.925550 -0.015850 -0.019520 
#    y -0.015850 1.972250 -0.001980 
#    z -0.019520 -0.001980 1.887080 
# 
# From -- ./inp_files/288676.got.cif
#   From: 2010.05.17/outbox.cif.g08.bks.cpg/sg2_145_cif.got.tgz:288676.got - 2010.06.03 11:33:40.
