data_PCOD9038042
_publ_section_title
;
Structure prediction by ZEFSAII (Michael W. Deem and Ramdas Pophale) SiO2 
 PCOD9038042
Probable space group: P -1
;
_chemical_formula_sum "Si O2"
_cell_formula_units_Z 16
_cell_length_a 11.052476
_cell_length_b 12.390210
_cell_length_c 10.887409
_cell_angle_alpha 34.452375
_cell_angle_beta 105.233015
_cell_angle_gamma 121.390251
_cell_volume 675.722773
_symmetry_space_group_name_H-M "P -1"
_symmetry_group_IT_number 2
_symmetry_cell_setting 'triclinic'
loop_
_space_group_symop_operation_xyz
x,y,z
-x,-y,-z
loop_
_atom_site_type_symbol
_atom_site_label
_atom_site_fract_x
_atom_site_fract_y
_atom_site_fract_z
Si Si1 0.168808 0.883089 0.465025
Si Si2 0.497849 0.215878 0.984572
Si Si3 0.121515 0.231346 0.388519
Si Si4 0.187776 0.806415 0.261299
Si Si5 0.666203 0.604870 0.505947
Si Si6 0.683766 0.316716 0.151424
Si Si7 0.872705 0.676083 0.281959
Si Si8 0.669227 0.615928 0.058932
O O1 0.196142 0.819522 0.398592
O O2 0.235646 0.796075 0.663491
O O3 0.991100 0.757511 0.557869
O O4 0.253631 0.158362 0.219017
O O5 0.559012 0.145659 0.180301
O O6 0.352149 0.010113 0.072522
O O7 0.629860 0.369803 0.779987
O O8 0.448315 0.371345 0.896109
O O9 0.247191 0.228584 0.508592
O O10 0.201689 0.448539 0.114131
O O11 0.000000 0.000000 0.500000
O O12 0.151642 0.560055 0.452679
O O13 0.052579 0.836152 0.166514
O O14 0.500000 0.500000 0.500000
O O15 0.782523 0.715862 0.322418
O O16 0.616300 0.396848 0.165178
O O17 0.794831 0.644277 0.160238
#
# Coordination Sequence:
#
# PCOD9038042 Si02
#       8
#     2   2   2   2   2   2   2   2
#     4  11  22  41  66  97 131 179 225 282 334 405
#     4  10  24  42  63  99 137 175 224 281 347 408
#     4  11  23  44  68 100 137 182 231 277 347 415
#     4  10  23  41  66 100 130 178 228 276 346 401
#     4  11  23  43  68  99 140 179 223 286 345 407
#     4  11  23  43  65  96 140 175 229 284 339 405
#     4  11  22  43  70  95 137 176 229 282 334 417
#     4  11  22  39  67  96 129 176 227 273 340 397
#
# _framework density 23.678350999999999
#
# number of rings (size 3 to 8) (size 9 to 14) (size 15 to 20)
#    0.000    1.250    5.000    0.750    0.000    5.500 
#    4.500    0.000    0.000    0.000    0.000    0.000 
#    0.000    0.000    0.000    0.000    0.000    0.000 
#
# Total GULP energy -89313.068376 kJ/mol
# GULP energy per Si atom -5582.066773 kJ/mol
# Density = 2.362446 g / cm^3
# Si number density = 23.678351 Si / 1000 Ang^3
#
#
#
# Elastic Constant Matrix: (Units=GPa)
#
#
# Indices 1 2 3 4 5 6 
#
# 1 55.5117 15.3279 40.1089 -7.9101 -7.4749 21.1115
# 2 15.3279 115.3347 34.4497 15.1711 9.1111 34.5084
# 3 40.1089 34.4497 97.3919 8.9389 -3.0707 9.6193
# 4 -7.9101 15.1711 8.9389 36.4646 20.4548 5.3191
# 5 -7.4749 9.1111 -3.0707 20.4548 34.2197 7.9340
# 6 21.1115 34.5084 9.6193 5.3191 7.9340 35.2111
#
#
#
# Elastic Compliance Matrix: (Units=1/GPa)
#
#
# Indices 1 2 3 4 5 6 
#
# 1 0.043786 0.006904 -0.018337 0.012342 0.005940 -0.031212
# 2 0.006904 0.014798 -0.006151 -0.001814 0.002078 -0.017156
# 3 -0.018337 -0.006151 0.019655 -0.009173 0.001958 0.012598
# 4 0.012342 -0.001814 -0.009173 0.047927 -0.025209 -0.004675
# 5 0.005940 0.002078 0.001958 -0.025209 0.048272 -0.013202
# 6 -0.031212 -0.017156 0.012598 -0.004675 -0.013202 0.064167
#
#
# Mechanical properties :
#
#
# Convention : Reuss Voigt Hill
#
# Bulk Modulus (GPa) = 23.21803 49.77902 36.49852
# Shear Modulus (GPa) = 17.35333 33.06921 25.21127
#
# Velocity S-wave (km/s) = 2.71011 3.74117 3.26657
# Velocity P-wave (km/s) = 4.42942 6.30321 5.44749
#
# Compressibility (1/GPa) = 0.04306998
#
# Stress axis : x y z
#
# Youngs Moduli (GPa) = 22.83855 67.57848 50.87847
#
# Poissons Ratio (x) = -0.46657 0.93296
# Poissons Ratio (y) = -0.15768 0.31296
# Poissons Ratio (z) = 0.41879 0.41568
#
# Static dielectric constant tensor:
#      x y z
#    x 1.969510 -0.013610 0.016190 
#    y -0.013610 1.997050 -0.039810 
#    z 0.016190 -0.039810 1.907170 
# 
# From -- ./inp_files/432319.got.cif
#   From: 2010.05.17/outbox.cif.g08.bks.cpg/sg2_217_cif.got.tgz:432319.got - 2010.06.03 11:33:40.
