data_PCOD9038385
_publ_section_title
;
Structure prediction by ZEFSAII (Michael W. Deem and Ramdas Pophale) SiO2 
 PCOD9038385
Probable space group: P -1
;
_chemical_formula_sum "Si O2"
_cell_formula_units_Z 16
_cell_length_a 17.183159
_cell_length_b 8.387332
_cell_length_c 5.567372
_cell_angle_alpha 95.787260
_cell_angle_beta 86.552929
_cell_angle_gamma 129.747371
_cell_volume 613.768300
_symmetry_space_group_name_H-M "P -1"
_symmetry_group_IT_number 2
_symmetry_cell_setting 'triclinic'
loop_
_space_group_symop_operation_xyz
x,y,z
-x,-y,-z
loop_
_atom_site_type_symbol
_atom_site_label
_atom_site_fract_x
_atom_site_fract_y
_atom_site_fract_z
Si Si1 0.907020 0.793500 0.613915
Si Si2 0.721103 0.113383 0.613251
Si Si3 0.378960 0.729002 0.960334
Si Si4 0.835029 0.506018 0.978170
Si Si5 0.602856 0.578288 0.221812
Si Si6 0.716340 0.767665 0.732407
Si Si7 0.460513 0.144162 0.739697
Si Si8 0.905738 0.435886 0.353171
O O1 0.909649 0.730823 0.878274
O O2 0.814002 0.793236 0.645768
O O3 0.894887 0.611166 0.444271
O O4 0.000000 0.000000 0.500000
O O5 0.762349 0.325143 0.766698
O O6 0.806580 0.204686 0.405394
O O7 0.732629 0.979378 0.766505
O O8 0.611427 0.976904 0.494483
O O9 0.438041 0.658104 0.807371
O O10 0.408668 0.946545 0.902969
O O11 0.262229 0.550559 0.873923
O O12 0.422835 0.753618 0.225922
O O13 0.900172 0.449487 0.071785
O O14 0.644402 0.654078 0.495409
O O15 0.544569 0.669566 0.197072
O O16 0.677992 0.672718 0.990706
O O17 0.000000 0.500000 0.500000
#
# Coordination Sequence:
#
# PCOD9038385 Si02
#       8
#     2   2   2   2   2   2   2   2
#     4  11  25  44  66 101 139 182 246 299 377 443
#     4  10  23  41  68  99 145 181 243 297 364 435
#     4  11  21  42  72 103 150 191 248 301 367 432
#     4  11  23  43  72  98 140 194 236 309 369 444
#     4  11  24  45  70 103 152 195 248 300 372 430
#     4  11  24  44  71 103 143 198 236 307 367 441
#     4  10  23  41  70 111 142 196 245 301 359 448
#     4  11  24  45  69 100 137 181 241 304 378 445
#
# _framework density 26.068472
#
# number of rings (size 3 to 8) (size 9 to 14) (size 15 to 20)
#    0.000    1.250    2.500    2.625    3.500    3.000 
#    2.250    8.125    0.000    0.000    0.000    0.000 
#    0.000    0.000    0.000    0.000    0.000    0.000 
#
# Total GULP energy -89212.868623 kJ/mol
# GULP energy per Si atom -5575.804289 kJ/mol
# Density = 2.600914 g / cm^3
# Si number density = 26.068472 Si / 1000 Ang^3
#
#
#
# Elastic Constant Matrix: (Units=GPa)
#
#
# Indices 1 2 3 4 5 6 
#
# 1 182.4195 53.2732 64.5255 -1.4358 32.9750 3.5020
# 2 53.2732 137.4766 45.6740 -23.8590 3.2164 -9.1290
# 3 64.5255 45.6740 76.3414 -15.7338 28.6864 14.1797
# 4 -1.4358 -23.8590 -15.7338 49.7772 -10.8190 -8.0696
# 5 32.9750 3.2164 28.6864 -10.8190 48.3412 3.1958
# 6 3.5020 -9.1290 14.1797 -8.0696 3.1958 45.5895
#
#
#
# Elastic Compliance Matrix: (Units=1/GPa)
#
#
# Indices 1 2 3 4 5 6 
#
# 1 0.008549 -0.001856 -0.005672 -0.003031 -0.003048 0.000413
# 2 -0.001856 0.011587 -0.007414 0.005259 0.005721 0.005299
# 3 -0.005672 -0.007414 0.028682 0.001347 -0.011768 -0.008907
# 4 -0.003031 0.005259 0.001347 0.025089 0.006211 0.004872
# 5 -0.003048 0.005721 -0.011768 0.006211 0.030494 0.004002
# 6 0.000413 0.005299 -0.008907 0.004872 0.004002 0.026316
#
#
# Mechanical properties :
#
#
# Convention : Reuss Voigt Hill
#
# Bulk Modulus (GPa) = 52.80914 80.35365 66.58139
# Shear Modulus (GPa) = 29.95585 44.25922 37.10754
#
# Velocity S-wave (km/s) = 3.39355 4.12491 3.77698
# Velocity P-wave (km/s) = 5.97133 7.31967 6.67961
#
# Compressibility (1/GPa) = 0.01893612
#
# Stress axis : x y z
#
# Youngs Moduli (GPa) = 116.96855 86.30371 34.86463
#
# Poissons Ratio (x) = 0.16018 0.19774
# Poissons Ratio (y) = 0.21709 0.25847
# Poissons Ratio (z) = 0.66340 0.63983
#
# Static dielectric constant tensor:
#      x y z
#    x 2.180040 0.076640 -0.190710 
#    y 0.076640 2.131910 -0.078270 
#    z -0.190710 -0.078270 2.536950 
# 
# From -- ./inp_files/106949.got.cif
#   From: 2010.05.17/outbox.cif.g08.bks.cpg/sg2_54_cif.got.tgz:106949.got - 2010.06.03 11:33:40.
