data_PCOD9038968
_publ_section_title
;
Structure prediction by ZEFSAII (Michael W. Deem and Ramdas Pophale) SiO2 
 PCOD9038968
Probable space group: P -1
;
_chemical_formula_sum "Si O2"
_cell_formula_units_Z 14
_cell_length_a 9.469362
_cell_length_b 22.658557
_cell_length_c 19.310328
_cell_angle_alpha 17.064042
_cell_angle_beta 145.431986
_cell_angle_gamma 143.966773
_cell_volume 684.064852
_symmetry_space_group_name_H-M "P -1"
_symmetry_group_IT_number 2
_symmetry_cell_setting 'triclinic'
loop_
_space_group_symop_operation_xyz
x,y,z
-x,-y,-z
loop_
_atom_site_type_symbol
_atom_site_label
_atom_site_fract_x
_atom_site_fract_y
_atom_site_fract_z
Si Si1 0.797424 0.026888 0.599054
Si Si2 0.108015 0.365178 0.835984
Si Si3 0.551407 0.232881 0.781311
Si Si4 0.603164 0.458012 0.848555
Si Si5 0.226024 0.553881 0.809912
Si Si6 0.997710 0.840811 0.613628
Si Si7 0.702316 0.419399 0.772617
O O1 0.832595 0.237381 0.417124
O O2 0.940560 0.051379 0.556363
O O3 0.500000 0.000000 0.500000
O O4 0.863117 0.843412 0.877978
O O5 0.317925 0.405805 0.817191
O O6 0.187404 0.540384 0.727675
O O7 0.811270 0.340700 0.730495
O O8 0.584247 0.256279 0.851507
O O9 0.342904 0.369014 0.519782
O O10 0.500000 0.000000 0.000000
O O11 0.603000 0.430691 0.796715
O O12 0.744751 0.678325 0.683672
O O13 0.776657 0.296194 0.130027
O O14 0.996966 0.399400 0.920788
O O15 0.500000 0.500000 0.000000
O O16 0.000000 0.000000 0.500000
#
# Coordination Sequence:
#
# PCOD9038968 Si02
#       7
#     2   2   2   2   2   2   2
#     4  12  22  38  58  93 128 168 214 250 300 392
#     4  11  25  39  67  94 126 168 218 261 319 376
#     4  10  23  45  68  91 118 172 222 267 315 378
#     4  11  24  42  59  98 134 165 210 269 315 386
#     4  11  21  37  63  91 127 170 201 257 315 380
#     4  11  26  38  60  92 139 176 204 249 327 384
#     4  10  23  42  65  90 127 167 215 262 319 376
#
# _framework density 20.465896999999998
#
# number of rings (size 3 to 8) (size 9 to 14) (size 15 to 20)
#    0.000    1.143    4.286    0.857    8.000    0.571 
#    0.000    0.714    0.000    0.000    0.000    0.000 
#    0.000    0.000    0.000    0.000    0.000    0.000 
#
# Total GULP energy -78151.005986 kJ/mol
# GULP energy per Si atom -5582.214713 kJ/mol
# Density = 2.041932 g / cm^3
# Si number density = 20.465897 Si / 1000 Ang^3
#
#
#
# Elastic Constant Matrix: (Units=GPa)
#
#
# Indices 1 2 3 4 5 6 
#
# 1 172.3357 70.3848 24.3927 -11.7798 -0.7527 -9.3055
# 2 70.3848 139.8930 39.3368 -15.1254 10.7849 -1.7487
# 3 24.3927 39.3368 74.8660 -14.3095 9.4809 -10.4578
# 4 -11.7798 -15.1254 -14.3095 34.4257 -4.1005 20.2446
# 5 -0.7527 10.7849 9.4809 -4.1005 29.1694 0.0104
# 6 -9.3055 -1.7487 -10.4578 20.2446 0.0104 43.8577
#
#
#
# Elastic Compliance Matrix: (Units=1/GPa)
#
#
# Indices 1 2 3 4 5 6 
#
# 1 0.007481 -0.003723 -0.000493 0.000208 0.001759 0.001225
# 2 -0.003723 0.010581 -0.003839 0.003098 -0.002324 -0.002713
# 3 -0.000493 -0.003839 0.016963 0.003482 -0.003618 0.002181
# 4 0.000208 0.003098 0.003482 0.043652 0.003871 -0.019152
# 5 0.001759 -0.002324 -0.003618 0.003871 0.036908 -0.002378
# 6 0.001225 -0.002713 0.002181 -0.019152 -0.002378 0.032314
#
#
# Mechanical properties :
#
#
# Convention : Reuss Voigt Hill
#
# Bulk Modulus (GPa) = 52.86786 72.81371 62.84079
# Shear Modulus (GPa) = 29.35725 38.35590 33.85658
#
# Velocity S-wave (km/s) = 3.79152 4.33383 4.07171
# Velocity P-wave (km/s) = 6.71236 7.79090 7.27165
#
# Compressibility (1/GPa) = 0.01891508
#
# Stress axis : x y z
#
# Youngs Moduli (GPa) = 133.67148 94.50672 58.95019
#
# Poissons Ratio (x) = 0.35185 0.02907
# Poissons Ratio (y) = 0.49766 0.22632
# Poissons Ratio (z) = 0.06591 0.36283
#
# Static dielectric constant tensor:
#      x y z
#    x 1.824730 -0.113390 0.173120 
#    y -0.113390 2.015820 -0.369270 
#    z 0.173120 -0.369270 2.227800 
# 
# From -- ./inp_files/181015.got.cif
#   From: 2010.05.17/outbox.cif.g08.bks.cpg/sg2_91_cif.got.tgz:181015.got - 2010.06.03 11:33:40.
