data_PCOD9038187
_publ_section_title
;
Structure prediction by ZEFSAII (Michael W. Deem and Ramdas Pophale) SiO2 
 PCOD9038187
Probable space group: P -1
;
_chemical_formula_sum "Si O2"
_cell_formula_units_Z 16
_cell_length_a 8.958526
_cell_length_b 5.036233
_cell_length_c 21.857865
_cell_angle_alpha 117.703703
_cell_angle_beta 54.440477
_cell_angle_gamma 86.055052
_cell_volume 626.612475
_symmetry_space_group_name_H-M "P -1"
_symmetry_group_IT_number 2
_symmetry_cell_setting 'triclinic'
loop_
_space_group_symop_operation_xyz
x,y,z
-x,-y,-z
loop_
_atom_site_type_symbol
_atom_site_label
_atom_site_fract_x
_atom_site_fract_y
_atom_site_fract_z
Si Si1 0.725496 0.219561 0.938061
Si Si2 0.216894 0.128469 0.424785
Si Si3 0.546130 0.441766 0.553880
Si Si4 0.653480 0.558546 0.241386
Si Si5 0.699574 0.684906 0.816864
Si Si6 0.431453 0.334886 0.869521
Si Si7 0.167052 0.961796 0.762143
Si Si8 0.963370 0.819283 0.401181
O O1 0.717910 0.869288 0.893260
O O2 0.500000 0.500000 0.000000
O O3 0.740737 0.367125 0.015659
O O4 0.920951 0.144009 0.841209
O O5 0.336618 0.356024 0.422060
O O6 0.049118 0.271837 0.534918
O O7 0.417040 0.753254 0.343415
O O8 0.087709 0.042071 0.395312
O O9 0.500000 0.500000 0.500000
O O10 0.317078 0.605323 0.655355
O O11 0.719354 0.050759 0.472942
O O12 0.643181 0.622146 0.177794
O O13 0.767326 0.176627 0.198224
O O14 0.770711 0.772612 0.254940
O O15 0.619738 0.424958 0.828086
O O16 0.910094 0.489925 0.707057
O O17 0.528037 0.972934 0.842960
#
# Coordination Sequence:
#
# PCOD9038187 Si02
#       8
#     2   2   2   2   2   2   2   2
#     4  10  26  49  74 102 144 182 247 299 361 426
#     4  10  23  41  67 103 141 192 236 294 341 432
#     4  11  26  43  68 104 152 190 238 289 365 434
#     4  11  23  45  71 102 150 178 240 284 362 420
#     4  11  25  42  73 105 143 182 241 293 357 418
#     4  11  24  45  72 107 137 187 235 305 352 415
#     4  11  26  46  70 104 142 191 227 301 356 427
#     4  11  23  41  72 101 142 192 241 288 351 421
#
# _framework density 25.534120999999999
#
# number of rings (size 3 to 8) (size 9 to 14) (size 15 to 20)
#    0.000    1.250    2.500    1.500    3.500    9.500 
#    0.000    0.000    0.000    0.000    0.000    0.000 
#    0.000    0.000    0.000    0.000    0.000    0.000 
#
# Total GULP energy -89305.110201 kJ/mol
# GULP energy per Si atom -5581.569388 kJ/mol
# Density = 2.547600 g / cm^3
# Si number density = 25.534121 Si / 1000 Ang^3
#
#
#
# Elastic Constant Matrix: (Units=GPa)
#
#
# Indices 1 2 3 4 5 6 
#
# 1 46.9537 25.2483 40.1848 7.9957 -16.2418 -7.6686
# 2 25.2483 99.1304 19.7072 -1.0885 -4.3523 -1.4369
# 3 40.1848 19.7072 199.5619 13.6009 -12.3997 -4.4228
# 4 7.9957 -1.0885 13.6009 31.4599 4.3998 -5.9914
# 5 -16.2418 -4.3523 -12.3997 4.3998 41.1836 -4.7954
# 6 -7.6686 -1.4369 -4.4228 -5.9914 -4.7954 26.9383
#
#
#
# Elastic Compliance Matrix: (Units=1/GPa)
#
#
# Indices 1 2 3 4 5 6 
#
# 1 0.038171 -0.007972 -0.005224 -0.007779 0.014688 0.010468
# 2 -0.007972 0.012008 0.000078 0.002446 -0.002285 -0.001479
# 3 -0.005224 0.000078 0.006127 -0.001455 -0.000148 -0.000827
# 4 -0.007779 0.002446 -0.001455 0.036269 -0.006590 0.004571
# 5 0.014688 -0.002285 -0.000148 -0.006590 0.031443 0.008167
# 6 0.010468 -0.001479 -0.000827 0.004571 0.008167 0.042357
#
#
# Mechanical properties :
#
#
# Convention : Reuss Voigt Hill
#
# Bulk Modulus (GPa) = 33.25716 57.32516 45.29116
# Shear Modulus (GPa) = 24.67497 37.28341 30.97919
#
# Velocity S-wave (km/s) = 3.11199 3.82532 3.48695
# Velocity P-wave (km/s) = 5.09564 6.48151 5.82990
#
# Compressibility (1/GPa) = 0.03006871
#
# Stress axis : x y z
#
# Youngs Moduli (GPa) = 26.19818 83.27917 163.21578
#
# Poissons Ratio (x) = 0.66392 0.85266
# Poissons Ratio (y) = 0.20886 -0.01274
# Poissons Ratio (z) = 0.13686 -0.00650
#
# Static dielectric constant tensor:
#      x y z
#    x 2.203180 -0.052170 0.077570 
#    y -0.052170 2.105350 -0.022060 
#    z 0.077570 -0.022060 1.995180 
# 
# From -- ./inp_files/605898.got.cif
#   From: 2010.05.17/outbox.cif.g08.bks.cpg/sg2_303_cif.got.tgz:605898.got - 2010.06.03 11:33:40.
