data_PCOD9038299
_publ_section_title
;
Structure prediction by ZEFSAII (Michael W. Deem and Ramdas Pophale) SiO2 
 PCOD9038299
Probable space group: P -1
;
_chemical_formula_sum "Si O2"
_cell_formula_units_Z 12
_cell_length_a 8.929985
_cell_length_b 9.622842
_cell_length_c 9.986850
_cell_angle_alpha 127.482591
_cell_angle_beta 108.102076
_cell_angle_gamma 47.307753
_cell_volume 492.844532
_symmetry_space_group_name_H-M "P -1"
_symmetry_group_IT_number 2
_symmetry_cell_setting 'triclinic'
loop_
_space_group_symop_operation_xyz
x,y,z
-x,-y,-z
loop_
_atom_site_type_symbol
_atom_site_label
_atom_site_fract_x
_atom_site_fract_y
_atom_site_fract_z
Si Si1 0.691832 0.110067 0.954527
Si Si2 0.280943 0.994565 0.804095
Si Si3 0.879585 0.355442 0.204952
Si Si4 0.762615 0.583515 0.032656
Si Si5 0.507740 0.179471 0.529352
Si Si6 0.884755 0.141765 0.685111
O O1 0.777577 0.244768 0.066252
O O2 0.624003 0.099251 0.079110
O O3 0.480058 0.253462 0.900695
O O4 0.884219 0.852322 0.809166
O O5 0.201981 0.249342 0.914593
O O6 0.083305 0.004500 0.758518
O O7 0.417727 0.873526 0.637166
O O8 0.879676 0.470257 0.137982
O O9 0.716560 0.566678 0.380018
O O10 0.802078 0.398710 0.830387
O O11 0.684945 0.164066 0.646551
O O12 0.500000 0.000000 0.500000
O O13 0.000000 0.000000 0.500000
#
# Coordination Sequence:
#
# PCOD9038299 Si02
#       6
#     2   2   2   2   2   2
#     4  11  25  41  69 107 135 187 233 282 346 413
#     4  11  24  44  70 103 141 179 237 279 346 418
#     4  11  24  43  69  99 147 176 235 283 349 404
#     4  12  22  44  72  97 141 188 227 283 342 419
#     4  11  23  44  72 105 136 186 233 287 348 410
#     4  10  23  41  68 101 136 184 224 282 349 405
#
# _framework density 24.348448999999999
#
# number of rings (size 3 to 8) (size 9 to 14) (size 15 to 20)
#    0.000    1.000    5.000    1.500    0.000    0.667 
#    0.000    0.833    0.000    0.000    0.000    0.000 
#    0.000    0.000    0.000    0.000    0.000    0.000 
#
# Total GULP energy -67090.252269 kJ/mol
# GULP energy per Si atom -5590.854356 kJ/mol
# Density = 2.429303 g / cm^3
# Si number density = 24.348449 Si / 1000 Ang^3
#
#
#
# Elastic Constant Matrix: (Units=GPa)
#
#
# Indices 1 2 3 4 5 6 
#
# 1 126.4590 14.8345 61.4716 4.2881 -27.6749 -4.9420
# 2 14.8345 47.2247 30.9142 21.1790 -28.6832 -1.5356
# 3 61.4716 30.9142 160.3497 17.9095 -41.4216 -3.4578
# 4 4.2881 21.1790 17.9095 30.2530 -5.4015 -19.5922
# 5 -27.6749 -28.6832 -41.4216 -5.4015 50.3747 -2.0310
# 6 -4.9420 -1.5356 -3.4578 -19.5922 -2.0310 38.5947
#
#
#
# Elastic Compliance Matrix: (Units=1/GPa)
#
#
# Indices 1 2 3 4 5 6 
#
# 1 0.010264 -0.000597 -0.003351 0.003321 0.003014 0.002835
# 2 -0.000597 0.061334 0.001386 -0.053454 0.029071 -0.023118
# 3 -0.003351 0.001386 0.009479 -0.006767 0.005910 -0.002649
# 4 0.003321 -0.053454 -0.006767 0.101259 -0.021385 0.047970
# 5 0.003014 0.029071 0.005910 -0.021385 0.040358 -0.006660
# 6 0.002835 -0.023118 -0.002649 0.047970 -0.006660 0.049117
#
#
# Mechanical properties :
#
#
# Convention : Reuss Voigt Hill
#
# Bulk Modulus (GPa) = 13.16618 60.94154 37.05386
# Shear Modulus (GPa) = 16.54237 38.96536 27.75386
#
# Velocity S-wave (km/s) = 2.60936 4.00474 3.37985
# Velocity P-wave (km/s) = 3.80756 6.81669 5.52108
#
# Compressibility (1/GPa) = 0.07595216
#
# Stress axis : x y z
#
# Youngs Moduli (GPa) = 97.42344 16.30420 105.49341
#
# Poissons Ratio (x) = 0.00974 0.35352
# Poissons Ratio (y) = 0.05819 -0.14618
# Poissons Ratio (z) = 0.32647 -0.02259
#
# Static dielectric constant tensor:
#      x y z
#    x 1.983900 -0.046730 -0.037160 
#    y -0.046730 1.949740 0.000540 
#    z -0.037160 0.000540 1.978400 
# 
# From -- ./inp_files/152340.got.cif
#   From: 2010.05.17/outbox.cif.g08.bks.cpg/sg2_77_cif.got.tgz:152340.got - 2010.06.03 11:33:40.
