data_PCOD9038576
_publ_section_title
;
Structure prediction by ZEFSAII (Michael W. Deem and Ramdas Pophale) SiO2 
 PCOD9038576
Probable space group: P -1
;
_chemical_formula_sum "Si O2"
_cell_formula_units_Z 15
_cell_length_a 5.198684
_cell_length_b 23.614977
_cell_length_c 5.318574
_cell_angle_alpha 106.113670
_cell_angle_beta 91.074490
_cell_angle_gamma 66.543785
_cell_volume 572.330481
_symmetry_space_group_name_H-M "P -1"
_symmetry_group_IT_number 2
_symmetry_cell_setting 'triclinic'
loop_
_space_group_symop_operation_xyz
x,y,z
-x,-y,-z
loop_
_atom_site_type_symbol
_atom_site_label
_atom_site_fract_x
_atom_site_fract_y
_atom_site_fract_z
Si Si1 0.686992 0.596788 0.034447
Si Si2 0.112401 0.536567 0.351911
Si Si3 0.500000 0.000000 0.000000
Si Si4 0.346189 0.112271 0.299655
Si Si5 0.724831 0.761377 0.721021
Si Si6 0.099655 0.057352 0.584260
Si Si7 0.141132 0.633400 0.787367
Si Si8 0.433320 0.813832 0.283200
O O1 0.727857 0.521595 0.908123
O O2 0.365832 0.636582 0.996040
O O3 0.893218 0.618324 0.895111
O O4 0.832596 0.592965 0.299947
O O5 0.286832 0.572275 0.528223
O O6 0.000000 0.500000 0.500000
O O7 0.283291 0.044693 0.820443
O O8 0.379910 0.937131 0.894002
O O9 0.188025 0.177896 0.231244
O O10 0.409402 0.139347 0.594172
O O11 0.257308 0.054236 0.309608
O O12 0.541254 0.766752 0.471454
O O13 0.995927 0.697156 0.699353
O O14 0.531029 0.775954 0.981922
O O15 0.880726 0.132335 0.658791
O O16 0.000000 0.000000 0.500000
#
# Coordination Sequence:
#
# PCOD9038576 Si02
#       8
#     2   2   1   2   2   2   2   2
#     4  10  23  41  71 104 145 184 242 301 363 427
#     4   9  21  42  68 107 144 187 238 300 364 427
#     4  12  24  42  70 100 136 170 234 288 362 428
#     4  10  25  43  67 102 137 176 234 290 355 436
#     4  10  25  49  70 101 142 188 244 289 363 440
#     4  12  25  42  73 101 137 180 233 296 370 434
#     4  11  24  44  70 103 141 193 242 298 361 435
#     4  10  25  49  69 100 139 187 229 296 361 429
#
# _framework density 26.208637
#
# number of rings (size 3 to 8) (size 9 to 14) (size 15 to 20)
#    0.800    0.800    1.333    1.600    5.600    8.533 
#    2.400    0.000    0.000    0.000    0.000    0.000 
#    0.000    0.000    0.000    0.000    0.000    0.000 
#
# Total GULP energy -83532.765630 kJ/mol
# GULP energy per Si atom -5568.851042 kJ/mol
# Density = 2.614898 g / cm^3
# Si number density = 26.208637 Si / 1000 Ang^3
#
#
#
# Elastic Constant Matrix: (Units=GPa)
#
#
# Indices 1 2 3 4 5 6 
#
# 1 96.2906 29.7623 28.0540 -22.8326 12.7832 -8.4554
# 2 29.7623 143.0365 25.3958 -52.1866 10.9426 -13.9284
# 3 28.0540 25.3958 153.3143 -46.9598 12.1499 -11.2377
# 4 -22.8326 -52.1866 -46.9598 44.7287 -12.6183 10.8003
# 5 12.7832 10.9426 12.1499 -12.6183 28.9747 -8.2486
# 6 -8.4554 -13.9284 -11.2377 10.8003 -8.2486 36.9443
#
#
#
# Elastic Compliance Matrix: (Units=1/GPa)
#
#
# Indices 1 2 3 4 5 6 
#
# 1 0.012133 -0.000864 -0.000753 0.003396 -0.003078 0.000542
# 2 -0.000864 0.013751 0.003947 0.020278 0.002603 0.000840
# 3 -0.000753 0.003947 0.010773 0.015834 0.001292 0.000252
# 4 0.003396 0.020278 0.015834 0.069047 0.013131 -0.004015
# 5 -0.003078 0.002603 0.001292 0.013131 0.041820 0.006169
# 6 0.000542 0.000840 0.000252 -0.004015 0.006169 0.030136
#
#
# Mechanical properties :
#
#
# Convention : Reuss Voigt Hill
#
# Bulk Modulus (GPa) = 24.20327 62.11840 43.16084
# Shear Modulus (GPa) = 26.77038 42.75817 34.76427
#
# Velocity S-wave (km/s) = 3.19945 4.04351 3.64599
# Velocity P-wave (km/s) = 4.78577 6.74929 5.85049
#
# Compressibility (1/GPa) = 0.04131673
#
# Stress axis : x y z
#
# Youngs Moduli (GPa) = 82.41937 72.71970 92.82832
#
# Poissons Ratio (x) = 0.06280 0.06993
# Poissons Ratio (y) = 0.07118 -0.36637
# Poissons Ratio (z) = 0.06209 -0.28700
#
# Static dielectric constant tensor:
#      x y z
#    x 2.180920 -0.038310 -0.101100 
#    y -0.038310 2.170240 0.180140 
#    z -0.101100 0.180140 2.318310 
# 
# From -- ./inp_files/13316.got.cif
#   From: 2010.05.17/outbox.cif.g08.bks.cpg/sg2_7_cif.got.tgz:13316.got - 2010.06.03 11:33:40.
