data_PCOD9038638
_publ_section_title
;
Structure prediction by ZEFSAII (Michael W. Deem and Ramdas Pophale) SiO2 
 PCOD9038638
Probable space group: P -1
;
_chemical_formula_sum "Si O2"
_cell_formula_units_Z 14
_cell_length_a 9.205402
_cell_length_b 11.541842
_cell_length_c 9.154214
_cell_angle_alpha 130.395759
_cell_angle_beta 52.624000
_cell_angle_gamma 114.983468
_cell_volume 587.958570
_symmetry_space_group_name_H-M "P -1"
_symmetry_group_IT_number 2
_symmetry_cell_setting 'triclinic'
loop_
_space_group_symop_operation_xyz
x,y,z
-x,-y,-z
loop_
_atom_site_type_symbol
_atom_site_label
_atom_site_fract_x
_atom_site_fract_y
_atom_site_fract_z
Si Si1 0.919237 0.423019 0.632184
Si Si2 0.231915 0.933541 0.187940
Si Si3 0.637650 0.210576 0.524886
Si Si4 0.369124 0.044168 0.897678
Si Si5 0.536876 0.557038 0.359860
Si Si6 0.623861 0.656655 0.963348
Si Si7 0.100430 0.263091 0.644625
O O1 0.831294 0.255522 0.513434
O O2 0.753895 0.534641 0.853485
O O3 0.000000 0.500000 0.500000
O O4 0.048849 0.388508 0.658369
O O5 0.423892 0.915387 0.139867
O O6 0.080802 0.800713 0.211008
O O7 0.172139 0.103725 0.407258
O O8 0.273245 0.943120 0.999094
O O9 0.610853 0.321585 0.494531
O O10 0.622648 0.045638 0.331728
O O11 0.492957 0.264769 0.776354
O O12 0.270618 0.201367 0.063320
O O13 0.500000 0.500000 0.500000
O O14 0.497294 0.425258 0.157086
O O15 0.731705 0.650064 0.303322
#
# Coordination Sequence:
#
# PCOD9038638 Si02
#       7
#     2   2   2   2   2   2   2
#     4  11  23  44  68 101 144 174 223 290 352 406
#     4  10  23  41  72 105 139 174 236 294 337 405
#     4  11  24  46  67 100 135 188 232 274 347 422
#     4  11  22  46  72  99 133 189 237 277 343 417
#     4  11  22  42  74 100 136 183 232 277 344 416
#     4  11  25  45  72 100 137 184 230 284 342 422
#     4  11  22  44  70 107 142 176 227 295 349 405
#
# _framework density 23.811201000000001
#
# number of rings (size 3 to 8) (size 9 to 14) (size 15 to 20)
#    0.000    1.143    1.429    6.429    2.000    0.000 
#    5.143    5.000    0.000    0.000    0.000    0.000 
#    0.000    0.000    0.000    0.000    0.000    0.000 
#
# Total GULP energy -78278.840485 kJ/mol
# GULP energy per Si atom -5591.345749 kJ/mol
# Density = 2.375701 g / cm^3
# Si number density = 23.811201 Si / 1000 Ang^3
#
#
#
# Elastic Constant Matrix: (Units=GPa)
#
#
# Indices 1 2 3 4 5 6 
#
# 1 73.5356 6.6726 22.2253 11.2330 5.5748 -7.2394
# 2 6.6726 95.6325 52.5995 6.7964 -4.0073 -7.5025
# 3 22.2253 52.5995 115.3226 11.0820 13.4911 0.8824
# 4 11.2330 6.7964 11.0820 42.6349 4.0825 -2.0816
# 5 5.5748 -4.0073 13.4911 4.0825 23.5314 -1.3038
# 6 -7.2394 -7.5025 0.8824 -2.0816 -1.3038 32.8803
#
#
#
# Elastic Compliance Matrix: (Units=1/GPa)
#
#
# Indices 1 2 3 4 5 6 
#
# 1 0.015319 0.001063 -0.003048 -0.003152 -0.000962 0.003459
# 2 0.001063 0.015565 -0.008099 -0.001166 0.007479 0.004226
# 3 -0.003048 -0.008099 0.014089 -0.000890 -0.008763 -0.003301
# 4 -0.003152 -0.001166 -0.000890 0.025040 -0.003257 0.000520
# 5 -0.000962 0.007479 -0.008763 -0.003257 0.049781 0.003498
# 6 0.003459 0.004226 -0.003301 0.000520 0.003498 0.032399
#
#
# Mechanical properties :
#
#
# Convention : Reuss Voigt Hill
#
# Bulk Modulus (GPa) = 40.31721 49.72061 45.01891
# Shear Modulus (GPa) = 27.68090 33.34221 30.51156
#
# Velocity S-wave (km/s) = 3.41327 3.74608 3.58354
# Velocity P-wave (km/s) = 5.70111 6.29582 6.00583
#
# Compressibility (1/GPa) = 0.02480330
#
# Stress axis : x y z
#
# Youngs Moduli (GPa) = 65.27991 64.24629 70.97794
#
# Poissons Ratio (x) = -0.06827 0.21634
# Poissons Ratio (y) = -0.06937 0.57488
# Poissons Ratio (z) = 0.19897 0.52036
#
# Static dielectric constant tensor:
#      x y z
#    x 1.887790 0.022290 -0.030960 
#    y 0.022290 1.990940 -0.042420 
#    z -0.030960 -0.042420 1.917540 
# 
# From -- ./inp_files/190625.got.cif
#   From: 2010.05.17/outbox.cif.g08.bks.cpg/sg2_96_cif.got.tgz:190625.got - 2010.06.03 11:33:40.
