data_PCOD9038907
_publ_section_title
;
Structure prediction by ZEFSAII (Michael W. Deem and Ramdas Pophale) SiO2 
 PCOD9038907
Probable space group: P -1
;
_chemical_formula_sum "Si O2"
_cell_formula_units_Z 16
_cell_length_a 19.316544
_cell_length_b 21.049898
_cell_length_c 13.244578
_cell_angle_alpha 144.270494
_cell_angle_beta 16.844025
_cell_angle_gamma 150.367473
_cell_volume 763.910866
_symmetry_space_group_name_H-M "P -1"
_symmetry_group_IT_number 2
_symmetry_cell_setting 'triclinic'
loop_
_space_group_symop_operation_xyz
x,y,z
-x,-y,-z
loop_
_atom_site_type_symbol
_atom_site_label
_atom_site_fract_x
_atom_site_fract_y
_atom_site_fract_z
Si Si1 0.523834 0.583871 0.672634
Si Si2 0.181825 0.001492 0.840319
Si Si3 0.743261 0.218897 0.625965
Si Si4 0.820781 0.792995 0.233142
Si Si5 0.283501 0.536314 0.589058
Si Si6 0.243661 0.147797 0.373146
Si Si7 0.701660 0.275999 0.539311
Si Si8 0.892777 0.529017 0.479952
O O1 0.500000 0.500000 0.500000
O O2 0.587667 0.532390 0.617044
O O3 0.766645 0.735881 0.515310
O O4 0.217267 0.565112 0.075696
O O5 0.285898 0.908721 0.541296
O O6 0.436010 0.145031 0.696276
O O7 0.990173 0.927183 0.109083
O O8 0.000000 0.000000 0.000000
O O9 0.665196 0.272864 0.706964
O O10 0.059354 0.338348 0.370286
O O11 0.534487 0.172209 0.952440
O O12 0.527602 0.688401 0.452776
O O13 0.750997 0.820155 0.475968
O O14 0.022608 0.734541 0.879417
O O15 0.213676 0.495835 0.517999
O O16 0.000000 0.500000 0.000000
O O17 0.000000 0.000000 0.500000
O O18 0.731049 0.401379 0.609804
#
# Coordination Sequence:
#
# PCOD9038907 Si02
#       8
#     2   2   2   2   2   2   2   2
#     4  11  20  40  62  94 132 175 217 264 328 391
#     4  11  24  45  65  95 133 175 224 267 324 407
#     4  10  23  42  64  95 133 168 219 275 334 385
#     4  11  22  41  69  95 127 178 227 258 326 402
#     4  12  22  38  66 100 135 174 222 271 321 396
#     4  11  21  39  66  97 127 166 221 271 330 386
#     4  11  21  43  71  91 128 184 220 262 329 401
#     4  11  22  39  65  96 131 168 220 277 324 380
#
# _framework density 20.944852999999998
#
# number of rings (size 3 to 8) (size 9 to 14) (size 15 to 20)
#    0.000    1.000    3.750    4.875    0.000    0.000 
#    9.000    3.750    0.000    0.000    0.000    0.000 
#    0.000    0.000    0.000    0.000    0.000    0.000 
#
# Total GULP energy -89394.211851 kJ/mol
# GULP energy per Si atom -5587.138241 kJ/mol
# Density = 2.089718 g / cm^3
# Si number density = 20.944853 Si / 1000 Ang^3
#
#
#
# Elastic Constant Matrix: (Units=GPa)
#
#
# Indices 1 2 3 4 5 6 
#
# 1 112.6260 13.5970 27.5388 -8.8746 -0.0012 9.0633
# 2 13.5970 130.5598 19.8084 -41.3298 0.6051 14.4229
# 3 27.5388 19.8084 71.7579 -19.2759 12.7171 7.2334
# 4 -8.8746 -41.3298 -19.2759 34.0748 7.8634 1.5752
# 5 -0.0012 0.6051 12.7171 7.8634 34.9180 -4.7704
# 6 9.0633 14.4229 7.2334 1.5752 -4.7704 44.0562
#
#
#
# Elastic Compliance Matrix: (Units=1/GPa)
#
#
# Indices 1 2 3 4 5 6 
#
# 1 0.009953 -0.000492 -0.003975 -0.000535 0.001432 -0.001060
# 2 -0.000492 0.015106 0.004270 0.022774 -0.007932 -0.007218
# 3 -0.003975 0.004270 0.022988 0.020686 -0.014008 -0.006611
# 4 -0.000535 0.022774 0.020686 0.075563 -0.027184 -0.016387
# 5 0.001432 -0.007932 -0.014008 -0.027184 0.041373 0.010054
# 6 -0.001060 -0.007218 -0.006611 -0.016387 0.010054 0.028039
#
#
# Mechanical properties :
#
#
# Convention : Reuss Voigt Hill
#
# Bulk Modulus (GPa) = 20.98489 48.53689 34.76089
# Shear Modulus (GPa) = 23.88891 39.54311 31.71601
#
# Velocity S-wave (km/s) = 3.38089 4.34978 3.89557
# Velocity P-wave (km/s) = 5.02806 6.96071 6.07177
#
# Compressibility (1/GPa) = 0.04765334
#
# Stress axis : x y z
#
# Youngs Moduli (GPa) = 100.46833 66.19824 43.50054
#
# Poissons Ratio (x) = 0.03260 0.17290
# Poissons Ratio (y) = 0.04948 -0.18574
# Poissons Ratio (z) = 0.39932 -0.28266
#
# Static dielectric constant tensor:
#      x y z
#    x 1.715800 -0.002060 0.021590 
#    y -0.002060 1.817010 -0.002130 
#    z 0.021590 -0.002130 1.713560 
# 
# From -- ./inp_files/467116.got.cif
#   From: 2010.05.17/outbox.cif.g08.bks.cpg/sg2_234_cif.got.tgz:467116.got - 2010.06.03 11:33:40.
