data_PCOD9038615
_publ_section_title
;
Structure prediction by ZEFSAII (Michael W. Deem and Ramdas Pophale) SiO2 
 PCOD9038615
Probable space group: P -1
;
_chemical_formula_sum "Si O2"
_cell_formula_units_Z 14
_cell_length_a 29.323612
_cell_length_b 9.597134
_cell_length_c 7.074413
_cell_angle_alpha 125.053896
_cell_angle_beta 128.109441
_cell_angle_gamma 21.628597
_cell_volume 577.394989
_symmetry_space_group_name_H-M "P -1"
_symmetry_group_IT_number 2
_symmetry_cell_setting 'triclinic'
loop_
_space_group_symop_operation_xyz
x,y,z
-x,-y,-z
loop_
_atom_site_type_symbol
_atom_site_label
_atom_site_fract_x
_atom_site_fract_y
_atom_site_fract_z
Si Si1 0.121202 0.342728 0.891135
Si Si2 0.485695 0.134631 0.872199
Si Si3 0.590810 0.293252 0.756113
Si Si4 0.882263 0.414194 0.274490
Si Si5 0.202421 0.766789 0.569412
Si Si6 0.678312 0.765531 0.821325
Si Si7 0.021012 0.181196 0.773171
O O1 0.081164 0.581137 0.815647
O O2 0.144251 0.105642 0.656546
O O3 0.013534 0.601447 0.977402
O O4 0.254249 0.060096 0.114814
O O5 0.467025 0.385450 0.048143
O O6 0.354117 0.401342 0.671697
O O7 0.500000 0.000000 0.000000
O O8 0.602519 0.817035 0.777946
O O9 0.500000 0.500000 0.500000
O O10 0.592823 0.113004 0.741356
O O11 0.903247 0.480650 0.558219
O O12 0.965632 0.032147 0.247500
O O13 0.740472 0.720084 0.107840
O O14 0.202103 0.621462 0.297507
O O15 0.144623 0.870686 0.708830
#
# Coordination Sequence:
#
# PCOD9038615 Si02
#       7
#     2   2   2   2   2   2   2
#     4  10  24  46  66 100 140 175 227 276 337 398
#     4  11  23  44  65  99 136 176 226 281 339 402
#     4  10  23  41  71  99 131 177 229 276 336 400
#     4  10  25  42  71 100 128 179 231 275 335 394
#     4  11  25  43  64 101 135 181 219 275 341 397
#     4  11  24  44  71  98 140 174 229 281 337 404
#     4  11  24  43  72  97 137 178 229 273 334 404
#
# _framework density 24.246832999999999
#
# number of rings (size 3 to 8) (size 9 to 14) (size 15 to 20)
#    0.000    1.429    0.000    3.429   12.000    0.571 
#    7.714    0.000    0.000    0.000    0.000    0.000 
#    0.000    0.000    0.000    0.000    0.000    0.000 
#
# Total GULP energy -78125.519646 kJ/mol
# GULP energy per Si atom -5580.394260 kJ/mol
# Density = 2.419165 g / cm^3
# Si number density = 24.246833 Si / 1000 Ang^3
#
#
#
# Elastic Constant Matrix: (Units=GPa)
#
#
# Indices 1 2 3 4 5 6 
#
# 1 162.5009 63.3131 35.2830 0.5677 -31.7892 -2.0543
# 2 63.3131 86.2586 45.1539 -1.0270 -27.1903 -0.9185
# 3 35.2830 45.1539 101.2639 -18.4665 -21.5171 5.2717
# 4 0.5677 -1.0270 -18.4665 45.2735 -1.6119 -9.3028
# 5 -31.7892 -27.1903 -21.5171 -1.6119 39.7145 4.3755
# 6 -2.0543 -0.9185 5.2717 -9.3028 4.3755 29.4291
#
#
#
# Elastic Compliance Matrix: (Units=1/GPa)
#
#
# Indices 1 2 3 4 5 6 
#
# 1 0.008967 -0.005533 0.000055 -0.000114 0.003426 -0.000102
# 2 -0.005533 0.021010 -0.006410 -0.001866 0.006421 -0.000127
# 3 0.000055 -0.006410 0.014684 0.005650 0.004021 -0.001639
# 4 -0.000114 -0.001866 0.005650 0.025817 0.001992 0.006786
# 5 0.003426 0.006421 0.004021 0.001992 0.035114 -0.004872
# 6 -0.000102 -0.000127 -0.001639 0.006786 -0.004872 0.037132
#
#
# Mechanical properties :
#
#
# Convention : Reuss Voigt Hill
#
# Bulk Modulus (GPa) = 47.87942 70.83593 59.35767
# Shear Modulus (GPa) = 28.82475 36.63499 32.72987
#
# Velocity S-wave (km/s) = 3.45165 3.89127 3.67803
# Velocity P-wave (km/s) = 5.97283 7.03330 6.52464
#
# Compressibility (1/GPa) = 0.02088580
#
# Stress axis : x y z
#
# Youngs Moduli (GPa) = 111.52141 47.59598 68.10028
#
# Poissons Ratio (x) = 0.26336 -0.00377
# Poissons Ratio (y) = 0.61707 0.43652
# Poissons Ratio (z) = -0.00617 0.30509
#
# Static dielectric constant tensor:
#      x y z
#    x 1.946750 -0.026190 0.081930 
#    y -0.026190 1.960670 0.059600 
#    z 0.081930 0.059600 2.091560 
# 
# From -- ./inp_files/126496.got.cif
#   From: 2010.05.17/outbox.cif.g08.bks.cpg/sg2_64_cif.got.tgz:126496.got - 2010.06.03 11:33:40.
