data_PCOD9038627
_publ_section_title
;
Structure prediction by ZEFSAII (Michael W. Deem and Ramdas Pophale) SiO2 
 PCOD9038627
Probable space group: P -1
;
_chemical_formula_sum "Si O2"
_cell_formula_units_Z 14
_cell_length_a 14.001051
_cell_length_b 10.683903
_cell_length_c 9.357973
_cell_angle_alpha 55.047595
_cell_angle_beta 68.370528
_cell_angle_gamma 29.969830
_cell_volume 544.558148
_symmetry_space_group_name_H-M "P -1"
_symmetry_group_IT_number 2
_symmetry_cell_setting 'triclinic'
loop_
_space_group_symop_operation_xyz
x,y,z
-x,-y,-z
loop_
_atom_site_type_symbol
_atom_site_label
_atom_site_fract_x
_atom_site_fract_y
_atom_site_fract_z
Si Si1 0.909342 0.394171 0.734797
Si Si2 0.395433 0.850768 0.337557
Si Si3 0.195434 0.726449 0.680682
Si Si4 0.034760 0.338369 0.385703
Si Si5 0.261293 0.293371 0.940832
Si Si6 0.291363 0.811487 0.843881
Si Si7 0.521160 0.792952 0.605116
O O1 0.953380 0.374373 0.555439
O O2 0.729057 0.505527 0.763230
O O3 0.878402 0.600702 0.682246
O O4 0.115805 0.058732 0.893791
O O5 0.577129 0.550189 0.338150
O O6 0.526114 0.751159 0.462104
O O7 0.207148 0.016393 0.420692
O O8 0.253545 0.150396 0.132332
O O9 0.183102 0.562552 0.845868
O O10 0.216261 0.793695 0.773139
O O11 0.000000 0.000000 0.500000
O O12 0.840391 0.605504 0.220089
O O13 0.500000 0.000000 0.000000
O O14 0.348627 0.908161 0.689640
O O15 0.500000 0.500000 0.000000
O O16 0.500000 0.000000 0.500000
#
# Coordination Sequence:
#
# PCOD9038627 Si02
#       7
#     2   2   2   2   2   2   2
#     4  11  23  44  72 101 147 186 241 299 368 431
#     4  11  23  43  73 108 139 188 256 299 358 437
#     4  11  26  48  72 102 158 200 232 305 383 449
#     4  11  21  43  72 107 136 187 248 310 351 429
#     4  10  23  41  72 101 143 188 252 300 357 430
#     4  12  29  47  72 109 151 192 243 303 375 445
#     4  12  24  46  78 104 139 191 245 299 368 436
#
# _framework density 25.708915000000001
#
# number of rings (size 3 to 8) (size 9 to 14) (size 15 to 20)
#    0.000    0.857    2.857    4.714    6.000    1.143 
#    2.571    0.000    0.000    0.000    0.000    0.000 
#    0.000    0.000    0.000    0.000    0.000    0.000 
#
# Total GULP energy -78089.741966 kJ/mol
# GULP energy per Si atom -5577.838712 kJ/mol
# Density = 2.565040 g / cm^3
# Si number density = 25.708915 Si / 1000 Ang^3
#
#
#
# Elastic Constant Matrix: (Units=GPa)
#
#
# Indices 1 2 3 4 5 6 
#
# 1 141.1110 14.0449 14.6270 -18.3066 21.0890 -2.7230
# 2 14.0449 101.2491 7.7252 -25.4416 9.1715 5.1168
# 3 14.6270 7.7252 105.9342 -40.6787 9.9119 6.4573
# 4 -18.3066 -25.4416 -40.6787 43.0864 -4.9933 -0.7941
# 5 21.0890 9.1715 9.9119 -4.9933 34.9355 -11.3029
# 6 -2.7230 5.1168 6.4573 -0.7941 -11.3029 47.1253
#
#
#
# Elastic Compliance Matrix: (Units=1/GPa)
#
#
# Indices 1 2 3 4 5 6 
#
# 1 0.008198 0.000250 0.000832 0.003827 -0.004960 -0.000793
# 2 0.000250 0.012683 0.003585 0.010487 -0.003839 -0.002598
# 3 0.000832 0.003585 0.016359 0.017305 -0.004719 -0.003423
# 4 0.003827 0.010487 0.017305 0.046786 -0.004439 -0.003565
# 5 -0.004960 -0.003839 -0.004719 -0.004439 0.036381 0.009428
# 6 -0.000793 -0.002598 -0.003423 -0.003565 0.009428 0.024127
#
#
# Mechanical properties :
#
#
# Convention : Reuss Voigt Hill
#
# Bulk Modulus (GPa) = 21.47128 46.78759 34.12943
# Shear Modulus (GPa) = 33.17355 45.82259 39.49807
#
# Velocity S-wave (km/s) = 3.59604 4.22638 3.92389
# Velocity P-wave (km/s) = 5.06082 6.48497 5.81665
#
# Compressibility (1/GPa) = 0.04657385
#
# Stress axis : x y z
#
# Youngs Moduli (GPa) = 121.98239 78.84771 61.12888
#
# Poissons Ratio (x) = -0.01973 -0.05084
# Poissons Ratio (y) = -0.03053 -0.21917
# Poissons Ratio (z) = -0.10145 -0.28269
#
# Static dielectric constant tensor:
#      x y z
#    x 2.568780 -0.104990 -0.650490 
#    y -0.104990 2.143490 0.071810 
#    z -0.650490 0.071810 2.935030 
# 
# From -- ./inp_files/449757.got.cif
#   From: 2010.05.17/outbox.cif.g08.bks.cpg/sg2_225_cif.got.tgz:449757.got - 2010.06.03 11:33:40.
