data_PCOD9038162
_publ_section_title
;
Structure prediction by ZEFSAII (Michael W. Deem and Ramdas Pophale) SiO2 
 PCOD9038162
Probable space group: P -1
;
_chemical_formula_sum "Si O2"
_cell_formula_units_Z 12
_cell_length_a 14.852040
_cell_length_b 11.028019
_cell_length_c 14.763476
_cell_angle_alpha 25.613176
_cell_angle_beta 27.730015
_cell_angle_gamma 34.520738
_cell_volume 482.392355
_symmetry_space_group_name_H-M "P -1"
_symmetry_group_IT_number 2
_symmetry_cell_setting 'triclinic'
loop_
_space_group_symop_operation_xyz
x,y,z
-x,-y,-z
loop_
_atom_site_type_symbol
_atom_site_label
_atom_site_fract_x
_atom_site_fract_y
_atom_site_fract_z
Si Si1 0.898958 0.302083 0.628743
Si Si2 0.577721 0.060751 0.772011
Si Si3 0.698220 0.410697 0.276460
Si Si4 0.720068 0.378494 0.918879
Si Si5 0.125328 0.103447 0.239234
Si Si6 0.505810 0.418146 0.253444
O O1 0.823906 0.202656 0.860401
O O2 0.900904 0.048084 0.728697
O O3 0.725521 0.552528 0.583180
O O4 0.112090 0.410151 0.364425
O O5 0.711019 0.168936 0.501501
O O6 0.400986 0.311504 0.767434
O O7 0.673396 0.045374 0.795632
O O8 0.544053 0.746269 0.988066
O O9 0.571954 0.336025 0.352372
O O10 0.881916 0.556296 0.979634
O O11 0.500000 0.500000 0.000000
O O12 0.657413 0.258424 0.152623
O O13 0.000000 0.000000 0.500000
#
# Coordination Sequence:
#
# PCOD9038162 Si02
#       6
#     2   2   2   2   2   2
#     4  10  17  33  53  79 110 138 186 231 261 328
#     4  10  19  33  54  81 114 145 174 218 274 326
#     4  10  19  33  54  81 114 145 174 218 274 326
#     4   9  20  32  55  80 101 144 189 227 277 315
#     4  11  20  33  55  83 114 145 177 220 275 329
#     4  10  17  35  57  80 110 147 181 220 272 323
#
# _framework density 24.876014999999999
#
# number of rings (size 3 to 8) (size 9 to 14) (size 15 to 20)
#    0.000    2.000    3.333    3.000    0.000    0.667 
#    0.000    0.000    0.000   11.000    0.000   25.667 
#    0.000    0.000    0.000    0.000    0.000    0.000 
#
# Total GULP energy -66848.325964 kJ/mol
# GULP energy per Si atom -5570.693830 kJ/mol
# Density = 2.481940 g / cm^3
# Si number density = 24.876015 Si / 1000 Ang^3
#
#
#
# Elastic Constant Matrix: (Units=GPa)
#
#
# Indices 1 2 3 4 5 6 
#
# 1 133.8201 37.8193 40.2186 4.9328 2.3780 19.7655
# 2 37.8193 73.5840 27.6054 25.6686 -0.3335 5.6228
# 3 40.2186 27.6054 95.6781 23.1231 0.9383 -12.3148
# 4 4.9328 25.6686 23.1231 45.4790 -9.0164 7.2335
# 5 2.3780 -0.3335 0.9383 -9.0164 43.0704 4.5404
# 6 19.7655 5.6228 -12.3148 7.2335 4.5404 28.8967
#
#
#
# Elastic Compliance Matrix: (Units=1/GPa)
#
#
# Indices 1 2 3 4 5 6 
#
# 1 0.013013 -0.005696 -0.007606 0.008332 0.002573 -0.013524
# 2 -0.005696 0.020463 -0.000243 -0.011763 -0.002313 0.003119
# 3 -0.007606 -0.000243 0.018912 -0.012229 -0.004352 0.017055
# 4 0.008332 -0.011763 -0.012229 0.039104 0.010008 -0.019983
# 5 0.002573 -0.002313 -0.004352 0.010008 0.026281 -0.009799
# 6 -0.013524 0.003119 0.017055 -0.019983 -0.009799 0.057060
#
#
# Mechanical properties :
#
#
# Convention : Reuss Voigt Hill
#
# Bulk Modulus (GPa) = 39.52832 57.15208 48.34020
# Shear Modulus (GPa) = 23.76921 36.65180 30.21051
#
# Velocity S-wave (km/s) = 3.09448 3.84263 3.48867
# Velocity P-wave (km/s) = 5.35653 6.53547 5.97515
#
# Compressibility (1/GPa) = 0.02529832
#
# Stress axis : x y z
#
# Youngs Moduli (GPa) = 76.84473 48.86856 52.87544
#
# Poissons Ratio (x) = 0.27836 0.40219
# Poissons Ratio (y) = 0.43772 0.01284
# Poissons Ratio (z) = 0.58450 0.01186
#
# Static dielectric constant tensor:
#      x y z
#    x 2.066630 -0.063100 -0.132420 
#    y -0.063100 2.103240 0.204510 
#    z -0.132420 0.204510 2.407520 
# 
# From -- ./inp_files/430721.got.cif
#   From: 2010.05.17/outbox.cif.g08.bks.cpg/sg2_216_cif.got.tgz:430721.got - 2010.06.03 11:33:40.
