data_PCOD9038376
_publ_section_title
;
Structure prediction by ZEFSAII (Michael W. Deem and Ramdas Pophale) SiO2 
 PCOD9038376
Probable space group: P -1
;
_chemical_formula_sum "Si O2"
_cell_formula_units_Z 15
_cell_length_a 9.242992
_cell_length_b 11.312397
_cell_length_c 8.227901
_cell_angle_alpha 55.666609
_cell_angle_beta 104.016014
_cell_angle_gamma 85.354850
_cell_volume 663.364591
_symmetry_space_group_name_H-M "P -1"
_symmetry_group_IT_number 2
_symmetry_cell_setting 'triclinic'
loop_
_space_group_symop_operation_xyz
x,y,z
-x,-y,-z
loop_
_atom_site_type_symbol
_atom_site_label
_atom_site_fract_x
_atom_site_fract_y
_atom_site_fract_z
Si Si1 0.057247 0.595511 0.584295
Si Si2 0.000000 0.500000 0.000000
Si Si3 0.120816 0.056366 0.696438
Si Si4 0.264037 0.646202 0.349999
Si Si5 0.406059 0.047324 0.600675
Si Si6 0.311191 0.120079 0.978737
Si Si7 0.402007 0.315266 0.578293
Si Si8 0.976868 0.801531 0.929610
O O1 0.219795 0.612040 0.547200
O O2 0.000000 0.500000 0.500000
O O3 0.956444 0.766606 0.447390
O O4 0.054520 0.512070 0.815607
O O5 0.997609 0.325708 0.099474
O O6 0.242919 0.013159 0.614722
O O7 0.004654 0.954695 0.752114
O O8 0.230247 0.027826 0.908563
O O9 0.313750 0.486707 0.397886
O O10 0.415739 0.703244 0.344154
O O11 0.111391 0.746065 0.145628
O O12 0.370033 0.222832 0.488037
O O13 0.500000 0.000000 0.500000
O O14 0.526560 0.972451 0.832761
O O15 0.189370 0.171798 0.050803
O O16 0.342089 0.251036 0.773551
#
# Coordination Sequence:
#
# PCOD9038376 Si02
#       8
#     2   1   2   2   2   2   2   2
#     4  12  24  46  72 103 143 184 237 289 354 410
#     4  12  28  42  68 106 146 178 234 300 350 416
#     4  11  24  44  71 100 138 187 236 291 347 425
#     4  11  22  43  71 100 138 179 239 284 347 425
#     4  11  25  41  63  94 144 179 227 288 352 419
#     4  11  22  42  69  98 134 182 240 281 354 425
#     4  10  23  41  68  98 134 188 227 281 350 422
#     4  12  25  41  72 106 138 185 234 298 351 413
#
# _framework density 22.611998
#
# number of rings (size 3 to 8) (size 9 to 14) (size 15 to 20)
#    0.000    0.800    2.667    6.000    3.733    1.600 
#    0.000    0.000    0.000    5.600    0.000    0.000 
#    0.000    0.000    0.000    0.000    0.000    0.000 
#
# Total GULP energy -83674.506825 kJ/mol
# GULP energy per Si atom -5578.300455 kJ/mol
# Density = 2.256053 g / cm^3
# Si number density = 22.611998 Si / 1000 Ang^3
#
#
#
# Elastic Constant Matrix: (Units=GPa)
#
#
# Indices 1 2 3 4 5 6 
#
# 1 140.9933 42.5713 33.8788 -3.5468 -29.1481 -8.9587
# 2 42.5713 100.3493 43.4621 3.2996 -34.3642 -6.4171
# 3 33.8788 43.4621 80.5015 -3.6297 -19.6277 1.7442
# 4 -3.5468 3.2996 -3.6297 41.7847 -5.5652 -10.0337
# 5 -29.1481 -34.3642 -19.6277 -5.5652 44.2544 0.1333
# 6 -8.9587 -6.4171 1.7442 -10.0337 0.1333 34.3749
#
#
#
# Elastic Compliance Matrix: (Units=1/GPa)
#
#
# Indices 1 2 3 4 5 6 
#
# 1 0.009105 -0.001436 -0.001997 0.001938 0.004231 0.002755
# 2 -0.001436 0.016587 -0.006178 -0.000027 0.009181 0.002992
# 3 -0.001997 -0.006178 0.017122 0.001524 0.001679 -0.002104
# 4 0.001938 -0.000027 0.001524 0.026919 0.005292 0.008260
# 5 0.004231 0.009181 0.001679 0.005292 0.033911 0.004145
# 6 0.002755 0.002992 -0.002104 0.008260 0.004145 0.032869
#
#
# Mechanical properties :
#
#
# Convention : Reuss Voigt Hill
#
# Bulk Modulus (GPa) = 42.38963 62.40759 52.39861
# Shear Modulus (GPa) = 30.56276 37.54493 34.05384
#
# Velocity S-wave (km/s) = 3.68042 4.07922 3.88494
# Velocity P-wave (km/s) = 6.07025 7.06017 6.58384
#
# Compressibility (1/GPa) = 0.02359068
#
# Stress axis : x y z
#
# Youngs Moduli (GPa) = 109.83512 60.28999 58.40533
#
# Poissons Ratio (x) = 0.08658 0.11663
# Poissons Ratio (y) = 0.15773 0.36083
# Poissons Ratio (z) = 0.21933 0.37247
#
# Static dielectric constant tensor:
#      x y z
#    x 1.862300 -0.002710 0.022240 
#    y -0.002710 1.854200 -0.019440 
#    z 0.022240 -0.019440 1.883950 
# 
# From -- ./inp_files/184185.got.cif
#   From: 2010.05.17/outbox.cif.g08.bks.cpg/sg2_93_cif.got.tgz:184185.got - 2010.06.03 11:33:40.
