data_PCOD9038720
_publ_section_title
;
Structure prediction by ZEFSAII (Michael W. Deem and Ramdas Pophale) SiO2 
 PCOD9038720
Probable space group: P -1
;
_chemical_formula_sum "Si O2"
_cell_formula_units_Z 16
_cell_length_a 8.466150
_cell_length_b 17.988399
_cell_length_c 13.971066
_cell_angle_alpha 21.671417
_cell_angle_beta 56.786369
_cell_angle_gamma 56.391303
_cell_volume 650.513543
_symmetry_space_group_name_H-M "P -1"
_symmetry_group_IT_number 2
_symmetry_cell_setting 'triclinic'
loop_
_space_group_symop_operation_xyz
x,y,z
-x,-y,-z
loop_
_atom_site_type_symbol
_atom_site_label
_atom_site_fract_x
_atom_site_fract_y
_atom_site_fract_z
Si Si1 0.001754 0.714091 0.331118
Si Si2 0.470848 0.486581 0.911909
Si Si3 0.152574 0.678503 0.124327
Si Si4 0.379027 0.223636 0.996846
Si Si5 0.347359 0.109830 0.346460
Si Si6 0.708760 0.059136 0.935700
Si Si7 0.023330 0.996350 0.334405
Si Si8 0.678116 0.316025 0.455734
O O1 0.157188 0.671543 0.245287
O O2 0.968332 0.502518 0.640494
O O3 0.102090 0.837701 0.226932
O O4 0.803772 0.828721 0.211296
O O5 0.662817 0.367766 0.945546
O O6 0.433097 0.667882 0.629062
O O7 0.500000 0.500000 0.000000
O O8 0.309961 0.343328 0.115600
O O9 0.055836 0.897955 0.863321
O O10 0.441347 0.112664 0.208510
O O11 0.536789 0.155431 0.946431
O O12 0.181399 0.135860 0.146063
O O13 0.350850 0.465911 0.741792
O O14 0.500000 0.000000 0.500000
O O15 0.155025 0.009637 0.529506
O O16 0.641875 0.140991 0.753796
O O17 0.112974 0.769059 0.550349
#
# Coordination Sequence:
#
# PCOD9038720 Si02
#       8
#     2   2   2   2   2   2   2   2
#     4  10  23  41  75 106 146 197 242 304 366 445
#     4  11  27  46  74 108 147 196 247 310 374 439
#     4  11  23  46  68 108 149 189 247 306 363 441
#     4  11  27  45  73 111 151 193 244 313 370 434
#     4  11  25  47  73 102 148 193 248 305 364 445
#     4  11  23  45  73 107 147 195 246 299 379 437
#     4  12  26  45  77 105 151 198 249 300 377 433
#     4  11  26  47  73 111 149 193 247 310 365 448
#
# _framework density 24.595953999999999
#
# number of rings (size 3 to 8) (size 9 to 14) (size 15 to 20)
#    0.000    1.000    2.500    3.000    3.500    7.500 
#    0.000    0.000    0.000    0.000    0.000    0.000 
#    0.000    0.000    0.000    0.000    0.000    0.000 
#
# Total GULP energy -89311.464301 kJ/mol
# GULP energy per Si atom -5581.966519 kJ/mol
# Density = 2.453997 g / cm^3
# Si number density = 24.595954 Si / 1000 Ang^3
#
#
#
# Elastic Constant Matrix: (Units=GPa)
#
#
# Indices 1 2 3 4 5 6 
#
# 1 93.4811 47.7996 43.0477 13.9555 13.7910 6.1326
# 2 47.7996 125.1035 53.5687 3.1664 17.3551 -2.5168
# 3 43.0477 53.5687 115.8723 10.1780 21.5736 2.0453
# 4 13.9555 3.1664 10.1780 44.0343 3.7137 3.0074
# 5 13.7910 17.3551 21.5736 3.7137 41.1868 -6.3312
# 6 6.1326 -2.5168 2.0453 3.0074 -6.3312 22.4190
#
#
#
# Elastic Compliance Matrix: (Units=1/GPa)
#
#
# Indices 1 2 3 4 5 6 
#
# 1 0.015391 -0.004328 -0.002929 -0.003391 -0.002196 -0.004594
# 2 -0.004328 0.011359 -0.003569 0.001330 -0.001241 0.002256
# 3 -0.002929 -0.003569 0.012266 -0.001187 -0.004097 -0.001716
# 4 -0.003391 0.001330 -0.001187 0.024246 -0.001367 -0.002453
# 5 -0.002196 -0.001241 -0.004097 -0.001367 0.029233 0.009274
# 6 -0.004594 0.002256 -0.001716 -0.002453 0.009274 0.049220
#
#
# Mechanical properties :
#
#
# Convention : Reuss Voigt Hill
#
# Bulk Modulus (GPa) = 57.59424 69.25433 63.42428
# Shear Modulus (GPa) = 29.55878 34.19741 31.87809
#
# Velocity S-wave (km/s) = 3.47042 3.73281 3.60400
# Velocity P-wave (km/s) = 6.28692 6.84079 6.56970
#
# Compressibility (1/GPa) = 0.01736285
#
# Stress axis : x y z
#
# Youngs Moduli (GPa) = 64.97359 88.03370 81.52770
#
# Poissons Ratio (x) = 0.38104 0.23880
# Poissons Ratio (y) = 0.28123 0.29098
# Poissons Ratio (z) = 0.19031 0.31420
#
# Static dielectric constant tensor:
#      x y z
#    x 2.062940 -0.006340 -0.021100 
#    y -0.006340 1.971710 -0.074700 
#    z -0.021100 -0.074700 2.059110 
# 
# From -- ./inp_files/508040.got.cif
#   From: 2010.05.17/outbox.cif.g08.bks.cpg/sg2_255_cif.got.tgz:508040.got - 2010.06.03 11:33:40.
