data_PCOD9038938
_publ_section_title
;
Structure prediction by ZEFSAII (Michael W. Deem and Ramdas Pophale) SiO2 
 PCOD9038938
Probable space group: P -1
;
_chemical_formula_sum "Si O2"
_cell_formula_units_Z 16
_cell_length_a 8.949023
_cell_length_b 9.327207
_cell_length_c 16.446813
_cell_angle_alpha 36.165095
_cell_angle_beta 70.513743
_cell_angle_gamma 81.269319
_cell_volume 746.475787
_symmetry_space_group_name_H-M "P -1"
_symmetry_group_IT_number 2
_symmetry_cell_setting 'triclinic'
loop_
_space_group_symop_operation_xyz
x,y,z
-x,-y,-z
loop_
_atom_site_type_symbol
_atom_site_label
_atom_site_fract_x
_atom_site_fract_y
_atom_site_fract_z
Si Si1 0.477210 0.426020 0.672266
Si Si2 0.027858 0.145626 0.342740
Si Si3 0.862850 0.601574 0.191624
Si Si4 0.384049 0.732084 0.134433
Si Si5 0.930213 0.104783 0.858084
Si Si6 0.907015 0.221977 0.625484
Si Si7 0.449694 0.847329 0.357896
Si Si8 0.587809 0.627498 0.845634
O O1 0.329015 0.429341 0.757539
O O2 0.624283 0.410728 0.712506
O O3 0.490628 0.658245 0.503774
O O4 0.452526 0.188257 0.725484
O O5 0.215648 0.284328 0.229715
O O6 0.921263 0.354605 0.269606
O O7 0.993372 0.934826 0.376362
O O8 0.000000 0.000000 0.500000
O O9 0.914573 0.693026 0.232725
O O10 0.936493 0.834215 0.014355
O O11 0.211303 0.790860 0.118613
O O12 0.446238 0.568679 0.130550
O O13 0.500000 0.000000 0.000000
O O14 0.887205 0.093962 0.776269
O O15 0.737611 0.217942 0.610565
O O16 0.000000 0.500000 0.500000
O O17 0.476121 0.118790 0.266840
O O18 0.500000 0.500000 0.000000
#
# Coordination Sequence:
#
# PCOD9038938 Si02
#       8
#     2   2   2   2   2   2   2   2
#     4  11  22  40  68  94 137 170 223 278 335 399
#     4  11  24  44  70  99 138 179 224 277 340 402
#     4  11  23  41  65  99 133 176 219 276 341 400
#     4  12  23  42  69  97 134 179 227 272 337 404
#     4  11  23  40  67  95 131 176 225 271 335 401
#     4  11  23  42  69  97 133 177 230 275 337 402
#     4  10  23  42  64  99 133 176 223 278 336 400
#     4  11  25  42  70 100 135 179 227 277 340 398
#
# _framework density 21.434051
#
# number of rings (size 3 to 8) (size 9 to 14) (size 15 to 20)
#    0.000    1.000    3.750    3.750    1.750    1.000 
#    0.000    3.750    0.000    0.000    0.000    0.000 
#    0.000    0.000    0.000    0.000    0.000    0.000 
#
# Total GULP energy -89379.379493 kJ/mol
# GULP energy per Si atom -5586.211218 kJ/mol
# Density = 2.138527 g / cm^3
# Si number density = 21.434051 Si / 1000 Ang^3
#
#
#
# Elastic Constant Matrix: (Units=GPa)
#
#
# Indices 1 2 3 4 5 6 
#
# 1 63.9869 24.7701 26.1012 -9.6404 13.0456 -9.8137
# 2 24.7701 203.7430 63.9582 -20.2672 17.8502 -15.1291
# 3 26.1012 63.9582 96.7853 -4.5978 20.3960 2.1077
# 4 -9.6404 -20.2672 -4.5978 39.8974 -2.9654 6.9749
# 5 13.0456 17.8502 20.3960 -2.9654 38.7050 -0.1679
# 6 -9.8137 -15.1291 2.1077 6.9749 -0.1679 37.8601
#
#
#
# Elastic Compliance Matrix: (Units=1/GPa)
#
#
# Indices 1 2 3 4 5 6 
#
# 1 0.019396 0.000013 -0.004354 0.003074 -0.003993 0.004691
# 2 0.000013 0.006725 -0.004243 0.002448 -0.000671 0.002473
# 3 -0.004354 -0.004243 0.015333 -0.001186 -0.004762 -0.003480
# 4 0.003074 0.002448 -0.001186 0.027519 0.000554 -0.003226
# 5 -0.003993 -0.000671 -0.004762 0.000554 0.030039 -0.001007
# 6 0.004691 0.002473 -0.003480 -0.003226 -0.001007 0.029401
#
#
# Mechanical properties :
#
#
# Convention : Reuss Voigt Hill
#
# Bulk Modulus (GPa) = 41.17745 66.01933 53.59839
# Shear Modulus (GPa) = 32.53583 39.93819 36.23701
#
# Velocity S-wave (km/s) = 3.90032 4.32129 4.11619
# Velocity P-wave (km/s) = 6.28778 7.46767 6.90298
#
# Compressibility (1/GPa) = 0.02428513
#
# Stress axis : x y z
#
# Youngs Moduli (GPa) = 51.55689 148.70863 65.21793
#
# Poissons Ratio (x) = -0.00188 0.28394
# Poissons Ratio (y) = -0.00065 0.27674
# Poissons Ratio (z) = 0.22446 0.63101
#
# Static dielectric constant tensor:
#      x y z
#    x 1.872260 0.023990 -0.044520 
#    y 0.023990 1.770850 0.016480 
#    z -0.044520 0.016480 1.865940 
# 
# From -- ./inp_files/271527.got.cif
#   From: 2010.05.17/outbox.cif.g08.bks.cpg/sg2_136_cif.got.tgz:271527.got - 2010.06.03 11:33:40.
