data_PCOD9038532
_publ_section_title
;
Structure prediction by ZEFSAII (Michael W. Deem and Ramdas Pophale) SiO2 
 PCOD9038532
Probable space group: P -1
;
_chemical_formula_sum "Si O2"
_cell_formula_units_Z 14
_cell_length_a 7.988963
_cell_length_b 20.428368
_cell_length_c 14.977198
_cell_angle_alpha 155.424528
_cell_angle_beta 147.326109
_cell_angle_gamma 41.267096
_cell_volume 547.751908
_symmetry_space_group_name_H-M "P -1"
_symmetry_group_IT_number 2
_symmetry_cell_setting 'triclinic'
loop_
_space_group_symop_operation_xyz
x,y,z
-x,-y,-z
loop_
_atom_site_type_symbol
_atom_site_label
_atom_site_fract_x
_atom_site_fract_y
_atom_site_fract_z
Si Si1 0.226025 0.404701 0.366608
Si Si2 0.800524 0.886219 0.446518
Si Si3 0.392757 0.291599 0.108580
Si Si4 0.808627 0.926949 0.010480
Si Si5 0.636770 0.998232 0.765214
Si Si6 0.221843 0.714010 0.289797
Si Si7 0.520930 0.424761 0.014720
O O1 0.385806 0.338184 0.266605
O O2 0.405889 0.567519 0.675423
O O3 0.872676 0.431198 0.215016
O O4 0.239069 0.259297 0.258885
O O5 0.574573 0.946889 0.344959
O O6 0.071063 0.795929 0.407651
O O7 0.626734 0.753092 0.265180
O O8 0.955276 0.032766 0.751364
O O9 0.543911 0.128541 0.956600
O O10 0.046807 0.284296 0.904408
O O11 0.011018 0.993952 0.101125
O O12 0.500000 0.000000 0.000000
O O13 0.511428 0.826903 0.527507
O O14 0.322770 0.537972 0.127159
O O15 0.500000 0.500000 0.000000
#
# Coordination Sequence:
#
# PCOD9038532 Si02
#       7
#     2   2   2   2   2   2   2
#     4  11  24  45  64  99 141 179 220 281 347 392
#     4  11  24  44  69  99 137 182 230 283 333 401
#     4  10  23  41  70  96 137 179 221 279 337 403
#     4  12  27  43  69 100 135 177 230 283 342 405
#     4  11  23  46  72  98 134 184 231 279 335 405
#     4  11  23  43  71 103 133 179 238 272 334 409
#     4  12  24  41  68 102 138 183 228 275 336 408
#
# _framework density 25.559017999999998
#
# number of rings (size 3 to 8) (size 9 to 14) (size 15 to 20)
#    0.000    0.857    2.857    5.143    2.000    4.000 
#    0.000    2.143    0.000    0.000    0.000    0.000 
#    0.000    0.000    0.000    0.000    0.000    0.000 
#
# Total GULP energy -78542.425205 kJ/mol
# GULP energy per Si atom -5610.173229 kJ/mol
# Density = 2.550084 g / cm^3
# Si number density = 25.559018 Si / 1000 Ang^3
#
#
#
# Elastic Constant Matrix: (Units=GPa)
#
#
# Indices 1 2 3 4 5 6 
#
# 1 84.6736 20.2169 0.6932 -8.0056 14.8333 -21.1909
# 2 20.2169 127.1898 23.0080 -1.5633 11.3425 -21.8810
# 3 0.6932 23.0080 120.7768 13.3016 28.0922 0.8090
# 4 -8.0056 -1.5633 13.3016 30.7082 -2.8451 2.7535
# 5 14.8333 11.3425 28.0922 -2.8451 55.1601 6.4208
# 6 -21.1909 -21.8810 0.8090 2.7535 6.4208 49.0210
#
#
#
# Elastic Compliance Matrix: (Units=1/GPa)
#
#
# Indices 1 2 3 4 5 6 
#
# 1 0.014710 -0.000936 0.000921 0.002362 -0.004859 0.006429
# 2 -0.000936 0.009054 -0.001494 0.000405 -0.001271 0.003805
# 3 0.000921 -0.001494 0.010385 -0.004899 -0.005548 0.000562
# 4 0.002362 0.000405 -0.004899 0.035781 0.003764 -0.001220
# 5 -0.004859 -0.001271 -0.005548 0.003764 0.023398 -0.005852
# 6 0.006429 0.003805 0.000562 -0.001220 -0.005852 0.025703
#
#
# Mechanical properties :
#
#
# Convention : Reuss Voigt Hill
#
# Bulk Modulus (GPa) = 32.12296 46.71959 39.42127
# Shear Modulus (GPa) = 37.75698 46.22601 41.99150
#
# Velocity S-wave (km/s) = 3.84767 4.25738 4.05770
# Velocity P-wave (km/s) = 5.68637 6.51811 6.11640
#
# Compressibility (1/GPa) = 0.03113038
#
# Stress axis : x y z
#
# Youngs Moduli (GPa) = 67.98314 110.44502 96.29161
#
# Poissons Ratio (x) = 0.10341 -0.08867
# Poissons Ratio (y) = 0.06365 0.14385
# Poissons Ratio (z) = -0.06261 0.16499
#
# Static dielectric constant tensor:
#      x y z
#    x 2.083030 0.043220 -0.008300 
#    y 0.043220 1.957780 -0.037510 
#    z -0.008300 -0.037510 1.955640 
# 
# From -- ./inp_files/185302.got.cif
#   From: 2010.05.17/outbox.cif.g08.bks.cpg/sg2_93_cif.got.tgz:185302.got - 2010.06.03 11:33:40.
