data_PCOD9038829
_publ_section_title
;
Structure prediction by ZEFSAII (Michael W. Deem and Ramdas Pophale) SiO2 
 PCOD9038829
Probable space group: P -1
;
_chemical_formula_sum "Si O2"
_cell_formula_units_Z 12
_cell_length_a 7.919284
_cell_length_b 6.298764
_cell_length_c 10.570953
_cell_angle_alpha 100.278211
_cell_angle_beta 101.869430
_cell_angle_gamma 100.031817
_cell_volume 495.414846
_symmetry_space_group_name_H-M "P -1"
_symmetry_group_IT_number 2
_symmetry_cell_setting 'triclinic'
loop_
_space_group_symop_operation_xyz
x,y,z
-x,-y,-z
loop_
_atom_site_type_symbol
_atom_site_label
_atom_site_fract_x
_atom_site_fract_y
_atom_site_fract_z
Si Si1 0.557001 0.042543 0.813928
Si Si2 0.229527 0.230668 0.804420
Si Si3 0.312605 0.620373 0.687675
Si Si4 0.013626 0.846062 0.603532
Si Si5 0.796494 0.491618 0.938389
Si Si6 0.316939 0.329400 0.325241
O O1 0.403897 0.168172 0.765658
O O2 0.693846 0.239451 0.921477
O O3 0.429445 0.812478 0.819498
O O4 0.666359 0.928001 0.719487
O O5 0.198101 0.427550 0.732273
O O6 0.263846 0.333081 0.958843
O O7 0.074949 0.014488 0.748547
O O8 0.473898 0.559333 0.628251
O O9 0.176785 0.728376 0.600820
O O10 0.828781 0.685219 0.590806
O O11 0.000000 0.000000 0.500000
O O12 0.758495 0.565695 0.798579
O O13 0.000000 0.500000 0.000000
#
# Coordination Sequence:
#
# PCOD9038829 Si02
#       6
#     2   2   2   2   2   2
#     4   9  20  38  60  90 130 166 196 251 309 378
#     4  11  22  41  63  96 130 166 210 251 317 379
#     4   9  22  42  65  91 128 166 206 254 319 373
#     4  11  25  45  66  91 124 166 219 271 308 361
#     4  12  23  35  64  99 132 165 204 254 313 386
#     4  10  23  42  63  95 128 164 210 253 319 379
#
# _framework density 24.222121999999999
#
# number of rings (size 3 to 8) (size 9 to 14) (size 15 to 20)
#    1.000    0.667    1.667    2.500    0.000    8.000 
#    0.000    0.833    0.000    0.000    0.000    0.000 
#    0.000    0.000    0.000    0.000    0.000    0.000 
#
# Total GULP energy -66862.045747 kJ/mol
# GULP energy per Si atom -5571.837146 kJ/mol
# Density = 2.416699 g / cm^3
# Si number density = 24.222122 Si / 1000 Ang^3
#
#
#
# Elastic Constant Matrix: (Units=GPa)
#
#
# Indices 1 2 3 4 5 6 
#
# 1 161.5786 30.6116 39.5811 -19.2468 29.8812 -2.4088
# 2 30.6116 64.0445 21.7421 14.9223 4.4496 2.1130
# 3 39.5811 21.7421 51.4494 -3.0703 -0.4269 6.8375
# 4 -19.2468 14.9223 -3.0703 58.4677 5.0250 15.7875
# 5 29.8812 4.4496 -0.4269 5.0250 41.2243 -1.1263
# 6 -2.4088 2.1130 6.8375 15.7875 -1.1263 37.4039
#
#
#
# Elastic Compliance Matrix: (Units=1/GPa)
#
#
# Indices 1 2 3 4 5 6 
#
# 1 0.010363 -0.003344 -0.006321 0.004652 -0.007788 -0.000186
# 2 -0.003344 0.021374 -0.007363 -0.007929 0.001097 0.003303
# 3 -0.006321 -0.007363 0.028410 0.002484 0.005202 -0.006076
# 4 0.004652 -0.007929 0.002484 0.023977 -0.005687 -0.009998
# 5 -0.007788 0.001097 0.005202 -0.005687 0.030581 0.001807
# 6 -0.000186 0.003303 -0.006076 -0.009998 0.001807 0.031922
#
#
# Mechanical properties :
#
#
# Convention : Reuss Voigt Hill
#
# Bulk Modulus (GPa) = 38.32799 51.21579 44.77189
# Shear Modulus (GPa) = 26.40191 39.76169 33.08180
#
# Velocity S-wave (km/s) = 3.30508 4.05599 3.69964
# Velocity P-wave (km/s) = 5.51567 6.56696 6.06414
#
# Compressibility (1/GPa) = 0.02609059
#
# Stress axis : x y z
#
# Youngs Moduli (GPa) = 96.50095 46.78527 35.19861
#
# Poissons Ratio (x) = 0.15644 0.22250
# Poissons Ratio (y) = 0.32268 0.25917
# Poissons Ratio (z) = 0.61001 0.34448
#
# Static dielectric constant tensor:
#      x y z
#    x 1.928270 -0.010000 -0.017230 
#    y -0.010000 1.913780 0.064950 
#    z -0.017230 0.064950 2.030550 
# 
# From -- ./inp_files/50768.got.cif
#   From: 2010.05.17/outbox.cif.g08.bks.cpg/sg2_26_cif.got.tgz:50768.got - 2010.06.03 11:33:40.
