data_PCOD9038783
_publ_section_title
;
Structure prediction by ZEFSAII (Michael W. Deem and Ramdas Pophale) SiO2 
 PCOD9038783
Probable space group: P -1
;
_chemical_formula_sum "Si O2"
_cell_formula_units_Z 14
_cell_length_a 7.581019
_cell_length_b 18.013499
_cell_length_c 9.093221
_cell_angle_alpha 41.645166
_cell_angle_beta 122.868675
_cell_angle_gamma 133.060828
_cell_volume 601.548508
_symmetry_space_group_name_H-M "P -1"
_symmetry_group_IT_number 2
_symmetry_cell_setting 'triclinic'
loop_
_space_group_symop_operation_xyz
x,y,z
-x,-y,-z
loop_
_atom_site_type_symbol
_atom_site_label
_atom_site_fract_x
_atom_site_fract_y
_atom_site_fract_z
Si Si1 0.879796 0.678626 0.327720
Si Si2 0.115373 0.022735 0.356618
Si Si3 0.043676 0.761707 0.760610
Si Si4 0.551765 0.805945 0.972319
Si Si5 0.812197 0.531925 0.794551
Si Si6 0.656607 0.607922 0.036345
Si Si7 0.271766 0.965291 0.051245
O O1 0.837227 0.565143 0.586568
O O2 0.840666 0.618986 0.233919
O O3 0.134477 0.813025 0.255004
O O4 0.688533 0.729632 0.200858
O O5 0.165589 0.904920 0.544988
O O6 0.354359 0.148049 0.220845
O O7 0.000000 0.000000 0.500000
O O8 0.916069 0.014522 0.163842
O O9 0.260749 0.737925 0.946798
O O10 0.883746 0.668778 0.696367
O O11 0.845504 0.729741 0.846036
O O12 0.648868 0.935238 0.924786
O O13 0.562893 0.422030 0.909469
O O14 0.000000 0.500000 0.000000
O O15 0.500000 0.500000 0.000000
O O16 0.500000 0.000000 0.000000
#
# Coordination Sequence:
#
# PCOD9038783 Si02
#       7
#     2   2   2   2   2   2   2
#     4  11  22  42  65  89 126 169 210 269 321 374
#     4  11  22  37  62  95 129 164 205 256 316 389
#     4  11  22  40  62  91 129 166 204 265 319 374
#     4  11  22  40  64  94 129 169 208 252 323 399
#     4  11  24  42  64  89 119 167 223 269 319 373
#     4  10  23  42  62  89 123 162 218 268 314 372
#     4  11  23  39  62  97 131 167 209 251 318 401
#
# _framework density 23.273266
#
# number of rings (size 3 to 8) (size 9 to 14) (size 15 to 20)
#    0.000    1.143    0.000    8.571    0.000    2.286 
#    0.000    9.286    0.000    0.000    0.000    0.000 
#    0.000    0.000    0.000    0.000    0.000    0.000 
#
# Total GULP energy -78007.268233 kJ/mol
# GULP energy per Si atom -5571.947731 kJ/mol
# Density = 2.322030 g / cm^3
# Si number density = 23.273266 Si / 1000 Ang^3
#
#
#
# Elastic Constant Matrix: (Units=GPa)
#
#
# Indices 1 2 3 4 5 6 
#
# 1 86.1213 31.6694 21.0680 -10.7202 -18.9479 15.7561
# 2 31.6694 126.0519 35.9816 -4.0179 -22.9091 10.5985
# 3 21.0680 35.9816 131.9446 -20.4914 -24.8115 -0.0969
# 4 -10.7202 -4.0179 -20.4914 28.9488 -7.0554 -15.2550
# 5 -18.9479 -22.9091 -24.8115 -7.0554 35.9507 4.7748
# 6 15.7561 10.5985 -0.0969 -15.2550 4.7748 41.4521
#
#
#
# Elastic Compliance Matrix: (Units=1/GPa)
#
#
# Indices 1 2 3 4 5 6 
#
# 1 0.015739 -0.001899 0.000693 0.006037 0.009325 -0.004348
# 2 -0.001899 0.009872 -0.001728 -0.000901 0.004270 -0.002630
# 3 0.000693 -0.001728 0.011609 0.012444 0.009224 0.003723
# 4 0.006037 -0.000901 0.012444 0.059744 0.020586 0.017581
# 5 0.009325 0.004270 0.009224 0.020586 0.046171 -0.002357
# 6 -0.004348 -0.002630 0.003723 0.017581 -0.002357 0.033199
#
#
# Mechanical properties :
#
#
# Convention : Reuss Voigt Hill
#
# Bulk Modulus (GPa) = 31.89622 57.95065 44.92344
# Shear Modulus (GPa) = 25.95323 38.29691 32.12507
#
# Velocity S-wave (km/s) = 3.34301 4.06092 3.71933
# Velocity P-wave (km/s) = 5.35124 6.85144 6.14728
#
# Compressibility (1/GPa) = 0.03135168
#
# Stress axis : x y z
#
# Youngs Moduli (GPa) = 63.53625 101.29668 86.13658
#
# Poissons Ratio (x) = 0.19239 -0.05967
# Poissons Ratio (y) = 0.12067 0.14884
# Poissons Ratio (z) = -0.04401 0.17503
#
# Static dielectric constant tensor:
#      x y z
#    x 1.894900 -0.100640 0.009350 
#    y -0.100640 1.936820 -0.031500 
#    z 0.009350 -0.031500 1.828460 
# 
# From -- ./inp_files/221763.got.cif
#   From: 2010.05.17/outbox.cif.g08.bks.cpg/sg2_111_cif.got.tgz:221763.got - 2010.06.03 11:33:40.
