data_PCOD9038082
_publ_section_title
;
Structure prediction by ZEFSAII (Michael W. Deem and Ramdas Pophale) SiO2 
 PCOD9038082
Probable space group: P -1
;
_chemical_formula_sum "Si O2"
_cell_formula_units_Z 16
_cell_length_a 11.280793
_cell_length_b 11.237973
_cell_length_c 23.513493
_cell_angle_alpha 22.844730
_cell_angle_beta 39.874166
_cell_angle_gamma 39.129988
_cell_volume 713.320885
_symmetry_space_group_name_H-M "P -1"
_symmetry_group_IT_number 2
_symmetry_cell_setting 'triclinic'
loop_
_space_group_symop_operation_xyz
x,y,z
-x,-y,-z
loop_
_atom_site_type_symbol
_atom_site_label
_atom_site_fract_x
_atom_site_fract_y
_atom_site_fract_z
Si Si1 0.193403 0.806113 0.761542
Si Si2 0.900372 0.001747 0.688813
Si Si3 0.663579 0.658967 0.993188
Si Si4 0.622522 0.672942 0.483085
Si Si5 0.976248 0.730133 0.667771
Si Si6 0.474805 0.174534 0.219685
Si Si7 0.596974 0.689122 0.192677
Si Si8 0.796352 0.923956 0.118153
O O1 0.305965 0.539128 0.793282
O O2 0.304722 0.061830 0.626321
O O3 0.180199 0.597167 0.914179
O O4 0.005898 0.998133 0.711575
O O5 0.796843 0.353852 0.549464
O O6 0.757341 0.785686 0.849318
O O7 0.034009 0.815187 0.672067
O O8 0.561427 0.997166 0.910989
O O9 0.519528 0.458427 0.114771
O O10 0.490884 0.523612 0.638107
O O11 0.527544 0.855935 0.380444
O O12 0.752252 0.732478 0.750519
O O13 0.124178 0.412418 0.731726
O O14 0.000000 0.000000 0.500000
O O15 0.621707 0.121392 0.135064
O O16 0.721925 0.853912 0.114662
O O17 0.000000 0.000000 0.000000
#
# Coordination Sequence:
#
# PCOD9038082 Si02
#       8
#     2   2   2   2   2   2   2   2
#     4  11  22  40  64  96 130 165 224 272 320 397
#     4  11  22  41  64  94 129 171 217 272 329 389
#     4  10  23  41  66  92 129 177 215 264 338 388
#     4  10  23  41  66  92 129 177 215 264 338 388
#     4  12  25  42  68 100 134 176 222 270 336 397
#     4  11  24  44  66  98 138 171 220 280 324 397
#     4  11  22  41  64  94 129 171 217 272 329 389
#     4  12  25  42  68 100 134 176 222 270 336 397
#
# _framework density 22.430299000000002
#
# number of rings (size 3 to 8) (size 9 to 14) (size 15 to 20)
#    0.000    1.000    1.250    6.000    0.000    3.000 
#    0.000    0.000    0.000    0.000    0.000    0.000 
#    0.000    0.000    0.000    0.000    0.000    0.000 
#
# Total GULP energy -89312.540432 kJ/mol
# GULP energy per Si atom -5582.033777 kJ/mol
# Density = 2.237925 g / cm^3
# Si number density = 22.430299 Si / 1000 Ang^3
#
#
#
# Elastic Constant Matrix: (Units=GPa)
#
#
# Indices 1 2 3 4 5 6 
#
# 1 85.8128 -3.0065 18.1081 -1.9809 -4.4634 -13.4110
# 2 -3.0065 84.8804 12.4264 -12.2411 -0.4628 -5.3558
# 3 18.1081 12.4264 100.4127 -18.4385 5.2024 4.0070
# 4 -1.9809 -12.2411 -18.4385 32.3891 -8.9407 7.2952
# 5 -4.4634 -0.4628 5.2024 -8.9407 39.2928 -2.2865
# 6 -13.4110 -5.3558 4.0070 7.2952 -2.2865 26.3290
#
#
#
# Elastic Compliance Matrix: (Units=1/GPa)
#
#
# Indices 1 2 3 4 5 6 
#
# 1 0.013830 0.001260 -0.003468 -0.002005 0.002087 0.008566
# 2 0.001260 0.012755 -0.001235 0.004068 0.001524 0.002430
# 3 -0.003468 -0.001235 0.012402 0.007558 -0.000683 -0.006059
# 4 -0.002005 0.004068 0.007558 0.041411 0.007534 -0.012164
# 5 0.002087 0.001524 -0.000683 0.007534 0.027614 0.001788
# 6 0.008566 0.002430 -0.006059 -0.012164 0.001788 0.047286
#
#
# Mechanical properties :
#
#
# Convention : Reuss Voigt Hill
#
# Bulk Modulus (GPa) = 31.15059 36.24019 33.69539
# Shear Modulus (GPa) = 28.92107 35.84070 32.38089
#
# Velocity S-wave (km/s) = 3.59468 4.00167 3.80363
# Velocity P-wave (km/s) = 5.58094 6.12724 5.86046
#
# Compressibility (1/GPa) = 0.03210212
#
# Stress axis : x y z
#
# Youngs Moduli (GPa) = 72.30537 78.40072 80.63158
#
# Poissons Ratio (x) = -0.09881 0.27965
# Poissons Ratio (y) = -0.09112 0.09955
# Poissons Ratio (z) = 0.25077 0.09679
#
# Static dielectric constant tensor:
#      x y z
#    x 1.897690 -0.053870 0.004020 
#    y -0.053870 1.843630 -0.018280 
#    z 0.004020 -0.018280 1.826260 
# 
# From -- ./inp_files/439238.got.cif
#   From: 2010.05.17/outbox.cif.g08.bks.cpg/sg2_220_cif.got.tgz:439238.got - 2010.06.03 11:33:40.
