data_PCOD9038914
_publ_section_title
;
Structure prediction by ZEFSAII (Michael W. Deem and Ramdas Pophale) SiO2 
 PCOD9038914
Probable space group: P -1
;
_chemical_formula_sum "Si O2"
_cell_formula_units_Z 14
_cell_length_a 7.740092
_cell_length_b 8.974158
_cell_length_c 12.364631
_cell_angle_alpha 124.823887
_cell_angle_beta 61.762247
_cell_angle_gamma 107.995379
_cell_volume 620.246911
_symmetry_space_group_name_H-M "P -1"
_symmetry_group_IT_number 2
_symmetry_cell_setting 'triclinic'
loop_
_space_group_symop_operation_xyz
x,y,z
-x,-y,-z
loop_
_atom_site_type_symbol
_atom_site_label
_atom_site_fract_x
_atom_site_fract_y
_atom_site_fract_z
Si Si1 0.710744 0.223099 0.102798
Si Si2 0.768988 0.628109 0.171245
Si Si3 0.865113 0.697558 0.929850
Si Si4 0.042101 0.578199 0.402733
Si Si5 0.616024 0.151509 0.646382
Si Si6 0.849277 0.841260 0.433068
Si Si7 0.532792 0.086328 0.879489
O O1 0.707102 0.437458 0.167782
O O2 0.926531 0.191226 0.071244
O O3 0.545270 0.125010 0.187186
O O4 0.664316 0.126130 0.961842
O O5 0.584745 0.751747 0.263787
O O6 0.902556 0.749203 0.265304
O O7 0.842704 0.601757 0.015782
O O8 0.894560 0.565479 0.765474
O O9 0.669010 0.804839 0.011373
O O10 0.221911 0.727852 0.415787
O O11 0.000000 0.500000 0.500000
O O12 0.858476 0.680537 0.450458
O O13 0.647773 0.151483 0.766496
O O14 0.646376 0.941748 0.522250
O O15 0.000000 0.000000 0.500000
#
# Coordination Sequence:
#
# PCOD9038914 Si02
#       7
#     2   2   2   2   2   2   2
#     4  11  22  39  67 101 136 168 222 276 336 393
#     4  11  22  42  71 101 124 176 226 274 333 389
#     4  11  23  43  69  99 134 172 226 278 331 399
#     4  11  24  44  67  99 133 176 220 272 339 397
#     4  10  23  44  66  94 135 175 219 275 329 403
#     4  10  23  42  64  96 133 177 215 269 337 395
#     4  10  24  42  66 103 133 176 218 280 338 386
#
# _framework density 22.571657999999999
#
# number of rings (size 3 to 8) (size 9 to 14) (size 15 to 20)
#    0.000    1.429    1.429    3.000    4.000    5.714 
#   15.429    1.429    0.000    0.000    0.000    0.000 
#    0.000    0.000    0.000    0.000    0.000    0.000 
#
# Total GULP energy -78128.372753 kJ/mol
# GULP energy per Si atom -5580.598054 kJ/mol
# Density = 2.252028 g / cm^3
# Si number density = 22.571658 Si / 1000 Ang^3
#
#
#
# Elastic Constant Matrix: (Units=GPa)
#
#
# Indices 1 2 3 4 5 6 
#
# 1 57.5973 19.8641 31.4588 3.6264 -1.2159 -11.2561
# 2 19.8641 114.1467 65.2703 -12.8807 9.1094 -17.1748
# 3 31.4588 65.2703 130.0476 1.9675 2.4782 -15.9763
# 4 3.6264 -12.8807 1.9675 35.2902 -4.2486 2.9954
# 5 -1.2159 9.1094 2.4782 -4.2486 32.2208 3.9084
# 6 -11.2561 -17.1748 -15.9763 2.9954 3.9084 31.0159
#
#
#
# Elastic Compliance Matrix: (Units=1/GPa)
#
#
# Indices 1 2 3 4 5 6 
#
# 1 0.021050 -0.000953 -0.003929 -0.002698 0.000367 0.005302
# 2 -0.000953 0.013936 -0.006268 0.004781 -0.003361 0.004104
# 3 -0.003929 -0.006268 0.012010 -0.002664 0.000164 0.001527
# 4 -0.002698 0.004781 -0.002664 0.031162 0.003239 -0.003121
# 5 0.000367 -0.003361 0.000164 0.003239 0.033159 -0.006135
# 6 0.005302 0.004104 0.001527 -0.003121 -0.006135 0.038300
#
#
# Mechanical properties :
#
#
# Convention : Reuss Voigt Hill
#
# Bulk Modulus (GPa) = 40.48942 59.44202 49.96572
# Shear Modulus (GPa) = 27.75502 32.05194 29.90348
#
# Velocity S-wave (km/s) = 3.51043 3.77239 3.64376
# Velocity P-wave (km/s) = 5.86583 6.73547 6.31563
#
# Compressibility (1/GPa) = 0.02469781
#
# Stress axis : x y z
#
# Youngs Moduli (GPa) = 47.50564 71.75789 83.26101
#
# Poissons Ratio (x) = 0.06835 0.32711
# Poissons Ratio (y) = 0.04525 0.52187
# Poissons Ratio (z) = 0.18664 0.44977
#
# Static dielectric constant tensor:
#      x y z
#    x 1.921010 -0.018570 -0.021610 
#    y -0.018570 1.845870 0.024370 
#    z -0.021610 0.024370 1.855840 
# 
# From -- ./inp_files/325941.got.cif
#   From: 2010.05.17/outbox.cif.g08.bks.cpg/sg2_163_cif.got.tgz:325941.got - 2010.06.03 11:33:40.
