data_PCOD9038191
_publ_section_title
;
Structure prediction by ZEFSAII (Michael W. Deem and Ramdas Pophale) SiO2 
 PCOD9038191
Probable space group: P -1
;
_chemical_formula_sum "Si O2"
_cell_formula_units_Z 16
_cell_length_a 14.354681
_cell_length_b 8.851499
_cell_length_c 9.186990
_cell_angle_alpha 67.717845
_cell_angle_beta 140.748054
_cell_angle_gamma 103.023237
_cell_volume 678.775306
_symmetry_space_group_name_H-M "P -1"
_symmetry_group_IT_number 2
_symmetry_cell_setting 'triclinic'
loop_
_space_group_symop_operation_xyz
x,y,z
-x,-y,-z
loop_
_atom_site_type_symbol
_atom_site_label
_atom_site_fract_x
_atom_site_fract_y
_atom_site_fract_z
Si Si1 0.134094 0.900512 0.899296
Si Si2 0.667402 0.763664 0.487035
Si Si3 0.080476 0.441844 0.470208
Si Si4 0.571915 0.420086 0.869837
Si Si5 0.659961 0.345383 0.322057
Si Si6 0.171650 0.081020 0.610712
Si Si7 0.169926 0.523558 0.058919
Si Si8 0.182088 0.986660 0.225784
O O1 0.958908 0.958581 0.642009
O O2 0.204796 0.936285 0.817248
O O3 0.146075 0.709161 0.018184
O O4 0.210831 0.987502 0.087890
O O5 0.514263 0.688404 0.306883
O O6 0.695605 0.863102 0.339749
O O7 0.781487 0.600037 0.708688
O O8 0.724679 0.877580 0.640387
O O9 0.236031 0.510141 0.622347
O O10 0.101296 0.244556 0.552206
O O11 0.000000 0.500000 0.500000
O O12 0.976787 0.514082 0.186795
O O13 0.469023 0.580235 0.750718
O O14 0.706153 0.478023 0.918046
O O15 0.610717 0.320789 0.103932
O O16 0.751893 0.183806 0.557320
O O17 0.000000 0.000000 0.000000
#
# Coordination Sequence:
#
# PCOD9038191 Si02
#       8
#     2   2   2   2   2   2   2   2
#     4  10  24  43  67 101 146 181 229 305 358 412
#     4  12  25  44  71 102 140 189 238 290 354 432
#     4  11  22  39  74 105 136 182 245 299 354 415
#     4  11  25  48  69 102 148 197 235 288 357 446
#     4  11  25  45  73 104 145 190 239 293 360 427
#     4  10  23  41  67 104 141 183 233 291 361 420
#     4  11  25  44  73 101 141 187 242 295 357 419
#     4  12  26  43  72 107 145 179 243 308 356 413
#
# _framework density 23.571864999999999
#
# number of rings (size 3 to 8) (size 9 to 14) (size 15 to 20)
#    0.000    1.000    3.750    1.875    5.250    1.500 
#    0.000    1.250    0.000    0.000    0.000    0.000 
#    0.000    0.000    0.000    0.000    0.000    0.000 
#
# Total GULP energy -89475.164376 kJ/mol
# GULP energy per Si atom -5592.197773 kJ/mol
# Density = 2.351821 g / cm^3
# Si number density = 23.571865 Si / 1000 Ang^3
#
#
#
# Elastic Constant Matrix: (Units=GPa)
#
#
# Indices 1 2 3 4 5 6 
#
# 1 63.9546 6.4034 3.5216 12.8105 6.8386 -8.9240
# 2 6.4034 85.8248 51.6129 21.7262 -12.0117 1.3670
# 3 3.5216 51.6129 116.3535 8.9627 -6.1835 -7.4339
# 4 12.8105 21.7262 8.9627 47.3773 -1.2281 -11.9707
# 5 6.8386 -12.0117 -6.1835 -1.2281 26.8465 0.1901
# 6 -8.9240 1.3670 -7.4339 -11.9707 0.1901 29.6068
#
#
#
# Elastic Compliance Matrix: (Units=1/GPa)
#
#
# Indices 1 2 3 4 5 6 
#
# 1 0.017555 -0.001535 0.000385 -0.003190 -0.005245 0.004203
# 2 -0.001535 0.020073 -0.008251 -0.008833 0.007118 -0.007078
# 3 0.000385 -0.008251 0.012298 0.002492 -0.000876 0.004598
# 4 -0.003190 -0.008833 0.002492 0.028440 -0.001347 0.011580
# 5 -0.005245 0.007118 -0.000876 -0.001347 0.041527 -0.002941
# 6 0.004203 -0.007078 0.004598 0.011580 -0.002941 0.041225
#
#
# Mechanical properties :
#
#
# Convention : Reuss Voigt Hill
#
# Bulk Modulus (GPa) = 32.12965 43.24541 37.68753
# Shear Modulus (GPa) = 26.27490 34.40576 30.34033
#
# Velocity S-wave (km/s) = 3.34229 3.82463 3.59157
# Velocity P-wave (km/s) = 5.34366 6.15547 5.76387
#
# Compressibility (1/GPa) = 0.03112390
#
# Stress axis : x y z
#
# Youngs Moduli (GPa) = 56.96437 49.81734 81.31202
#
# Poissons Ratio (x) = 0.07647 -0.03131
# Poissons Ratio (y) = 0.08744 0.67094
# Poissons Ratio (z) = -0.02193 0.41106
#
# Static dielectric constant tensor:
#      x y z
#    x 1.927640 -0.073010 0.005010 
#    y -0.073010 1.893220 0.028060 
#    z 0.005010 0.028060 1.906560 
# 
# From -- ./inp_files/298038.got.cif
#   From: 2010.05.17/outbox.cif.g08.bks.cpg/sg2_150_cif.got.tgz:298038.got - 2010.06.03 11:33:40.
