data_PCOD9038985
_publ_section_title
;
Structure prediction by ZEFSAII (Michael W. Deem and Ramdas Pophale) SiO2 
 PCOD9038985
Probable space group: P -1
;
_chemical_formula_sum "Si O2"
_cell_formula_units_Z 16
_cell_length_a 8.248905
_cell_length_b 7.223167
_cell_length_c 15.025262
_cell_angle_alpha 92.974311
_cell_angle_beta 104.697513
_cell_angle_gamma 124.103593
_cell_volume 695.652082
_symmetry_space_group_name_H-M "P -1"
_symmetry_group_IT_number 2
_symmetry_cell_setting 'triclinic'
loop_
_space_group_symop_operation_xyz
x,y,z
-x,-y,-z
loop_
_atom_site_type_symbol
_atom_site_label
_atom_site_fract_x
_atom_site_fract_y
_atom_site_fract_z
Si Si1 0.363600 0.082746 0.826516
Si Si2 0.133160 0.461632 0.450010
Si Si3 0.034284 0.731597 0.326500
Si Si4 0.412347 0.144872 0.468883
Si Si5 0.760183 0.322931 0.969198
Si Si6 0.343536 0.627375 0.856010
Si Si7 0.171134 0.078062 0.614571
Si Si8 0.236477 0.105725 0.005397
O O1 0.612385 0.274206 0.867026
O O2 0.271219 0.130839 0.902374
O O3 0.332679 0.837748 0.826995
O O4 0.284545 0.103331 0.722725
O O5 0.375801 0.604306 0.513399
O O6 0.000000 0.500000 0.500000
O O7 0.109141 0.575673 0.361112
O O8 0.019872 0.192833 0.416040
O O9 0.857950 0.597662 0.223376
O O10 0.906830 0.762582 0.384576
O O11 0.245332 0.997412 0.362139
O O12 0.500000 0.000000 0.500000
O O13 0.303328 0.132424 0.545690
O O14 0.696121 0.402325 0.045392
O O15 0.000000 0.500000 0.000000
O O16 0.724029 0.086348 0.980221
O O17 0.581592 0.701638 0.895419
O O18 0.000000 0.000000 0.000000
#
# Coordination Sequence:
#
# PCOD9038985 Si02
#       8
#     2   2   2   2   2   2   2   2
#     4   9  20  39  60  84 121 169 200 248 321 363
#     4  11  23  45  67  86 131 173 198 266 322 357
#     4  11  23  40  63  97 122 159 220 256 304 386
#     4  10  23  42  65  93 122 167 214 248 316 383
#     4   9  19  35  59  84 116 164 201 247 309 371
#     4   9  19  39  60  83 124 164 200 255 309 372
#     4  12  23  42  66  94 128 162 214 263 309 374
#     4   9  19  38  60  87 124 157 206 253 306 372
#
# _framework density 23.0
#
# number of rings (size 3 to 8) (size 9 to 14) (size 15 to 20)
#    0.000    2.000    3.750    1.875    0.000    4.500 
#    2.250    5.000    0.000    0.000    0.000    0.000 
#    0.000    0.000    0.000    0.000    0.000    0.000 
#
# Total GULP energy -89111.207093 kJ/mol
# GULP energy per Si atom -5569.450443 kJ/mol
# Density = 2.294765 g / cm^3
# Si number density = 23.000000 Si / 1000 Ang^3
#
#
#
# Elastic Constant Matrix: (Units=GPa)
#
#
# Indices 1 2 3 4 5 6 
#
# 1 110.7268 33.9350 44.4374 16.9949 19.2183 9.1803
# 2 33.9350 92.4905 47.2020 25.4282 17.0225 16.7907
# 3 44.4374 47.2020 161.9864 34.5375 51.2437 15.8593
# 4 16.9949 25.4282 34.5375 37.7901 6.9713 14.0181
# 5 19.2183 17.0225 51.2437 6.9713 34.9916 14.8313
# 6 9.1803 16.7907 15.8593 14.0181 14.8313 50.1407
#
#
#
# Elastic Compliance Matrix: (Units=1/GPa)
#
#
# Indices 1 2 3 4 5 6 
#
# 1 0.011004 -0.002529 -0.000758 -0.002166 -0.003584 0.000738
# 2 -0.002529 0.014954 -0.001664 -0.006481 -0.001397 -0.001793
# 3 -0.000758 -0.001664 0.015360 -0.010531 -0.021328 0.005091
# 4 -0.002166 -0.006481 -0.010531 0.042454 0.015822 -0.010651
# 5 -0.003584 -0.001397 -0.021328 0.015822 0.066140 -0.016117
# 6 0.000738 -0.001793 0.005091 -0.010651 -0.016117 0.026544
#
#
# Mechanical properties :
#
#
# Convention : Reuss Voigt Hill
#
# Bulk Modulus (GPa) = 31.83234 68.48361 50.15798
# Shear Modulus (GPa) = 25.40242 40.55975 32.98108
#
# Velocity S-wave (km/s) = 3.32694 4.20392 3.79087
# Velocity P-wave (km/s) = 5.35053 7.30781 6.40438
#
# Compressibility (1/GPa) = 0.03141459
#
# Stress axis : x y z
#
# Youngs Moduli (GPa) = 90.87534 66.87365 65.10213
#
# Poissons Ratio (x) = 0.16913 0.04937
# Poissons Ratio (y) = 0.22984 0.10835
# Poissons Ratio (z) = 0.06891 0.11130
#
# Static dielectric constant tensor:
#      x y z
#    x 1.915590 0.095590 0.041170 
#    y 0.095590 2.079660 0.065430 
#    z 0.041170 0.065430 1.895030 
# 
# From -- ./inp_files/495238.got.cif
#   From: 2010.05.17/outbox.cif.g08.bks.cpg/sg2_248_cif.got.tgz:495238.got - 2010.06.03 11:33:40.
