data_PCOD9038167
_publ_section_title
;
Structure prediction by ZEFSAII (Michael W. Deem and Ramdas Pophale) SiO2 
 PCOD9038167
Probable space group: P -1
;
_chemical_formula_sum "Si O2"
_cell_formula_units_Z 14
_cell_length_a 5.551228
_cell_length_b 7.209379
_cell_length_c 20.369975
_cell_angle_alpha 132.489294
_cell_angle_beta 88.185904
_cell_angle_gamma 103.706933
_cell_volume 574.572952
_symmetry_space_group_name_H-M "P -1"
_symmetry_group_IT_number 2
_symmetry_cell_setting 'triclinic'
loop_
_space_group_symop_operation_xyz
x,y,z
-x,-y,-z
loop_
_atom_site_type_symbol
_atom_site_label
_atom_site_fract_x
_atom_site_fract_y
_atom_site_fract_z
Si Si1 0.088343 0.353545 0.676608
Si Si2 0.719657 0.118310 0.400763
Si Si3 0.582803 0.745978 0.767645
Si Si4 0.127810 0.781175 0.033187
Si Si5 0.684577 0.324705 0.767590
Si Si6 0.181462 0.484173 0.400802
Si Si7 0.405300 0.351471 0.033161
O O1 0.282035 0.647175 0.742299
O O2 0.959804 0.321725 0.742041
O O3 0.910605 0.347987 0.614457
O O4 0.204340 0.110758 0.614414
O O5 0.649136 0.312320 0.499951
O O6 0.949791 0.296847 0.398685
O O7 0.503255 0.955645 0.315826
O O8 0.633562 0.534701 0.767290
O O9 0.686656 0.692405 0.684093
O O10 0.728459 0.018525 0.864199
O O11 0.355558 0.755925 0.977798
O O12 0.000000 0.500000 0.000000
O O13 0.877744 0.844763 0.022232
O O14 0.635923 0.438512 0.864217
O O15 0.500000 0.500000 0.000000
#
# Coordination Sequence:
#
# PCOD9038167 Si02
#       7
#     2   2   2   2   2   2   2
#     4  10  23  42  66  96 138 180 220 280 347 410
#     4  10  23  41  67 100 134 175 226 281 345 416
#     4  10  24  42  66  94 135 174 228 283 345 415
#     4  10  24  41  66  96 130 178 230 286 348 411
#     4  10  24  42  66  94 135 174 228 283 345 415
#     4  10  23  41  67 100 134 175 226 281 345 416
#     4  10  24  41  66  96 130 178 230 286 348 411
#
# _framework density 24.365922999999999
#
# number of rings (size 3 to 8) (size 9 to 14) (size 15 to 20)
#    0.000    2.000    0.000    0.429   12.000   10.857 
#    0.000    2.857    0.000    0.000    0.000    0.000 
#    0.000    0.000    0.000    0.000    0.000    0.000 
#
# Total GULP energy -78207.677038 kJ/mol
# GULP energy per Si atom -5586.262646 kJ/mol
# Density = 2.431046 g / cm^3
# Si number density = 24.365923 Si / 1000 Ang^3
#
#
#
# Elastic Constant Matrix: (Units=GPa)
#
#
# Indices 1 2 3 4 5 6 
#
# 1 101.7641 14.7838 41.9433 0.4444 -1.2328 19.6734
# 2 14.7838 110.1482 47.7270 -0.7718 1.0803 7.9971
# 3 41.9433 47.7270 245.6657 5.7320 5.8880 45.0269
# 4 0.4444 -0.7718 5.7320 22.2151 -2.8120 0.5271
# 5 -1.2328 1.0803 5.8880 -2.8120 22.2830 -0.0022
# 6 19.6734 7.9971 45.0269 0.5271 -0.0022 51.2442
#
#
#
# Elastic Compliance Matrix: (Units=1/GPa)
#
#
# Indices 1 2 3 4 5 6 
#
# 1 0.011036 -0.000743 -0.001209 0.000264 0.000999 -0.003061
# 2 -0.000743 0.009981 -0.001906 0.000855 0.000087 0.000394
# 3 -0.001209 -0.001906 0.005459 -0.001560 -0.001614 -0.004019
# 4 0.000264 0.000855 -0.001560 0.046212 0.006217 0.000660
# 5 0.000999 0.000087 -0.001614 0.006217 0.046139 0.000959
# 6 -0.003061 0.000394 -0.004019 0.000660 0.000959 0.024153
#
#
# Mechanical properties :
#
#
# Convention : Reuss Voigt Hill
#
# Bulk Modulus (GPa) = 53.30774 74.05402 63.68088
# Shear Modulus (GPa) = 31.85722 42.69005 37.27364
#
# Velocity S-wave (km/s) = 3.61979 4.19028 3.91544
# Velocity P-wave (km/s) = 6.27662 7.33960 6.82882
#
# Compressibility (1/GPa) = 0.01875900
#
# Stress axis : x y z
#
# Youngs Moduli (GPa) = 90.61586 100.19023 183.18166
#
# Poissons Ratio (x) = 0.07445 0.22143
# Poissons Ratio (y) = 0.06734 0.34923
# Poissons Ratio (z) = 0.10954 0.19101
#
# Static dielectric constant tensor:
#      x y z
#    x 2.392510 -0.215160 -0.012130 
#    y -0.215160 2.120050 -0.000600 
#    z -0.012130 -0.000600 1.897010 
# 
# From -- ./inp_files/46416.got.cif
#   From: 2010.05.17/outbox.cif.g08.bks.cpg/sg2_24_cif.got.tgz:46416.got - 2010.06.03 11:33:40.
