data_PCOD9038429
_publ_section_title
;
Structure prediction by ZEFSAII (Michael W. Deem and Ramdas Pophale) SiO2 
 PCOD9038429
Probable space group: P -1
;
_chemical_formula_sum "Si O2"
_cell_formula_units_Z 16
_cell_length_a 17.500955
_cell_length_b 12.148796
_cell_length_c 20.580808
_cell_angle_alpha 140.037359
_cell_angle_beta 20.349808
_cell_angle_gamma 148.953898
_cell_volume 768.062580
_symmetry_space_group_name_H-M "P -1"
_symmetry_group_IT_number 2
_symmetry_cell_setting 'triclinic'
loop_
_space_group_symop_operation_xyz
x,y,z
-x,-y,-z
loop_
_atom_site_type_symbol
_atom_site_label
_atom_site_fract_x
_atom_site_fract_y
_atom_site_fract_z
Si Si1 0.465043 0.224678 0.077991
Si Si2 0.648672 0.746960 0.604008
Si Si3 0.119456 0.286427 0.280461
Si Si4 0.890066 0.059543 0.930894
Si Si5 0.048668 0.251301 0.746274
Si Si6 0.253602 0.723621 0.324396
Si Si7 0.061050 0.754924 0.366114
Si Si8 0.820211 0.500256 0.039819
O O1 0.327516 0.290693 0.166720
O O2 0.590107 0.373154 0.109093
O O3 0.221488 0.970045 0.173159
O O4 0.714210 0.244405 0.853179
O O5 0.339718 0.617919 0.818799
O O6 0.693201 0.714740 0.479784
O O7 0.795540 0.669118 0.494819
O O8 0.807840 0.999439 0.606581
O O9 0.252080 0.524801 0.256059
O O10 0.849021 0.212091 0.504219
O O11 0.056529 0.117939 0.198234
O O12 0.996325 0.179462 0.830360
O O13 0.042576 0.248433 0.948254
O O14 0.557700 0.920795 0.144064
O O15 0.032629 0.445776 0.835877
O O16 0.028519 0.642560 0.409529
#
# Coordination Sequence:
#
# PCOD9038429 Si02
#       8
#     2   2   2   2   2   2   2   2
#     4  11  20  38  62  88 117 154 207 238 285 342
#     4  11  22  34  58  90 121 157 196 239 289 331
#     4  10  23  41  69  88 108 149 203 251 287 354
#     4  11  24  38  59  88 125 152 189 245 301 347
#     4  11  21  37  58  86 117 163 204 234 277 350
#     4  11  21  42  68  88 111 148 204 245 297 342
#     4  11  19  35  64  89 115 153 201 252 272 339
#     4  12  23  37  55  88 128 158 189 239 296 349
#
# _framework density 20.831636
#
# number of rings (size 3 to 8) (size 9 to 14) (size 15 to 20)
#    0.000    1.000    5.000    4.875    0.000    1.500 
#    0.000    0.625    0.000    2.250    0.000    0.000 
#    0.000    0.000    0.000    0.000    0.000    0.000 
#
# Total GULP energy -89443.157821 kJ/mol
# GULP energy per Si atom -5590.197364 kJ/mol
# Density = 2.078422 g / cm^3
# Si number density = 20.831636 Si / 1000 Ang^3
#
#
#
# Elastic Constant Matrix: (Units=GPa)
#
#
# Indices 1 2 3 4 5 6 
#
# 1 66.1503 46.6806 14.6469 5.0350 3.1312 6.2455
# 2 46.6806 92.1637 22.0547 32.8823 0.5524 22.2038
# 3 14.6469 22.0547 78.2239 32.2279 23.0293 8.9794
# 4 5.0350 32.8823 32.2279 21.3197 -7.3826 -3.0062
# 5 3.1312 0.5524 23.0293 -7.3826 26.4365 6.6774
# 6 6.2455 22.2038 8.9794 -3.0062 6.6774 39.0445
#
#
#
# Elastic Compliance Matrix: (Units=1/GPa)
#
#
# Indices 1 2 3 4 5 6 
#
# 1 0.018445 -0.004729 0.010553 -0.018813 -0.016187 -0.001368
# 2 -0.004729 0.008616 -0.020358 0.027429 0.026238 -0.001837
# 3 0.010553 -0.020358 -0.001280 0.034946 0.007105 0.011659
# 4 -0.018813 0.027429 0.034946 -0.060589 -0.041094 -0.018263
# 5 -0.016187 0.026238 0.007105 -0.041094 0.027025 -0.021752
# 6 -0.001368 -0.001837 0.011659 -0.018263 -0.021752 0.026508
#
#
# Mechanical properties :
#
#
# Convention : Reuss Voigt Hill
#
# Bulk Modulus (GPa) = -304.16068 44.81136 -129.67466
# Shear Modulus (GPa) = 107.07279 27.57051 67.32165
#
# Velocity S-wave (km/s) = 7.17710 3.64193 5.69097
# Velocity P-wave (km/s) = 8.81164 6.26441 4.38191
#
# Compressibility (1/GPa) = -0.00328774
#
# Stress axis : x y z
#
# Youngs Moduli (GPa) = 54.21566 116.06086 -781.30814
#
# Poissons Ratio (x) = 0.54883 8.24497
# Poissons Ratio (y) = 0.25638 -15.90615
# Poissons Ratio (z) = -0.57213 2.36281
#
# Static dielectric constant tensor:
#      x y z
#    x 1.794370 0.026100 0.009830 
#    y 0.026100 1.751530 0.004460 
#    z 0.009830 0.004460 1.788380 
# 
# From -- ./inp_files/464523.got.cif
#   From: 2010.05.17/outbox.cif.g08.bks.cpg/sg2_233_cif.got.tgz:464523.got - 2010.06.03 11:33:40.
