data_PCOD9038655
_publ_section_title
;
Structure prediction by ZEFSAII (Michael W. Deem and Ramdas Pophale) SiO2 
 PCOD9038655
Probable space group: P -1
;
_chemical_formula_sum "Si O2"
_cell_formula_units_Z 16
_cell_length_a 5.744861
_cell_length_b 9.048723
_cell_length_c 14.875947
_cell_angle_alpha 83.642887
_cell_angle_beta 112.160315
_cell_angle_gamma 96.936514
_cell_volume 709.153022
_symmetry_space_group_name_H-M "P -1"
_symmetry_group_IT_number 2
_symmetry_cell_setting 'triclinic'
loop_
_space_group_symop_operation_xyz
x,y,z
-x,-y,-z
loop_
_atom_site_type_symbol
_atom_site_label
_atom_site_fract_x
_atom_site_fract_y
_atom_site_fract_z
Si Si1 0.685423 0.630081 0.921573
Si Si2 0.297545 0.060745 0.035613
Si Si3 0.146334 0.561398 0.888355
Si Si4 0.359229 0.882354 0.558108
Si Si5 0.192164 0.653692 0.261010
Si Si6 0.424780 0.530287 0.588819
Si Si7 0.944331 0.749025 0.390982
Si Si8 0.473016 0.056458 0.747268
O O1 0.720987 0.764132 0.988291
O O2 0.385933 0.624024 0.859494
O O3 0.903740 0.649763 0.875797
O O4 0.740647 0.481411 0.995110
O O5 0.444137 0.040485 0.152109
O O6 0.500000 0.000000 0.000000
O O7 0.000000 0.000000 0.000000
O O8 0.034420 0.419436 0.825033
O O9 0.420536 0.708521 0.583192
O O10 0.071804 0.851306 0.481551
O O11 0.500000 0.000000 0.500000
O O12 0.430685 0.956534 0.658888
O O13 0.382331 0.525587 0.306120
O O14 0.309175 0.808210 0.228932
O O15 0.143870 0.696297 0.353759
O O16 0.500000 0.500000 0.500000
O O17 0.191909 0.405096 0.581188
O O18 0.771337 0.848700 0.298748
#
# Coordination Sequence:
#
# PCOD9038655 Si02
#       8
#     2   2   2   2   2   2   2   2
#     4  10  23  45  66 104 133 183 238 298 359 421
#     4  12  28  48  74 106 150 193 242 306 373 445
#     4  10  23  41  72  95 140 179 238 298 352 428
#     4  12  23  46  70 104 148 185 236 308 360 442
#     4  11  24  43  70 100 136 190 238 293 356 442
#     4  11  24  44  68 101 138 186 240 287 362 433
#     4  11  24  46  70 100 142 193 241 292 367 435
#     4  11  27  43  72 103 141 192 242 296 378 437
#
# _framework density 22.562127
#
# number of rings (size 3 to 8) (size 9 to 14) (size 15 to 20)
#    0.000    1.000    2.500    3.000    8.750    1.000 
#    2.250    0.000    0.000    0.000    0.000    0.000 
#    0.000    0.000    0.000    0.000    0.000    0.000 
#
# Total GULP energy -89092.809475 kJ/mol
# GULP energy per Si atom -5568.300592 kJ/mol
# Density = 2.251077 g / cm^3
# Si number density = 22.562127 Si / 1000 Ang^3
#
#
#
# Elastic Constant Matrix: (Units=GPa)
#
#
# Indices 1 2 3 4 5 6 
#
# 1 116.5882 47.3776 22.5769 9.1846 14.6419 -1.7161
# 2 47.3776 129.0999 22.7067 5.1814 20.6356 1.9514
# 3 22.5769 22.7067 99.0998 1.9298 18.7882 2.7207
# 4 9.1846 5.1814 1.9298 46.6639 5.7330 -0.1065
# 5 14.6419 20.6356 18.7882 5.7330 20.4915 15.1282
# 6 -1.7161 1.9514 2.7207 -0.1065 15.1282 34.5073
#
#
#
# Elastic Compliance Matrix: (Units=1/GPa)
#
#
# Indices 1 2 3 4 5 6 
#
# 1 0.010819 -0.002783 -0.000607 -0.000941 -0.006883 0.003758
# 2 -0.002783 0.010672 0.000541 0.000978 -0.013236 0.005021
# 3 -0.000607 0.000541 0.013226 0.001689 -0.017594 0.006615
# 4 -0.000941 0.000978 0.001689 0.022930 -0.012057 0.005121
# 5 -0.006883 -0.013236 -0.017594 -0.012057 0.126054 -0.053507
# 6 0.003758 0.005021 0.006615 0.005121 -0.053507 0.051834
#
#
# Mechanical properties :
#
#
# Convention : Reuss Voigt Hill
#
# Bulk Modulus (GPa) = 34.45831 58.90114 46.67972
# Shear Modulus (GPa) = 19.92766 37.14099 28.53433
#
# Velocity S-wave (km/s) = 2.97515 4.06170 3.56012
# Velocity P-wave (km/s) = 5.20652 6.93970 6.13462
#
# Compressibility (1/GPa) = 0.02902058
#
# Stress axis : x y z
#
# Youngs Moduli (GPa) = 92.42659 93.69934 75.60677
#
# Poissons Ratio (x) = 0.26073 0.04591
# Poissons Ratio (y) = 0.25718 -0.04090
# Poissons Ratio (z) = 0.05612 -0.05069
#
# Static dielectric constant tensor:
#      x y z
#    x 1.938450 -0.020910 0.033510 
#    y -0.020910 2.010840 -0.133010 
#    z 0.033510 -0.133010 1.895210 
# 
# From -- ./inp_files/480460.got.cif
#   From: 2010.05.17/outbox.cif.g08.bks.cpg/sg2_241_cif.got.tgz:480460.got - 2010.06.03 11:33:40.
