data_PCOD9038029
_publ_section_title
;
Structure prediction by ZEFSAII (Michael W. Deem and Ramdas Pophale) SiO2 
 PCOD9038029
Probable space group: P -1
;
_chemical_formula_sum "Si O2"
_cell_formula_units_Z 14
_cell_length_a 17.323209
_cell_length_b 8.723178
_cell_length_c 23.849581
_cell_angle_alpha 146.044653
_cell_angle_beta 162.264759
_cell_angle_gamma 36.235463
_cell_volume 610.291995
_symmetry_space_group_name_H-M "P -1"
_symmetry_group_IT_number 2
_symmetry_cell_setting 'triclinic'
loop_
_space_group_symop_operation_xyz
x,y,z
-x,-y,-z
loop_
_atom_site_type_symbol
_atom_site_label
_atom_site_fract_x
_atom_site_fract_y
_atom_site_fract_z
Si Si1 0.934443 0.057499 0.097714
Si Si2 0.049453 0.822963 0.221566
Si Si3 0.880225 0.043634 0.492379
Si Si4 0.630619 0.629816 0.542787
Si Si5 0.109100 0.787006 0.676451
Si Si6 0.485071 0.447581 0.907516
Si Si7 0.091486 0.281998 0.125357
O O1 0.223574 0.123308 0.308077
O O2 0.768758 0.340071 0.053178
O O3 0.902345 0.969219 0.112368
O O4 0.838434 0.826592 0.921269
O O5 0.328623 0.704892 0.357403
O O6 0.917671 0.564604 0.077661
O O7 0.073014 0.039658 0.352918
O O8 0.737096 0.345086 0.499202
O O9 0.681638 0.813173 0.292653
O O10 0.000000 0.000000 0.500000
O O11 0.098439 0.962660 0.665513
O O12 0.719952 0.628301 0.669316
O O13 0.363587 0.695239 0.859983
O O14 0.000000 0.500000 0.500000
O O15 0.500000 0.500000 0.000000
O O16 0.000000 0.000000 0.000000
#
# Coordination Sequence:
#
# PCOD9038029 Si02
#       7
#     2   2   2   2   2   2   2
#     4  11  24  42  66 100 140 176 229 284 343 403
#     4  12  22  43  71  99 140 180 229 278 343 419
#     4  11  24  44  68  98 135 181 234 283 342 416
#     4  11  24  42  68 101 132 182 230 281 341 407
#     4  10  24  41  69 101 134 183 233 273 350 415
#     4  11  22  44  68  95 137 182 226 287 340 402
#     4  10  23  41  65  98 135 173 225 287 339 398
#
# _framework density 22.939838000000002
#
# number of rings (size 3 to 8) (size 9 to 14) (size 15 to 20)
#    0.000    1.143    2.857    3.000    6.000    0.000 
#    0.000    5.714    0.000    0.000    0.000    0.000 
#    0.000    0.000    0.000    0.000    0.000    0.000 
#
# Total GULP energy -78111.915187 kJ/mol
# GULP energy per Si atom -5579.422513 kJ/mol
# Density = 2.288763 g / cm^3
# Si number density = 22.939838 Si / 1000 Ang^3
#
#
#
# Elastic Constant Matrix: (Units=GPa)
#
#
# Indices 1 2 3 4 5 6 
#
# 1 117.1861 57.0266 41.2094 5.1930 -34.5343 4.0773
# 2 57.0266 145.8843 38.7017 -0.6938 -15.6353 -9.7086
# 3 41.2094 38.7017 61.2930 0.3259 -6.5897 -9.1595
# 4 5.1930 -0.6938 0.3259 37.0234 4.1072 -13.7668
# 5 -34.5343 -15.6353 -6.5897 4.1072 47.6580 4.0511
# 6 4.0773 -9.7086 -9.1595 -13.7668 4.0511 46.6879
#
#
#
# Elastic Compliance Matrix: (Units=1/GPa)
#
#
# Indices 1 2 3 4 5 6 
#
# 1 0.017347 -0.003636 -0.009154 -0.006224 0.011233 -0.006877
# 2 -0.003636 0.009208 -0.003101 0.001532 -0.000354 0.002106
# 3 -0.009154 -0.003101 0.024852 0.004057 -0.005131 0.006672
# 4 -0.006224 0.001532 0.004057 0.033181 -0.007333 0.012078
# 5 0.011233 -0.000354 -0.005131 -0.007333 0.029505 -0.006783
# 6 -0.006877 0.002106 0.006672 0.012078 -0.006783 0.027916
#
#
# Mechanical properties :
#
#
# Convention : Reuss Voigt Hill
#
# Bulk Modulus (GPa) = 50.95659 66.47099 58.71379
# Shear Modulus (GPa) = 27.72636 38.76891 33.24763
#
# Velocity S-wave (km/s) = 3.48034 4.11545 3.81115
# Velocity P-wave (km/s) = 6.19772 7.18483 6.70945
#
# Compressibility (1/GPa) = 0.01962455
#
# Stress axis : x y z
#
# Youngs Moduli (GPa) = 57.64601 108.59739 40.23872
#
# Poissons Ratio (x) = 0.39485 0.36836
# Poissons Ratio (y) = 0.20960 0.12479
# Poissons Ratio (z) = 0.52771 0.33678
#
# Static dielectric constant tensor:
#      x y z
#    x 1.925490 -0.007540 0.037710 
#    y -0.007540 1.910450 -0.018360 
#    z 0.037710 -0.018360 1.896290 
# 
# From -- ./inp_files/190607.got.cif
#   From: 2010.05.17/outbox.cif.g08.bks.cpg/sg2_96_cif.got.tgz:190607.got - 2010.06.03 11:33:40.
