data_PCOD9038342
_publ_section_title
;
Structure prediction by ZEFSAII (Michael W. Deem and Ramdas Pophale) SiO2 
 PCOD9038342
Probable space group: P -1
;
_chemical_formula_sum "Si O2"
_cell_formula_units_Z 16
_cell_length_a 7.059709
_cell_length_b 14.147910
_cell_length_c 16.741228
_cell_angle_alpha 24.634210
_cell_angle_beta 90.267369
_cell_angle_gamma 78.084986
_cell_volume 601.363810
_symmetry_space_group_name_H-M "P -1"
_symmetry_group_IT_number 2
_symmetry_cell_setting 'triclinic'
loop_
_space_group_symop_operation_xyz
x,y,z
-x,-y,-z
loop_
_atom_site_type_symbol
_atom_site_label
_atom_site_fract_x
_atom_site_fract_y
_atom_site_fract_z
Si Si1 0.722134 0.445755 0.858177
Si Si2 0.183295 0.679413 0.519758
Si Si3 0.493594 0.005277 0.401294
Si Si4 0.136708 0.115146 0.780855
Si Si5 0.637728 0.590258 0.025413
Si Si6 0.259598 0.134632 0.934728
Si Si7 0.009545 0.806930 0.787970
Si Si8 0.572574 0.088119 0.739117
O O1 0.484897 0.516466 0.838300
O O2 0.675623 0.705311 0.611552
O O3 0.795316 0.186932 0.004859
O O4 0.880141 0.365497 0.998251
O O5 0.228842 0.404082 0.762401
O O6 0.386833 0.720499 0.464735
O O7 0.062006 0.712410 0.410333
O O8 0.028757 0.911014 0.401807
O O9 0.500000 0.000000 0.500000
O O10 0.529039 0.220404 0.190328
O O11 0.238891 0.114264 0.295029
O O12 0.332375 0.161723 0.712491
O O13 0.106653 0.167049 0.835236
O O14 0.845713 0.356378 0.161664
O O15 0.657248 0.809018 0.909312
O O16 0.280640 0.960832 0.144043
O O17 0.500000 0.000000 0.000000
#
# Coordination Sequence:
#
# PCOD9038342 Si02
#       8
#     2   2   2   2   2   2   2   2
#     4  10  24  45  64  97 135 175 220 274 330 391
#     4  11  23  43  67  95 133 174 218 275 338 390
#     4  12  25  39  67  93 130 180 216 264 333 384
#     4   9  22  43  67  95 136 168 220 287 322 395
#     4  11  23  44  63  95 139 169 228 273 320 405
#     4  10  23  43  67  98 130 168 225 277 333 399
#     4  11  24  42  65  96 135 172 219 274 319 400
#     4  10  23  41  68  95 130 179 213 276 333 391
#
# _framework density 26.606192
#
# number of rings (size 3 to 8) (size 9 to 14) (size 15 to 20)
#    0.000    1.500    2.500    1.125    5.250    3.000 
#    0.000   11.250    0.000    0.000    0.000    0.000 
#    0.000    0.000    0.000    0.000    0.000    0.000 
#
# Total GULP energy -89548.583537 kJ/mol
# GULP energy per Si atom -5596.786471 kJ/mol
# Density = 2.654564 g / cm^3
# Si number density = 26.606192 Si / 1000 Ang^3
#
#
#
# Elastic Constant Matrix: (Units=GPa)
#
#
# Indices 1 2 3 4 5 6 
#
# 1 99.3406 11.9766 -0.5685 4.9913 6.4700 6.0644
# 2 11.9766 105.6498 0.7984 7.6917 3.1801 21.7164
# 3 -0.5685 0.7984 95.9764 -11.3147 -2.6742 -8.4898
# 4 4.9913 7.6917 -11.3147 35.8971 1.8273 1.5268
# 5 6.4700 3.1801 -2.6742 1.8273 31.8458 7.3812
# 6 6.0644 21.7164 -8.4898 1.5268 7.3812 44.9447
#
#
#
# Elastic Compliance Matrix: (Units=1/GPa)
#
#
# Indices 1 2 3 4 5 6 
#
# 1 0.010392 -0.000899 -0.000180 -0.001189 -0.001815 -0.000663
# 2 -0.000899 0.010802 -0.000812 -0.002242 0.000378 -0.005237
# 3 -0.000180 -0.000812 0.011061 0.003571 0.000300 0.002335
# 4 -0.001189 -0.002242 0.003571 0.029642 -0.001192 0.001107
# 5 -0.001815 0.000378 0.000300 -0.001192 0.033047 -0.005268
# 6 -0.000663 -0.005237 0.002335 0.001107 -0.005268 0.026138
#
#
# Mechanical properties :
#
#
# Convention : Reuss Voigt Hill
#
# Bulk Modulus (GPa) = 35.12323 36.15332 35.63828
# Shear Modulus (GPa) = 37.21459 41.78820 39.50140
#
# Velocity S-wave (km/s) = 3.74400 3.96740 3.85732
# Velocity P-wave (km/s) = 5.64977 5.88259 5.76735
#
# Compressibility (1/GPa) = 0.02847119
#
# Stress axis : x y z
#
# Youngs Moduli (GPa) = 96.22639 92.57845 90.40899
#
# Poissons Ratio (x) = 0.08325 0.01630
# Poissons Ratio (y) = 0.08653 0.07343
# Poissons Ratio (z) = 0.01735 0.07519
#
# Static dielectric constant tensor:
#      x y z
#    x 2.181420 0.065260 -0.059440 
#    y 0.065260 2.134270 -0.021900 
#    z -0.059440 -0.021900 2.101910 
# 
# From -- ./inp_files/590890.got.cif
#   From: 2010.05.17/outbox.cif.g08.bks.cpg/sg2_296_cif.got.tgz:590890.got - 2010.06.03 11:33:40.
