data_PCOD9038178
_publ_section_title
;
Structure prediction by ZEFSAII (Michael W. Deem and Ramdas Pophale) SiO2 
 PCOD9038178
Probable space group: P -1
;
_chemical_formula_sum "Si O2"
_cell_formula_units_Z 16
_cell_length_a 15.094882
_cell_length_b 11.274750
_cell_length_c 8.300768
_cell_angle_alpha 135.535468
_cell_angle_beta 74.104494
_cell_angle_gamma 133.765119
_cell_volume 643.675450
_symmetry_space_group_name_H-M "P -1"
_symmetry_group_IT_number 2
_symmetry_cell_setting 'triclinic'
loop_
_space_group_symop_operation_xyz
x,y,z
-x,-y,-z
loop_
_atom_site_type_symbol
_atom_site_label
_atom_site_fract_x
_atom_site_fract_y
_atom_site_fract_z
Si Si1 0.852217 0.324326 0.983651
Si Si2 0.186932 0.785018 0.735551
Si Si3 0.437023 0.741799 0.343000
Si Si4 0.950277 0.707037 0.813404
Si Si5 0.724690 0.621893 0.696146
Si Si6 0.434747 0.301715 0.013216
Si Si7 0.170224 0.366081 0.890739
Si Si8 0.278178 0.219345 0.501651
O O1 0.805176 0.440650 0.049688
O O2 0.762481 0.033361 0.713898
O O3 0.856207 0.342694 0.192546
O O4 0.000000 0.500000 0.000000
O O5 0.143766 0.589454 0.435784
O O6 0.093535 0.826453 0.800076
O O7 0.345641 0.039652 0.895675
O O8 0.392845 0.675765 0.488697
O O9 0.297149 0.536464 0.114070
O O10 0.500000 0.000000 0.500000
O O11 0.536473 0.732678 0.211105
O O12 0.870334 0.735848 0.773067
O O13 0.955019 0.773134 0.060007
O O14 0.669019 0.683293 0.911985
O O15 0.719298 0.704141 0.607207
O O16 0.572477 0.536081 0.264172
O O17 0.172694 0.192950 0.628469
#
# Coordination Sequence:
#
# PCOD9038178 Si02
#       8
#     2   2   2   2   2   2   2   2
#     4  12  25  47  73 103 140 191 237 294 357 422
#     4  11  23  45  71 100 144 185 242 289 356 427
#     4  10  23  41  67 101 143 187 233 288 355 428
#     4  10  23  46  68 104 139 190 239 296 351 421
#     4  11  22  42  67 101 143 179 237 291 356 417
#     4  11  23  43  68 105 141 185 232 292 359 423
#     4  10  23  45  69 105 141 183 238 292 356 418
#     4  11  26  46  73 108 145 186 239 296 359 434
#
# _framework density 24.857247999999998
#
# number of rings (size 3 to 8) (size 9 to 14) (size 15 to 20)
#    0.000    1.250    2.500    3.000    1.750    1.000 
#    6.750    3.125    0.000    0.000    0.000    0.000 
#    0.000    0.000    0.000    0.000    0.000    0.000 
#
# Total GULP energy -89492.479921 kJ/mol
# GULP energy per Si atom -5593.279995 kJ/mol
# Density = 2.480067 g / cm^3
# Si number density = 24.857248 Si / 1000 Ang^3
#
#
#
# Elastic Constant Matrix: (Units=GPa)
#
#
# Indices 1 2 3 4 5 6 
#
# 1 129.9751 24.3966 32.4049 -4.8999 -12.5704 -9.7256
# 2 24.3966 125.4181 24.2316 2.6324 14.7058 -2.3029
# 3 32.4049 24.2316 95.7006 1.1682 -8.6449 8.1283
# 4 -4.8999 2.6324 1.1682 40.6231 8.3900 -2.6231
# 5 -12.5704 14.7058 -8.6449 8.3900 40.0497 -3.3168
# 6 -9.7256 -2.3029 8.1283 -2.6231 -3.3168 42.2257
#
#
#
# Elastic Compliance Matrix: (Units=1/GPa)
#
#
# Indices 1 2 3 4 5 6 
#
# 1 0.009191 -0.001577 -0.002699 0.000865 0.002935 0.002835
# 2 -0.001577 0.009223 -0.002220 0.000196 -0.004382 0.000235
# 3 -0.002699 -0.002220 0.012438 -0.001286 0.002673 -0.003007
# 4 0.000865 0.000196 -0.001286 0.025963 -0.005380 0.001648
# 5 0.002935 -0.004382 0.002673 -0.005380 0.029360 0.001894
# 6 0.002835 0.000235 -0.003007 0.001648 0.001894 0.025178
#
#
# Mechanical properties :
#
#
# Convention : Reuss Voigt Hill
#
# Bulk Modulus (GPa) = 55.98810 57.01778 56.50294
# Shear Modulus (GPa) = 38.37372 42.58374 40.47873
#
# Velocity S-wave (km/s) = 3.93334 4.14349 4.03978
# Velocity P-wave (km/s) = 6.57274 6.77342 6.67384
#
# Compressibility (1/GPa) = 0.01786094
#
# Stress axis : x y z
#
# Youngs Moduli (GPa) = 108.79912 108.42598 80.40013
#
# Poissons Ratio (x) = 0.17094 0.21702
# Poissons Ratio (y) = 0.17153 0.17846
# Poissons Ratio (z) = 0.29368 0.24067
#
# Static dielectric constant tensor:
#      x y z
#    x 2.044140 -0.024640 -0.077890 
#    y -0.024640 2.131190 0.099720 
#    z -0.077890 0.099720 2.040830 
# 
# From -- ./inp_files/308762.got.cif
#   From: 2010.05.17/outbox.cif.g08.bks.cpg/sg2_155_cif.got.tgz:308762.got - 2010.06.03 11:33:40.
