data_PCOD9038603
_publ_section_title
;
Structure prediction by ZEFSAII (Michael W. Deem and Ramdas Pophale) SiO2 
 PCOD9038603
Probable space group: P -1
;
_chemical_formula_sum "Si O2"
_cell_formula_units_Z 14
_cell_length_a 9.973018
_cell_length_b 9.860543
_cell_length_c 25.809079
_cell_angle_alpha 152.709789
_cell_angle_beta 141.573823
_cell_angle_gamma 47.401682
_cell_volume 721.568960
_symmetry_space_group_name_H-M "P -1"
_symmetry_group_IT_number 2
_symmetry_cell_setting 'triclinic'
loop_
_space_group_symop_operation_xyz
x,y,z
-x,-y,-z
loop_
_atom_site_type_symbol
_atom_site_label
_atom_site_fract_x
_atom_site_fract_y
_atom_site_fract_z
Si Si1 0.862641 0.319812 0.438928
Si Si2 0.048525 0.200881 0.165612
Si Si3 0.536648 0.419724 0.543198
Si Si4 0.815236 0.312704 0.037742
Si Si5 0.652595 0.904011 0.149044
Si Si6 0.708075 0.189691 0.151151
Si Si7 0.816624 0.862237 0.436888
O O1 0.692342 0.532616 0.484062
O O2 0.000000 0.500000 0.500000
O O3 0.034613 0.202495 0.491000
O O4 0.730059 0.068224 0.280679
O O5 0.283241 0.340226 0.298795
O O6 0.952316 0.410150 0.163269
O O7 0.903099 0.160989 0.159412
O O8 0.063305 0.896214 0.035258
O O9 0.500000 0.500000 0.500000
O O10 0.638911 0.102624 0.472326
O O11 0.737070 0.579051 0.070374
O O12 0.606684 0.132092 0.938325
O O13 0.732113 0.063032 0.173907
O O14 0.702328 0.547126 0.276493
O O15 0.500000 0.000000 0.000000
O O16 0.000000 0.000000 0.500000
#
# Coordination Sequence:
#
# PCOD9038603 Si02
#       7
#     2   2   2   2   2   2   2
#     4  12  25  46  69 101 141 173 233 296 337 407
#     4  11  22  43  68  98 133 178 229 280 338 420
#     4  12  25  43  73 100 134 185 238 276 345 423
#     4  10  23  41  71  95 130 179 223 274 348 416
#     4  11  23  43  66  99 133 177 221 280 349 402
#     4  12  25  43  67 100 141 175 226 294 342 401
#     4  12  25  46  74 102 137 189 232 282 349 416
#
# _framework density 19.402165
#
# number of rings (size 3 to 8) (size 9 to 14) (size 15 to 20)
#    0.000    0.571    7.143    0.857    0.000    2.286 
#    2.571    0.000    0.000    0.000    0.000    0.000 
#    0.000    0.000    0.000    0.000    0.000    0.000 
#
# Total GULP energy -78137.266328 kJ/mol
# GULP energy per Si atom -5581.233309 kJ/mol
# Density = 1.935800 g / cm^3
# Si number density = 19.402165 Si / 1000 Ang^3
#
#
#
# Elastic Constant Matrix: (Units=GPa)
#
#
# Indices 1 2 3 4 5 6 
#
# 1 154.1287 80.5599 22.4507 14.5414 -7.1441 -4.3849
# 2 80.5599 137.3862 42.9042 -4.0498 -7.4005 -1.7547
# 3 22.4507 42.9042 92.3392 -8.3825 -5.2096 0.5081
# 4 14.5414 -4.0498 -8.3825 40.0119 2.0369 -3.0516
# 5 -7.1441 -7.4005 -5.2096 2.0369 28.3119 1.3068
# 6 -4.3849 -1.7547 0.5081 -3.0516 1.3068 38.7846
#
#
#
# Elastic Compliance Matrix: (Units=1/GPa)
#
#
# Indices 1 2 3 4 5 6 
#
# 1 0.010084 -0.005964 -0.000001 -0.004296 0.001272 0.000489
# 2 -0.005964 0.012113 -0.003905 0.002545 0.000755 0.000100
# 3 -0.000001 -0.003905 0.012916 0.002234 0.001205 -0.000211
# 4 -0.004296 0.002545 0.002234 0.027525 -0.002073 0.001836
# 5 0.001272 0.000755 0.001205 -0.002073 0.036266 -0.001223
# 6 0.000489 0.000100 -0.000211 0.001836 -0.001223 0.026032
#
#
# Mechanical properties :
#
#
# Convention : Reuss Voigt Hill
#
# Bulk Modulus (GPa) = 65.05533 75.07598 70.06565
# Shear Modulus (GPa) = 33.37770 37.28429 35.33099
#
# Velocity S-wave (km/s) = 4.15216 4.38843 4.27193
# Velocity P-wave (km/s) = 7.52263 8.02847 7.77966
#
# Compressibility (1/GPa) = 0.01537153
#
# Stress axis : x y z
#
# Youngs Moduli (GPa) = 99.16717 82.55929 77.42234
#
# Poissons Ratio (x) = 0.49242 0.00011
# Poissons Ratio (y) = 0.59148 0.30231
# Poissons Ratio (z) = 0.00014 0.32237
#
# Static dielectric constant tensor:
#      x y z
#    x 1.653770 -0.006790 -0.011270 
#    y -0.006790 1.682270 -0.016120 
#    z -0.011270 -0.016120 1.704970 
# 
# From -- ./inp_files/225787.got.cif
#   From: 2010.05.17/outbox.cif.g08.bks.cpg/sg2_113_cif.got.tgz:225787.got - 2010.06.03 11:33:40.
