data_PCOD9038666
_publ_section_title
;
Structure prediction by ZEFSAII (Michael W. Deem and Ramdas Pophale) SiO2 
 PCOD9038666
Probable space group: P -1
;
_chemical_formula_sum "Si O2"
_cell_formula_units_Z 14
_cell_length_a 28.994758
_cell_length_b 5.190515
_cell_length_c 8.560012
_cell_angle_alpha 119.259903
_cell_angle_beta 29.031108
_cell_angle_gamma 124.154421
_cell_volume 517.341178
_symmetry_space_group_name_H-M "P -1"
_symmetry_group_IT_number 2
_symmetry_cell_setting 'triclinic'
loop_
_space_group_symop_operation_xyz
x,y,z
-x,-y,-z
loop_
_atom_site_type_symbol
_atom_site_label
_atom_site_fract_x
_atom_site_fract_y
_atom_site_fract_z
Si Si1 0.882919 0.315281 0.894524
Si Si2 0.230119 0.407716 0.229436
Si Si3 0.423103 0.467361 0.859782
Si Si4 0.020424 0.980825 0.693531
Si Si5 0.195421 0.940332 0.646495
Si Si6 0.725072 0.469460 0.219000
Si Si7 0.500864 0.825204 0.173917
O O1 0.929763 0.048824 0.630766
O O2 0.973983 0.616530 0.763013
O O3 0.806743 0.244729 0.240845
O O4 0.820002 0.356570 0.942290
O O5 0.228405 0.759881 0.359690
O O6 0.118246 0.200532 0.552235
O O7 0.312337 0.357645 0.085627
O O8 0.261644 0.380390 0.948442
O O9 0.500000 0.500000 0.500000
O O10 0.446977 0.223357 0.833599
O O11 0.445670 0.832305 0.955366
O O12 0.921431 0.080272 0.028362
O O13 0.263020 0.280879 0.601105
O O14 0.616741 0.216526 0.470986
O O15 0.500000 0.500000 0.000000
#
# Coordination Sequence:
#
# PCOD9038666 Si02
#       7
#     2   2   2   2   2   2   2
#     4  10  23  41  72  99 141 182 248 295 361 453
#     4  12  26  45  74  99 149 191 240 305 376 435
#     4  12  28  51  74 117 151 194 257 313 374 464
#     4  10  23  44  66 103 141 190 233 303 369 431
#     4  11  24  47  67 107 139 187 250 297 360 459
#     4  11  26  45  72 103 142 192 239 303 382 432
#     4  12  28  51  82 109 154 198 253 317 383 448
#
# _framework density 27.061443000000001
#
# number of rings (size 3 to 8) (size 9 to 14) (size 15 to 20)
#    0.000    0.857    2.857    2.571   10.000    0.571 
#    5.143    0.000    0.000    0.000    0.000    0.000 
#    0.000    0.000    0.000    0.000    0.000    0.000 
#
# Total GULP energy -78341.620939 kJ/mol
# GULP energy per Si atom -5595.830067 kJ/mol
# Density = 2.699985 g / cm^3
# Si number density = 27.061443 Si / 1000 Ang^3
#
#
#
# Elastic Constant Matrix: (Units=GPa)
#
#
# Indices 1 2 3 4 5 6 
#
# 1 95.5349 40.5067 35.8407 -17.7436 -50.7568 6.5314
# 2 40.5067 110.4978 39.4068 -8.9025 -26.6692 10.6919
# 3 35.8407 39.4068 103.1298 -12.5028 -43.4523 16.5684
# 4 -17.7436 -8.9025 -12.5028 63.6587 17.6687 -1.0841
# 5 -50.7568 -26.6692 -43.4523 17.6687 53.3994 -6.6874
# 6 6.5314 10.6919 16.5684 -1.0841 -6.6874 34.5777
#
#
#
# Elastic Compliance Matrix: (Units=1/GPa)
#
#
# Indices 1 2 3 4 5 6 
#
# 1 0.022796 -0.004073 0.002927 0.000278 0.021898 -0.000205
# 2 -0.004073 0.011606 -0.003119 0.000079 -0.000825 -0.001482
# 3 0.002927 -0.003119 0.016605 -0.000401 0.014268 -0.004798
# 4 0.000278 0.000079 -0.000401 0.017324 -0.005813 -0.000466
# 5 0.021898 -0.000825 0.014268 -0.005813 0.052571 -0.000733
# 6 -0.000205 -0.001482 -0.004798 -0.000466 -0.000733 0.031560
#
#
# Mechanical properties :
#
#
# Convention : Reuss Voigt Hill
#
# Bulk Modulus (GPa) = 23.54233 60.07454 41.80844
# Shear Modulus (GPa) = 28.54667 43.22103 35.88385
#
# Velocity S-wave (km/s) = 3.25142 4.00076 3.64540
# Velocity P-wave (km/s) = 4.77641 6.60220 5.76208
#
# Compressibility (1/GPa) = 0.04247668
#
# Stress axis : x y z
#
# Youngs Moduli (GPa) = 43.86724 86.16134 60.22264
#
# Poissons Ratio (x) = 0.35095 -0.17628
# Poissons Ratio (y) = 0.17868 0.18785
# Poissons Ratio (z) = -0.12840 0.26876
#
# Static dielectric constant tensor:
#      x y z
#    x 2.147430 0.042910 0.034050 
#    y 0.042910 2.216450 0.036100 
#    z 0.034050 0.036100 2.097680 
# 
# From -- ./inp_files/358272.got.cif
#   From: 2010.05.17/outbox.cif.g08.bks.cpg/sg2_180_cif.got.tgz:358272.got - 2010.06.03 11:33:40.
