data_PCOD9038233
_publ_section_title
;
Structure prediction by ZEFSAII (Michael W. Deem and Ramdas Pophale) SiO2 
 PCOD9038233
Probable space group: P -1
;
_chemical_formula_sum "Si O2"
_cell_formula_units_Z 16
_cell_length_a 14.246620
_cell_length_b 14.390394
_cell_length_c 9.555372
_cell_angle_alpha 128.649833
_cell_angle_beta 121.054214
_cell_angle_gamma 39.052915
_cell_volume 962.016838
_symmetry_space_group_name_H-M "P -1"
_symmetry_group_IT_number 2
_symmetry_cell_setting 'triclinic'
loop_
_space_group_symop_operation_xyz
x,y,z
-x,-y,-z
loop_
_atom_site_type_symbol
_atom_site_label
_atom_site_fract_x
_atom_site_fract_y
_atom_site_fract_z
Si Si1 0.860053 0.820705 0.060317
Si Si2 0.571812 0.188549 0.181739
Si Si3 0.897739 0.447921 0.221128
Si Si4 0.969576 0.393162 0.548627
Si Si5 0.248583 0.772162 0.449601
Si Si6 0.744575 0.647974 0.843669
Si Si7 0.970936 0.870898 0.467288
Si Si8 0.674892 0.529068 0.916043
O O1 0.936637 0.836279 0.258394
O O2 0.711598 0.003291 0.078418
O O3 0.810155 0.729397 0.994229
O O4 0.972292 0.714407 0.919429
O O5 0.625382 0.248622 0.389570
O O6 0.435084 0.217525 0.175777
O O7 0.492064 0.305873 0.095700
O O8 0.922288 0.409861 0.368065
O O9 0.920929 0.572625 0.329660
O O10 0.742416 0.512425 0.101724
O O11 0.826095 0.534910 0.665017
O O12 0.034816 0.226060 0.511314
O O13 0.305528 0.620429 0.258793
O O14 0.134235 0.807182 0.513041
O O15 0.151268 0.934739 0.433616
O O16 0.772533 0.538867 0.892416
#
# Coordination Sequence:
#
# PCOD9038233 Si02
#       8
#     2   2   2   2   2   2   2   2
#     4  10  17  33  53  81 101 124 174 214 259 297
#     4   9  20  30  54  76 105 133 164 212 257 299
#     4  10  20  32  55  75 106 132 169 212 253 303
#     4  10  19  34  51  78 103 136 168 209 259 298
#     4  10  18  31  51  78 102 132 172 211 249 293
#     4   9  18  30  54  75 102 130 166 211 257 301
#     4  10  18  30  55  76 101 131 171 219 247 291
#     4  10  18  32  51  77  97 135 169 207 250 295
#
# _framework density 16.631723999999998
#
# number of rings (size 3 to 8) (size 9 to 14) (size 15 to 20)
#    0.750    1.500    2.500    1.500    0.000    2.000 
#    0.000    0.625    5.500    3.750    0.000    0.000 
#    0.000    0.000    0.000    0.000    0.000    0.000 
#
# Total GULP energy -89101.883903 kJ/mol
# GULP energy per Si atom -5568.867744 kJ/mol
# Density = 1.659387 g / cm^3
# Si number density = 16.631724 Si / 1000 Ang^3
#
#
#
# Elastic Constant Matrix: (Units=GPa)
#
#
# Indices 1 2 3 4 5 6 
#
# 1 20.6225 0.3501 1.3506 2.7432 2.6434 7.6411
# 2 0.3501 60.4617 -2.3604 13.0760 -5.4983 17.5409
# 3 1.3506 -2.3604 43.5288 1.0246 0.4139 14.7268
# 4 2.7432 13.0760 1.0246 20.0314 3.9973 7.9481
# 5 2.6434 -5.4983 0.4139 3.9973 17.5656 -4.1458
# 6 7.6411 17.5409 14.7268 7.9481 -4.1458 27.5204
#
#
#
# Elastic Compliance Matrix: (Units=1/GPa)
#
#
# Indices 1 2 3 4 5 6 
#
# 1 0.059550 0.006400 0.007760 0.000731 -0.013689 -0.027039
# 2 0.006400 0.024784 0.007227 -0.011587 0.005175 -0.017315
# 3 0.007760 0.007227 0.031921 0.004304 -0.006800 -0.026110
# 4 0.000731 -0.011587 0.004304 0.069428 -0.024075 -0.018799
# 5 -0.013689 0.005175 -0.006800 -0.024075 0.071405 0.021851
# 6 -0.027039 -0.017315 -0.026110 -0.018799 0.021851 0.077574
#
#
# Mechanical properties :
#
#
# Convention : Reuss Voigt Hill
#
# Bulk Modulus (GPa) = 6.28811 13.69929 9.99370
# Shear Modulus (GPa) = 14.49698 21.37500 17.93599
#
# Velocity S-wave (km/s) = 2.95557 3.58885 3.28749
# Velocity P-wave (km/s) = 3.92889 5.04260 4.52018
#
# Compressibility (1/GPa) = 0.15903038
#
# Stress axis : x y z
#
# Youngs Moduli (GPa) = 16.79259 40.34793 31.32686
#
# Poissons Ratio (x) = -0.25821 -0.24311
# Poissons Ratio (y) = -0.10747 -0.22640
# Poissons Ratio (z) = -0.13032 -0.29160
#
# Static dielectric constant tensor:
#      x y z
#    x 1.561960 -0.003340 0.024090 
#    y -0.003340 1.587560 0.005180 
#    z 0.024090 0.005180 1.537760 
# 
# From -- ./inp_files/305492.got.cif
#   From: 2010.05.17/outbox.cif.g08.bks.cpg/sg2_153_cif.got.tgz:305492.got - 2010.06.03 11:33:40.
