data_PCOD9038255
_publ_section_title
;
Structure prediction by ZEFSAII (Michael W. Deem and Ramdas Pophale) SiO2 
 PCOD9038255
Probable space group: P -1
;
_chemical_formula_sum "Si O2"
_cell_formula_units_Z 16
_cell_length_a 13.594766
_cell_length_b 9.129980
_cell_length_c 8.958616
_cell_angle_alpha 132.274325
_cell_angle_beta 79.457249
_cell_angle_gamma 91.240175
_cell_volume 800.970888
_symmetry_space_group_name_H-M "P -1"
_symmetry_group_IT_number 2
_symmetry_cell_setting 'triclinic'
loop_
_space_group_symop_operation_xyz
x,y,z
-x,-y,-z
loop_
_atom_site_type_symbol
_atom_site_label
_atom_site_fract_x
_atom_site_fract_y
_atom_site_fract_z
Si Si1 0.456130 0.208500 0.077262
Si Si2 0.214617 0.028950 0.288044
Si Si3 0.155483 0.040163 0.650792
Si Si4 0.171316 0.617367 0.476761
Si Si5 0.014210 0.090426 0.219436
Si Si6 0.668804 0.601310 0.502862
Si Si7 0.727484 0.672943 0.991681
Si Si8 0.354310 0.614515 0.948114
O O1 0.419095 0.367230 0.327434
O O2 0.541389 0.292683 0.013418
O O3 0.357457 0.194981 0.994286
O O4 0.500000 0.000000 0.000000
O O5 0.129159 0.090897 0.231171
O O6 0.162998 0.050677 0.479392
O O7 0.296395 0.180664 0.369956
O O8 0.266951 0.804303 0.093463
O O9 0.212539 0.201395 0.827540
O O10 0.040469 0.046008 0.743348
O O11 0.206284 0.820806 0.541640
O O12 0.236896 0.541761 0.549537
O O13 0.194571 0.451301 0.229455
O O14 0.054991 0.694923 0.599813
O O15 0.000000 0.000000 0.000000
O O16 0.643633 0.515817 0.292559
O O17 0.670646 0.520291 0.998953
#
# Coordination Sequence:
#
# PCOD9038255 Si02
#       8
#     2   2   2   2   2   2   2   2
#     4  11  25  42  66  95 130 165 212 273 317 375
#     4  12  23  43  66  94 136 163 217 260 316 376
#     4  10  23  44  63  94 130 167 212 262 317 375
#     4   9  23  41  63  92 130 166 209 265 311 374
#     4  10  23  41  67  97 130 169 208 267 314 376
#     4  11  24  41  67  94 126 174 208 266 318 382
#     4  11  23  44  68  91 128 173 212 259 323 380
#     4  12  23  44  64  96 127 171 215 261 320 378
#
# _framework density 19.975756000000001
#
# number of rings (size 3 to 8) (size 9 to 14) (size 15 to 20)
#    0.750    0.500    3.750    1.875    5.250    0.500 
#    2.250    2.500    0.000    0.000    0.000    0.000 
#    0.000    0.000    0.000    0.000    0.000    0.000 
#
# Total GULP energy -89337.471357 kJ/mol
# GULP energy per Si atom -5583.591960 kJ/mol
# Density = 1.993029 g / cm^3
# Si number density = 19.975756 Si / 1000 Ang^3
#
#
#
# Elastic Constant Matrix: (Units=GPa)
#
#
# Indices 1 2 3 4 5 6 
#
# 1 68.9693 0.0085 42.7945 7.3835 -6.4591 -3.0481
# 2 0.0085 57.9037 7.5370 7.1403 -1.1675 0.9925
# 3 42.7945 7.5370 90.4319 -7.8381 0.9831 -6.0518
# 4 7.3835 7.1403 -7.8381 35.8003 2.3887 -4.2632
# 5 -6.4591 -1.1675 0.9831 2.3887 29.4398 3.2794
# 6 -3.0481 0.9925 -6.0518 -4.2632 3.2794 34.5433
#
#
#
# Elastic Compliance Matrix: (Units=1/GPa)
#
#
# Indices 1 2 3 4 5 6 
#
# 1 0.023688 0.002870 -0.012415 -0.008845 0.006654 -0.001890
# 2 0.002870 0.018463 -0.003505 -0.005392 0.002112 -0.001757
# 3 -0.012415 -0.003505 0.018207 0.007977 -0.004520 0.003609
# 4 -0.008845 -0.005392 0.007977 0.033614 -0.005757 0.005467
# 5 0.006654 0.002112 -0.004520 -0.005757 0.036625 -0.004453
# 6 -0.001890 -0.001757 0.003609 0.005467 -0.004453 0.030563
#
#
# Mechanical properties :
#
#
# Convention : Reuss Voigt Hill
#
# Bulk Modulus (GPa) = 29.18881 35.33166 32.26023
# Shear Modulus (GPa) = 25.16613 31.08768 28.12691
#
# Velocity S-wave (km/s) = 3.55326 3.94924 3.75647
# Velocity P-wave (km/s) = 5.61053 6.20653 5.91604
#
# Compressibility (1/GPa) = 0.03425970
#
# Stress axis : x y z
#
# Youngs Moduli (GPa) = 42.21469 54.16120 54.92386
#
# Poissons Ratio (x) = -0.15543 0.68186
# Poissons Ratio (y) = -0.12114 0.19249
# Poissons Ratio (z) = 0.52408 0.18982
#
# Static dielectric constant tensor:
#      x y z
#    x 1.700320 0.032440 -0.017800 
#    y 0.032440 1.714700 -0.001190 
#    z -0.017800 -0.001190 1.674580 
# 
# From -- ./inp_files/299821.got.cif
#   From: 2010.05.17/outbox.cif.g08.bks.cpg/sg2_150_cif.got.tgz:299821.got - 2010.06.03 11:33:40.
