data_PCOD9038862
_publ_section_title
;
Structure prediction by ZEFSAII (Michael W. Deem and Ramdas Pophale) SiO2 
 PCOD9038862
Probable space group: P -1
;
_chemical_formula_sum "Si O2"
_cell_formula_units_Z 14
_cell_length_a 5.308643
_cell_length_b 12.094941
_cell_length_c 22.933849
_cell_angle_alpha 24.409023
_cell_angle_beta 62.228386
_cell_angle_gamma 66.109207
_cell_volume 537.674626
_symmetry_space_group_name_H-M "P -1"
_symmetry_group_IT_number 2
_symmetry_cell_setting 'triclinic'
loop_
_space_group_symop_operation_xyz
x,y,z
-x,-y,-z
loop_
_atom_site_type_symbol
_atom_site_label
_atom_site_fract_x
_atom_site_fract_y
_atom_site_fract_z
Si Si1 0.747100 0.540672 0.819692
Si Si2 0.291816 0.121972 0.109703
Si Si3 0.192583 0.127881 0.984573
Si Si4 0.761753 0.828379 0.568614
Si Si5 0.736580 0.694160 0.266847
Si Si6 0.733613 0.157528 0.556174
Si Si7 0.150822 0.255045 0.632901
O O1 0.665623 0.583020 0.739479
O O2 0.720660 0.838710 0.704043
O O3 0.541447 0.354266 0.973546
O O4 0.050853 0.404225 0.848288
O O5 0.177143 0.172698 0.033985
O O6 0.451215 0.847267 0.222088
O O7 0.027579 0.029813 0.223727
O O8 0.957587 0.883334 0.116215
O O9 0.500000 0.000000 0.000000
O O10 0.923194 0.779215 0.513819
O O11 0.500000 0.000000 0.500000
O O12 0.000000 0.000000 0.500000
O O13 0.677294 0.387420 0.402928
O O14 0.839309 0.695960 0.322201
O O15 0.479841 0.220390 0.597082
O O16 0.000000 0.500000 0.500000
#
# Coordination Sequence:
#
# PCOD9038862 Si02
#       7
#     2   2   2   2   2   2   2
#     4  10  25  44  67 104 142 177 237 297 358 429
#     4  10  23  44  66  94 141 176 234 288 351 426
#     4  10  24  42  70  96 137 188 232 287 361 427
#     4  10  25  45  68 105 148 184 232 298 371 437
#     4  10  23  42  64 101 130 179 235 289 347 432
#     4  11  24  42  71 103 135 184 234 296 365 414
#     4  11  23  43  70 100 136 182 242 290 353 435
#
# _framework density 26.038050999999999
#
# number of rings (size 3 to 8) (size 9 to 14) (size 15 to 20)
#    0.000    1.714    1.429    0.429    8.000    4.000 
#    0.000    6.429    0.000    0.000    0.000    0.000 
#    0.000    0.000    0.000    0.000    0.000    0.000 
#
# Total GULP energy -77944.717765 kJ/mol
# GULP energy per Si atom -5567.479840 kJ/mol
# Density = 2.597879 g / cm^3
# Si number density = 26.038051 Si / 1000 Ang^3
#
#
#
# Elastic Constant Matrix: (Units=GPa)
#
#
# Indices 1 2 3 4 5 6 
#
# 1 102.6087 38.2206 44.5572 -6.4587 19.8440 -32.9596
# 2 38.2206 145.1275 64.8348 -7.5135 5.2524 -39.5690
# 3 44.5572 64.8348 197.7023 -11.2529 6.5887 -26.7413
# 4 -6.4587 -7.5135 -11.2529 61.7051 -16.3050 -7.1382
# 5 19.8440 5.2524 6.5887 -16.3050 58.8494 2.0297
# 6 -32.9596 -39.5690 -26.7413 -7.1382 2.0297 44.8188
#
#
#
# Elastic Compliance Matrix: (Units=1/GPa)
#
#
# Indices 1 2 3 4 5 6 
#
# 1 0.014795 -0.000143 -0.001691 0.001121 -0.004826 0.010142
# 2 -0.000143 0.010110 -0.002117 0.001621 -0.000438 0.007836
# 3 -0.001691 -0.002117 0.006276 0.000869 0.000271 0.000759
# 4 0.001121 0.001621 0.000869 0.018455 0.004303 0.005518
# 5 -0.004826 -0.000438 0.000271 0.004303 0.019959 -0.003993
# 6 0.010142 0.007836 0.000759 0.005518 -0.003993 0.038201
#
#
# Mechanical properties :
#
#
# Convention : Reuss Voigt Hill
#
# Bulk Modulus (GPa) = 42.95517 82.29596 62.62556
# Shear Modulus (GPa) = 40.50015 52.92974 46.71494
#
# Velocity S-wave (km/s) = 3.94816 4.51353 4.24028
# Velocity P-wave (km/s) = 6.10875 7.67055 6.93376
#
# Compressibility (1/GPa) = 0.02328008
#
# Stress axis : x y z
#
# Youngs Moduli (GPa) = 67.59015 98.91362 159.32675
#
# Poissons Ratio (x) = 0.01415 0.26944
# Poissons Ratio (y) = 0.00967 0.33722
# Poissons Ratio (z) = 0.11430 0.20935
#
# Static dielectric constant tensor:
#      x y z
#    x 2.217980 0.062600 -0.085160 
#    y 0.062600 2.171180 0.026880 
#    z -0.085160 0.026880 2.142800 
# 
# From -- ./inp_files/410367.got.cif
#   From: 2010.05.17/outbox.cif.g08.bks.cpg/sg2_206_cif.got.tgz:410367.got - 2010.06.03 11:33:40.
