data_PCOD9038230
_publ_section_title
;
Structure prediction by ZEFSAII (Michael W. Deem and Ramdas Pophale) SiO2 
 PCOD9038230
Probable space group: P -1
;
_chemical_formula_sum "Si O2"
_cell_formula_units_Z 16
_cell_length_a 17.711671
_cell_length_b 8.197142
_cell_length_c 9.760955
_cell_angle_alpha 57.647652
_cell_angle_beta 138.980552
_cell_angle_gamma 96.106700
_cell_volume 663.150629
_symmetry_space_group_name_H-M "P -1"
_symmetry_group_IT_number 2
_symmetry_cell_setting 'triclinic'
loop_
_space_group_symop_operation_xyz
x,y,z
-x,-y,-z
loop_
_atom_site_type_symbol
_atom_site_label
_atom_site_fract_x
_atom_site_fract_y
_atom_site_fract_z
Si Si1 0.144448 0.573383 0.621690
Si Si2 0.760144 0.941046 0.346569
Si Si3 0.977867 0.416151 0.282651
Si Si4 0.840410 0.166267 0.702913
Si Si5 0.639366 0.645722 0.282154
Si Si6 0.543258 0.410752 0.751940
Si Si7 0.555030 0.748201 0.826835
Si Si8 0.719045 0.880617 0.636685
O O1 0.054318 0.528827 0.411814
O O2 0.183788 0.737189 0.528697
O O3 0.061225 0.679071 0.598025
O O4 0.288027 0.333978 0.951723
O O5 0.917790 0.769608 0.598582
O O6 0.681353 0.825372 0.230473
O O7 0.727065 0.935545 0.463617
O O8 0.694823 0.189584 0.078383
O O9 0.834481 0.616383 0.934510
O O10 0.775349 0.396692 0.597283
O O11 0.770776 0.031295 0.710494
O O12 0.000000 0.000000 0.000000
O O13 0.548794 0.679925 0.272439
O O14 0.562642 0.652778 0.034779
O O15 0.500000 0.500000 0.500000
O O16 0.522905 0.612249 0.733271
O O17 0.567308 0.987272 0.441423
#
# Coordination Sequence:
#
# PCOD9038230 Si02
#       8
#     2   2   2   2   2   2   2   2
#     4  10  23  41  67  94 142 177 227 286 347 403
#     4  12  24  44  70  99 142 182 231 289 339 414
#     4  11  24  43  63 106 140 181 223 288 352 405
#     4  11  20  40  67  99 126 187 232 271 330 426
#     4  11  22  44  68  98 136 183 227 277 345 414
#     4  12  27  43  68 107 143 174 228 298 356 400
#     4  11  23  47  71 100 132 187 236 274 345 419
#     4  12  24  41  76 100 136 183 242 279 336 422
#
# _framework density 24.12725
#
# number of rings (size 3 to 8) (size 9 to 14) (size 15 to 20)
#    0.000    0.750    6.250    2.625    0.000    4.500 
#    0.000    2.500    0.000    0.000    0.000    0.000 
#    0.000    0.000    0.000    0.000    0.000    0.000 
#
# Total GULP energy -89420.339542 kJ/mol
# GULP energy per Si atom -5588.771221 kJ/mol
# Density = 2.407234 g / cm^3
# Si number density = 24.127250 Si / 1000 Ang^3
#
#
#
# Elastic Constant Matrix: (Units=GPa)
#
#
# Indices 1 2 3 4 5 6 
#
# 1 89.0670 7.9182 20.4170 -10.2997 15.2253 -25.9979
# 2 7.9182 55.0135 29.3687 -13.3099 11.5455 -25.4901
# 3 20.4170 29.3687 136.9963 -21.9241 18.2873 -34.2231
# 4 -10.2997 -13.3099 -21.9241 34.2562 -8.8011 9.0875
# 5 15.2253 11.5455 18.2873 -8.8011 44.0535 -7.4962
# 6 -25.9979 -25.4901 -34.2231 9.0875 -7.4962 39.6181
#
#
#
# Elastic Compliance Matrix: (Units=1/GPa)
#
#
# Indices 1 2 3 4 5 6 
#
# 1 0.015216 0.004541 0.000769 0.002519 -0.004189 0.012200
# 2 0.004541 0.029008 -0.000607 0.006087 -0.004492 0.018873
# 3 0.000769 -0.000607 0.010122 0.003896 -0.002247 0.007539
# 4 0.002519 0.006087 0.003896 0.035245 0.003206 0.001457
# 5 -0.004189 -0.004492 -0.002247 0.003206 0.026331 -0.003334
# 6 0.012200 0.018873 0.007539 0.001457 -0.003334 0.050937
#
#
# Mechanical properties :
#
#
# Convention : Reuss Voigt Hill
#
# Bulk Modulus (GPa) = 15.68598 44.05384 29.86991
# Shear Modulus (GPa) = 27.97944 38.47710 33.22827
#
# Velocity S-wave (km/s) = 3.40907 3.99777 3.71510
# Velocity P-wave (km/s) = 4.69161 6.29350 5.55065
#
# Compressibility (1/GPa) = 0.06375119
#
# Stress axis : x y z
#
# Youngs Moduli (GPa) = 65.72006 34.47347 98.79789
#
# Poissons Ratio (x) = -0.15654 -0.07596
# Poissons Ratio (y) = -0.29843 0.05996
# Poissons Ratio (z) = -0.05053 0.02092
#
# Static dielectric constant tensor:
#      x y z
#    x 1.926300 0.007870 0.020030 
#    y 0.007870 2.021700 0.006040 
#    z 0.020030 0.006040 1.992820 
# 
# From -- ./inp_files/328615.got.cif
#   From: 2010.05.17/outbox.cif.g08.bks.cpg/sg2_165_cif.got.tgz:328615.got - 2010.06.03 11:33:40.
