data_PCOD9038363
_publ_section_title
;
Structure prediction by ZEFSAII (Michael W. Deem and Ramdas Pophale) SiO2 
 PCOD9038363
Probable space group: P -1
;
_chemical_formula_sum "Si O2"
_cell_formula_units_Z 14
_cell_length_a 9.072433
_cell_length_b 12.706796
_cell_length_c 12.394741
_cell_angle_alpha 55.111073
_cell_angle_beta 48.370928
_cell_angle_gamma 35.693429
_cell_volume 621.413809
_symmetry_space_group_name_H-M "P -1"
_symmetry_group_IT_number 2
_symmetry_cell_setting 'triclinic'
loop_
_space_group_symop_operation_xyz
x,y,z
-x,-y,-z
loop_
_atom_site_type_symbol
_atom_site_label
_atom_site_fract_x
_atom_site_fract_y
_atom_site_fract_z
Si Si1 0.603822 0.808598 0.061732
Si Si2 0.279724 0.536031 0.165465
Si Si3 0.271846 0.739732 0.217942
Si Si4 0.135835 0.651496 0.783395
Si Si5 0.188217 0.441796 0.699939
Si Si6 0.668568 0.641770 0.553878
Si Si7 0.895426 0.032829 0.408669
O O1 0.406618 0.814684 0.076675
O O2 0.604421 0.733192 0.219867
O O3 0.921303 0.673789 0.949539
O O4 0.500000 0.000000 0.000000
O O5 0.144770 0.712449 0.200070
O O6 0.422428 0.377188 0.276902
O O7 0.053933 0.550483 0.209126
O O8 0.500000 0.500000 0.000000
O O9 0.550136 0.533267 0.234673
O O10 0.071627 0.861683 0.343863
O O11 0.086070 0.614543 0.711003
O O12 0.087741 0.824199 0.717757
O O13 0.319227 0.425695 0.532633
O O14 0.430047 0.855147 0.516844
O O15 0.000000 0.500000 0.500000
O O16 0.000000 0.000000 0.500000
#
# Coordination Sequence:
#
# PCOD9038363 Si02
#       7
#     2   2   2   2   2   2   2
#     4  11  21  40  64 103 140 176 230 289 348 411
#     4  11  22  43  71  95 134 185 234 278 347 418
#     4  11  23  41  70 100 135 182 230 289 346 413
#     4  11  22  41  70  96 147 179 230 293 348 409
#     4  10  23  41  68  97 134 191 222 280 357 408
#     4  10  24  46  68  96 145 183 226 286 353 417
#     4  12  25  41  73 109 136 178 243 288 345 420
#
# _framework density 22.529271000000001
#
# number of rings (size 3 to 8) (size 9 to 14) (size 15 to 20)
#    0.000    1.143    2.857    5.143    2.000    1.143 
#    0.000    8.571    0.000    0.000    0.000    0.000 
#    0.000    0.000    0.000    0.000    0.000    0.000 
#
# Total GULP energy -77962.877888 kJ/mol
# GULP energy per Si atom -5568.776992 kJ/mol
# Density = 2.247799 g / cm^3
# Si number density = 22.529271 Si / 1000 Ang^3
#
#
#
# Elastic Constant Matrix: (Units=GPa)
#
#
# Indices 1 2 3 4 5 6 
#
# 1 85.3360 16.0548 -17.0501 14.0262 -2.0340 -1.1033
# 2 16.0548 96.0648 4.7743 23.1474 4.0683 -2.1307
# 3 -17.0501 4.7743 79.7053 18.2123 13.4063 -14.4807
# 4 14.0262 23.1474 18.2123 42.7622 4.7102 -2.5560
# 5 -2.0340 4.0683 13.4063 4.7102 39.7511 1.8093
# 6 -1.1033 -2.1307 -14.4807 -2.5560 1.8093 40.2632
#
#
#
# Elastic Compliance Matrix: (Units=1/GPa)
#
#
# Indices 1 2 3 4 5 6 
#
# 1 0.013834 -0.001100 0.004677 -0.005821 -0.000142 0.001640
# 2 -0.001100 0.012146 0.000728 -0.006405 -0.000809 0.000504
# 3 0.004677 0.000728 0.017371 -0.008414 -0.004975 0.006104
# 4 -0.005821 -0.006405 -0.008414 0.032321 -0.000569 -0.001447
# 5 -0.000142 -0.000809 -0.004975 -0.000569 0.027118 -0.003090
# 6 0.001640 0.000504 0.006104 -0.001447 -0.003090 0.027150
#
#
# Mechanical properties :
#
#
# Convention : Reuss Voigt Hill
#
# Bulk Modulus (GPa) = 19.24434 29.85157 24.54796
# Shear Modulus (GPa) = 36.06205 41.71046 38.88625
#
# Velocity S-wave (km/s) = 4.00518 4.30745 4.15906
# Velocity P-wave (km/s) = 5.47258 6.16585 5.82953
#
# Compressibility (1/GPa) = 0.05196333
#
# Stress axis : x y z
#
# Youngs Moduli (GPa) = 72.28425 82.33175 57.56651
#
# Poissons Ratio (x) = 0.09053 -0.26924
# Poissons Ratio (y) = 0.07948 -0.04194
# Poissons Ratio (z) = -0.33807 -0.05998
#
# Static dielectric constant tensor:
#      x y z
#    x 1.981120 0.002140 -0.063600 
#    y 0.002140 1.890200 0.010290 
#    z -0.063600 0.010290 1.936000 
# 
# From -- ./inp_files/244822.got.cif
#   From: 2010.05.17/outbox.cif.g08.bks.cpg/sg2_123_cif.got.tgz:244822.got - 2010.06.03 11:33:40.
