data_PCOD9038806
_publ_section_title
;
Structure prediction by ZEFSAII (Michael W. Deem and Ramdas Pophale) SiO2 
 PCOD9038806
Probable space group: P -1
;
_chemical_formula_sum "Si O2"
_cell_formula_units_Z 12
_cell_length_a 9.350928
_cell_length_b 9.315560
_cell_length_c 12.385843
_cell_angle_alpha 33.636774
_cell_angle_beta 88.776302
_cell_angle_gamma 72.137691
_cell_volume 509.727545
_symmetry_space_group_name_H-M "P -1"
_symmetry_group_IT_number 2
_symmetry_cell_setting 'triclinic'
loop_
_space_group_symop_operation_xyz
x,y,z
-x,-y,-z
loop_
_atom_site_type_symbol
_atom_site_label
_atom_site_fract_x
_atom_site_fract_y
_atom_site_fract_z
Si Si1 0.629917 0.972238 0.745623
Si Si2 0.237049 0.313076 0.762800
Si Si3 0.525832 0.643344 0.125188
Si Si4 0.705779 0.618786 0.750880
Si Si5 0.259952 0.440614 0.446054
Si Si6 0.926787 0.868582 0.955115
O O1 0.665577 0.857929 0.694742
O O2 0.794541 0.936499 0.819271
O O3 0.458593 0.299760 0.553647
O O4 0.587915 0.750974 0.953966
O O5 0.324577 0.480249 0.712036
O O6 0.193034 0.388194 0.591740
O O7 0.096266 0.340134 0.827204
O O8 0.376340 0.953983 0.985919
O O9 0.440936 0.456187 0.210374
O O10 0.729933 0.716911 0.569361
O O11 0.880853 0.310747 0.970572
O O12 0.145061 0.798354 0.203261
#
# Coordination Sequence:
#
# PCOD9038806 Si02
#       6
#     2   2   2   2   2   2
#     4  10  23  42  63  88 125 167 200 244 307 368
#     4   9  20  39  61  91 118 163 203 247 299 359
#     4   9  19  37  64  86 122 160 206 244 297 364
#     4  12  23  38  63  97 125 154 200 262 308 346
#     4  11  23  39  67  90 119 163 211 246 290 373
#     4  11  23  42  65  88 126 161 201 252 306 357
#
# _framework density 23.541988
#
# number of rings (size 3 to 8) (size 9 to 14) (size 15 to 20)
#    0.000    1.667    1.667    3.500    2.333    0.667 
#    3.000    0.000    0.000    3.000    0.000    0.000 
#    0.000    0.000    0.000    0.000    0.000    0.000 
#
# Total GULP energy -67074.574337 kJ/mol
# GULP energy per Si atom -5589.547861 kJ/mol
# Density = 2.348841 g / cm^3
# Si number density = 23.541988 Si / 1000 Ang^3
#
#
#
# Elastic Constant Matrix: (Units=GPa)
#
#
# Indices 1 2 3 4 5 6 
#
# 1 101.8637 43.5239 31.8061 1.9918 22.7456 10.4782
# 2 43.5239 121.0696 22.6450 5.5259 18.3546 11.0722
# 3 31.8061 22.6450 78.1204 5.7021 22.0616 -16.1016
# 4 1.9918 5.5259 5.7021 33.1033 -2.9263 5.0451
# 5 22.7456 18.3546 22.0616 -2.9263 25.7877 0.5518
# 6 10.4782 11.0722 -16.1016 5.0451 0.5518 26.4590
#
#
#
# Elastic Compliance Matrix: (Units=1/GPa)
#
#
# Indices 1 2 3 4 5 6 
#
# 1 0.014815 -0.002711 -0.005139 0.001085 -0.006448 -0.007932
# 2 -0.002711 0.010527 -0.001669 -0.001013 -0.003701 -0.004077
# 3 -0.005139 -0.001669 0.024799 -0.008181 -0.016846 0.019736
# 4 0.001085 -0.001013 -0.008181 0.034484 0.010928 -0.011788
# 5 -0.006448 -0.003701 -0.016846 0.010928 0.062956 -0.009546
# 6 -0.007932 -0.004077 0.019736 -0.011788 -0.009546 0.057099
#
#
# Mechanical properties :
#
#
# Convention : Reuss Voigt Hill
#
# Bulk Modulus (GPa) = 32.15127 55.22261 43.68694
# Shear Modulus (GPa) = 21.35984 30.60856 25.98420
#
# Velocity S-wave (km/s) = 3.01542 3.60970 3.32586
# Velocity P-wave (km/s) = 5.08039 6.39384 5.77458
#
# Compressibility (1/GPa) = 0.03110297
#
# Stress axis : x y z
#
# Youngs Moduli (GPa) = 67.50131 94.99732 40.32387
#
# Poissons Ratio (x) = 0.25755 0.20722
# Poissons Ratio (y) = 0.18301 0.06729
# Poissons Ratio (z) = 0.34688 0.15852
#
# Static dielectric constant tensor:
#      x y z
#    x 1.961070 0.017430 -0.007320 
#    y 0.017430 1.853620 0.058350 
#    z -0.007320 0.058350 1.932690 
# 
# From -- ./inp_files/173550.got.cif
#   From: 2010.05.17/outbox.cif.g08.bks.cpg/sg2_87_cif.got.tgz:173550.got - 2010.06.03 11:33:40.
