data_PCOD9038368
_publ_section_title
;
Structure prediction by ZEFSAII (Michael W. Deem and Ramdas Pophale) SiO2 
 PCOD9038368
Probable space group: P -1
;
_chemical_formula_sum "Si O2"
_cell_formula_units_Z 16
_cell_length_a 10.399258
_cell_length_b 10.300381
_cell_length_c 16.110518
_cell_angle_alpha 131.857372
_cell_angle_beta 34.887010
_cell_angle_gamma 136.916640
_cell_volume 663.857928
_symmetry_space_group_name_H-M "P -1"
_symmetry_group_IT_number 2
_symmetry_cell_setting 'triclinic'
loop_
_space_group_symop_operation_xyz
x,y,z
-x,-y,-z
loop_
_atom_site_type_symbol
_atom_site_label
_atom_site_fract_x
_atom_site_fract_y
_atom_site_fract_z
Si Si1 0.155691 0.267763 0.715902
Si Si2 0.568790 0.165064 0.677669
Si Si3 0.901817 0.156554 0.646522
Si Si4 0.128080 0.146345 0.254452
Si Si5 0.128484 0.765862 0.725341
Si Si6 0.293571 0.397829 0.995085
Si Si7 0.307768 0.554840 0.421194
Si Si8 0.656268 0.221429 0.958621
O O1 0.417263 0.395999 0.670741
O O2 0.126354 0.304382 0.649246
O O3 0.917952 0.277206 0.890570
O O4 0.083709 0.039623 0.668837
O O5 0.777062 0.203444 0.653313
O O6 0.671247 0.284524 0.590067
O O7 0.403350 0.937389 0.658472
O O8 0.371522 0.244581 0.846528
O O9 0.687365 0.109833 0.811688
O O10 0.000000 0.000000 0.500000
O O11 0.193694 0.343992 0.352654
O O12 0.032231 0.166641 0.222924
O O13 0.385803 0.124444 0.101120
O O14 0.155356 0.589463 0.591289
O O15 0.976721 0.701580 0.862862
O O16 0.322334 0.571164 0.994107
O O17 0.500000 0.500000 0.000000
#
# Coordination Sequence:
#
# PCOD9038368 Si02
#       8
#     2   2   2   2   2   2   2   2
#     4  10  25  47  68 100 146 183 235 293 357 428
#     4  12  23  45  75 101 143 192 236 295 358 416
#     4  10  23  41  68  97 139 191 227 281 366 419
#     4  12  23  44  71 104 141 186 241 294 357 419
#     4  12  26  41  70 109 142 179 247 298 350 428
#     4  12  21  45  69 101 142 185 242 290 349 422
#     4  12  26  45  74 106 143 189 239 298 355 417
#     4  10  23  43  70  98 144 187 235 295 349 424
#
# _framework density 24.101542999999999
#
# number of rings (size 3 to 8) (size 9 to 14) (size 15 to 20)
#    0.750    0.000    5.000    2.250    1.750    1.500 
#    2.250    0.625    0.000    0.000    0.000    0.000 
#    0.000    0.000    0.000    0.000    0.000    0.000 
#
# Total GULP energy -89493.342462 kJ/mol
# GULP energy per Si atom -5593.333904 kJ/mol
# Density = 2.404669 g / cm^3
# Si number density = 24.101543 Si / 1000 Ang^3
#
#
#
# Elastic Constant Matrix: (Units=GPa)
#
#
# Indices 1 2 3 4 5 6 
#
# 1 121.6836 29.0967 8.5614 -20.2082 -16.2659 14.1110
# 2 29.0967 95.3122 23.3586 -3.5731 3.6358 14.7631
# 3 8.5614 23.3586 140.6363 -13.0081 -5.2981 3.0638
# 4 -20.2082 -3.5731 -13.0081 28.0254 6.6463 -1.4452
# 5 -16.2659 3.6358 -5.2981 6.6463 37.3083 -3.7207
# 6 14.1110 14.7631 3.0638 -1.4452 -3.7207 28.8844
#
#
#
# Elastic Compliance Matrix: (Units=1/GPa)
#
#
# Indices 1 2 3 4 5 6 
#
# 1 0.010810 -0.002863 0.000641 0.006719 0.003578 -0.003088
# 2 -0.002863 0.012783 -0.002035 -0.000908 -0.003157 -0.005371
# 3 0.000641 -0.002035 0.007774 0.003593 0.000962 0.000206
# 4 0.006719 -0.000908 0.003593 0.043015 -0.004294 -0.001601
# 5 0.003578 -0.003157 0.000962 -0.004294 0.029912 0.003402
# 6 -0.003088 -0.005371 0.000206 -0.001601 0.003402 0.039211
#
#
# Mechanical properties :
#
#
# Convention : Reuss Voigt Hill
#
# Bulk Modulus (GPa) = 43.75886 53.29617 48.52751
# Shear Modulus (GPa) = 31.32122 38.61797 34.96960
#
# Velocity S-wave (km/s) = 3.60884 4.00722 3.81324
# Velocity P-wave (km/s) = 5.96326 6.60088 6.29015
#
# Compressibility (1/GPa) = 0.02285252
#
# Stress axis : x y z
#
# Youngs Moduli (GPa) = 92.50731 78.22929 128.64064
#
# Poissons Ratio (x) = 0.22400 -0.08247
# Poissons Ratio (y) = 0.26488 0.26175
# Poissons Ratio (z) = -0.05931 0.15917
#
# Static dielectric constant tensor:
#      x y z
#    x 1.926170 -0.043800 -0.015780 
#    y -0.043800 1.946040 0.013070 
#    z -0.015780 0.013070 1.978950 
# 
# From -- ./inp_files/568227.got.cif
#   From: 2010.05.17/outbox.cif.g08.bks.cpg/sg2_285_cif.got.tgz:568227.got - 2010.06.03 11:33:40.
