data_PCOD9038089
_publ_section_title
;
Structure prediction by ZEFSAII (Michael W. Deem and Ramdas Pophale) SiO2 
 PCOD9038089
Probable space group: P -1
;
_chemical_formula_sum "Si O2"
_cell_formula_units_Z 16
_cell_length_a 8.202232
_cell_length_b 22.591890
_cell_length_c 6.379661
_cell_angle_alpha 135.008292
_cell_angle_beta 97.671197
_cell_angle_gamma 60.618628
_cell_volume 683.171825
_symmetry_space_group_name_H-M "P -1"
_symmetry_group_IT_number 2
_symmetry_cell_setting 'triclinic'
loop_
_space_group_symop_operation_xyz
x,y,z
-x,-y,-z
loop_
_atom_site_type_symbol
_atom_site_label
_atom_site_fract_x
_atom_site_fract_y
_atom_site_fract_z
Si Si1 0.098531 0.189319 0.375702
Si Si2 0.901877 0.935063 0.591351
Si Si3 0.673657 0.118660 0.335321
Si Si4 0.721156 0.414852 0.248621
Si Si5 0.661071 0.289511 0.574065
Si Si6 0.640683 0.993271 0.324871
Si Si7 0.737895 0.554160 0.289731
Si Si8 0.985385 0.376822 0.570898
O O1 0.118644 0.151223 0.522445
O O2 0.883631 0.209508 0.324284
O O3 0.071380 0.291876 0.554164
O O4 0.283797 0.098184 0.052569
O O5 0.837462 0.959979 0.405528
O O6 0.124975 0.902072 0.579735
O O7 0.754521 0.035132 0.956348
O O8 0.570466 0.229849 0.501558
O O9 0.567242 0.093434 0.429090
O O10 0.500000 0.500000 0.500000
O O11 0.792591 0.477507 0.296310
O O12 0.871883 0.357645 0.323389
O O13 0.699702 0.345889 0.905775
O O14 0.500284 0.370585 0.587403
O O15 0.500000 0.000000 0.500000
O O16 0.843632 0.613215 0.468224
O O17 0.822292 0.484446 0.920707
#
# Coordination Sequence:
#
# PCOD9038089 Si02
#       8
#     2   2   2   2   2   2   2   2
#     4  10  23  41  66  93 123 173 214 258 318 386
#     4   9  20  42  63  90 123 160 210 263 310 372
#     4   9  21  40  63  92 121 164 209 261 312 374
#     4  12  23  42  66  96 130 173 220 265 314 377
#     4  11  22  43  68  95 127 173 220 264 313 381
#     4  11  24  41  64  95 131 164 205 263 326 379
#     4  11  24  44  63  94 135 167 211 274 323 373
#     4  11  24  42  66  95 133 171 210 266 328 379
#
# _framework density 23.420168
#
# number of rings (size 3 to 8) (size 9 to 14) (size 15 to 20)
#    0.000    1.500    2.500    2.625    3.500    4.000 
#    4.500    0.000    0.000    0.000    0.000    0.000 
#    0.000    0.000    0.000    0.000    0.000    0.000 
#
# Total GULP energy -89452.128850 kJ/mol
# GULP energy per Si atom -5590.758053 kJ/mol
# Density = 2.336686 g / cm^3
# Si number density = 23.420168 Si / 1000 Ang^3
#
#
#
# Elastic Constant Matrix: (Units=GPa)
#
#
# Indices 1 2 3 4 5 6 
#
# 1 92.4979 19.2667 23.1032 3.4108 -8.3984 17.3888
# 2 19.2667 110.6821 14.1906 9.7103 19.8109 29.1182
# 3 23.1032 14.1906 31.7792 2.6631 -1.5756 4.4895
# 4 3.4108 9.7103 2.6631 29.8634 1.3339 10.7641
# 5 -8.3984 19.8109 -1.5756 1.3339 28.7067 -6.3868
# 6 17.3888 29.1182 4.4895 10.7641 -6.3868 44.3723
#
#
#
# Elastic Compliance Matrix: (Units=1/GPa)
#
#
# Indices 1 2 3 4 5 6 
#
# 1 0.014341 -0.001036 -0.009328 0.000688 0.003554 -0.003651
# 2 -0.001036 0.015182 -0.005156 0.000224 -0.013529 -0.011037
# 3 -0.009328 -0.005156 0.040379 -0.002541 0.004089 0.004159
# 4 0.000688 0.000224 -0.002541 0.037263 -0.003999 -0.009775
# 5 0.003554 -0.013529 0.004089 -0.003999 0.048980 0.015092
# 6 -0.003651 -0.011037 0.004159 -0.009775 0.015092 0.035333
#
#
# Mechanical properties :
#
#
# Convention : Reuss Voigt Hill
#
# Bulk Modulus (GPa) = 25.73346 38.67555 32.20451
# Shear Modulus (GPa) = 21.23396 32.48172 26.85784
#
# Velocity S-wave (km/s) = 3.01433 3.72817 3.39009
# Velocity P-wave (km/s) = 4.80901 5.92300 5.39483
#
# Compressibility (1/GPa) = 0.03885992
#
# Stress axis : x y z
#
# Youngs Moduli (GPa) = 69.73203 65.86833 24.76519
#
# Poissons Ratio (x) = 0.06826 0.23102
# Poissons Ratio (y) = 0.07226 0.12770
# Poissons Ratio (z) = 0.65049 0.33963
#
# Static dielectric constant tensor:
#      x y z
#    x 1.946800 0.006300 0.008310 
#    y 0.006300 1.872800 0.016820 
#    z 0.008310 0.016820 1.865830 
# 
# From -- ./inp_files/53969.got.cif
#   From: 2010.05.17/outbox.cif.g08.bks.cpg/sg2_27_cif.got.tgz:53969.got - 2010.06.03 11:33:40.
