data_PCOD9038517
_publ_section_title
;
Structure prediction by ZEFSAII (Michael W. Deem and Ramdas Pophale) SiO2 
 PCOD9038517
Probable space group: P -1
;
_chemical_formula_sum "Si O2"
_cell_formula_units_Z 14
_cell_length_a 18.814906
_cell_length_b 12.393493
_cell_length_c 9.659484
_cell_angle_alpha 44.123214
_cell_angle_beta 46.203096
_cell_angle_gamma 19.989244
_cell_volume 534.608281
_symmetry_space_group_name_H-M "P -1"
_symmetry_group_IT_number 2
_symmetry_cell_setting 'triclinic'
loop_
_space_group_symop_operation_xyz
x,y,z
-x,-y,-z
loop_
_atom_site_type_symbol
_atom_site_label
_atom_site_fract_x
_atom_site_fract_y
_atom_site_fract_z
Si Si1 0.279361 0.241657 0.630070
Si Si2 0.198441 0.498507 0.246123
Si Si3 0.657396 0.274513 0.369912
Si Si4 0.124956 0.734284 0.849240
Si Si5 0.399614 0.983102 0.249275
Si Si6 0.113322 0.495468 0.905831
Si Si7 0.491211 0.366909 0.036353
O O1 0.136241 0.469346 0.479781
O O2 0.207814 0.424417 0.697803
O O3 0.500000 0.000000 0.500000
O O4 0.319903 0.008329 0.832373
O O5 0.370980 0.163343 0.230633
O O6 0.296665 0.516773 0.165081
O O7 0.064126 0.742921 0.071562
O O8 0.500000 0.500000 0.500000
O O9 0.854662 0.110519 0.293433
O O10 0.679284 0.060006 0.523562
O O11 0.535705 0.526458 0.177675
O O12 0.002535 0.800964 0.840792
O O13 0.364903 0.369151 0.802322
O O14 0.256666 0.222810 0.087644
O O15 0.000000 0.500000 0.000000
O O16 0.500000 0.500000 0.000000
#
# Coordination Sequence:
#
# PCOD9038517 Si02
#       7
#     2   2   2   2   2   2   2
#     4  10  18  32  52  78 106 136 174 218 259 304
#     4   9  17  28  47  70  96 134 170 205 252 306
#     4   9  17  28  48  75  99 136 180 216 254 309
#     4   9  17  33  53  74 104 141 177 214 259 316
#     4  10  17  33  54  74 102 142 180 214 257 318
#     4  11  22  35  53  81 111 139 174 220 266 310
#     4  10  18  27  45  80 110 126 163 225 267 293
#
# _framework density 26.187397000000001
#
# number of rings (size 3 to 8) (size 9 to 14) (size 15 to 20)
#    0.000    2.286    0.000    7.714    0.000    3.429 
#    0.000    3.571    0.000    0.000    0.000   11.000 
#    0.000    0.000    0.000    0.000    0.000    0.000 
#
# Total GULP energy -78061.213669 kJ/mol
# GULP energy per Si atom -5575.800976 kJ/mol
# Density = 2.612779 g / cm^3
# Si number density = 26.187397 Si / 1000 Ang^3
#
#
#
# Elastic Constant Matrix: (Units=GPa)
#
#
# Indices 1 2 3 4 5 6 
#
# 1 165.0335 22.4662 58.0459 1.3761 -4.6262 28.1918
# 2 22.4662 61.3082 28.4026 -10.8964 5.0362 9.9333
# 3 58.0459 28.4026 204.5104 -10.1590 9.9483 8.8242
# 4 1.3761 -10.8964 -10.1590 26.5837 14.1188 -9.9132
# 5 -4.6262 5.0362 9.9483 14.1188 55.7903 0.7802
# 6 28.1918 9.9333 8.8242 -9.9132 0.7802 33.7623
#
#
#
# Elastic Compliance Matrix: (Units=1/GPa)
#
#
# Indices 1 2 3 4 5 6 
#
# 1 0.008730 -0.002328 -0.002311 -0.007050 0.003244 -0.008146
# 2 -0.002328 0.019998 -0.001398 0.009802 -0.004221 -0.000598
# 3 -0.002311 -0.001398 0.005938 0.003623 -0.002068 0.001901
# 4 -0.007050 0.009802 0.003623 0.060278 -0.017652 0.020163
# 5 0.003244 -0.004221 -0.002068 -0.017652 0.023503 -0.006653
# 6 -0.008146 -0.000598 0.001901 0.020163 -0.006653 0.042174
#
#
# Mechanical properties :
#
#
# Convention : Reuss Voigt Hill
#
# Bulk Modulus (GPa) = 44.26535 72.07572 58.17053
# Shear Modulus (GPa) = 27.74256 44.68975 36.21616
#
# Velocity S-wave (km/s) = 3.25835 4.13551 3.72285
# Velocity P-wave (km/s) = 5.57636 7.09831 6.38286
#
# Compressibility (1/GPa) = 0.02259103
#
# Stress axis : x y z
#
# Youngs Moduli (GPa) = 114.54106 50.00537 168.39406
#
# Poissons Ratio (x) = 0.11643 0.38919
# Poissons Ratio (y) = 0.26668 0.23549
# Poissons Ratio (z) = 0.26472 0.06993
#
# Static dielectric constant tensor:
#      x y z
#    x 2.168950 -0.094340 -0.060490 
#    y -0.094340 2.231280 0.031910 
#    z -0.060490 0.031910 2.021690 
# 
# From -- ./inp_files/332832.got.cif
#   From: 2010.05.17/outbox.cif.g08.bks.cpg/sg2_167_cif.got.tgz:332832.got - 2010.06.03 11:33:40.
