data_PCOD9038043
_publ_section_title
;
Structure prediction by ZEFSAII (Michael W. Deem and Ramdas Pophale) SiO2 
 PCOD9038043
Probable space group: P -1
;
_chemical_formula_sum "Si O2"
_cell_formula_units_Z 11
_cell_length_a 14.586955
_cell_length_b 9.568431
_cell_length_c 21.985063
_cell_angle_alpha 160.920772
_cell_angle_beta 22.842747
_cell_angle_gamma 153.172545
_cell_volume 383.792878
_symmetry_space_group_name_H-M "P -1"
_symmetry_group_IT_number 2
_symmetry_cell_setting 'triclinic'
loop_
_space_group_symop_operation_xyz
x,y,z
-x,-y,-z
loop_
_atom_site_type_symbol
_atom_site_label
_atom_site_fract_x
_atom_site_fract_y
_atom_site_fract_z
Si Si1 0.423722 0.161170 0.548959
Si Si2 0.173454 0.829889 0.453619
Si Si3 0.379590 0.242587 0.909109
Si Si4 0.000000 0.500000 0.000000
Si Si5 0.262252 0.711499 0.052991
Si Si6 0.041827 0.520954 0.672153
O O1 0.252345 0.504554 0.808330
O O2 0.676217 0.339539 0.437642
O O3 0.500000 0.000000 0.500000
O O4 0.266134 0.802373 0.454566
O O5 0.411539 0.026345 0.349983
O O6 0.052631 0.429972 0.320192
O O7 0.954662 0.084578 0.700628
O O8 0.500000 0.500000 0.000000
O O9 0.362750 0.495259 0.960874
O O10 0.103020 0.189792 0.078352
O O11 0.852261 0.505896 0.028126
O O12 0.500000 0.000000 0.000000
O O13 0.000000 0.000000 0.500000
#
# Coordination Sequence:
#
# PCOD9038043 Si02
#       6
#     2   2   2   1   2   2
#     4  11  25  45  67  99 136 175 227 278 333 407
#     4  10  23  42  66  99 130 179 222 276 336 403
#     4  10  23  41  66 100 131 177 224 280 336 404
#     4  10  24  40  66 102 128 180 220 282 330 406
#     4  11  22  41  65  94 135 176 224 276 336 401
#     4  11  23  45  68  97 137 174 222 279 337 402
#
# _framework density 28.661290999999999
#
# number of rings (size 3 to 8) (size 9 to 14) (size 15 to 20)
#    0.000    1.455    1.818    2.182    0.000    8.727 
#    3.273    0.000    0.000    0.000    0.000    0.000 
#    0.000    0.000    0.000    0.000    0.000    0.000 
#
# Total GULP energy -61239.609976 kJ/mol
# GULP energy per Si atom -5567.237271 kJ/mol
# Density = 2.859606 g / cm^3
# Si number density = 28.661291 Si / 1000 Ang^3
#
#
#
# Elastic Constant Matrix: (Units=GPa)
#
#
# Indices 1 2 3 4 5 6 
#
# 1 309.5090 73.5708 19.1361 0.6255 -1.9279 5.1587
# 2 73.5708 91.5785 62.4102 -28.3947 -14.7106 8.6360
# 3 19.1361 62.4102 302.2826 -60.4727 -9.7464 9.9618
# 4 0.6255 -28.3947 -60.4727 44.1533 7.0574 -1.0388
# 5 -1.9279 -14.7106 -9.7464 7.0574 69.7702 -4.7428
# 6 5.1587 8.6360 9.9618 -1.0388 -4.7428 43.5296
#
#
#
# Elastic Compliance Matrix: (Units=1/GPa)
#
#
# Indices 1 2 3 4 5 6 
#
# 1 0.004280 -0.004440 0.000077 -0.002723 -0.000516 0.000235
# 2 -0.004440 0.019238 -0.001562 0.009829 0.002556 -0.002420
# 3 0.000077 -0.001562 0.004744 0.005518 -0.000269 -0.000682
# 4 -0.002723 0.009829 0.005518 0.036689 -0.001088 -0.002133
# 5 -0.000516 0.002556 -0.000269 -0.001088 0.015013 0.001225
# 6 0.000235 -0.002420 -0.000682 -0.002133 0.001225 0.023664
#
#
# Mechanical properties :
#
#
# Convention : Reuss Voigt Hill
#
# Bulk Modulus (GPa) = 60.93785 112.62268 86.78027
# Shear Modulus (GPa) = 41.33989 68.04080 54.69035
#
# Velocity S-wave (km/s) = 3.80196 4.87762 4.37299
# Velocity P-wave (km/s) = 6.37030 8.43215 7.47268
#
# Compressibility (1/GPa) = 0.01641016
#
# Stress axis : x y z
#
# Youngs Moduli (GPa) = 233.64957 51.98172 210.81155
#
# Poissons Ratio (x) = 0.23079 -0.01615
# Poissons Ratio (y) = 1.03736 0.32933
# Poissons Ratio (z) = -0.01790 0.08121
#
# Static dielectric constant tensor:
#      x y z
#    x 2.134190 0.000040 0.045170 
#    y 0.000040 2.568140 0.230710 
#    z 0.045170 0.230710 2.386180 
# 
# From -- ./inp_files/597282.got.cif
#   From: 2010.05.17/outbox.cif.g08.bks.cpg/sg2_299_cif.got.tgz:597282.got - 2010.06.03 11:33:40.
