data_PCOD9038861
_publ_section_title
;
Structure prediction by ZEFSAII (Michael W. Deem and Ramdas Pophale) SiO2 
 PCOD9038861
Probable space group: P -1
;
_chemical_formula_sum "Si O2"
_cell_formula_units_Z 14
_cell_length_a 10.440296
_cell_length_b 12.052640
_cell_length_c 21.174935
_cell_angle_alpha 22.618041
_cell_angle_beta 39.928866
_cell_angle_gamma 50.783762
_cell_volume 626.091424
_symmetry_space_group_name_H-M "P -1"
_symmetry_group_IT_number 2
_symmetry_cell_setting 'triclinic'
loop_
_space_group_symop_operation_xyz
x,y,z
-x,-y,-z
loop_
_atom_site_type_symbol
_atom_site_label
_atom_site_fract_x
_atom_site_fract_y
_atom_site_fract_z
Si Si1 0.638827 0.276692 0.003432
Si Si2 0.800561 0.772286 0.591751
Si Si3 0.800435 0.752550 0.864018
Si Si4 0.574767 0.277113 0.436107
Si Si5 0.461477 0.296667 0.887974
Si Si6 0.171043 0.136955 0.917237
Si Si7 0.172052 0.866521 0.862346
O O1 0.406851 0.300751 0.073082
O O2 0.704654 0.181573 0.095628
O O3 0.654832 0.022890 0.079887
O O4 0.800220 0.591876 0.751936
O O5 0.667558 0.514056 0.730532
O O6 0.668123 0.005025 0.530262
O O7 0.020746 0.960811 0.380575
O O8 0.721483 0.784031 0.947776
O O9 0.874490 0.452966 0.988150
O O10 0.585622 0.490866 0.259890
O O11 0.717772 0.503734 0.314707
O O12 0.334601 0.131939 0.623480
O O13 0.500000 0.000000 0.000000
O O14 0.035052 0.065129 0.070459
O O15 0.000000 0.000000 0.000000
#
# Coordination Sequence:
#
# PCOD9038861 Si02
#       7
#     2   2   2   2   2   2   2
#     4  10  23  42  64 100 142 166 220 274 321 389
#     4  11  24  41  70 100 126 179 222 267 331 387
#     4  11  23  42  68  97 130 175 223 269 325 389
#     4  12  23  42  71  96 135 174 221 271 328 390
#     4  11  26  46  66  97 135 167 223 283 325 387
#     4  10  24  43  63  99 136 171 217 272 323 388
#     4  11  23  41  68  99 133 178 218 269 329 388
#
# _framework density 22.360952999999999
#
# number of rings (size 3 to 8) (size 9 to 14) (size 15 to 20)
#    0.000    1.143    4.286    2.571    0.000    9.714 
#    0.000    0.000    0.000    0.000    0.000    0.000 
#    0.000    0.000    0.000    0.000    0.000    0.000 
#
# Total GULP energy -78299.323634 kJ/mol
# GULP energy per Si atom -5592.808831 kJ/mol
# Density = 2.231006 g / cm^3
# Si number density = 22.360953 Si / 1000 Ang^3
#
#
#
# Elastic Constant Matrix: (Units=GPa)
#
#
# Indices 1 2 3 4 5 6 
#
# 1 32.2863 -13.3110 5.6868 -2.9420 3.3565 8.3641
# 2 -13.3110 121.4244 16.4616 -6.9511 -10.6465 3.2177
# 3 5.6868 16.4616 122.5050 15.7919 -20.2222 8.5156
# 4 -2.9420 -6.9511 15.7919 55.1714 -2.6218 -7.3010
# 5 3.3565 -10.6465 -20.2222 -2.6218 43.5838 0.1923
# 6 8.3641 3.2177 8.5156 -7.3010 0.1923 23.7647
#
#
#
# Elastic Compliance Matrix: (Units=1/GPa)
#
#
# Indices 1 2 3 4 5 6 
#
# 1 0.036781 0.004492 -0.002045 0.001353 -0.002548 -0.012385
# 2 0.004492 0.009165 -0.001281 0.001577 0.001402 -0.001890
# 3 -0.002045 -0.001281 0.009816 -0.003369 0.004213 -0.003693
# 4 0.001353 0.001577 -0.003369 0.020248 -0.000094 0.006739
# 5 -0.002548 0.001402 0.004213 -0.000094 0.025437 -0.001037
# 6 -0.012385 -0.001890 -0.003693 0.006739 -0.001037 0.050096
#
#
# Mechanical properties :
#
#
# Convention : Reuss Voigt Hill
#
# Bulk Modulus (GPa) = 17.21336 32.65448 24.93392
# Shear Modulus (GPa) = 29.66018 42.32921 35.99469
#
# Velocity S-wave (km/s) = 3.64597 4.35558 4.01647
# Velocity P-wave (km/s) = 5.04368 6.31900 5.71702
#
# Compressibility (1/GPa) = 0.05809442
#
# Stress axis : x y z
#
# Youngs Moduli (GPa) = 27.18761 109.11239 101.87051
#
# Poissons Ratio (x) = -0.49009 0.20834
# Poissons Ratio (y) = -0.12212 0.13045
# Poissons Ratio (z) = 0.05560 0.13973
#
# Static dielectric constant tensor:
#      x y z
#    x 1.909640 0.021090 -0.001020 
#    y 0.021090 1.857640 0.002970 
#    z -0.001020 0.002970 1.774440 
# 
# From -- ./inp_files/274319.got.cif
#   From: 2010.05.17/outbox.cif.g08.bks.cpg/sg2_138_cif.got.tgz:274319.got - 2010.06.03 11:33:40.
