data_PCOD9038860
_publ_section_title
;
Structure prediction by ZEFSAII (Michael W. Deem and Ramdas Pophale) SiO2 
 PCOD9038860
Probable space group: P -1
;
_chemical_formula_sum "Si O2"
_cell_formula_units_Z 12
_cell_length_a 12.697295
_cell_length_b 5.139431
_cell_length_c 18.950811
_cell_angle_alpha 66.861452
_cell_angle_beta 154.815992
_cell_angle_gamma 112.904617
_cell_volume 482.117834
_symmetry_space_group_name_H-M "P -1"
_symmetry_group_IT_number 2
_symmetry_cell_setting 'triclinic'
loop_
_space_group_symop_operation_xyz
x,y,z
-x,-y,-z
loop_
_atom_site_type_symbol
_atom_site_label
_atom_site_fract_x
_atom_site_fract_y
_atom_site_fract_z
Si Si1 0.329941 0.758851 0.089865
Si Si2 0.884464 0.999437 0.853037
Si Si3 0.611641 0.327491 0.388491
Si Si4 0.221162 0.786954 0.652115
Si Si5 0.461260 0.332204 0.921342
Si Si6 0.333377 0.702054 0.419552
O O1 0.436228 0.570844 0.235544
O O2 0.367657 0.635746 0.048470
O O3 0.521709 0.041007 0.183304
O O4 0.043282 0.783751 0.929776
O O5 0.593632 0.935883 0.698293
O O6 0.892908 0.252671 0.774564
O O7 0.000000 0.000000 0.000000
O O8 0.757136 0.280325 0.410303
O O9 0.736621 0.391367 0.533170
O O10 0.223358 0.488017 0.728177
O O11 0.000000 0.000000 0.500000
O O12 0.500000 0.500000 0.000000
O O13 0.500000 0.000000 0.000000
O O14 0.500000 0.500000 0.500000
O O15 0.500000 0.000000 0.500000
#
# Coordination Sequence:
#
# PCOD9038860 Si02
#       6
#     2   2   2   2   2   2
#     4  11  23  43  72 104 139 187 241 292 361 426
#     4  11  21  41  73 104 142 187 228 292 359 431
#     4  10  23  42  70 103 145 183 237 293 359 430
#     4  11  25  46  74 104 141 194 246 298 360 426
#     4  11  24  48  72 102 144 183 243 303 358 427
#     4  10  23  42  64 100 141 181 229 282 350 423
#
# _framework density 24.890183
#
# number of rings (size 3 to 8) (size 9 to 14) (size 15 to 20)
#    0.000    1.333    3.333    1.500    2.333    5.333 
#    3.000    0.000    0.000    0.000    0.000    0.000 
#    0.000    0.000    0.000    0.000    0.000    0.000 
#
# Total GULP energy -66862.712168 kJ/mol
# GULP energy per Si atom -5571.892681 kJ/mol
# Density = 2.483353 g / cm^3
# Si number density = 24.890183 Si / 1000 Ang^3
#
#
#
# Elastic Constant Matrix: (Units=GPa)
#
#
# Indices 1 2 3 4 5 6 
#
# 1 205.0415 36.8368 112.2454 -15.7073 -47.1369 -49.2809
# 2 36.8368 109.4727 52.1567 -18.4018 -8.8865 -24.8750
# 3 112.2454 52.1567 145.1664 -31.3680 -40.8185 -11.9166
# 4 -15.7073 -18.4018 -31.3680 59.3849 -2.3581 0.8535
# 5 -47.1369 -8.8865 -40.8185 -2.3581 60.8054 -2.5171
# 6 -49.2809 -24.8750 -11.9166 0.8535 -2.5171 46.2155
#
#
#
# Elastic Compliance Matrix: (Units=1/GPa)
#
#
# Indices 1 2 3 4 5 6 
#
# 1 0.014546 0.003648 -0.009645 -0.000100 0.005964 0.015314
# 2 0.003648 0.013395 -0.006152 0.001773 0.001119 0.009541
# 3 -0.009645 -0.006152 0.017964 0.005298 0.003521 -0.008870
# 4 -0.000100 0.001773 0.005298 0.020314 0.004613 0.002090
# 5 0.005964 0.001119 0.003521 0.004613 0.024152 0.009101
# 6 0.015314 0.009541 -0.008870 0.002090 0.009101 0.041272
#
#
# Mechanical properties :
#
#
# Convention : Reuss Voigt Hill
#
# Bulk Modulus (GPa) = 46.28409 95.79537 71.03973
# Shear Modulus (GPa) = 30.64762 50.51061 40.57911
#
# Velocity S-wave (km/s) = 3.51281 4.50971 4.04211
# Velocity P-wave (km/s) = 5.92358 8.10477 7.09846
#
# Compressibility (1/GPa) = 0.02160570
#
# Stress axis : x y z
#
# Youngs Moduli (GPa) = 68.74859 74.65267 55.66791
#
# Poissons Ratio (x) = -0.27231 0.53692
# Poissons Ratio (y) = -0.25077 0.34247
# Poissons Ratio (z) = 0.66309 0.45927
#
# Static dielectric constant tensor:
#      x y z
#    x 2.049050 0.173050 -0.001220 
#    y 0.173050 2.189340 0.015260 
#    z -0.001220 0.015260 2.059170 
# 
# From -- ./inp_files/24007.got.cif
#   From: 2010.05.17/outbox.cif.g08.bks.cpg/sg2_13_cif.got.tgz:24007.got - 2010.06.03 11:33:40.
