data_PCOD9038989
_publ_section_title
;
Structure prediction by ZEFSAII (Michael W. Deem and Ramdas Pophale) SiO2 
 PCOD9038989
Probable space group: P -1
;
_chemical_formula_sum "Si O2"
_cell_formula_units_Z 14
_cell_length_a 9.416915
_cell_length_b 9.649575
_cell_length_c 12.745688
_cell_angle_alpha 84.597266
_cell_angle_beta 69.973503
_cell_angle_gamma 135.464712
_cell_volume 654.947117
_symmetry_space_group_name_H-M "P -1"
_symmetry_group_IT_number 2
_symmetry_cell_setting 'triclinic'
loop_
_space_group_symop_operation_xyz
x,y,z
-x,-y,-z
loop_
_atom_site_type_symbol
_atom_site_label
_atom_site_fract_x
_atom_site_fract_y
_atom_site_fract_z
Si Si1 0.627162 0.696351 0.825234
Si Si2 0.877167 0.824771 0.377784
Si Si3 0.268360 0.676175 0.867296
Si Si4 0.089694 0.442058 0.707996
Si Si5 0.267620 0.192022 0.973412
Si Si6 0.556583 0.167265 0.807854
Si Si7 0.400005 0.618209 0.424613
O O1 0.430808 0.677655 0.882645
O O2 0.468058 0.445066 0.852889
O O3 0.744534 0.765431 0.906719
O O4 0.861111 0.912959 0.679888
O O5 0.930554 0.741067 0.284245
O O6 0.676927 0.784763 0.384161
O O7 0.744548 0.636837 0.515950
O O8 0.227852 0.592171 0.765879
O O9 0.415529 0.928082 0.818933
O O10 0.000000 0.500000 0.000000
O O11 0.251745 0.596737 0.552498
O O12 0.818556 0.312044 0.779854
O O13 0.383433 0.123851 0.936109
O O14 0.000000 0.000000 0.000000
O O15 0.600983 0.301665 0.688698
#
# Coordination Sequence:
#
# PCOD9038989 Si02
#       7
#     2   2   2   2   2   2   2
#     4  11  24  43  66  98 127 174 226 257 329 397
#     4   9  20  42  68  93 130 169 218 266 324 387
#     4  12  26  40  65  96 131 173 220 264 330 390
#     4  10  23  42  65  93 132 172 210 274 322 380
#     4  11  26  42  67  96 136 172 214 277 323 384
#     4  12  24  41  66  97 132 169 218 274 325 383
#     4   9  21  41  69  94 132 172 216 271 330 380
#
# _framework density 21.375769999999999
#
# number of rings (size 3 to 8) (size 9 to 14) (size 15 to 20)
#    0.857    0.571    1.429    3.000    6.000    5.143 
#    0.000    4.286    0.000    0.000    0.000    0.000 
#    0.000    0.000    0.000    0.000    0.000    0.000 
#
# Total GULP energy -78236.615637 kJ/mol
# GULP energy per Si atom -5588.329688 kJ/mol
# Density = 2.132712 g / cm^3
# Si number density = 21.375770 Si / 1000 Ang^3
#
#
#
# Elastic Constant Matrix: (Units=GPa)
#
#
# Indices 1 2 3 4 5 6 
#
# 1 95.1181 40.6719 9.6101 -15.6003 -25.0762 12.8722
# 2 40.6719 129.1042 13.0338 -7.1670 2.9093 1.1731
# 3 9.6101 13.0338 25.8416 3.2991 0.7600 1.4533
# 4 -15.6003 -7.1670 3.2991 31.5679 -4.2968 0.5680
# 5 -25.0762 2.9093 0.7600 -4.2968 37.7569 1.3590
# 6 12.8722 1.1731 1.4533 0.5680 1.3590 28.5563
#
#
#
# Elastic Compliance Matrix: (Units=1/GPa)
#
#
# Indices 1 2 3 4 5 6 
#
# 1 0.021347 -0.005653 -0.006587 0.012384 0.016518 -0.010087
# 2 -0.005653 0.009832 -0.002740 -0.000954 -0.004656 0.002524
# 3 -0.006587 -0.002740 0.043825 -0.009319 -0.006154 0.001330
# 4 0.012384 -0.000954 -0.009319 0.040486 0.013328 -0.006508
# 5 0.016518 -0.004656 -0.006154 0.013328 0.039783 -0.009100
# 6 -0.010087 0.002524 0.001330 -0.006508 -0.009100 0.039957
#
#
# Mechanical properties :
#
#
# Convention : Reuss Voigt Hill
#
# Bulk Modulus (GPa) = 22.20050 41.85504 32.02777
# Shear Modulus (GPa) = 20.81564 32.02610 26.42087
#
# Velocity S-wave (km/s) = 3.12396 3.87491 3.51952
# Velocity P-wave (km/s) = 4.83947 6.29627 5.61532
#
# Compressibility (1/GPa) = 0.04504403
#
# Stress axis : x y z
#
# Youngs Moduli (GPa) = 46.84527 101.70664 22.81811
#
# Poissons Ratio (x) = 0.57495 0.15030
# Poissons Ratio (y) = 0.26482 0.06252
# Poissons Ratio (z) = 0.30857 0.27867
#
# Static dielectric constant tensor:
#      x y z
#    x 1.739910 -0.016890 0.012330 
#    y -0.016890 1.775470 0.007310 
#    z 0.012330 0.007310 1.837500 
# 
# From -- ./inp_files/119325.got.cif
#   From: 2010.05.17/outbox.cif.g08.bks.cpg/sg2_60_cif.got.tgz:119325.got - 2010.06.03 11:33:40.
