data_PCOD9038418
_publ_section_title
;
Structure prediction by ZEFSAII (Michael W. Deem and Ramdas Pophale) SiO2 
 PCOD9038418
Probable space group: P -1
;
_chemical_formula_sum "Si O2"
_cell_formula_units_Z 14
_cell_length_a 9.290967
_cell_length_b 17.330080
_cell_length_c 12.361048
_cell_angle_alpha 161.791781
_cell_angle_beta 110.325955
_cell_angle_gamma 70.658631
_cell_volume 583.178527
_symmetry_space_group_name_H-M "P -1"
_symmetry_group_IT_number 2
_symmetry_cell_setting 'triclinic'
loop_
_space_group_symop_operation_xyz
x,y,z
-x,-y,-z
loop_
_atom_site_type_symbol
_atom_site_label
_atom_site_fract_x
_atom_site_fract_y
_atom_site_fract_z
Si Si1 0.462600 0.717261 0.367383
Si Si2 0.743923 0.563018 0.357040
Si Si3 0.327061 0.469270 0.456076
Si Si4 0.340127 0.955386 0.456561
Si Si5 0.930021 0.328089 0.489820
Si Si6 0.191493 0.924565 0.670815
Si Si7 0.947870 0.716130 0.192452
O O1 0.615760 0.741589 0.508525
O O2 0.319907 0.705974 0.398354
O O3 0.398069 0.938953 0.572889
O O4 0.500000 0.500000 0.000000
O O5 0.695328 0.488787 0.366047
O O6 0.909547 0.686943 0.552083
O O7 0.731308 0.307542 0.946037
O O8 0.500000 0.500000 0.500000
O O9 0.212505 0.643817 0.590364
O O10 0.269916 0.187893 0.052965
O O11 0.216087 0.160040 0.667216
O O12 0.500000 0.000000 0.500000
O O13 0.899885 0.132188 0.317127
O O14 0.946073 0.583549 0.901054
O O15 0.078179 0.911579 0.520205
O O16 0.000000 0.500000 0.000000
#
# Coordination Sequence:
#
# PCOD9038418 Si02
#       7
#     2   2   2   2   2   2   2
#     4  10  23  41  69 106 147 185 243 306 367 438
#     4  11  26  46  69 106 148 194 251 306 368 442
#     4  12  28  48  71 103 150 199 254 304 362 453
#     4  11  25  40  73 110 148 193 242 304 378 437
#     4  11  25  46  75 104 145 191 250 311 368 443
#     4  11  25  46  75 104 146 197 248 297 387 430
#     4  10  23  42  76 109 145 186 241 308 374 435
#
# _framework density 24.006371000000001
#
# number of rings (size 3 to 8) (size 9 to 14) (size 15 to 20)
#    0.000    1.143    0.000    4.714   16.000    4.571 
#    0.000    0.000    0.000    0.000    0.000    0.000 
#    0.000    0.000    0.000    0.000    0.000    0.000 
#
# Total GULP energy -78278.676013 kJ/mol
# GULP energy per Si atom -5591.334001 kJ/mol
# Density = 2.395173 g / cm^3
# Si number density = 24.006371 Si / 1000 Ang^3
#
#
#
# Elastic Constant Matrix: (Units=GPa)
#
#
# Indices 1 2 3 4 5 6 
#
# 1 178.5702 42.5803 2.2148 -0.0392 0.9411 -26.3378
# 2 42.5803 120.2209 10.6431 -16.4782 -6.2582 -26.6022
# 3 2.2148 10.6431 63.4261 6.1455 4.7559 -3.2179
# 4 -0.0392 -16.4782 6.1455 40.0866 3.9729 -2.1309
# 5 0.9411 -6.2582 4.7559 3.9729 41.7686 5.9724
# 6 -26.3378 -26.6022 -3.2179 -2.1309 5.9724 56.5781
#
#
#
# Elastic Compliance Matrix: (Units=1/GPa)
#
#
# Indices 1 2 3 4 5 6 
#
# 1 0.006377 -0.001946 0.000329 -0.000660 -0.000713 0.002123
# 2 -0.001946 0.010828 -0.002076 0.004906 0.000841 0.004164
# 3 0.000329 -0.002076 0.016567 -0.003191 -0.001930 0.000203
# 4 -0.000660 0.004906 -0.003191 0.027810 -0.001971 0.003073
# 5 -0.000713 0.000841 -0.001930 -0.001971 0.024884 -0.002748
# 6 0.002123 0.004164 0.000203 0.003073 -0.002748 0.021038
#
#
# Mechanical properties :
#
#
# Convention : Reuss Voigt Hill
#
# Bulk Modulus (GPa) = 37.89760 52.56596 45.23178
# Shear Modulus (GPa) = 40.42533 48.13860 44.28197
#
# Velocity S-wave (km/s) = 4.10804 4.48285 4.29953
# Velocity P-wave (km/s) = 6.19048 6.98132 6.59776
#
# Compressibility (1/GPa) = 0.02638690
#
# Stress axis : x y z
#
# Youngs Moduli (GPa) = 156.82380 92.35004 60.35914
#
# Poissons Ratio (x) = 0.17967 -0.01986
# Poissons Ratio (y) = 0.30511 0.12532
# Poissons Ratio (z) = -0.05159 0.19174
#
# Static dielectric constant tensor:
#      x y z
#    x 2.051830 0.101230 -0.016370 
#    y 0.101230 1.939150 0.014350 
#    z -0.016370 0.014350 1.997950 
# 
# From -- ./inp_files/403676.got.cif
#   From: 2010.05.17/outbox.cif.g08.bks.cpg/sg2_202_cif.got.tgz:403676.got - 2010.06.03 11:33:40.
