data_PCOD9038448
_publ_section_title
;
Structure prediction by ZEFSAII (Michael W. Deem and Ramdas Pophale) SiO2 
 PCOD9038448
Probable space group: P -1
;
_chemical_formula_sum "Si O2"
_cell_formula_units_Z 14
_cell_length_a 9.066515
_cell_length_b 15.936832
_cell_length_c 19.028140
_cell_angle_alpha 158.698271
_cell_angle_beta 43.220497
_cell_angle_gamma 135.215339
_cell_volume 678.717683
_symmetry_space_group_name_H-M "P -1"
_symmetry_group_IT_number 2
_symmetry_cell_setting 'triclinic'
loop_
_space_group_symop_operation_xyz
x,y,z
-x,-y,-z
loop_
_atom_site_type_symbol
_atom_site_label
_atom_site_fract_x
_atom_site_fract_y
_atom_site_fract_z
Si Si1 0.701381 0.597994 0.556528
Si Si2 0.909575 0.103743 0.902043
Si Si3 0.599038 0.747359 0.127352
Si Si4 0.406708 0.521881 0.731014
Si Si5 0.169019 0.874149 0.886807
Si Si6 0.758286 0.002233 0.610923
Si Si7 0.501175 0.767632 0.022095
O O1 0.500000 0.500000 0.500000
O O2 0.598939 0.599258 0.670641
O O3 0.854236 0.396725 0.337015
O O4 0.817851 0.857434 0.706838
O O5 0.169125 0.160527 0.848238
O O6 0.781011 0.311626 0.082099
O O7 0.855345 0.092617 0.995851
O O8 0.410191 0.917834 0.326208
O O9 0.363276 0.268638 0.982836
O O10 0.500000 0.500000 0.000000
O O11 0.484866 0.553937 0.808725
O O12 0.325290 0.256176 0.536802
O O13 0.395431 0.009361 0.884612
O O14 0.000000 0.000000 0.000000
O O15 0.726052 0.177925 0.823143
O O16 0.000000 0.000000 0.500000
#
# Coordination Sequence:
#
# PCOD9038448 Si02
#       7
#     2   2   2   2   2   2   2
#     4  12  24  40  64 103 142 180 228 273 339 419
#     4  12  25  40  71 102 141 184 222 282 354 400
#     4  10  23  49  68  98 137 177 232 289 339 408
#     4  12  23  41  68  98 137 181 229 280 340 411
#     4  12  22  42  65 101 141 174 221 287 348 412
#     4  10  23  44  69  93 133 181 236 282 338 400
#     4  10  23  41  69  96 135 173 231 282 340 405
#
# _framework density 20.627133000000001
#
# number of rings (size 3 to 8) (size 9 to 14) (size 15 to 20)
#    0.857    0.000    5.714    2.143    0.000    2.286 
#    0.000    0.714    0.000    0.000    0.000    0.000 
#    0.000    0.000    0.000    0.000    0.000    0.000 
#
# Total GULP energy -78115.644934 kJ/mol
# GULP energy per Si atom -5579.688924 kJ/mol
# Density = 2.058019 g / cm^3
# Si number density = 20.627133 Si / 1000 Ang^3
#
#
#
# Elastic Constant Matrix: (Units=GPa)
#
#
# Indices 1 2 3 4 5 6 
#
# 1 81.4894 12.3252 43.1528 11.2503 -8.4326 11.8873
# 2 12.3252 80.6212 17.8405 13.1549 0.2496 21.8266
# 3 43.1528 17.8405 111.6424 7.5731 -10.8039 9.5422
# 4 11.2503 13.1549 7.5731 36.1820 -8.3125 -5.7669
# 5 -8.4326 0.2496 -10.8039 -8.3125 40.8384 -3.7037
# 6 11.8873 21.8266 9.5422 -5.7669 -3.7037 28.8702
#
#
#
# Elastic Compliance Matrix: (Units=1/GPa)
#
#
# Indices 1 2 3 4 5 6 
#
# 1 0.016997 0.001669 -0.005789 -0.005854 0.000096 -0.007504
# 2 0.001669 0.018911 -0.001878 -0.010622 -0.003971 -0.016995
# 3 -0.005789 -0.001878 0.011625 0.000572 0.002038 0.000337
# 4 -0.005854 -0.010622 0.000572 0.038176 0.008498 0.018968
# 5 0.000096 -0.003971 0.002038 0.008498 0.027481 0.007512
# 6 -0.007504 -0.016995 0.000337 0.018968 0.007512 0.055217
#
#
# Mechanical properties :
#
#
# Convention : Reuss Voigt Hill
#
# Bulk Modulus (GPa) = 28.14010 46.70999 37.42505
# Shear Modulus (GPa) = 26.00795 34.54043 30.27419
#
# Velocity S-wave (km/s) = 3.55471 4.09652 3.83520
# Velocity P-wave (km/s) = 5.52448 6.71338 6.14773
#
# Compressibility (1/GPa) = 0.03553647
#
# Stress axis : x y z
#
# Youngs Moduli (GPa) = 58.83234 52.88024 86.02500
#
# Poissons Ratio (x) = -0.08826 0.49799
# Poissons Ratio (y) = -0.09819 0.16158
# Poissons Ratio (z) = 0.34057 0.09932
#
# Static dielectric constant tensor:
#      x y z
#    x 1.781270 0.006910 -0.002640 
#    y 0.006910 1.744430 -0.013790 
#    z -0.002640 -0.013790 1.722380 
# 
# From -- ./inp_files/561461.got.cif
#   From: 2010.05.17/outbox.cif.g08.bks.cpg/sg2_281_cif.got.tgz:561461.got - 2010.06.03 11:33:40.
