data_PCOD9038933
_publ_section_title
;
Structure prediction by ZEFSAII (Michael W. Deem and Ramdas Pophale) SiO2 
 PCOD9038933
Probable space group: P -1
;
_chemical_formula_sum "Si O2"
_cell_formula_units_Z 16
_cell_length_a 6.104272
_cell_length_b 11.702019
_cell_length_c 10.251926
_cell_angle_alpha 74.585353
_cell_angle_beta 67.493803
_cell_angle_gamma 90.163824
_cell_volume 647.692709
_symmetry_space_group_name_H-M "P -1"
_symmetry_group_IT_number 2
_symmetry_cell_setting 'triclinic'
loop_
_space_group_symop_operation_xyz
x,y,z
-x,-y,-z
loop_
_atom_site_type_symbol
_atom_site_label
_atom_site_fract_x
_atom_site_fract_y
_atom_site_fract_z
Si Si1 0.874543 0.350239 0.887428
Si Si2 0.603892 0.515474 0.755514
Si Si3 0.200225 0.692473 0.803552
Si Si4 0.547326 0.164788 0.670808
Si Si5 0.615987 0.893361 0.704515
Si Si6 0.366768 0.382088 0.630417
Si Si7 0.531682 0.861729 0.019854
Si Si8 0.032618 0.269727 0.434971
O O1 0.718824 0.461019 0.872350
O O2 0.706887 0.228449 0.927255
O O3 0.093078 0.378616 0.730809
O O4 0.957850 0.335952 0.022071
O O5 0.384703 0.593008 0.795527
O O6 0.509719 0.399652 0.729767
O O7 0.804311 0.606899 0.609490
O O8 0.365533 0.816834 0.751421
O O9 0.076371 0.700474 0.690921
O O10 0.418229 0.259284 0.588163
O O11 0.396340 0.160011 0.841009
O O12 0.818627 0.228840 0.593697
O O13 0.578050 0.031765 0.657940
O O14 0.815141 0.840658 0.589229
O O15 0.676909 0.860970 0.851667
O O16 0.500000 0.500000 0.500000
O O17 0.500000 0.000000 0.000000
#
# Coordination Sequence:
#
# PCOD9038933 Si02
#       8
#     2   2   2   2   2   2   2   2
#     4  11  23  41  68  94 129 186 213 269 339 379
#     4  11  23  42  64  92 136 171 220 275 322 390
#     4  10  23  42  64  99 128 167 230 274 321 394
#     4  11  22  43  66  95 134 175 216 273 336 386
#     4   9  22  44  67  93 131 169 222 279 325 391
#     4  12  27  41  63 101 138 169 224 267 323 404
#     4   9  20  42  67  95 128 166 221 268 322 393
#     4  11  24  41  68  94 131 177 220 273 330 385
#
# _framework density 24.703073
#
# number of rings (size 3 to 8) (size 9 to 14) (size 15 to 20)
#    0.000    1.500    1.250    3.000    3.500    4.500 
#    4.500    1.875    0.000    0.000    0.000    0.000 
#    0.000    0.000    0.000    0.000    0.000    0.000 
#
# Total GULP energy -89360.671983 kJ/mol
# GULP energy per Si atom -5585.041999 kJ/mol
# Density = 2.464685 g / cm^3
# Si number density = 24.703073 Si / 1000 Ang^3
#
#
#
# Elastic Constant Matrix: (Units=GPa)
#
#
# Indices 1 2 3 4 5 6 
#
# 1 53.0082 40.4807 17.0558 -5.1830 0.8743 -9.6801
# 2 40.4807 163.4402 35.8409 -34.9920 -9.6792 -14.0977
# 3 17.0558 35.8409 83.5532 -5.7916 -5.8269 -14.6348
# 4 -5.1830 -34.9920 -5.7916 42.1125 -4.9745 3.1102
# 5 0.8743 -9.6792 -5.8269 -4.9745 44.0559 6.7575
# 6 -9.6801 -14.0977 -14.6348 3.1102 6.7575 30.8574
#
#
#
# Elastic Compliance Matrix: (Units=1/GPa)
#
#
# Indices 1 2 3 4 5 6 
#
# 1 0.024869 -0.006132 -0.001996 -0.003065 -0.003228 0.005069
# 2 -0.006132 0.009919 -0.002258 0.007498 0.002824 0.000163
# 3 -0.001996 -0.002258 0.014231 -0.000463 0.000606 0.005006
# 4 -0.003065 0.007498 -0.000463 0.030317 0.005375 -0.001988
# 5 -0.003228 0.002824 0.000606 0.005375 0.024903 -0.005431
# 6 0.005069 0.000163 0.005006 -0.001988 -0.005431 0.037836
#
#
# Mechanical properties :
#
#
# Convention : Reuss Voigt Hill
#
# Bulk Modulus (GPa) = 35.40047 54.08404 44.74226
# Shear Modulus (GPa) = 29.02540 37.18012 33.10276
#
# Velocity S-wave (km/s) = 3.43150 3.88375 3.66461
# Velocity P-wave (km/s) = 5.48286 6.48479 6.00476
#
# Compressibility (1/GPa) = 0.02824821
#
# Stress axis : x y z
#
# Youngs Moduli (GPa) = 40.21019 100.81703 70.26745
#
# Poissons Ratio (x) = 0.61821 0.14024
# Poissons Ratio (y) = 0.24657 0.15866
# Poissons Ratio (z) = 0.08025 0.22763
#
# Static dielectric constant tensor:
#      x y z
#    x 1.993330 -0.000300 0.105180 
#    y -0.000300 1.950060 0.036310 
#    z 0.105180 0.036310 2.110460 
# 
# From -- ./inp_files/77240.got.cif
#   From: 2010.05.17/outbox.cif.g08.bks.cpg/sg2_39_cif.got.tgz:77240.got - 2010.06.03 11:33:40.
