data_PCOD9038141
_publ_section_title
;
Structure prediction by ZEFSAII (Michael W. Deem and Ramdas Pophale) SiO2 
 PCOD9038141
Probable space group: P -1
;
_chemical_formula_sum "Si O2"
_cell_formula_units_Z 10
_cell_length_a 8.772906
_cell_length_b 8.114305
_cell_length_c 10.552167
_cell_angle_alpha 137.295111
_cell_angle_beta 52.219690
_cell_angle_gamma 128.512929
_cell_volume 381.241685
_symmetry_space_group_name_H-M "P -1"
_symmetry_group_IT_number 2
_symmetry_cell_setting 'triclinic'
loop_
_space_group_symop_operation_xyz
x,y,z
-x,-y,-z
loop_
_atom_site_type_symbol
_atom_site_label
_atom_site_fract_x
_atom_site_fract_y
_atom_site_fract_z
Si Si1 0.567334 0.787506 0.489441
Si Si2 0.945109 0.558229 0.856998
Si Si3 0.738643 0.156483 0.953545
Si Si4 0.180452 0.294136 0.458010
Si Si5 0.377055 0.226089 0.845639
O O1 0.380862 0.523262 0.445271
O O2 0.753447 0.792574 0.488842
O O3 0.627674 0.798092 0.318159
O O4 0.478805 0.011253 0.706153
O O5 0.805321 0.363249 0.922564
O O6 0.989803 0.395833 0.626778
O O7 0.844167 0.773142 0.999415
O O8 0.163900 0.687558 0.883681
O O9 0.847765 0.944147 0.753197
O O10 0.500000 0.000000 0.000000
O O11 0.500000 0.500000 0.000000
#
# Coordination Sequence:
#
# PCOD9038141 Si02
#       5
#     2   2   2   2   2
#     4  10  23  41  66  98 131 175 225 266 330 403
#     4  11  24  40  66 101 130 171 229 268 323 402
#     4  11  22  40  68  99 134 174 217 275 333 387
#     4  11  22  41  68  98 130 169 223 281 325 386
#     4  11  24  44  65  94 140 180 214 273 334 390
#
# _framework density 26.230080999999998
#
# number of rings (size 3 to 8) (size 9 to 14) (size 15 to 20)
#    0.000    1.200    0.000    7.800    0.000    5.600 
#    0.000    3.000    0.000    0.000    0.000    0.000 
#    0.000    0.000    0.000    0.000    0.000    0.000 
#
# Total GULP energy -56049.987184 kJ/mol
# GULP energy per Si atom -5604.998718 kJ/mol
# Density = 2.617038 g / cm^3
# Si number density = 26.230081 Si / 1000 Ang^3
#
#
#
# Elastic Constant Matrix: (Units=GPa)
#
#
# Indices 1 2 3 4 5 6 
#
# 1 62.8773 22.3180 30.6450 3.4532 -15.0251 8.8039
# 2 22.3180 106.3072 27.2034 3.5427 -2.8352 29.2345
# 3 30.6450 27.2034 205.6171 31.0653 -44.4076 -11.2072
# 4 3.4532 3.5427 31.0653 47.6415 5.6998 -2.7650
# 5 -15.0251 -2.8352 -44.4076 5.6998 48.0576 1.0596
# 6 8.8039 29.2345 -11.2072 -2.7650 1.0596 25.5758
#
#
#
# Elastic Compliance Matrix: (Units=1/GPa)
#
#
# Indices 1 2 3 4 5 6 
#
# 1 0.019379 -0.001920 -0.001827 -0.000931 0.004490 -0.005563
# 2 -0.001920 0.015738 -0.003404 0.000398 -0.002452 -0.018675
# 3 -0.001827 -0.003404 0.008464 -0.005613 0.007553 0.007308
# 4 -0.000931 0.000398 -0.005613 0.025739 -0.008519 0.000542
# 5 0.004490 -0.002452 0.007553 -0.008519 0.030005 0.002403
# 6 -0.005563 -0.018675 0.007308 0.000542 0.002403 0.065522
#
#
# Mechanical properties :
#
#
# Convention : Reuss Voigt Hill
#
# Bulk Modulus (GPa) = 34.15448 59.45937 46.80693
# Shear Modulus (GPa) = 26.46805 43.89734 35.18269
#
# Velocity S-wave (km/s) = 3.18004 4.09534 3.66636
# Velocity P-wave (km/s) = 5.15101 6.71417 5.98385
#
# Compressibility (1/GPa) = 0.02927874
#
# Stress axis : x y z
#
# Youngs Moduli (GPa) = 51.60212 63.54160 118.15185
#
# Poissons Ratio (x) = 0.12202 0.21586
# Poissons Ratio (y) = 0.09909 0.40213
# Poissons Ratio (z) = 0.09428 0.21627
#
# Static dielectric constant tensor:
#      x y z
#    x 2.119600 -0.010720 -0.064080 
#    y -0.010720 2.073830 -0.014320 
#    z -0.064080 -0.014320 1.988170 
# 
# From -- ./inp_files/166828.got.cif
#   From: 2010.05.17/outbox.cif.g08.bks.cpg/sg2_84_cif.got.tgz:166828.got - 2010.06.03 11:33:40.
