data_PCOD9038998
_publ_section_title
;
Structure prediction by ZEFSAII (Michael W. Deem and Ramdas Pophale) SiO2 
 PCOD9038998
Probable space group: P -1
;
_chemical_formula_sum "Si O2"
_cell_formula_units_Z 16
_cell_length_a 25.430612
_cell_length_b 9.463590
_cell_length_c 21.787505
_cell_angle_alpha 30.101384
_cell_angle_beta 17.705322
_cell_angle_gamma 31.140618
_cell_volume 782.262853
_symmetry_space_group_name_H-M "P -1"
_symmetry_group_IT_number 2
_symmetry_cell_setting 'triclinic'
loop_
_space_group_symop_operation_xyz
x,y,z
-x,-y,-z
loop_
_atom_site_type_symbol
_atom_site_label
_atom_site_fract_x
_atom_site_fract_y
_atom_site_fract_z
Si Si1 0.898049 0.333557 0.983058
Si Si2 0.070017 0.814090 0.551780
Si Si3 0.801119 0.647819 0.187462
Si Si4 0.286441 0.177655 0.909998
Si Si5 0.454825 0.725152 0.187778
Si Si6 0.372857 0.838560 0.379356
Si Si7 0.013306 0.164505 0.610967
Si Si8 0.360830 0.843144 0.747977
O O1 0.984655 0.540787 0.764871
O O2 0.845426 0.531473 0.027034
O O3 0.715000 0.314339 0.163327
O O4 0.000000 0.000000 0.000000
O O5 0.276969 0.689298 0.365736
O O6 0.047103 0.022160 0.558984
O O7 0.000000 0.000000 0.500000
O O8 0.681748 0.757545 0.219856
O O9 0.695422 0.441379 0.417646
O O10 0.792374 0.917218 0.141064
O O11 0.000000 0.500000 0.000000
O O12 0.464243 0.108304 0.779663
O O13 0.166730 0.936112 0.132718
O O14 0.428215 0.812399 0.256299
O O15 0.573014 0.404075 0.182208
O O16 0.500000 0.000000 0.000000
O O17 0.182375 0.057173 0.507265
O O18 0.000000 0.500000 0.500000
O O19 0.500000 0.000000 0.500000
#
# Coordination Sequence:
#
# PCOD9038998 Si02
#       8
#     2   2   2   2   2   2   2   2
#     4  11  22  39  67 100 134 175 230 281 345 416
#     4  10  23  42  65  94 136 176 223 289 344 404
#     4  12  24  43  70 102 144 183 227 288 358 412
#     4  11  23  43  70  97 138 183 225 285 353 411
#     4  11  23  42  69  98 136 177 230 289 345 402
#     4  11  23  45  69  97 140 180 226 293 344 408
#     4  10  24  44  66  93 138 182 228 281 350 416
#     4  12  23  42  71 101 138 180 233 288 345 412
#
# _framework density 20.453482000000001
#
# number of rings (size 3 to 8) (size 9 to 14) (size 15 to 20)
#    0.000    1.000    3.750    2.625    3.500    3.500 
#    4.500    0.000    0.000    0.000    0.000    0.000 
#    0.000    0.000    0.000    0.000    0.000    0.000 
#
# Total GULP energy -89171.337104 kJ/mol
# GULP energy per Si atom -5573.208569 kJ/mol
# Density = 2.040693 g / cm^3
# Si number density = 20.453482 Si / 1000 Ang^3
#
#
#
# Elastic Constant Matrix: (Units=GPa)
#
#
# Indices 1 2 3 4 5 6 
#
# 1 94.1911 27.1069 35.5168 -12.2245 1.6396 -28.5244
# 2 27.1069 113.1405 61.6393 -35.5017 -5.0027 -21.7492
# 3 35.5168 61.6393 127.8100 -25.7157 -3.8284 -12.5619
# 4 -12.2245 -35.5017 -25.7157 33.9999 -6.2851 -2.4343
# 5 1.6396 -5.0027 -3.8284 -6.2851 39.6007 2.7457
# 6 -28.5244 -21.7492 -12.5619 -2.4343 2.7457 34.4942
#
#
#
# Elastic Compliance Matrix: (Units=1/GPa)
#
#
# Indices 1 2 3 4 5 6 
#
# 1 0.016427 0.002983 -0.002984 0.007763 -0.000397 0.014958
# 2 0.002983 0.020064 -0.004922 0.020095 0.004125 0.014415
# 3 -0.002984 -0.004922 0.011445 0.002555 0.001105 -0.001310
# 4 0.007763 0.020095 0.002555 0.058668 0.010156 0.023352
# 5 -0.000397 0.004125 0.001105 0.010156 0.027425 0.001209
# 6 0.014958 0.014415 -0.001310 0.023352 0.001209 0.051524
#
#
# Mechanical properties :
#
#
# Convention : Reuss Voigt Hill
#
# Bulk Modulus (GPa) = 26.25169 64.85195 45.55182
# Shear Modulus (GPa) = 24.02751 35.67754 29.85253
#
# Velocity S-wave (km/s) = 3.43117 4.18104 3.82453
# Velocity P-wave (km/s) = 5.34415 7.42186 6.46699
#
# Compressibility (1/GPa) = 0.03809278
#
# Stress axis : x y z
#
# Youngs Moduli (GPa) = 60.87372 49.83970 87.37209
#
# Poissons Ratio (x) = -0.14869 0.26069
# Poissons Ratio (y) = -0.18161 0.43004
# Poissons Ratio (z) = 0.18162 0.24531
#
# Static dielectric constant tensor:
#      x y z
#    x 1.741940 -0.029220 0.081190 
#    y -0.029220 1.767630 -0.028780 
#    z 0.081190 -0.028780 1.979180 
# 
# From -- ./inp_files/350015.got.cif
#   From: 2010.05.17/outbox.cif.g08.bks.cpg/sg2_176_cif.got.tgz:350015.got - 2010.06.03 11:33:40.
