data_PCOD9038595
_publ_section_title
;
Structure prediction by ZEFSAII (Michael W. Deem and Ramdas Pophale) SiO2 
 PCOD9038595
Probable space group: P -1
;
_chemical_formula_sum "Si O2"
_cell_formula_units_Z 14
_cell_length_a 18.576414
_cell_length_b 21.828990
_cell_length_c 14.366858
_cell_angle_alpha 31.870895
_cell_angle_beta 23.801483
_cell_angle_gamma 17.990927
_cell_volume 715.829261
_symmetry_space_group_name_H-M "P -1"
_symmetry_group_IT_number 2
_symmetry_cell_setting 'triclinic'
loop_
_space_group_symop_operation_xyz
x,y,z
-x,-y,-z
loop_
_atom_site_type_symbol
_atom_site_label
_atom_site_fract_x
_atom_site_fract_y
_atom_site_fract_z
Si Si1 0.889040 0.029373 0.695346
Si Si2 0.710491 0.228487 0.824462
Si Si3 0.241982 0.006492 0.624495
Si Si4 0.276890 0.662198 0.845700
Si Si5 0.131803 0.179167 0.706764
Si Si6 0.746370 0.561821 0.545244
Si Si7 0.649492 0.778667 0.818119
O O1 0.835877 0.167359 0.649007
O O2 0.554862 0.142454 0.951392
O O3 0.000000 0.000000 0.500000
O O4 0.133225 0.819596 0.732908
O O5 0.463172 0.457134 0.846111
O O6 0.936093 0.387712 0.622212
O O7 0.992871 0.090674 0.738196
O O8 0.089778 0.094632 0.793241
O O9 0.551820 0.767137 0.557567
O O10 0.313086 0.103678 0.389656
O O11 0.507912 0.607495 0.712227
O O12 0.003812 0.764142 0.104167
O O13 0.453541 0.810578 0.931087
O O14 0.500000 0.000000 0.500000
O O15 0.008597 0.456248 0.295556
#
# Coordination Sequence:
#
# PCOD9038595 Si02
#       7
#     2   2   2   2   2   2   2
#     4  10  24  45  68  97 129 167 221 276 332 386
#     4  10  23  41  71  92 134 172 215 270 327 385
#     4  11  22  44  65  95 139 174 216 261 321 390
#     4  12  22  43  68  96 133 176 217 269 327 383
#     4  11  26  39  62 104 135 176 223 258 317 397
#     4  11  22  40  68  95 133 176 216 262 322 390
#     4   9  22  40  66  97 128 166 221 265 323 383
#
# _framework density 19.557736999999999
#
# number of rings (size 3 to 8) (size 9 to 14) (size 15 to 20)
#    0.857    0.571    4.286    2.143    4.000    2.857 
#    0.000    1.429    0.000    0.000    0.000    0.000 
#    0.000    0.000    0.000    0.000    0.000    0.000 
#
# Total GULP energy -78085.702445 kJ/mol
# GULP energy per Si atom -5577.550175 kJ/mol
# Density = 1.951322 g / cm^3
# Si number density = 19.557737 Si / 1000 Ang^3
#
#
#
# Elastic Constant Matrix: (Units=GPa)
#
#
# Indices 1 2 3 4 5 6 
#
# 1 93.1087 41.0955 53.1565 5.0116 6.8431 7.9269
# 2 41.0955 169.8055 62.6158 30.3861 21.0651 19.1693
# 3 53.1565 62.6158 118.5719 11.3240 26.1604 -3.6597
# 4 5.0116 30.3861 11.3240 26.9246 2.4516 -0.5730
# 5 6.8431 21.0651 26.1604 2.4516 45.4218 3.8758
# 6 7.9269 19.1693 -3.6597 -0.5730 3.8758 39.0194
#
#
#
# Elastic Compliance Matrix: (Units=1/GPa)
#
#
# Indices 1 2 3 4 5 6 
#
# 1 0.015321 -0.001295 -0.006963 0.001237 0.002523 -0.003362
# 2 -0.001295 0.009967 -0.003623 -0.009462 -0.001406 -0.004973
# 3 -0.006963 -0.003623 0.015062 -0.000258 -0.006379 0.005237
# 4 0.001237 -0.009462 -0.000258 0.047679 0.001356 0.004938
# 5 0.002523 -0.001406 -0.006379 0.001356 0.026144 -0.002997
# 6 -0.003362 -0.004973 0.005237 0.004938 -0.002997 0.029616
#
#
# Mechanical properties :
#
#
# Convention : Reuss Voigt Hill
#
# Bulk Modulus (GPa) = 60.28204 77.24687 68.76446
# Shear Modulus (GPa) = 28.88820 37.24771 33.06795
#
# Velocity S-wave (km/s) = 3.84744 4.36879 4.11638
# Velocity P-wave (km/s) = 7.11524 8.06418 7.60453
#
# Compressibility (1/GPa) = 0.01658869
#
# Stress axis : x y z
#
# Youngs Moduli (GPa) = 65.26840 100.32786 66.39222
#
# Poissons Ratio (x) = 0.12994 0.46231
# Poissons Ratio (y) = 0.08453 0.24051
# Poissons Ratio (z) = 0.45448 0.36345
#
# Static dielectric constant tensor:
#      x y z
#    x 1.716990 0.002620 -0.017630 
#    y 0.002620 1.706450 0.008430 
#    z -0.017630 0.008430 1.721570 
# 
# From -- ./inp_files/467082.got.cif
#   From: 2010.05.17/outbox.cif.g08.bks.cpg/sg2_234_cif.got.tgz:467082.got - 2010.06.03 11:33:40.
