data_PCOD9038302
_publ_section_title
;
Structure prediction by ZEFSAII (Michael W. Deem and Ramdas Pophale) SiO2 
 PCOD9038302
Probable space group: P -1
;
_chemical_formula_sum "Si O2"
_cell_formula_units_Z 14
_cell_length_a 7.348662
_cell_length_b 10.186838
_cell_length_c 12.113203
_cell_angle_alpha 128.784452
_cell_angle_beta 115.732028
_cell_angle_gamma 73.153681
_cell_volume 636.549050
_symmetry_space_group_name_H-M "P -1"
_symmetry_group_IT_number 2
_symmetry_cell_setting 'triclinic'
loop_
_space_group_symop_operation_xyz
x,y,z
-x,-y,-z
loop_
_atom_site_type_symbol
_atom_site_label
_atom_site_fract_x
_atom_site_fract_y
_atom_site_fract_z
Si Si1 0.286770 0.739134 0.550058
Si Si2 0.515981 0.300791 0.880042
Si Si3 0.859635 0.666401 0.334882
Si Si4 0.948578 0.381918 0.028416
Si Si5 0.723708 0.619785 0.523882
Si Si6 0.862614 0.839154 0.864278
Si Si7 0.454144 0.018856 0.870647
O O1 0.493584 0.700693 0.514220
O O2 0.285953 0.573340 0.540386
O O3 0.649557 0.923148 0.823726
O O4 0.283288 0.905695 0.713753
O O5 0.342159 0.243646 0.720738
O O6 0.462271 0.207268 0.929409
O O7 0.500000 0.500000 0.000000
O O8 0.749757 0.273740 0.892964
O O9 0.889045 0.502958 0.179003
O O10 0.806645 0.630491 0.428386
O O11 0.079359 0.747676 0.431041
O O12 0.119309 0.261835 0.067617
O O13 0.000000 0.500000 0.000000
O O14 0.877337 0.710087 0.697576
O O15 0.000000 0.000000 0.000000
O O16 0.500000 0.000000 0.000000
#
# Coordination Sequence:
#
# PCOD9038302 Si02
#       7
#     2   2   2   2   2   2   2
#     4  10  23  41  68 101 140 176 236 281 346 411
#     4  10  25  44  63 101 137 179 228 278 354 412
#     4  11  24  42  73  95 141 184 228 279 350 417
#     4  11  25  43  71 103 138 184 230 284 351 415
#     4  10  23  42  68 105 134 184 227 289 347 414
#     4  11  23  43  71 101 134 177 235 287 343 406
#     4  11  26  42  68 103 137 180 233 291 340 413
#
# _framework density 21.993589
#
# number of rings (size 3 to 8) (size 9 to 14) (size 15 to 20)
#    0.000    1.429    2.857    0.429   12.000    0.571 
#    0.000    4.286    0.000    0.000    0.000    0.000 
#    0.000    0.000    0.000    0.000    0.000    0.000 
#
# Total GULP energy -77989.007120 kJ/mol
# GULP energy per Si atom -5570.643366 kJ/mol
# Density = 2.194353 g / cm^3
# Si number density = 21.993589 Si / 1000 Ang^3
#
#
#
# Elastic Constant Matrix: (Units=GPa)
#
#
# Indices 1 2 3 4 5 6 
#
# 1 78.5784 18.7687 51.1932 -13.4873 11.2177 13.6167
# 2 18.7687 123.0203 51.7270 -10.4365 -5.6652 26.9623
# 3 51.1932 51.7270 104.0946 -10.9218 19.5597 12.1203
# 4 -13.4873 -10.4365 -10.9218 35.1824 -3.1078 2.0260
# 5 11.2177 -5.6652 19.5597 -3.1078 44.4953 -14.6185
# 6 13.6167 26.9623 12.1203 2.0260 -14.6185 25.4586
#
#
#
# Elastic Compliance Matrix: (Units=1/GPa)
#
#
# Indices 1 2 3 4 5 6 
#
# 1 0.022967 0.004578 -0.009787 0.007559 -0.005759 -0.016381
# 2 0.004578 0.013861 -0.006751 0.004539 -0.000979 -0.014837
# 3 -0.009787 -0.006751 0.019159 -0.000389 -0.007098 -0.000781
# 4 0.007559 0.004539 -0.000389 0.033022 -0.003155 -0.013104
# 5 -0.005759 -0.000979 -0.007098 -0.003155 0.036047 0.028445
# 6 -0.016381 -0.014837 -0.000781 -0.013104 0.028445 0.081502
#
#
# Mechanical properties :
#
#
# Convention : Reuss Voigt Hill
#
# Bulk Modulus (GPa) = 31.18701 61.00791 46.09746
# Shear Modulus (GPa) = 20.73237 33.29422 27.01330
#
# Velocity S-wave (km/s) = 3.07360 3.89500 3.50842
# Velocity P-wave (km/s) = 5.17753 6.93017 6.11695
#
# Compressibility (1/GPa) = 0.03206463
#
# Stress axis : x y z
#
# Youngs Moduli (GPa) = 43.54011 72.14525 52.19569
#
# Poissons Ratio (x) = -0.33025 0.51086
# Poissons Ratio (y) = -0.19931 0.35239
# Poissons Ratio (z) = 0.42615 0.48708
#
# Static dielectric constant tensor:
#      x y z
#    x 1.957250 -0.107160 0.020960 
#    y -0.107160 1.890150 0.097000 
#    z 0.020960 0.097000 2.035200 
# 
# From -- ./inp_files/391465.got.cif
#   From: 2010.05.17/outbox.cif.g08.bks.cpg/sg2_196_cif.got.tgz:391465.got - 2010.06.03 11:33:40.
