data_PCOD9038596
_publ_section_title
;
Structure prediction by ZEFSAII (Michael W. Deem and Ramdas Pophale) SiO2 
 PCOD9038596
Probable space group: P -1
;
_chemical_formula_sum "Si O2"
_cell_formula_units_Z 14
_cell_length_a 5.203540
_cell_length_b 13.878522
_cell_length_c 13.510587
_cell_angle_alpha 127.965956
_cell_angle_beta 96.528731
_cell_angle_gamma 107.270367
_cell_volume 675.236863
_symmetry_space_group_name_H-M "P -1"
_symmetry_group_IT_number 2
_symmetry_cell_setting 'triclinic'
loop_
_space_group_symop_operation_xyz
x,y,z
-x,-y,-z
loop_
_atom_site_type_symbol
_atom_site_label
_atom_site_fract_x
_atom_site_fract_y
_atom_site_fract_z
Si Si1 0.784071 0.515076 0.078479
Si Si2 0.929845 0.189549 0.614398
Si Si3 0.296033 0.084336 0.437303
Si Si4 0.668244 0.429174 0.408489
Si Si5 0.540083 0.320219 0.128917
Si Si6 0.241599 0.115764 0.227061
Si Si7 0.881565 0.145479 0.060575
O O1 0.662176 0.393747 0.077522
O O2 0.944065 0.662417 0.234358
O O3 0.500000 0.500000 0.000000
O O4 0.000000 0.500000 0.000000
O O5 0.645253 0.157171 0.515094
O O6 0.166501 0.170302 0.546469
O O7 0.828263 0.067715 0.615373
O O8 0.198695 0.074444 0.313299
O O9 0.500000 0.500000 0.500000
O O10 0.637730 0.433764 0.292047
O O11 0.511644 0.267921 0.327880
O O12 0.000000 0.500000 0.500000
O O13 0.189961 0.231594 0.069313
O O14 0.693340 0.225294 0.098470
O O15 0.981463 0.127811 0.163986
O O16 0.280438 0.001341 0.093321
#
# Coordination Sequence:
#
# PCOD9038596 Si02
#       7
#     2   2   2   2   2   2   2
#     4  12  27  44  72  97 133 181 223 270 343 391
#     4  10  24  45  61 102 129 168 230 269 327 395
#     4  10  23  41  71  92 134 172 217 281 321 386
#     4  11  25  41  65  98 133 169 215 259 335 403
#     4  11  25  44  68  97 139 171 217 288 320 391
#     4  10  24  42  73  96 133 180 218 269 337 387
#     4  10  24  45  66 104 131 170 232 270 325 400
#
# _framework density 20.733467999999998
#
# number of rings (size 3 to 8) (size 9 to 14) (size 15 to 20)
#    0.000    1.429    0.000    3.429    8.000    9.714 
#    0.000    0.000    0.000    0.000    0.000    0.000 
#    0.000    0.000    0.000    0.000    0.000    0.000 
#
# Total GULP energy -78340.106866 kJ/mol
# GULP energy per Si atom -5595.721919 kJ/mol
# Density = 2.068628 g / cm^3
# Si number density = 20.733468 Si / 1000 Ang^3
#
#
#
# Elastic Constant Matrix: (Units=GPa)
#
#
# Indices 1 2 3 4 5 6 
#
# 1 152.2102 47.5599 55.5232 11.0378 -14.7733 -4.8671
# 2 47.5599 102.5656 72.2539 -19.9987 -9.0621 -5.4388
# 3 55.5232 72.2539 132.0074 5.7462 -0.6677 -5.7342
# 4 11.0378 -19.9987 5.7462 45.8673 5.5033 -4.8705
# 5 -14.7733 -9.0621 -0.6677 5.5033 26.6797 9.0566
# 6 -4.8671 -5.4388 -5.7342 -4.8705 9.0566 22.8610
#
#
#
# Elastic Compliance Matrix: (Units=1/GPa)
#
#
# Indices 1 2 3 4 5 6 
#
# 1 0.009086 -0.003402 -0.001849 -0.004369 0.005571 -0.002477
# 2 -0.003402 0.021430 -0.010644 0.011700 0.001492 0.003606
# 3 -0.001849 -0.010644 0.014439 -0.005497 -0.003446 0.000890
# 4 -0.004369 0.011700 -0.005497 0.030759 -0.008450 0.010375
# 5 0.005571 0.001492 -0.003446 -0.008450 0.049810 -0.020856
# 6 -0.002477 0.003606 0.000890 0.010375 -0.020856 0.054769
#
#
# Mechanical properties :
#
#
# Convention : Reuss Voigt Hill
#
# Bulk Modulus (GPa) = 75.95289 81.93969 78.94629
# Shear Modulus (GPa) = 23.09796 33.17801 28.13798
#
# Velocity S-wave (km/s) = 3.34135 4.00461 3.68792
# Velocity P-wave (km/s) = 7.18322 7.80953 7.50292
#
# Compressibility (1/GPa) = 0.01316606
#
# Stress axis : x y z
#
# Youngs Moduli (GPa) = 110.06510 46.66445 69.25552
#
# Poissons Ratio (x) = 0.15874 0.12804
# Poissons Ratio (y) = 0.37440 0.73714
# Poissons Ratio (z) = 0.20348 0.49669
#
# Static dielectric constant tensor:
#      x y z
#    x 1.722240 0.013620 0.003770 
#    y 0.013620 1.762550 -0.009710 
#    z 0.003770 -0.009710 1.715830 
# 
# From -- ./inp_files/363457.got.cif
#   From: 2010.05.17/outbox.cif.g08.bks.cpg/sg2_182_cif.got.tgz:363457.got - 2010.06.03 11:33:40.
