data_PCOD9038648
_publ_section_title
;
Structure prediction by ZEFSAII (Michael W. Deem and Ramdas Pophale) SiO2 
 PCOD9038648
Probable space group: P -1
;
_chemical_formula_sum "Si O2"
_cell_formula_units_Z 14
_cell_length_a 8.312108
_cell_length_b 9.308962
_cell_length_c 18.734051
_cell_angle_alpha 127.389909
_cell_angle_beta 30.468669
_cell_angle_gamma 116.609320
_cell_volume 573.663202
_symmetry_space_group_name_H-M "P -1"
_symmetry_group_IT_number 2
_symmetry_cell_setting 'triclinic'
loop_
_space_group_symop_operation_xyz
x,y,z
-x,-y,-z
loop_
_atom_site_type_symbol
_atom_site_label
_atom_site_fract_x
_atom_site_fract_y
_atom_site_fract_z
Si Si1 0.448902 0.435579 0.579889
Si Si2 0.729403 0.683619 0.651230
Si Si3 0.844704 0.280646 0.825688
Si Si4 0.198843 0.868653 0.442076
Si Si5 0.600158 0.638149 0.109582
Si Si6 0.894749 0.103258 0.995676
Si Si7 0.189488 0.958511 0.694597
O O1 0.500000 0.500000 0.500000
O O2 0.488915 0.605381 0.665252
O O3 0.115281 0.371513 0.708178
O O4 0.717445 0.250015 0.430831
O O5 0.480790 0.800474 0.836623
O O6 0.000000 0.500000 0.500000
O O7 0.930099 0.822081 0.581942
O O8 0.582900 0.263545 0.860481
O O9 0.995944 0.097750 0.754013
O O10 0.693618 0.427736 0.987833
O O11 0.373275 0.683964 0.278902
O O12 0.475192 0.966496 0.398193
O O13 0.000000 0.000000 0.500000
O O14 0.904300 0.731732 0.036869
O O15 0.009943 0.973975 0.844516
O O16 0.000000 0.000000 0.000000
#
# Coordination Sequence:
#
# PCOD9038648 Si02
#       7
#     2   2   2   2   2   2   2
#     4  12  24  45  70 104 138 179 223 292 352 403
#     4  12  26  43  70 101 141 174 227 286 348 404
#     4  11  23  43  69 102 132 183 233 285 339 410
#     4  11  23  44  69  99 132 189 226 273 342 425
#     4  10  23  41  72  92 138 180 232 276 347 415
#     4  11  24  46  68 102 138 188 224 287 348 417
#     4  11  26  43  76  99 139 178 242 283 333 418
#
# _framework density 24.404561999999999
#
# number of rings (size 3 to 8) (size 9 to 14) (size 15 to 20)
#    0.000    0.857    1.429    6.429    2.000    3.429 
#    0.000    1.429    0.000    0.000    0.000    0.000 
#    0.000    0.000    0.000    0.000    0.000    0.000 
#
# Total GULP energy -78440.740798 kJ/mol
# GULP energy per Si atom -5602.910057 kJ/mol
# Density = 2.434902 g / cm^3
# Si number density = 24.404562 Si / 1000 Ang^3
#
#
#
# Elastic Constant Matrix: (Units=GPa)
#
#
# Indices 1 2 3 4 5 6 
#
# 1 56.0253 30.1489 20.1883 5.0124 -5.7680 -0.7204
# 2 30.1489 85.9733 37.6728 8.4951 -4.4743 -12.9357
# 3 20.1883 37.6728 163.1655 -2.3830 -1.5127 18.5957
# 4 5.0124 8.4951 -2.3830 45.2907 1.4666 2.4866
# 5 -5.7680 -4.4743 -1.5127 1.4666 40.9853 18.1420
# 6 -0.7204 -12.9357 18.5957 2.4866 18.1420 33.5042
#
#
#
# Elastic Compliance Matrix: (Units=1/GPa)
#
#
# Indices 1 2 3 4 5 6 
#
# 1 0.022919 -0.008312 -0.000328 -0.000871 0.004512 -0.004913
# 2 -0.008312 0.018600 -0.004778 -0.003351 -0.004708 0.012452
# 3 -0.000328 -0.004778 0.008289 0.001721 0.003406 -0.008424
# 4 -0.000871 -0.003351 0.001721 0.023112 0.000672 -0.004347
# 5 0.004512 -0.004708 0.003406 0.000672 0.034515 -0.022350
# 6 -0.004913 0.012452 -0.008424 -0.004347 -0.022350 0.051649
#
#
# Mechanical properties :
#
#
# Convention : Reuss Voigt Hill
#
# Bulk Modulus (GPa) = 43.52854 53.46489 48.49671
# Shear Modulus (GPa) = 25.82949 38.43297 32.13123
#
# Velocity S-wave (km/s) = 3.25682 3.97271 3.63245
# Velocity P-wave (km/s) = 5.65839 6.55733 6.12438
#
# Compressibility (1/GPa) = 0.02297343
#
# Stress axis : x y z
#
# Youngs Moduli (GPa) = 43.63115 53.76447 120.63917
#
# Poissons Ratio (x) = 0.44690 0.03952
# Poissons Ratio (y) = 0.36267 0.57638
# Poissons Ratio (z) = 0.01429 0.25687
#
# Static dielectric constant tensor:
#      x y z
#    x 1.951270 -0.012230 -0.048520 
#    y -0.012230 1.854110 0.070360 
#    z -0.048520 0.070360 1.979190 
# 
# From -- ./inp_files/159913.got.cif
#   From: 2010.05.17/outbox.cif.g08.bks.cpg/sg2_80_cif.got.tgz:159913.got - 2010.06.03 11:33:40.
