data_PCOD9038593
_publ_section_title
;
Structure prediction by ZEFSAII (Michael W. Deem and Ramdas Pophale) SiO2 
 PCOD9038593
Probable space group: P -1
;
_chemical_formula_sum "Si O2"
_cell_formula_units_Z 16
_cell_length_a 15.145791
_cell_length_b 15.695662
_cell_length_c 12.363552
_cell_angle_alpha 137.355969
_cell_angle_beta 29.033192
_cell_angle_gamma 146.631208
_cell_volume 784.394912
_symmetry_space_group_name_H-M "P -1"
_symmetry_group_IT_number 2
_symmetry_cell_setting 'triclinic'
loop_
_space_group_symop_operation_xyz
x,y,z
-x,-y,-z
loop_
_atom_site_type_symbol
_atom_site_label
_atom_site_fract_x
_atom_site_fract_y
_atom_site_fract_z
Si Si1 0.626404 0.595953 0.559839
Si Si2 0.490116 0.743907 0.086489
Si Si3 0.568491 0.866144 0.904079
Si Si4 0.910669 0.085371 0.325980
Si Si5 0.440918 0.521793 0.253915
Si Si6 0.134558 0.863309 0.326362
Si Si7 0.674910 0.831130 0.178863
Si Si8 0.982885 0.404734 0.532511
O O1 0.500000 0.500000 0.500000
O O2 0.556764 0.713029 0.754908
O O3 0.534758 0.471325 0.637948
O O4 0.898126 0.711082 0.394841
O O5 0.483785 0.789713 0.258868
O O6 0.238547 0.636283 0.209189
O O7 0.615924 0.886135 0.001276
O O8 0.570602 0.631678 0.904093
O O9 0.763079 0.001073 0.746079
O O10 0.336528 0.844494 0.107628
O O11 0.902510 0.089493 0.469775
O O12 0.936224 0.239403 0.405255
O O13 0.704360 0.936223 0.345964
O O14 0.115761 0.091654 0.057010
O O15 0.628585 0.674577 0.132119
O O16 0.209148 0.493257 0.441280
O O17 0.000000 0.500000 0.500000
#
# Coordination Sequence:
#
# PCOD9038593 Si02
#       8
#     2   2   2   2   2   2   2   2
#     4  11  24  41  68  97 128 167 220 271 324 383
#     4  11  20  39  65  93 128 166 216 256 321 385
#     4  10  23  41  71  92 124 177 216 264 324 387
#     4  11  23  41  63  93 131 169 208 267 316 382
#     4  11  22  42  62  92 130 167 210 267 315 387
#     4  11  22  46  67  91 131 171 220 267 323 383
#     4  11  23  38  64  94 132 165 208 266 321 376
#     4  12  21  38  68  89 122 173 210 246 326 387
#
# _framework density 20.397888999999999
#
# number of rings (size 3 to 8) (size 9 to 14) (size 15 to 20)
#    0.000    1.000    5.000    2.250    1.750    1.000 
#    2.250    0.000    0.000    0.000    0.000    0.000 
#    0.000    0.000    0.000    0.000    0.000    0.000 
#
# Total GULP energy -89145.787273 kJ/mol
# GULP energy per Si atom -5571.611705 kJ/mol
# Density = 2.035146 g / cm^3
# Si number density = 20.397889 Si / 1000 Ang^3
#
#
#
# Elastic Constant Matrix: (Units=GPa)
#
#
# Indices 1 2 3 4 5 6 
#
# 1 161.1014 63.6443 44.3107 -10.9827 25.0963 -7.2052
# 2 63.6443 67.6318 20.0529 -14.3703 23.7449 -17.8800
# 3 44.3107 20.0529 73.9623 -22.6619 -3.1335 -1.1569
# 4 -10.9827 -14.3703 -22.6619 23.6557 -10.3865 4.6442
# 5 25.0963 23.7449 -3.1335 -10.3865 36.2977 -3.0103
# 6 -7.2052 -17.8800 -1.1569 4.6442 -3.0103 45.4821
#
#
#
# Elastic Compliance Matrix: (Units=1/GPa)
#
#
# Indices 1 2 3 4 5 6 
#
# 1 0.012556 -0.009787 -0.008393 -0.010581 -0.006147 -0.001398
# 2 -0.009787 0.032545 -0.001155 0.007029 -0.011806 0.009715
# 3 -0.008393 -0.001155 0.029415 0.032108 0.018027 -0.003121
# 4 -0.010581 0.007029 0.032108 0.086454 0.029817 -0.004951
# 5 -0.006147 -0.011806 0.018027 0.029817 0.049202 -0.004945
# 6 -0.001398 0.009715 -0.003121 -0.004951 -0.004945 0.025683
#
#
# Mechanical properties :
#
#
# Convention : Reuss Voigt Hill
#
# Bulk Modulus (GPa) = 27.89712 62.07905 44.98809
# Shear Modulus (GPa) = 17.45367 32.73293 25.09330
#
# Velocity S-wave (km/s) = 2.92834 4.01024 3.51121
# Velocity P-wave (km/s) = 5.01395 7.20714 6.20816
#
# Compressibility (1/GPa) = 0.03584600
#
# Stress axis : x y z
#
# Youngs Moduli (GPa) = 79.64477 30.72661 33.99661
#
# Poissons Ratio (x) = 0.30071 0.28533
# Poissons Ratio (y) = 0.77945 0.03927
# Poissons Ratio (z) = 0.66846 0.03550
#
# Static dielectric constant tensor:
#      x y z
#    x 1.826130 0.034990 0.000020 
#    y 0.034990 1.766210 -0.070120 
#    z 0.000020 -0.070120 1.840860 
# 
# From -- ./inp_files/454920.got.cif
#   From: 2010.05.17/outbox.cif.g08.bks.cpg/sg2_228_cif.got.tgz:454920.got - 2010.06.03 11:33:40.
