data_PCOD9038002
_publ_section_title
;
Structure prediction by ZEFSAII (Michael W. Deem and Ramdas Pophale) SiO2 
 PCOD9038002
Probable space group: P -1
;
_chemical_formula_sum "Si O2"
_cell_formula_units_Z 12
_cell_length_a 18.855243
_cell_length_b 21.469410
_cell_length_c 11.653091
_cell_angle_alpha 159.161516
_cell_angle_beta 30.770093
_cell_angle_gamma 160.280061
_cell_volume 557.872340
_symmetry_space_group_name_H-M "P -1"
_symmetry_group_IT_number 2
_symmetry_cell_setting 'triclinic'
loop_
_space_group_symop_operation_xyz
x,y,z
-x,-y,-z
loop_
_atom_site_type_symbol
_atom_site_label
_atom_site_fract_x
_atom_site_fract_y
_atom_site_fract_z
Si Si1 0.344639 0.510865 0.273144
Si Si2 0.064580 0.356623 0.176268
Si Si3 0.514620 0.183774 0.718818
Si Si4 0.667948 0.074435 0.717078
Si Si5 0.131204 0.357702 0.541863
Si Si6 0.714698 0.775547 0.733848
O O1 0.174871 0.405326 0.228513
O O2 0.217131 0.355991 0.301182
O O3 0.512400 0.831694 0.605602
O O4 0.500000 0.500000 0.000000
O O5 0.249479 0.508247 0.086341
O O6 0.000000 0.500000 0.500000
O O7 0.860959 0.035512 0.896460
O O8 0.500000 0.000000 0.500000
O O9 0.457282 0.063653 0.465589
O O10 0.353651 0.167263 0.966637
O O11 0.885211 0.175813 0.569331
O O12 0.734481 0.334869 0.099918
O O13 0.163617 0.268064 0.452877
O O14 0.500000 0.500000 0.500000
#
# Coordination Sequence:
#
# PCOD9038002 Si02
#       6
#     2   2   2   2   2   2
#     4  11  23  42  69  96 131 173 227 273 329 397
#     4  11  24  42  68  99 129 175 223 267 332 398
#     4  11  22  42  67  93 128 177 219 266 332 395
#     4  10  23  41  65  96 131 171 221 273 326 394
#     4  11  23  41  65  98 132 173 220 274 333 390
#     4  12  26  43  65  98 137 171 221 279 331 395
#
# _framework density 21.510297000000001
#
# number of rings (size 3 to 8) (size 9 to 14) (size 15 to 20)
#    0.000    1.000    1.667    5.500    2.333    2.667 
#    0.000    0.000    0.000    0.000    0.000    0.000 
#    0.000    0.000    0.000    0.000    0.000    0.000 
#
# Total GULP energy -67077.352367 kJ/mol
# GULP energy per Si atom -5589.779364 kJ/mol
# Density = 2.146134 g / cm^3
# Si number density = 21.510297 Si / 1000 Ang^3
#
#
#
# Elastic Constant Matrix: (Units=GPa)
#
#
# Indices 1 2 3 4 5 6 
#
# 1 88.6804 22.0114 31.6040 5.7266 -21.4227 2.3803
# 2 22.0114 113.1302 41.5976 28.5738 -10.2147 -10.9335
# 3 31.6040 41.5976 77.8797 17.5578 -21.5906 9.3423
# 4 5.7266 28.5738 17.5578 52.5904 -3.7327 -6.5018
# 5 -21.4227 -10.2147 -21.5906 -3.7327 34.4685 -1.7618
# 6 2.3803 -10.9335 9.3423 -6.5018 -1.7618 30.4610
#
#
#
# Elastic Compliance Matrix: (Units=1/GPa)
#
#
# Indices 1 2 3 4 5 6 
#
# 1 0.014334 -0.001020 -0.003677 0.000694 0.006386 0.000159
# 2 -0.001020 0.012954 -0.006574 -0.004089 -0.001059 0.005811
# 3 -0.003677 -0.006574 0.022301 -0.003991 0.008831 -0.009253
# 4 0.000694 -0.004089 -0.003991 0.023021 -0.000553 0.004584
# 5 0.006386 -0.001059 0.008831 -0.000553 0.038062 -0.001504
# 6 0.000159 0.005811 -0.009253 0.004584 -0.001504 0.038632
#
#
# Mechanical properties :
#
#
# Convention : Reuss Voigt Hill
#
# Bulk Modulus (GPa) = 36.97190 52.23517 44.60354
# Shear Modulus (GPa) = 27.64552 35.80245 31.72399
#
# Velocity S-wave (km/s) = 3.58889 4.08417 3.84452
# Velocity P-wave (km/s) = 5.86505 6.82474 6.36302
#
# Compressibility (1/GPa) = 0.02704757
#
# Stress axis : x y z
#
# Youngs Moduli (GPa) = 69.76553 77.19704 44.84013
#
# Poissons Ratio (x) = 0.07876 0.16487
# Poissons Ratio (y) = 0.07118 0.29477
# Poissons Ratio (z) = 0.25651 0.50747
#
# Static dielectric constant tensor:
#      x y z
#    x 2.039970 -0.020680 -0.076180 
#    y -0.020680 1.819300 0.032360 
#    z -0.076180 0.032360 1.815030 
# 
# From -- ./inp_files/173644.got.cif
#   From: 2010.05.17/outbox.cif.g08.bks.cpg/sg2_87_cif.got.tgz:173644.got - 2010.06.03 11:33:40.
