data_PCOD9038718
_publ_section_title
;
Structure prediction by ZEFSAII (Michael W. Deem and Ramdas Pophale) SiO2 
 PCOD9038718
Probable space group: P -1
;
_chemical_formula_sum "Si O2"
_cell_formula_units_Z 16
_cell_length_a 20.421320
_cell_length_b 8.622213
_cell_length_c 10.896565
_cell_angle_alpha 54.113056
_cell_angle_beta 29.414333
_cell_angle_gamma 45.483412
_cell_volume 670.239630
_symmetry_space_group_name_H-M "P -1"
_symmetry_group_IT_number 2
_symmetry_cell_setting 'triclinic'
loop_
_space_group_symop_operation_xyz
x,y,z
-x,-y,-z
loop_
_atom_site_type_symbol
_atom_site_label
_atom_site_fract_x
_atom_site_fract_y
_atom_site_fract_z
Si Si1 0.296186 0.956459 0.385568
Si Si2 0.338095 0.151326 0.757721
Si Si3 0.084238 0.243648 0.953384
Si Si4 0.280323 0.305568 0.409686
Si Si5 0.040847 0.677943 0.289798
Si Si6 0.399913 0.834984 0.000658
Si Si7 0.858409 0.225512 0.673268
Si Si8 0.197470 0.650744 0.787185
O O1 0.365838 0.843283 0.195685
O O2 0.294725 0.777933 0.563672
O O3 0.350788 0.123046 0.272708
O O4 0.122826 0.125078 0.561245
O O5 0.196341 0.131843 0.936950
O O6 0.294686 0.402466 0.699542
O O7 0.500000 0.000000 0.500000
O O8 0.354331 0.072862 0.908254
O O9 0.201203 0.207006 0.671259
O O10 0.000000 0.500000 0.000000
O O11 0.946535 0.218790 0.131005
O O12 0.155511 0.549402 0.464539
O O13 0.421068 0.311022 0.242521
O O14 0.125017 0.745960 0.223385
O O15 0.000000 0.500000 0.500000
O O16 0.132383 0.631024 0.034810
O O17 0.296111 0.764571 0.124820
O O18 0.000000 0.000000 0.500000
#
# Coordination Sequence:
#
# PCOD9038718 Si02
#       8
#     2   2   2   2   2   2   2   2
#     4  12  26  47  78 106 152 197 253 304 377 449
#     4  11  25  46  72 109 149 191 244 310 373 440
#     4  10  23  41  75 102 148 183 249 302 376 423
#     4  12  26  50  73 107 151 204 244 309 383 443
#     4  12  23  48  78 113 150 192 253 311 373 438
#     4  12  28  47  76 108 153 199 249 308 379 447
#     4  12  28  43  77 111 149 191 256 312 367 444
#     4  11  26  45  79 110 147 195 253 308 373 449
#
# _framework density 23.872060000000001
#
# number of rings (size 3 to 8) (size 9 to 14) (size 15 to 20)
#    0.000    0.500    5.000    1.875    8.750    1.000 
#    0.000    0.625    0.000    0.000    0.000    0.000 
#    0.000    0.000    0.000    0.000    0.000    0.000 
#
# Total GULP energy -89441.641533 kJ/mol
# GULP energy per Si atom -5590.102596 kJ/mol
# Density = 2.381773 g / cm^3
# Si number density = 23.872060 Si / 1000 Ang^3
#
#
#
# Elastic Constant Matrix: (Units=GPa)
#
#
# Indices 1 2 3 4 5 6 
#
# 1 110.5383 33.1618 39.4636 1.4340 -13.7511 5.8194
# 2 33.1618 127.3007 45.1044 -14.4306 -3.7548 -6.8221
# 3 39.4636 45.1044 79.7409 3.4081 -0.6631 5.1670
# 4 1.4340 -14.4306 3.4081 35.5867 -5.2189 -2.8147
# 5 -13.7511 -3.7548 -0.6631 -5.2189 42.2503 -4.2005
# 6 5.8194 -6.8221 5.1670 -2.8147 -4.2005 39.2113
#
#
#
# Elastic Compliance Matrix: (Units=1/GPa)
#
#
# Indices 1 2 3 4 5 6 
#
# 1 0.011685 -0.001222 -0.005002 -0.000044 0.003520 -0.000914
# 2 -0.001222 0.011265 -0.006228 0.005723 0.001565 0.003540
# 3 -0.005002 -0.006228 0.018948 -0.004829 -0.002827 -0.003488
# 4 -0.000044 0.005723 -0.004829 0.031942 0.004806 0.004446
# 5 0.003520 0.001565 -0.002827 0.004806 0.025824 0.003234
# 6 -0.000914 0.003540 -0.003488 0.004446 0.003234 0.027380
#
#
# Mechanical properties :
#
#
# Convention : Reuss Voigt Hill
#
# Bulk Modulus (GPa) = 58.84195 61.44883 60.14539
# Shear Modulus (GPa) = 31.72346 36.73302 34.22824
#
# Velocity S-wave (km/s) = 3.64936 3.92694 3.79069
# Velocity P-wave (km/s) = 6.51609 6.80867 6.66398
#
# Compressibility (1/GPa) = 0.01699468
#
# Stress axis : x y z
#
# Youngs Moduli (GPa) = 85.57680 88.76924 52.77704
#
# Poissons Ratio (x) = 0.10848 0.26397
# Poissons Ratio (y) = 0.10458 0.32871
# Poissons Ratio (z) = 0.42801 0.55288
#
# Static dielectric constant tensor:
#      x y z
#    x 2.123330 0.060020 0.065460 
#    y 0.060020 1.942340 -0.052980 
#    z 0.065460 -0.052980 1.977480 
# 
# From -- ./inp_files/469814.got.cif
#   From: 2010.05.17/outbox.cif.g08.bks.cpg/sg2_235_cif.got.tgz:469814.got - 2010.06.03 11:33:40.
