data_PCOD9038033
_publ_section_title
;
Structure prediction by ZEFSAII (Michael W. Deem and Ramdas Pophale) SiO2 
 PCOD9038033
Probable space group: P -1
;
_chemical_formula_sum "Si O2"
_cell_formula_units_Z 16
_cell_length_a 8.076154
_cell_length_b 17.274254
_cell_length_c 5.470094
_cell_angle_alpha 100.446632
_cell_angle_beta 115.955099
_cell_angle_gamma 65.475272
_cell_volume 624.255104
_symmetry_space_group_name_H-M "P -1"
_symmetry_group_IT_number 2
_symmetry_cell_setting 'triclinic'
loop_
_space_group_symop_operation_xyz
x,y,z
-x,-y,-z
loop_
_atom_site_type_symbol
_atom_site_label
_atom_site_fract_x
_atom_site_fract_y
_atom_site_fract_z
Si Si1 0.365032 0.295665 0.625746
Si Si2 0.365802 0.127824 0.821961
Si Si3 0.836730 0.992970 0.580469
Si Si4 0.270629 0.717404 0.894848
Si Si5 0.612737 0.461388 0.303560
Si Si6 0.012033 0.427512 0.767236
Si Si7 0.103353 0.271888 0.059694
Si Si8 0.232824 0.895061 0.984299
O O1 0.363155 0.208232 0.698243
O O2 0.584734 0.295257 0.784412
O O3 0.219703 0.375691 0.735011
O O4 0.274145 0.298290 0.303412
O O5 0.293612 0.059590 0.613175
O O6 0.597132 0.080669 0.026498
O O7 0.208607 0.179745 0.955202
O O8 0.728076 0.082400 0.698060
O O9 0.000000 0.000000 0.500000
O O10 0.994206 0.933640 0.845212
O O11 0.050654 0.729235 0.835040
O O12 0.274439 0.803566 0.842901
O O13 0.360521 0.636295 0.742201
O O14 0.500000 0.500000 0.500000
O O15 0.833338 0.462690 0.476113
O O16 0.500000 0.500000 0.000000
O O17 0.983425 0.349128 0.847344
O O18 0.000000 0.500000 0.000000
#
# Coordination Sequence:
#
# PCOD9038033 Si02
#       8
#     2   2   2   2   2   2   2   2
#     4  10  23  43  67  99 130 187 233 294 359 430
#     4  10  23  41  65  98 138 177 233 289 356 429
#     4  11  23  41  67 100 135 178 233 285 360 425
#     4  11  23  46  72  99 140 184 243 294 367 434
#     4  12  27  47  73 112 145 198 250 310 376 447
#     4  11  25  45  67  98 147 184 238 304 369 436
#     4  11  23  42  68 101 133 191 238 294 361 434
#     4  10  24  43  65  99 136 182 227 295 351 434
#
# _framework density 25.630545999999999
#
# number of rings (size 3 to 8) (size 9 to 14) (size 15 to 20)
#    0.000    1.250    1.250    3.375    3.500    5.000 
#    6.750    0.000    0.000    0.000    0.000    0.000 
#    0.000    0.000    0.000    0.000    0.000    0.000 
#
# Total GULP energy -89397.384497 kJ/mol
# GULP energy per Si atom -5587.336531 kJ/mol
# Density = 2.557221 g / cm^3
# Si number density = 25.630546 Si / 1000 Ang^3
#
#
#
# Elastic Constant Matrix: (Units=GPa)
#
#
# Indices 1 2 3 4 5 6 
#
# 1 60.4952 26.5444 2.1590 14.0974 18.8661 -10.0431
# 2 26.5444 110.9530 35.6992 44.7560 -1.6955 -8.8687
# 3 2.1590 35.6992 97.7754 18.3274 20.4727 -3.0710
# 4 14.0974 44.7560 18.3274 49.9749 -6.1938 1.3311
# 5 18.8661 -1.6955 20.4727 -6.1938 51.0898 3.5311
# 6 -10.0431 -8.8687 -3.0710 1.3311 3.5311 40.0885
#
#
#
# Elastic Compliance Matrix: (Units=1/GPa)
#
#
# Indices 1 2 3 4 5 6 
#
# 1 0.025102 -0.004680 0.005301 -0.006611 -0.012835 0.007009
# 2 -0.004680 0.016349 -0.004116 -0.011581 0.002357 0.002306
# 3 0.005301 -0.004116 0.014238 -0.004144 -0.008467 0.002392
# 4 -0.006611 -0.011581 -0.004144 0.034979 0.008403 -0.006437
# 5 -0.012835 0.002357 -0.008467 0.008403 0.029231 -0.006197
# 6 0.007009 0.002306 0.002392 -0.006437 -0.006197 0.028154
#
#
# Mechanical properties :
#
#
# Convention : Reuss Voigt Hill
#
# Bulk Modulus (GPa) = 20.53441 44.22543 32.37992
# Shear Modulus (GPa) = 29.19281 41.88539 35.53910
#
# Velocity S-wave (km/s) = 3.37855 4.04691 3.72774
# Velocity P-wave (km/s) = 4.82167 6.25532 5.58469
#
# Compressibility (1/GPa) = 0.04869875
#
# Stress axis : x y z
#
# Youngs Moduli (GPa) = 39.83815 61.16707 70.23406
#
# Poissons Ratio (x) = 0.28627 -0.37233
# Poissons Ratio (y) = 0.18644 0.28909
# Poissons Ratio (z) = -0.21119 0.25177
#
# Static dielectric constant tensor:
#      x y z
#    x 1.995380 -0.020680 -0.019400 
#    y -0.020680 2.708720 -0.754820 
#    z -0.019400 -0.754820 2.727880 
# 
# From -- ./inp_files/48752.got.cif
#   From: 2010.05.17/outbox.cif.g08.bks.cpg/sg2_25_cif.got.tgz:48752.got - 2010.06.03 11:33:40.
