data_PCOD9038724
_publ_section_title
;
Structure prediction by ZEFSAII (Michael W. Deem and Ramdas Pophale) SiO2 
 PCOD9038724
Probable space group: P -1
;
_chemical_formula_sum "Si O2"
_cell_formula_units_Z 12
_cell_length_a 10.531359
_cell_length_b 13.445353
_cell_length_c 7.677479
_cell_angle_alpha 142.482717
_cell_angle_beta 119.824783
_cell_angle_gamma 41.488189
_cell_volume 425.773879
_symmetry_space_group_name_H-M "P -1"
_symmetry_group_IT_number 2
_symmetry_cell_setting 'triclinic'
loop_
_space_group_symop_operation_xyz
x,y,z
-x,-y,-z
loop_
_atom_site_type_symbol
_atom_site_label
_atom_site_fract_x
_atom_site_fract_y
_atom_site_fract_z
Si Si1 0.662421 0.550012 0.322680
Si Si2 0.034447 0.721855 0.305761
Si Si3 0.023410 0.058261 0.903014
Si Si4 0.417550 0.299951 0.167379
Si Si5 0.175653 0.257565 0.130427
Si Si6 0.402149 0.898073 0.326578
O O1 0.544942 0.625209 0.529204
O O2 0.809879 0.590685 0.531819
O O3 0.522856 0.708525 0.291886
O O4 0.804221 0.290628 0.031316
O O5 0.201075 0.510659 0.238386
O O6 0.090973 0.869747 0.551370
O O7 0.822510 0.895340 0.494711
O O8 0.994266 0.656751 0.008738
O O9 0.166452 0.106602 0.036965
O O10 0.000000 0.000000 0.000000
O O11 0.369745 0.149824 0.991633
O O12 0.561917 0.217929 0.993379
O O13 0.500000 0.000000 0.500000
#
# Coordination Sequence:
#
# PCOD9038724 Si02
#       6
#     2   2   2   2   2   2
#     4  10  25  46  72 108 143 192 245 299 353 438
#     4  12  25  45  75 112 142 194 241 302 371 431
#     4  12  24  43  72 111 144 192 248 292 368 438
#     4  10  24  47  76 105 142 190 247 301 353 429
#     4  10  23  41  76 101 143 189 247 294 356 428
#     4  12  26  44  76 112 147 185 247 303 364 429
#
# _framework density 28.183972000000001
#
# number of rings (size 3 to 8) (size 9 to 14) (size 15 to 20)
#    1.000    0.000    3.333    2.500    4.667    3.333 
#    0.000    0.833    0.000    0.000    0.000    0.000 
#    0.000    0.000    0.000    0.000    0.000    0.000 
#
# Total GULP energy -67225.946787 kJ/mol
# GULP energy per Si atom -5602.162232 kJ/mol
# Density = 2.811982 g / cm^3
# Si number density = 28.183972 Si / 1000 Ang^3
#
#
#
# Elastic Constant Matrix: (Units=GPa)
#
#
# Indices 1 2 3 4 5 6 
#
# 1 149.0459 55.1762 43.4867 -2.0904 -4.7332 1.6969
# 2 55.1762 249.4229 61.2018 5.2003 -25.4884 31.7501
# 3 43.4867 61.2018 134.8400 -5.7304 6.0223 17.6139
# 4 -2.0904 5.2003 -5.7304 47.1758 1.9424 -6.8759
# 5 -4.7332 -25.4884 6.0223 1.9424 64.6640 -6.5820
# 6 1.6969 31.7501 17.6139 -6.8759 -6.5820 51.0931
#
#
#
# Elastic Compliance Matrix: (Units=1/GPa)
#
#
# Indices 1 2 3 4 5 6 
#
# 1 0.007827 -0.001373 -0.002083 0.000437 0.000357 0.001416
# 2 -0.001373 0.005298 -0.001769 -0.001313 0.001931 -0.002565
# 3 -0.002083 -0.001769 0.009303 0.000999 -0.001966 -0.002157
# 4 0.000437 -0.001313 0.000999 0.022001 -0.000903 0.003301
# 5 0.000357 0.001931 -0.001966 -0.000903 0.016613 0.001484
# 6 0.001416 -0.002565 -0.002157 0.003301 0.001484 0.022498
#
#
# Mechanical properties :
#
#
# Convention : Reuss Voigt Hill
#
# Bulk Modulus (GPa) = 83.49110 94.78203 89.13656
# Shear Modulus (GPa) = 51.02870 57.48286 54.25578
#
# Velocity S-wave (km/s) = 4.25968 4.52105 4.39231
# Velocity P-wave (km/s) = 7.34037 7.80743 7.57750
#
# Compressibility (1/GPa) = 0.01197732
#
# Stress axis : x y z
#
# Youngs Moduli (GPa) = 127.76509 188.74026 107.49143
#
# Poissons Ratio (x) = 0.25917 0.22394
# Poissons Ratio (y) = 0.17544 0.19015
# Poissons Ratio (z) = 0.26618 0.33387
#
# Static dielectric constant tensor:
#      x y z
#    x 2.278390 -0.016150 -0.039780 
#    y -0.016150 2.168950 -0.008100 
#    z -0.039780 -0.008100 2.264430 
# 
# From -- ./inp_files/269293.got.cif
#   From: 2010.05.17/outbox.cif.g08.bks.cpg/sg2_135_cif.got.tgz:269293.got - 2010.06.03 11:33:40.
