data_PCOD9038569
_publ_section_title
;
Structure prediction by ZEFSAII (Michael W. Deem and Ramdas Pophale) SiO2 
 PCOD9038569
Probable space group: P -1
;
_chemical_formula_sum "Si O2"
_cell_formula_units_Z 15
_cell_length_a 15.745802
_cell_length_b 11.095787
_cell_length_c 7.698453
_cell_angle_alpha 131.144417
_cell_angle_beta 65.815048
_cell_angle_gamma 143.364510
_cell_volume 583.081320
_symmetry_space_group_name_H-M "P -1"
_symmetry_group_IT_number 2
_symmetry_cell_setting 'triclinic'
loop_
_space_group_symop_operation_xyz
x,y,z
-x,-y,-z
loop_
_atom_site_type_symbol
_atom_site_label
_atom_site_fract_x
_atom_site_fract_y
_atom_site_fract_z
Si Si1 0.597141 0.804801 0.071799
Si Si2 0.205096 0.145383 0.811371
Si Si3 0.500000 0.500000 0.500000
Si Si4 0.811358 0.394166 0.926676
Si Si5 0.868308 0.276989 0.068962
Si Si6 0.099028 0.337770 0.452813
Si Si7 0.330868 0.646919 0.289072
Si Si8 0.227738 0.319077 0.595387
O O1 0.660547 0.772593 0.138173
O O2 0.491363 0.798446 0.242065
O O3 0.747562 0.067967 0.108875
O O4 0.514031 0.616397 0.795268
O O5 0.201852 0.153572 0.611226
O O6 0.228887 0.358292 0.051535
O O7 0.044480 0.871309 0.744972
O O8 0.371184 0.447874 0.500598
O O9 0.723583 0.278188 0.711371
O O10 0.987462 0.639822 0.982215
O O11 0.788065 0.205615 0.884512
O O12 0.755137 0.480370 0.149455
O O13 0.931348 0.536706 0.305344
O O14 0.264897 0.585221 0.475854
O O15 0.105930 0.190117 0.428702
#
# Coordination Sequence:
#
# PCOD9038569 Si02
#       8
#     2   2   1   2   2   2   2   2
#     4  12  26  44  67 102 142 185 224 292 345 410
#     4  11  23  43  70 101 143 177 229 292 343 396
#     4  12  24  44  66 100 132 180 228 278 354 408
#     4   9  20  45  66  95 135 176 233 287 328 398
#     4  10  24  44  69  99 137 185 232 280 343 410
#     4  11  24  43  72 104 137 186 231 277 344 418
#     4  11  23  42  66 100 142 179 228 286 345 404
#     4  10  23  41  71 102 134 180 226 285 342 412
#
# _framework density 25.7254
#
# number of rings (size 3 to 8) (size 9 to 14) (size 15 to 20)
#    0.000    1.333    2.667    2.800    1.867    9.600 
#    0.000    0.000    0.000    0.000    0.000    0.000 
#    0.000    0.000    0.000    0.000    0.000    0.000 
#
# Total GULP energy -83526.173676 kJ/mol
# GULP energy per Si atom -5568.411578 kJ/mol
# Density = 2.566685 g / cm^3
# Si number density = 25.725400 Si / 1000 Ang^3
#
#
#
# Elastic Constant Matrix: (Units=GPa)
#
#
# Indices 1 2 3 4 5 6 
#
# 1 164.8017 35.3380 28.5867 -13.4790 8.9118 18.4048
# 2 35.3380 91.9710 25.5820 -16.7568 -0.8566 19.7553
# 3 28.5867 25.5820 52.0561 -10.8804 -7.0549 10.0096
# 4 -13.4790 -16.7568 -10.8804 33.5805 9.8262 -1.4141
# 5 8.9118 -0.8566 -7.0549 9.8262 38.0100 -10.8918
# 6 18.4048 19.7553 10.0096 -1.4141 -10.8918 49.2322
#
#
#
# Elastic Compliance Matrix: (Units=1/GPa)
#
#
# Indices 1 2 3 4 5 6 
#
# 1 0.007519 -0.001074 -0.003111 0.002456 -0.003715 -0.002499
# 2 -0.001074 0.014838 -0.004886 0.006165 -0.003385 -0.005131
# 3 -0.003111 -0.004886 0.024693 0.003061 0.004156 -0.000890
# 4 0.002456 0.006165 0.003061 0.037886 -0.011212 -0.005406
# 5 -0.003715 -0.003385 0.004156 -0.011212 0.033340 0.008956
# 6 -0.002499 -0.005131 -0.000890 -0.005406 0.008956 0.025312
#
#
# Mechanical properties :
#
#
# Convention : Reuss Voigt Hill
#
# Bulk Modulus (GPa) = 34.59109 54.20468 44.39788
# Shear Modulus (GPa) = 29.17729 38.78603 33.98166
#
# Velocity S-wave (km/s) = 3.37142 3.88712 3.63841
# Velocity P-wave (km/s) = 5.35077 6.42359 5.91156
#
# Compressibility (1/GPa) = 0.02890918
#
# Stress axis : x y z
#
# Youngs Moduli (GPa) = 133.00286 67.39240 40.49652
#
# Poissons Ratio (x) = 0.07238 0.12598
# Poissons Ratio (y) = 0.14285 0.19786
# Poissons Ratio (z) = 0.41374 0.32927
#
# Static dielectric constant tensor:
#      x y z
#    x 1.973770 -0.025260 0.119360 
#    y -0.025260 1.992340 -0.169920 
#    z 0.119360 -0.169920 2.074170 
# 
# From -- ./inp_files/304118.got.cif
#   From: 2010.05.17/outbox.cif.g08.bks.cpg/sg2_153_cif.got.tgz:304118.got - 2010.06.03 11:33:40.
