data_PCOD9038330
_publ_section_title
;
Structure prediction by ZEFSAII (Michael W. Deem and Ramdas Pophale) SiO2 
 PCOD9038330
Probable space group: P -1
;
_chemical_formula_sum "Si O2"
_cell_formula_units_Z 16
_cell_length_a 8.696831
_cell_length_b 14.419297
_cell_length_c 11.786519
_cell_angle_alpha 149.491070
_cell_angle_beta 80.680280
_cell_angle_gamma 107.252831
_cell_volume 703.129542
_symmetry_space_group_name_H-M "P -1"
_symmetry_group_IT_number 2
_symmetry_cell_setting 'triclinic'
loop_
_space_group_symop_operation_xyz
x,y,z
-x,-y,-z
loop_
_atom_site_type_symbol
_atom_site_label
_atom_site_fract_x
_atom_site_fract_y
_atom_site_fract_z
Si Si1 0.645084 0.470882 0.375462
Si Si2 0.114925 0.518239 0.896632
Si Si3 0.199335 0.565603 0.287217
Si Si4 0.806846 0.053792 0.205991
Si Si5 0.152682 0.178855 0.394880
Si Si6 0.590555 0.687051 0.961022
Si Si7 0.314925 0.929401 0.997985
Si Si8 0.591870 0.227584 0.739919
O O1 0.500000 0.500000 0.500000
O O2 0.790857 0.666382 0.550771
O O3 0.561545 0.433708 0.222571
O O4 0.707460 0.292570 0.208816
O O5 0.150457 0.315982 0.649004
O O6 0.989570 0.531992 0.828020
O O7 0.267810 0.703387 0.106047
O O8 0.000000 0.500000 0.000000
O O9 0.209650 0.737706 0.551314
O O10 0.270326 0.411622 0.170561
O O11 0.315554 0.669797 0.276018
O O12 0.798074 0.033313 0.050649
O O13 0.968075 0.052179 0.253907
O O14 0.654875 0.895107 0.115260
O O15 0.275616 0.051020 0.236158
O O16 0.546144 0.693625 0.105066
O O17 0.500000 0.000000 0.000000
O O18 0.500000 0.000000 0.500000
#
# Coordination Sequence:
#
# PCOD9038330 Si02
#       8
#     2   2   2   2   2   2   2   2
#     4  12  24  42  68  99 135 175 226 278 330 394
#     4   9  21  43  68  96 136 174 218 273 335 402
#     4  10  23  41  68  93 134 177 216 272 339 391
#     4  11  24  43  63  96 136 174 221 274 327 404
#     4  11  24  43  68  97 137 177 220 282 336 396
#     4  12  23  41  65  96 132 171 227 275 328 397
#     4  12  24  41  69 100 132 178 228 275 336 390
#     4  11  21  42  69  97 130 171 224 280 330 396
#
# _framework density 22.755410999999999
#
# number of rings (size 3 to 8) (size 9 to 14) (size 15 to 20)
#    0.000    1.000    5.000    1.500    0.000    2.500 
#    0.000    0.625    0.000    0.000    0.000    0.000 
#    0.000    0.000    0.000    0.000    0.000    0.000 
#
# Total GULP energy -89266.953963 kJ/mol
# GULP energy per Si atom -5579.184623 kJ/mol
# Density = 2.270362 g / cm^3
# Si number density = 22.755411 Si / 1000 Ang^3
#
#
#
# Elastic Constant Matrix: (Units=GPa)
#
#
# Indices 1 2 3 4 5 6 
#
# 1 62.6704 -3.5605 52.0653 5.5152 -6.0397 5.4327
# 2 -3.5605 41.8006 26.8022 -8.0444 -10.6446 10.2999
# 3 52.0653 26.8022 136.4267 -7.7916 -10.7122 -0.7246
# 4 5.5152 -8.0444 -7.7916 40.3136 10.0146 -8.4311
# 5 -6.0397 -10.6446 -10.7122 10.0146 47.0177 -5.6982
# 6 5.4327 10.2999 -0.7246 -8.4311 -5.6982 29.8146
#
#
#
# Elastic Compliance Matrix: (Units=1/GPa)
#
#
# Indices 1 2 3 4 5 6 
#
# 1 0.031763 0.015221 -0.015309 -0.008000 0.004181 -0.012881
# 2 0.015221 0.038770 -0.013121 -0.001723 0.006197 -0.015789
# 3 -0.015309 -0.013121 0.015969 0.004711 -0.001235 0.008807
# 4 -0.008000 -0.001723 0.004711 0.029840 -0.005543 0.009546
# 5 0.004181 0.006197 -0.001235 -0.005543 0.024121 0.000110
# 6 -0.012881 -0.015789 0.008807 0.009546 0.000110 0.044277
#
#
# Mechanical properties :
#
#
# Convention : Reuss Voigt Hill
#
# Bulk Modulus (GPa) = 16.64365 43.50132 30.07248
# Shear Modulus (GPa) = 21.62748 34.46857 28.04803
#
# Velocity S-wave (km/s) = 3.08625 3.89619 3.51463
# Velocity P-wave (km/s) = 4.47549 6.27685 5.45109
#
# Compressibility (1/GPa) = 0.06008297
#
# Stress axis : x y z
#
# Youngs Moduli (GPa) = 31.48269 25.79344 62.62063
#
# Poissons Ratio (x) = -0.39260 0.95868
# Poissons Ratio (y) = -0.47920 0.82166
# Poissons Ratio (z) = 0.48198 0.33844
#
# Static dielectric constant tensor:
#      x y z
#    x 1.926980 0.068250 -0.017120 
#    y 0.068250 1.875200 -0.069080 
#    z -0.017120 -0.069080 1.883780 
# 
# From -- ./inp_files/400019.got.cif
#   From: 2010.05.17/outbox.cif.g08.bks.cpg/sg2_201_cif.got.tgz:400019.got - 2010.06.03 11:33:40.
