data_PCOD9038278
_publ_section_title
;
Structure prediction by ZEFSAII (Michael W. Deem and Ramdas Pophale) SiO2 
 PCOD9038278
Probable space group: P -1
;
_chemical_formula_sum "Si O2"
_cell_formula_units_Z 14
_cell_length_a 9.850544
_cell_length_b 14.126482
_cell_length_c 7.830064
_cell_angle_alpha 71.405346
_cell_angle_beta 85.008214
_cell_angle_gamma 139.286037
_cell_volume 570.509902
_symmetry_space_group_name_H-M "P -1"
_symmetry_group_IT_number 2
_symmetry_cell_setting 'triclinic'
loop_
_space_group_symop_operation_xyz
x,y,z
-x,-y,-z
loop_
_atom_site_type_symbol
_atom_site_label
_atom_site_fract_x
_atom_site_fract_y
_atom_site_fract_z
Si Si1 0.407662 0.107723 0.268457
Si Si2 0.747347 0.159332 0.772166
Si Si3 0.942355 0.955446 0.829840
Si Si4 0.343604 0.706968 0.523347
Si Si5 0.547697 0.635377 0.507318
Si Si6 0.058534 0.649279 0.033167
Si Si7 0.251642 0.383323 0.005664
O O1 0.301658 0.140873 0.166539
O O2 0.439921 0.136273 0.452938
O O3 0.229245 0.912956 0.327142
O O4 0.675435 0.233068 0.103887
O O5 0.730197 0.250715 0.618206
O O6 0.930933 0.271873 0.845374
O O7 0.500000 0.000000 0.000000
O O8 0.903549 0.813259 0.888736
O O9 0.171644 0.158751 0.609752
O O10 0.000000 0.000000 0.000000
O O11 0.429240 0.664110 0.425288
O O12 0.115415 0.542962 0.765624
O O13 0.500000 0.500000 0.500000
O O14 0.391719 0.527456 0.755980
O O15 0.938772 0.645500 0.902005
O O16 0.500000 0.500000 0.000000
#
# Coordination Sequence:
#
# PCOD9038278 Si02
#       7
#     2   2   2   2   2   2   2
#     4  11  25  44  69 109 139 180 237 286 363 420
#     4  10  23  41  67  99 135 180 230 281 343 423
#     4  12  25  45  76 100 146 193 235 297 355 417
#     4  11  24  44  70 102 140 181 232 300 353 411
#     4  11  26  46  72 104 140 190 251 284 355 434
#     4  10  23  45  71 101 141 180 236 283 353 429
#     4  11  25  47  73 108 144 184 234 297 358 426
#
# _framework density 24.539452000000001
#
# number of rings (size 3 to 8) (size 9 to 14) (size 15 to 20)
#    0.000    1.143    1.429    3.857   10.000    2.286 
#    5.143    0.000    0.000    0.000    0.000    0.000 
#    0.000    0.000    0.000    0.000    0.000    0.000 
#
# Total GULP energy -78042.856450 kJ/mol
# GULP energy per Si atom -5574.489746 kJ/mol
# Density = 2.448360 g / cm^3
# Si number density = 24.539452 Si / 1000 Ang^3
#
#
#
# Elastic Constant Matrix: (Units=GPa)
#
#
# Indices 1 2 3 4 5 6 
#
# 1 172.9727 16.4640 42.8242 -17.9145 21.2876 13.9336
# 2 16.4640 101.6508 23.0476 -23.4583 -9.0047 0.9448
# 3 42.8242 23.0476 62.3451 -26.5438 9.7527 11.9087
# 4 -17.9145 -23.4583 -26.5438 33.1743 -0.9017 6.7687
# 5 21.2876 -9.0047 9.7527 -0.9017 32.2474 -3.9322
# 6 13.9336 0.9448 11.9087 6.7687 -3.9322 54.7458
#
#
#
# Elastic Compliance Matrix: (Units=1/GPa)
#
#
# Indices 1 2 3 4 5 6 
#
# 1 0.007449 -0.000521 -0.003549 0.001016 -0.004149 -0.001539
# 2 -0.000521 0.012401 -0.001818 0.007207 0.004527 -0.000252
# 3 -0.003549 -0.001818 0.033095 0.025081 -0.008691 -0.009990
# 4 0.001016 0.007207 0.025081 0.058444 -0.006257 -0.013514
# 5 -0.004149 0.004527 -0.008691 -0.006257 0.038246 0.006389
# 6 -0.001539 -0.000252 -0.009990 -0.013514 0.006389 0.022965
#
#
# Mechanical properties :
#
#
# Convention : Reuss Voigt Hill
#
# Bulk Modulus (GPa) = 24.28934 55.73780 40.01357
# Shear Modulus (GPa) = 25.23995 41.00903 33.12449
#
# Velocity S-wave (km/s) = 3.21057 4.09240 3.67801
# Velocity P-wave (km/s) = 4.86449 6.71515 5.86330
#
# Compressibility (1/GPa) = 0.04117033
#
# Stress axis : x y z
#
# Youngs Moduli (GPa) = 134.24284 80.63978 30.21571
#
# Poissons Ratio (x) = 0.04198 0.10723
# Poissons Ratio (y) = 0.06989 0.05494
# Poissons Ratio (z) = 0.47640 0.14662
#
# Static dielectric constant tensor:
#      x y z
#    x 1.580370 -0.332390 -0.021810 
#    y -0.332390 1.698870 -0.038360 
#    z -0.021810 -0.038360 1.922620 
# 
# From -- ./inp_files/206005.got.cif
#   From: 2010.05.17/outbox.cif.g08.bks.cpg/sg2_104_cif.got.tgz:206005.got - 2010.06.03 11:33:40.
