data_PCOD9038680
_publ_section_title
;
Structure prediction by ZEFSAII (Michael W. Deem and Ramdas Pophale) SiO2 
 PCOD9038680
Probable space group: P -1
;
_chemical_formula_sum "Si O2"
_cell_formula_units_Z 14
_cell_length_a 8.525263
_cell_length_b 12.064078
_cell_length_c 10.938829
_cell_angle_alpha 135.516930
_cell_angle_beta 106.845716
_cell_angle_gamma 44.830040
_cell_volume 499.724570
_symmetry_space_group_name_H-M "P -1"
_symmetry_group_IT_number 2
_symmetry_cell_setting 'triclinic'
loop_
_space_group_symop_operation_xyz
x,y,z
-x,-y,-z
loop_
_atom_site_type_symbol
_atom_site_label
_atom_site_fract_x
_atom_site_fract_y
_atom_site_fract_z
Si Si1 0.276625 0.607804 0.221518
Si Si2 0.164947 0.803901 0.623141
Si Si3 0.442945 0.299377 0.686886
Si Si4 0.177283 0.518026 0.550289
Si Si5 0.227427 0.219958 0.765281
Si Si6 0.720911 0.147931 0.075310
Si Si7 0.326611 0.002269 0.849165
O O1 0.218249 0.729166 0.436896
O O2 0.366072 0.697324 0.234809
O O3 0.529552 0.324503 0.067448
O O4 0.048461 0.652192 0.195762
O O5 0.033879 0.746275 0.607434
O O6 0.346199 0.688458 0.694735
O O7 0.105445 0.034364 0.791737
O O8 0.262034 0.492740 0.689534
O O9 0.287830 0.330783 0.785589
O O10 0.603790 0.041531 0.461193
O O11 0.000000 0.500000 0.500000
O O12 0.424239 0.269673 0.347410
O O13 0.295414 0.169739 0.884909
O O14 0.692029 0.992928 0.004667
O O15 0.000000 0.000000 0.000000
#
# Coordination Sequence:
#
# PCOD9038680 Si02
#       7
#     2   2   2   2   2   2   2
#     4  12  18  35  59  80 108 145 176 227 281 317
#     4  10  17  33  54  77 105 131 179 229 269 311
#     4  10  19  30  47  82 117 134 174 220 268 337
#     4  11  17  28  51  82 107 136 172 225 278 316
#     4  10  21  31  51  83 115 142 171 219 284 326
#     4  10  20  35  58  77 102 147 189 226 268 315
#     4   9  18  35  48  76 112 131 175 227 261 316
#
# _framework density 28.015436000000001
#
# number of rings (size 3 to 8) (size 9 to 14) (size 15 to 20)
#    0.857    0.857    5.714    2.143    0.000    0.000 
#    0.000    0.714    0.000    4.286    0.000    0.000 
#    0.000    0.000    0.000    0.000    0.000    0.000 
#
# Total GULP energy -78025.310937 kJ/mol
# GULP energy per Si atom -5573.236495 kJ/mol
# Density = 2.795167 g / cm^3
# Si number density = 28.015436 Si / 1000 Ang^3
#
#
#
# Elastic Constant Matrix: (Units=GPa)
#
#
# Indices 1 2 3 4 5 6 
#
# 1 224.6844 87.1365 36.6168 -7.7372 -37.3005 44.6634
# 2 87.1365 95.0832 41.5003 -8.3889 -25.0393 30.4994
# 3 36.6168 41.5003 90.4827 2.5819 -6.0131 5.4260
# 4 -7.7372 -8.3889 2.5819 30.2164 2.5335 -0.6444
# 5 -37.3005 -25.0393 -6.0131 2.5335 33.8992 2.8725
# 6 44.6634 30.4994 5.4260 -0.6444 2.8725 76.5283
#
#
#
# Elastic Compliance Matrix: (Units=1/GPa)
#
#
# Indices 1 2 3 4 5 6 
#
# 1 0.007761 -0.004520 -0.000548 0.000271 0.005328 -0.002887
# 2 -0.004520 0.023714 -0.008042 0.005025 0.011302 -0.006625
# 3 -0.000548 -0.008042 0.014638 -0.003239 -0.003926 0.002607
# 4 0.000271 0.005025 -0.003239 0.034718 0.000982 -0.001675
# 5 0.005328 0.011302 -0.003926 0.000982 0.043700 -0.008967
# 6 -0.002887 -0.006625 0.002607 -0.001675 -0.008967 0.017530
#
#
# Mechanical properties :
#
#
# Convention : Reuss Voigt Hill
#
# Bulk Modulus (GPa) = 50.27323 82.30639 66.28981
# Shear Modulus (GPa) = 28.58610 44.46191 36.52401
#
# Velocity S-wave (km/s) = 3.19779 3.98810 3.61461
# Velocity P-wave (km/s) = 5.62301 7.11683 6.41356
#
# Compressibility (1/GPa) = 0.01989130
#
# Stress axis : x y z
#
# Youngs Moduli (GPa) = 128.85754 42.16915 68.31760
#
# Poissons Ratio (x) = 0.19060 0.03744
# Poissons Ratio (y) = 0.58241 0.54944
# Poissons Ratio (z) = 0.07062 0.33914
#
# Static dielectric constant tensor:
#      x y z
#    x 2.486860 0.055190 0.048050 
#    y 0.055190 2.335380 0.048600 
#    z 0.048050 0.048600 2.294500 
# 
# From -- ./inp_files/498203.got.cif
#   From: 2010.05.17/outbox.cif.g08.bks.cpg/sg2_250_cif.got.tgz:498203.got - 2010.06.03 11:33:40.
