data_PCOD9038150
_publ_section_title
;
Structure prediction by ZEFSAII (Michael W. Deem and Ramdas Pophale) SiO2 
 PCOD9038150
Probable space group: P -1
;
_chemical_formula_sum "Si O2"
_cell_formula_units_Z 16
_cell_length_a 14.507582
_cell_length_b 14.083329
_cell_length_c 14.604092
_cell_angle_alpha 139.031238
_cell_angle_beta 29.381118
_cell_angle_gamma 150.094936
_cell_volume 729.857541
_symmetry_space_group_name_H-M "P -1"
_symmetry_group_IT_number 2
_symmetry_cell_setting 'triclinic'
loop_
_space_group_symop_operation_xyz
x,y,z
-x,-y,-z
loop_
_atom_site_type_symbol
_atom_site_label
_atom_site_fract_x
_atom_site_fract_y
_atom_site_fract_z
Si Si1 0.996544 0.417923 0.846473
Si Si2 0.737796 0.692023 0.888961
Si Si3 0.029746 0.928851 0.328215
Si Si4 0.177041 0.720429 0.607638
Si Si5 0.451575 0.108927 0.751802
Si Si6 0.515236 0.607927 0.475099
Si Si7 0.280342 0.305427 0.308249
Si Si8 0.861890 0.326815 0.705189
O O1 0.942190 0.224609 0.781857
O O2 0.268448 0.577163 0.681184
O O3 0.824418 0.364933 0.869188
O O4 0.000000 0.500000 0.000000
O O5 0.690180 0.664759 0.802610
O O6 0.980469 0.725016 0.729865
O O7 0.500000 0.500000 0.000000
O O8 0.742662 0.859969 0.041282
O O9 0.778644 0.815028 0.403054
O O10 0.000000 0.000000 0.500000
O O11 0.247018 0.121774 0.230089
O O12 0.366305 0.758944 0.394479
O O13 0.029863 0.522731 0.644199
O O14 0.327059 0.896395 0.676192
O O15 0.617307 0.180632 0.751451
O O16 0.500000 0.500000 0.500000
O O17 0.479487 0.489700 0.331427
O O18 0.023345 0.260618 0.523099
#
# Coordination Sequence:
#
# PCOD9038150 Si02
#       8
#     2   2   2   2   2   2   2   2
#     4  10  23  41  66  98 137 171 221 283 333 397
#     4  12  24  45  70  97 138 176 227 279 340 407
#     4  11  20  43  67  91 131 178 222 272 325 411
#     4  11  24  45  66  96 138 174 222 278 342 398
#     4  11  24  42  69  98 134 175 223 280 333 410
#     4   9  19  39  66  91 129 171 220 263 336 389
#     4  11  23  40  68  98 127 181 225 275 336 408
#     4  11  21  42  65  92 134 175 221 267 347 393
#
# _framework density 21.922087000000001
#
# number of rings (size 3 to 8) (size 9 to 14) (size 15 to 20)
#    0.000    1.250    6.250    1.500    0.000    5.000 
#    4.500    0.625    0.000    0.000    0.000    0.000 
#    0.000    0.000    0.000    0.000    0.000    0.000 
#
# Total GULP energy -89428.835656 kJ/mol
# GULP energy per Si atom -5589.302229 kJ/mol
# Density = 2.187219 g / cm^3
# Si number density = 21.922087 Si / 1000 Ang^3
#
#
#
# Elastic Constant Matrix: (Units=GPa)
#
#
# Indices 1 2 3 4 5 6 
#
# 1 137.3148 57.3905 35.1088 11.2872 35.0812 19.9671
# 2 57.3905 110.4275 29.0331 13.6421 17.7107 24.3503
# 3 35.1088 29.0331 81.3204 17.5623 26.3900 5.3151
# 4 11.2872 13.6421 17.5623 34.2484 4.8459 1.7186
# 5 35.0812 17.7107 26.3900 4.8459 37.2961 7.1896
# 6 19.9671 24.3503 5.3151 1.7186 7.1896 37.1726
#
#
#
# Elastic Compliance Matrix: (Units=1/GPa)
#
#
# Indices 1 2 3 4 5 6 
#
# 1 0.011503 -0.004031 -0.000682 -0.000612 -0.007984 -0.001868
# 2 -0.004031 0.013347 -0.002243 -0.002607 0.000584 -0.006249
# 3 -0.000682 -0.002243 0.018192 -0.006792 -0.010591 0.001597
# 4 -0.000612 -0.002607 -0.006792 0.033578 0.002053 0.001058
# 5 -0.007984 0.000584 -0.010591 0.002053 0.041804 -0.002760
# 6 -0.001868 -0.006249 0.001597 0.001058 -0.002760 0.032256
#
#
# Mechanical properties :
#
#
# Convention : Reuss Voigt Hill
#
# Bulk Modulus (GPa) = 34.32882 63.56972 48.94927
# Shear Modulus (GPa) = 28.68600 35.57876 32.13238
#
# Velocity S-wave (km/s) = 3.62130 4.03297 3.83267
# Velocity P-wave (km/s) = 5.76009 7.12373 6.47789
#
# Compressibility (1/GPa) = 0.02913004
#
# Stress axis : x y z
#
# Youngs Moduli (GPa) = 86.93095 74.92437 54.97036
#
# Poissons Ratio (x) = 0.30202 0.03749
# Poissons Ratio (y) = 0.35042 0.12329
# Poissons Ratio (z) = 0.05929 0.16805
#
# Static dielectric constant tensor:
#      x y z
#    x 0.514550 0.835360 0.053150 
#    y 0.835360 1.284220 -0.063350 
#    z 0.053150 -0.063350 1.848790 
# 
# From -- ./inp_files/533804.got.cif
#   From: 2010.05.17/outbox.cif.g08.bks.cpg/sg2_267_cif.got.tgz:533804.got - 2010.06.03 11:33:40.
