data_PCOD9038277
_publ_section_title
;
Structure prediction by ZEFSAII (Michael W. Deem and Ramdas Pophale) SiO2 
 PCOD9038277
Probable space group: P -1
;
_chemical_formula_sum "Si O2"
_cell_formula_units_Z 16
_cell_length_a 14.545074
_cell_length_b 12.082997
_cell_length_c 8.832775
_cell_angle_alpha 147.979840
_cell_angle_beta 47.263837
_cell_angle_gamma 132.288899
_cell_volume 585.291646
_symmetry_space_group_name_H-M "P -1"
_symmetry_group_IT_number 2
_symmetry_cell_setting 'triclinic'
loop_
_space_group_symop_operation_xyz
x,y,z
-x,-y,-z
loop_
_atom_site_type_symbol
_atom_site_label
_atom_site_fract_x
_atom_site_fract_y
_atom_site_fract_z
Si Si1 0.676089 0.989492 0.240661
Si Si2 0.718440 0.843514 0.690361
Si Si3 0.090421 0.414025 0.733491
Si Si4 0.094974 0.229814 0.190379
Si Si5 0.779671 0.445774 0.789439
Si Si6 0.766375 0.234116 0.878477
Si Si7 0.438026 0.311804 0.735495
Si Si8 0.570868 0.379610 0.350949
O O1 0.576689 0.898332 0.384994
O O2 0.729227 0.244351 0.500142
O O3 0.674691 0.940935 0.006043
O O4 0.772322 0.839554 0.009451
O O5 0.854222 0.781329 0.486864
O O6 0.592218 0.633735 0.559612
O O7 0.744234 0.998094 0.698393
O O8 0.077040 0.365029 0.513856
O O9 0.070551 0.653801 0.105771
O O10 0.257132 0.572988 0.750205
O O11 0.101436 0.381225 0.214450
O O12 0.000000 0.000000 0.000000
O O13 0.804870 0.334384 0.785676
O O14 0.679192 0.594895 0.092993
O O15 0.602923 0.208491 0.003439
O O16 0.526693 0.320276 0.500353
O O17 0.500000 0.500000 0.000000
#
# Coordination Sequence:
#
# PCOD9038277 Si02
#       8
#     2   2   2   2   2   2   2   2
#     4  10  23  41  67  99 134 180 230 288 345 411
#     4  10  23  43  67  96 137 184 230 286 353 415
#     4  10  24  48  72 102 133 179 235 290 353 424
#     4  10  24  48  74 100 136 178 230 291 353 419
#     4  11  25  43  69 102 138 181 235 287 352 419
#     4  11  25  43  66  99 143 183 227 293 348 420
#     4  11  23  42  66  98 138 185 241 283 339 418
#     4  11  23  42  62  96 140 183 233 283 343 413
#
# _framework density 27.336798999999999
#
# number of rings (size 3 to 8) (size 9 to 14) (size 15 to 20)
#    0.000    1.500    2.500    0.750    7.000    4.000 
#    4.500    0.000    0.000    0.000    0.000    0.000 
#    0.000    0.000    0.000    0.000    0.000    0.000 
#
# Total GULP energy -89225.617779 kJ/mol
# GULP energy per Si atom -5576.601111 kJ/mol
# Density = 2.727458 g / cm^3
# Si number density = 27.336799 Si / 1000 Ang^3
#
#
#
# Elastic Constant Matrix: (Units=GPa)
#
#
# Indices 1 2 3 4 5 6 
#
# 1 156.2193 80.2601 63.8151 -11.7803 -20.6874 -12.6149
# 2 80.2601 229.4988 100.8196 12.6517 10.7697 -26.4843
# 3 63.8151 100.8196 155.4514 -6.6313 20.1199 -5.7447
# 4 -11.7803 12.6517 -6.6313 41.0864 7.7527 -0.5313
# 5 -20.6874 10.7697 20.1199 7.7527 61.3107 1.4651
# 6 -12.6149 -26.4843 -5.7447 -0.5313 1.4651 51.8072
#
#
#
# Elastic Compliance Matrix: (Units=1/GPa)
#
#
# Indices 1 2 3 4 5 6 
#
# 1 0.009548 -0.002330 -0.002840 0.002201 0.004267 0.000721
# 2 -0.002330 0.007376 -0.003812 -0.003431 -0.000463 0.002759
# 3 -0.002840 -0.003812 0.010677 0.002843 -0.004121 -0.001311
# 4 0.002201 -0.003431 0.002843 0.027043 -0.002995 -0.000541
# 5 0.004267 -0.000463 -0.004121 -0.002995 0.019568 -0.000239
# 6 0.000721 0.002759 -0.001311 -0.000541 -0.000239 0.020744
#
#
# Mechanical properties :
#
#
# Convention : Reuss Voigt Hill
#
# Bulk Modulus (GPa) = 103.76527 114.55100 109.15813
# Shear Modulus (GPa) = 43.05426 50.59253 46.82339
#
# Velocity S-wave (km/s) = 3.97288 4.30666 4.14313
# Velocity P-wave (km/s) = 7.68671 8.16849 7.93126
#
# Compressibility (1/GPa) = 0.00963714
#
# Stress axis : x y z
#
# Youngs Moduli (GPa) = 104.73761 135.57851 93.65617
#
# Poissons Ratio (x) = 0.31584 0.26602
# Poissons Ratio (y) = 0.24399 0.35700
# Poissons Ratio (z) = 0.29750 0.51681
#
# Static dielectric constant tensor:
#      x y z
#    x 2.471420 0.123500 -0.000010 
#    y 0.123500 1.813640 -0.003840 
#    z -0.000010 -0.003840 2.052980 
# 
# From -- ./inp_files/332542.got.cif
#   From: 2010.05.17/outbox.cif.g08.bks.cpg/sg2_167_cif.got.tgz:332542.got - 2010.06.03 11:33:40.
