data_PCOD9038635
_publ_section_title
;
Structure prediction by ZEFSAII (Michael W. Deem and Ramdas Pophale) SiO2 
 PCOD9038635
Probable space group: P -1
;
_chemical_formula_sum "Si O2"
_cell_formula_units_Z 14
_cell_length_a 7.708739
_cell_length_b 8.382847
_cell_length_c 11.708295
_cell_angle_alpha 91.802195
_cell_angle_beta 46.652355
_cell_angle_gamma 73.512196
_cell_volume 499.032690
_symmetry_space_group_name_H-M "P -1"
_symmetry_group_IT_number 2
_symmetry_cell_setting 'triclinic'
loop_
_space_group_symop_operation_xyz
x,y,z
-x,-y,-z
loop_
_atom_site_type_symbol
_atom_site_label
_atom_site_fract_x
_atom_site_fract_y
_atom_site_fract_z
Si Si1 0.746525 0.594853 0.886306
Si Si2 0.997267 0.275272 0.933267
Si Si3 0.451035 0.807999 0.232153
Si Si4 0.242960 0.664783 0.707952
Si Si5 0.784899 0.987909 0.347016
Si Si6 0.917234 0.837972 0.515035
Si Si7 0.752004 0.502435 0.622998
O O1 0.818797 0.427849 0.932730
O O2 0.029941 0.603517 0.749495
O O3 0.534915 0.755854 0.060372
O O4 0.333786 0.429493 0.206047
O O5 0.274474 0.290115 0.825535
O O6 0.078513 0.089069 0.834010
O O7 0.877503 0.281599 0.110197
O O8 0.370263 0.018389 0.295349
O O9 0.276485 0.700306 0.354822
O O10 0.223161 0.821179 0.636174
O O11 0.549406 0.566150 0.606930
O O12 0.928983 0.843345 0.372068
O O13 0.500000 0.000000 0.500000
O O14 0.915471 0.644098 0.536085
O O15 0.000000 0.000000 0.500000
#
# Coordination Sequence:
#
# PCOD9038635 Si02
#       7
#     2   2   2   2   2   2   2
#     4  11  25  48  76 109 148 197 246 305 369 441
#     4  11  22  46  74 105 147 194 248 298 370 438
#     4  10  23  41  72 103 142 187 245 297 360 438
#     4  11  27  47  74 110 148 194 248 308 363 440
#     4  12  24  45  72 106 148 196 239 302 376 438
#     4  11  23  44  70 106 145 196 240 302 373 434
#     4  12  27  46  74 107 147 191 252 304 367 440
#
# _framework density 28.054276000000002
#
# number of rings (size 3 to 8) (size 9 to 14) (size 15 to 20)
#    0.000    0.857    2.857    4.714    2.000    4.000 
#    0.000    2.143    0.000    0.000    0.000    0.000 
#    0.000    0.000    0.000    0.000    0.000    0.000 
#
# Total GULP energy -78103.811403 kJ/mol
# GULP energy per Si atom -5578.843672 kJ/mol
# Density = 2.799042 g / cm^3
# Si number density = 28.054276 Si / 1000 Ang^3
#
#
#
# Elastic Constant Matrix: (Units=GPa)
#
#
# Indices 1 2 3 4 5 6 
#
# 1 90.9804 42.0412 27.3308 -19.7916 -11.1889 -9.3405
# 2 42.0412 200.4991 88.0292 -14.3924 -2.0432 -15.7283
# 3 27.3308 88.0292 154.4318 -8.0460 -18.5994 10.0987
# 4 -19.7916 -14.3924 -8.0460 65.6360 18.6079 8.5356
# 5 -11.1889 -2.0432 -18.5994 18.6079 55.2420 -3.3021
# 6 -9.3405 -15.7283 10.0987 8.5356 -3.3021 41.7400
#
#
#
# Elastic Compliance Matrix: (Units=1/GPa)
#
#
# Indices 1 2 3 4 5 6 
#
# 1 0.013183 -0.001934 -0.001046 0.002751 0.001441 0.002026
# 2 -0.001934 0.007582 -0.004351 0.000572 -0.001576 0.003236
# 3 -0.001046 -0.004351 0.009715 -0.000357 0.002783 -0.003931
# 4 0.002751 0.000572 -0.000357 0.018241 -0.005882 -0.003278
# 5 0.001441 -0.001576 0.002783 -0.005882 0.021370 0.001949
# 6 0.002026 0.003236 -0.003931 -0.003278 0.001949 0.027406
#
#
# Mechanical properties :
#
#
# Convention : Reuss Voigt Hill
#
# Bulk Modulus (GPa) = 63.22426 84.52375 73.87400
# Shear Modulus (GPa) = 42.57776 51.75763 47.16770
#
# Velocity S-wave (km/s) = 3.89998 4.29990 4.10482
# Velocity P-wave (km/s) = 6.54715 7.40583 6.98969
#
# Compressibility (1/GPa) = 0.01581671
#
# Stress axis : x y z
#
# Youngs Moduli (GPa) = 75.85590 131.88588 102.93792
#
# Poissons Ratio (x) = 0.25503 0.10772
# Poissons Ratio (y) = 0.14668 0.44792
# Poissons Ratio (z) = 0.07938 0.57389
#
# Static dielectric constant tensor:
#      x y z
#    x 2.154620 0.027000 -0.019420 
#    y 0.027000 2.127400 -0.063440 
#    z -0.019420 -0.063440 1.878820 
# 
# From -- ./inp_files/489630.got.cif
#   From: 2010.05.17/outbox.cif.g08.bks.cpg/sg2_245_cif.got.tgz:489630.got - 2010.06.03 11:33:40.
