data_PCOD9038426
_publ_section_title
;
Structure prediction by ZEFSAII (Michael W. Deem and Ramdas Pophale) SiO2 
 PCOD9038426
Probable space group: P -1
;
_chemical_formula_sum "Si O2"
_cell_formula_units_Z 16
_cell_length_a 9.099839
_cell_length_b 14.902373
_cell_length_c 9.579438
_cell_angle_alpha 133.761437
_cell_angle_beta 63.845727
_cell_angle_gamma 86.390902
_cell_volume 693.470491
_symmetry_space_group_name_H-M "P -1"
_symmetry_group_IT_number 2
_symmetry_cell_setting 'triclinic'
loop_
_space_group_symop_operation_xyz
x,y,z
-x,-y,-z
loop_
_atom_site_type_symbol
_atom_site_label
_atom_site_fract_x
_atom_site_fract_y
_atom_site_fract_z
Si Si1 0.338404 0.979644 0.619105
Si Si2 0.827288 0.512935 0.498136
Si Si3 0.186251 0.427462 0.743191
Si Si4 0.400860 0.770664 0.597340
Si Si5 0.014978 0.798098 0.798139
Si Si6 0.164151 0.154363 0.377091
Si Si7 0.832202 0.153581 0.660820
Si Si8 0.584165 0.194690 0.044856
O O1 0.500000 0.000000 0.500000
O O2 0.434229 0.878758 0.607932
O O3 0.284624 0.888900 0.439684
O O4 0.129976 0.124534 0.923544
O O5 0.863946 0.484470 0.286766
O O6 0.825164 0.378396 0.422068
O O7 0.641223 0.685157 0.774662
O O8 0.000000 0.500000 0.500000
O O9 0.389957 0.391640 0.687455
O O10 0.224431 0.267257 0.510337
O O11 0.000000 0.500000 0.000000
O O12 0.172466 0.835629 0.727429
O O13 0.391628 0.779684 0.777585
O O14 0.875765 0.837793 0.763795
O O15 0.950823 0.211032 0.596253
O O16 0.321931 0.984467 0.185936
O O17 0.695204 0.240914 0.943797
O O18 0.000000 0.000000 0.500000
#
# Coordination Sequence:
#
# PCOD9038426 Si02
#       8
#     2   2   2   2   2   2   2   2
#     4  12  27  41  72 113 143 184 238 306 347 419
#     4  11  26  44  67 101 139 191 234 293 354 424
#     4  11  28  45  69 106 148 181 244 299 360 423
#     4  11  25  46  73 106 141 195 237 293 361 428
#     4  12  24  47  76 101 147 188 241 290 364 434
#     4  11  22  46  76 101 142 197 229 300 356 429
#     4  10  23  41  69 109 141 178 243 293 353 416
#     4  10  24  44  71 100 142 183 245 281 354 431
#
# _framework density 23.072358999999999
#
# number of rings (size 3 to 8) (size 9 to 14) (size 15 to 20)
#    0.000    1.000    3.750    1.875    7.000    6.000 
#    0.000    1.250    0.000    0.000    0.000    0.000 
#    0.000    0.000    0.000    0.000    0.000    0.000 
#
# Total GULP energy -89243.790987 kJ/mol
# GULP energy per Si atom -5577.736937 kJ/mol
# Density = 2.301985 g / cm^3
# Si number density = 23.072359 Si / 1000 Ang^3
#
#
#
# Elastic Constant Matrix: (Units=GPa)
#
#
# Indices 1 2 3 4 5 6 
#
# 1 93.3923 28.4948 19.7784 -5.5866 -21.3484 -10.7980
# 2 28.4948 127.8048 40.3464 -9.6138 -15.8511 -1.8196
# 3 19.7784 40.3464 80.0841 -14.0298 -32.7918 -6.2402
# 4 -5.5866 -9.6138 -14.0298 40.8371 4.5146 -15.1444
# 5 -21.3484 -15.8511 -32.7918 4.5146 29.2590 2.2189
# 6 -10.7980 -1.8196 -6.2402 -15.1444 2.2189 43.1923
#
#
#
# Elastic Compliance Matrix: (Units=1/GPa)
#
#
# Indices 1 2 3 4 5 6 
#
# 1 0.014185 -0.002508 0.003628 0.002844 0.012290 0.004330
# 2 -0.002508 0.009764 -0.005386 0.000073 -0.002524 -0.000838
# 3 0.003628 -0.005386 0.028391 0.007913 0.029871 0.006022
# 4 0.002844 0.000073 0.007913 0.031769 0.005116 0.012734
# 5 0.012290 -0.002524 0.029871 0.005116 0.074066 0.005271
# 6 0.004330 -0.000838 0.006022 0.012734 0.005271 0.029264
#
#
# Mechanical properties :
#
#
# Convention : Reuss Voigt Hill
#
# Bulk Modulus (GPa) = 22.82652 53.16893 37.99772
# Shear Modulus (GPa) = 23.74481 36.83510 30.28996
#
# Velocity S-wave (km/s) = 3.21151 3.99996 3.62722
# Velocity P-wave (km/s) = 4.86484 6.66539 5.83498
#
# Compressibility (1/GPa) = 0.04380870
#
# Stress axis : x y z
#
# Youngs Moduli (GPa) = 70.49932 102.41255 35.22269
#
# Poissons Ratio (x) = 0.25686 -0.12781
# Poissons Ratio (y) = 0.17682 0.18971
# Poissons Ratio (z) = -0.25581 0.55158
#
# Static dielectric constant tensor:
#      x y z
#    x 2.074650 0.052730 0.185860 
#    y 0.052730 1.868910 0.127690 
#    z 0.185860 0.127690 2.110200 
# 
# From -- ./inp_files/208895.got.cif
#   From: 2010.05.17/outbox.cif.g08.bks.cpg/sg2_105_cif.got.tgz:208895.got - 2010.06.03 11:33:40.
