data_PCOD9038457
_publ_section_title
;
Structure prediction by ZEFSAII (Michael W. Deem and Ramdas Pophale) SiO2 
 PCOD9038457
Probable space group: P -1
;
_chemical_formula_sum "Si O2"
_cell_formula_units_Z 14
_cell_length_a 4.783382
_cell_length_b 9.343903
_cell_length_c 16.685327
_cell_angle_alpha 115.853838
_cell_angle_beta 85.039922
_cell_angle_gamma 58.588978
_cell_volume 522.796587
_symmetry_space_group_name_H-M "P -1"
_symmetry_group_IT_number 2
_symmetry_cell_setting 'triclinic'
loop_
_space_group_symop_operation_xyz
x,y,z
-x,-y,-z
loop_
_atom_site_type_symbol
_atom_site_label
_atom_site_fract_x
_atom_site_fract_y
_atom_site_fract_z
Si Si1 0.806042 0.702440 0.293093
Si Si2 0.693211 0.593922 0.097920
Si Si3 0.598820 0.405902 0.640787
Si Si4 0.387505 0.992606 0.136509
Si Si5 0.478556 0.212596 0.327026
Si Si6 0.954102 0.859292 0.586311
Si Si7 0.014546 0.805444 0.948582
O O1 0.826892 0.628498 0.185039
O O2 0.740955 0.581360 0.327283
O O3 0.152833 0.674280 0.305949
O O4 0.440484 0.931399 0.366193
O O5 0.365605 0.820905 0.130498
O O6 0.665237 0.417102 0.079505
O O7 0.000000 0.500000 0.000000
O O8 0.532998 0.608752 0.665870
O O9 0.827835 0.244201 0.525041
O O10 0.505943 0.069043 0.222488
O O11 0.062661 0.186766 0.142234
O O12 0.687679 0.873363 0.031023
O O13 0.130221 0.279257 0.402117
O O14 0.815027 0.110383 0.353713
O O15 0.000000 0.000000 0.000000
#
# Coordination Sequence:
#
# PCOD9038457 Si02
#       7
#     2   2   2   2   2   2   2
#     4  12  25  46  72 104 144 190 241 294 370 428
#     4  10  23  47  68 101 143 185 239 295 362 431
#     4  12  26  45  73 105 145 189 243 302 357 436
#     4  10  23  43  63  99 136 186 231 295 354 432
#     4  12  25  44  74 102 148 186 244 293 371 427
#     4  12  25  46  71 107 144 190 240 299 364 433
#     4  10  23  41  69  97 135 178 241 290 360 419
#
# _framework density 26.779057999999999
#
# number of rings (size 3 to 8) (size 9 to 14) (size 15 to 20)
#    0.000    0.857    1.429    5.143    4.000    0.571 
#    2.571    0.000    0.000    0.000    0.000    0.000 
#    0.000    0.000    0.000    0.000    0.000    0.000 
#
# Total GULP energy -78448.814480 kJ/mol
# GULP energy per Si atom -5603.486749 kJ/mol
# Density = 2.671811 g / cm^3
# Si number density = 26.779058 Si / 1000 Ang^3
#
#
#
# Elastic Constant Matrix: (Units=GPa)
#
#
# Indices 1 2 3 4 5 6 
#
# 1 90.0512 14.6084 5.0989 -5.9931 0.3418 11.6310
# 2 14.6084 190.0017 24.8211 5.0568 10.8422 39.5428
# 3 5.0989 24.8211 126.5289 1.5031 -15.3022 5.7670
# 4 -5.9931 5.0568 1.5031 38.0373 5.6515 -0.6045
# 5 0.3418 10.8422 -15.3022 5.6515 39.1454 -0.4878
# 6 11.6310 39.5428 5.7670 -0.6045 -0.4878 25.6376
#
#
#
# Elastic Compliance Matrix: (Units=1/GPa)
#
#
# Indices 1 2 3 4 5 6 
#
# 1 0.011951 0.000332 -0.000387 0.001864 -0.000689 -0.005815
# 2 0.000332 0.008225 -0.001391 -0.000760 -0.002872 -0.012596
# 3 -0.000387 -0.001391 0.008652 -0.000789 0.003890 0.000430
# 4 0.001864 -0.000760 -0.000789 0.027334 -0.004047 0.001071
# 5 -0.000689 -0.002872 0.003890 -0.004047 0.028506 0.004314
# 6 -0.005815 -0.012596 0.000430 0.001071 0.004314 0.061082
#
#
# Mechanical properties :
#
#
# Convention : Reuss Voigt Hill
#
# Bulk Modulus (GPa) = 38.55820 55.07098 46.81459
# Shear Modulus (GPa) = 31.78894 44.70095 38.24494
#
# Velocity S-wave (km/s) = 3.44914 4.09008 3.78321
# Velocity P-wave (km/s) = 5.50382 6.55092 6.05007
#
# Compressibility (1/GPa) = 0.02593482
#
# Stress axis : x y z
#
# Youngs Moduli (GPa) = 83.67716 121.58206 115.57978
#
# Poissons Ratio (x) = -0.04033 0.04474
# Poissons Ratio (y) = -0.02776 0.16078
# Poissons Ratio (z) = 0.03239 0.16913
#
# Static dielectric constant tensor:
#      x y z
#    x 2.051640 0.009990 0.036300 
#    y 0.009990 2.235060 -0.009980 
#    z 0.036300 -0.009980 2.043100 
# 
# From -- ./inp_files/480747.got.cif
#   From: 2010.05.17/outbox.cif.g08.bks.cpg/sg2_241_cif.got.tgz:480747.got - 2010.06.03 11:33:40.
