data_PCOD9038696
_publ_section_title
;
Structure prediction by ZEFSAII (Michael W. Deem and Ramdas Pophale) SiO2 
 PCOD9038696
Probable space group: P -1
;
_chemical_formula_sum "Si O2"
_cell_formula_units_Z 14
_cell_length_a 12.090162
_cell_length_b 8.632324
_cell_length_c 8.668893
_cell_angle_alpha 65.272953
_cell_angle_beta 129.464367
_cell_angle_gamma 115.336399
_cell_volume 617.258119
_symmetry_space_group_name_H-M "P -1"
_symmetry_group_IT_number 2
_symmetry_cell_setting 'triclinic'
loop_
_space_group_symop_operation_xyz
x,y,z
-x,-y,-z
loop_
_atom_site_type_symbol
_atom_site_label
_atom_site_fract_x
_atom_site_fract_y
_atom_site_fract_z
Si Si1 0.926989 0.943072 0.293910
Si Si2 0.077009 0.519612 0.822647
Si Si3 0.578772 0.857180 0.052318
Si Si4 0.875809 0.293539 0.511048
Si Si5 0.576206 0.168927 0.398686
Si Si6 0.394573 0.452600 0.573006
Si Si7 0.098047 0.285159 0.200766
O O1 0.755008 0.929886 0.159213
O O2 0.974675 0.764990 0.372379
O O3 0.000000 0.000000 0.500000
O O4 0.021059 0.082451 0.200564
O O5 0.169568 0.620276 0.721418
O O6 0.927061 0.421802 0.645410
O O7 0.033351 0.646780 0.858182
O O8 0.138108 0.379991 0.033460
O O9 0.555400 0.681146 0.208030
O O10 0.515569 0.820783 0.840491
O O11 0.500000 0.000000 0.000000
O O12 0.737092 0.146234 0.499161
O O13 0.603350 0.358305 0.427607
O O14 0.500000 0.000000 0.500000
O O15 0.500000 0.500000 0.500000
O O16 0.238298 0.342422 0.412200
#
# Coordination Sequence:
#
# PCOD9038696 Si02
#       7
#     2   2   2   2   2   2   2
#     4  12  24  45  73 106 141 183 240 297 357 430
#     4  10  23  41  74 102 139 184 232 303 355 429
#     4  12  28  49  76 107 148 200 243 305 372 438
#     4  11  24  46  72 105 143 186 243 299 364 428
#     4  12  29  49  72 107 151 194 248 304 373 445
#     4  12  27  48  73 105 150 197 247 302 372 444
#     4  11  24  44  72 108 142 182 244 293 362 430
#
# _framework density 22.680947
#
# number of rings (size 3 to 8) (size 9 to 14) (size 15 to 20)
#    0.000    0.571    4.286    2.143    8.000    2.857 
#    0.000    0.000    0.000    0.000    0.000    0.000 
#    0.000    0.000    0.000    0.000    0.000    0.000 
#
# Total GULP energy -78246.432982 kJ/mol
# GULP energy per Si atom -5589.030927 kJ/mol
# Density = 2.262932 g / cm^3
# Si number density = 22.680947 Si / 1000 Ang^3
#
#
#
# Elastic Constant Matrix: (Units=GPa)
#
#
# Indices 1 2 3 4 5 6 
#
# 1 102.5846 47.7549 56.9171 2.5707 11.2799 16.4738
# 2 47.7549 110.5061 57.0457 -15.0710 1.7331 14.9339
# 3 56.9171 57.0457 126.2165 -19.3109 -15.3834 9.1182
# 4 2.5707 -15.0710 -19.3109 40.5616 7.0890 -2.7651
# 5 11.2799 1.7331 -15.3834 7.0890 40.9019 0.6551
# 6 16.4738 14.9339 9.1182 -2.7651 0.6551 40.7316
#
#
#
# Elastic Compliance Matrix: (Units=1/GPa)
#
#
# Indices 1 2 3 4 5 6 
#
# 1 0.016932 -0.003605 -0.007246 -0.005044 -0.006301 -0.004145
# 2 -0.003605 0.013465 -0.003959 0.003473 -0.001630 -0.002331
# 3 -0.007246 -0.003959 0.014434 0.004774 0.006745 0.001367
# 4 -0.005044 0.003473 0.004774 0.029005 -0.002015 0.001699
# 5 -0.006301 -0.001630 0.006745 -0.002015 0.029125 0.001031
# 6 -0.004145 -0.002331 0.001367 0.001699 0.001031 0.026875
#
#
# Mechanical properties :
#
#
# Convention : Reuss Voigt Hill
#
# Bulk Modulus (GPa) = 65.74708 73.63808 69.69258
# Shear Modulus (GPa) = 30.39043 36.27833 33.33438
#
# Velocity S-wave (km/s) = 3.66445 4.00372 3.83784
# Velocity P-wave (km/s) = 6.85237 7.34238 7.10160
#
# Compressibility (1/GPa) = 0.01520980
#
# Stress axis : x y z
#
# Youngs Moduli (GPa) = 59.06116 74.26608 69.28251
#
# Poissons Ratio (x) = 0.26775 0.50203
# Poissons Ratio (y) = 0.21293 0.27429
# Poissons Ratio (z) = 0.42796 0.29402
#
# Static dielectric constant tensor:
#      x y z
#    x 1.848210 -0.010030 0.000950 
#    y -0.010030 1.928950 -0.058240 
#    z 0.000950 -0.058240 1.847550 
# 
# From -- ./inp_files/242786.got.cif
#   From: 2010.05.17/outbox.cif.g08.bks.cpg/sg2_122_cif.got.tgz:242786.got - 2010.06.03 11:33:40.
