data_PCOD9038501
_publ_section_title
;
Structure prediction by ZEFSAII (Michael W. Deem and Ramdas Pophale) SiO2 
 PCOD9038501
Probable space group: P -1
;
_chemical_formula_sum "Si O2"
_cell_formula_units_Z 14
_cell_length_a 12.101330
_cell_length_b 9.131033
_cell_length_c 18.790697
_cell_angle_alpha 48.426826
_cell_angle_beta 152.185130
_cell_angle_gamma 139.154034
_cell_volume 633.550923
_symmetry_space_group_name_H-M "P -1"
_symmetry_group_IT_number 2
_symmetry_cell_setting 'triclinic'
loop_
_space_group_symop_operation_xyz
x,y,z
-x,-y,-z
loop_
_atom_site_type_symbol
_atom_site_label
_atom_site_fract_x
_atom_site_fract_y
_atom_site_fract_z
Si Si1 0.347977 0.337979 0.604697
Si Si2 0.775284 0.011028 0.177867
Si Si3 0.986547 0.268446 0.541234
Si Si4 0.230045 0.768730 0.143050
Si Si5 0.169878 0.214043 0.203832
Si Si6 0.361901 0.932736 0.312060
Si Si7 0.150873 0.439180 0.326595
O O1 0.061164 0.269184 0.500105
O O2 0.484375 0.181112 0.744130
O O3 0.557319 0.569870 0.686282
O O4 0.336115 0.368290 0.502927
O O5 0.983404 0.101039 0.201586
O O6 0.894237 0.195518 0.248760
O O7 0.787383 0.786496 0.278497
O O8 0.500000 0.000000 0.000000
O O9 0.000000 0.500000 0.500000
O O10 0.688790 0.064883 0.455678
O O11 0.148582 0.540243 0.214205
O O12 0.277139 0.939501 0.179163
O O13 0.007822 0.735745 0.970278
O O14 0.254993 0.049948 0.266657
O O15 0.218315 0.668050 0.333664
#
# Coordination Sequence:
#
# PCOD9038501 Si02
#       7
#     2   2   2   2   2   2   2
#     4  12  23  42  73  99 139 187 234 277 352 414
#     4  12  28  47  72 105 141 182 240 293 348 419
#     4  12  27  42  68 109 145 177 233 298 339 411
#     4  10  23  41  70 103 132 182 240 283 339 419
#     4  12  23  43  75 100 139 191 228 285 359 414
#     4  10  24  44  71 100 143 178 236 283 348 410
#     4  10  25  45  70 100 136 183 234 288 337 423
#
# _framework density 22.097669
#
# number of rings (size 3 to 8) (size 9 to 14) (size 15 to 20)
#    0.857    0.000    2.857    3.857    4.000    4.571 
#    0.000    0.714    0.000    0.000    0.000    0.000 
#    0.000    0.000    0.000    0.000    0.000    0.000 
#
# Total GULP energy -77983.235801 kJ/mol
# GULP energy per Si atom -5570.231129 kJ/mol
# Density = 2.204737 g / cm^3
# Si number density = 22.097669 Si / 1000 Ang^3
#
#
#
# Elastic Constant Matrix: (Units=GPa)
#
#
# Indices 1 2 3 4 5 6 
#
# 1 102.5246 40.4529 14.1844 0.5610 24.1205 -4.5427
# 2 40.4529 120.6586 53.8427 2.0523 11.8225 -20.8920
# 3 14.1844 53.8427 138.8846 -5.0095 -6.4202 -0.1305
# 4 0.5610 2.0523 -5.0095 28.6265 -4.3700 -8.6915
# 5 24.1205 11.8225 -6.4202 -4.3700 30.6120 -6.3270
# 6 -4.5427 -20.8920 -0.1305 -8.6915 -6.3270 34.6735
#
#
#
# Elastic Compliance Matrix: (Units=1/GPa)
#
#
# Indices 1 2 3 4 5 6 
#
# 1 0.013654 -0.003830 -0.000486 -0.002594 -0.010385 -0.003066
# 2 -0.003830 0.013060 -0.004726 0.000249 -0.001507 0.007137
# 3 -0.000486 -0.004726 0.009349 0.002137 0.004147 -0.001584
# 4 -0.002594 0.000249 0.002137 0.040591 0.010658 0.011938
# 5 -0.010385 -0.001507 0.004147 0.010658 0.045631 0.008745
# 6 -0.003066 0.007137 -0.001584 0.011938 0.008745 0.037321
#
#
# Mechanical properties :
#
#
# Convention : Reuss Voigt Hill
#
# Bulk Modulus (GPa) = 55.62041 64.33642 59.97841
# Shear Modulus (GPa) = 27.22086 35.68826 31.45456
#
# Velocity S-wave (km/s) = 3.51357 4.02310 3.77693
# Velocity P-wave (km/s) = 6.45640 7.12448 6.79865
#
# Compressibility (1/GPa) = 0.01797901
#
# Stress axis : x y z
#
# Youngs Moduli (GPa) = 73.23957 76.57030 106.96007
#
# Poissons Ratio (x) = 0.29325 0.05201
# Poissons Ratio (y) = 0.28050 0.50548
# Poissons Ratio (z) = 0.03561 0.36186
#
# Static dielectric constant tensor:
#      x y z
#    x 1.898240 0.069720 0.006160 
#    y 0.069720 1.842830 -0.002470 
#    z 0.006160 -0.002470 1.834180 
# 
# From -- ./inp_files/566657.got.cif
#   From: 2010.05.17/outbox.cif.g08.bks.cpg/sg2_284_cif.got.tgz:566657.got - 2010.06.03 11:33:40.
