data_PCOD9038592
_publ_section_title
;
Structure prediction by ZEFSAII (Michael W. Deem and Ramdas Pophale) SiO2 
 PCOD9038592
Probable space group: P -1
;
_chemical_formula_sum "Si O2"
_cell_formula_units_Z 14
_cell_length_a 11.719626
_cell_length_b 10.963798
_cell_length_c 13.745446
_cell_angle_alpha 43.763403
_cell_angle_beta 55.518855
_cell_angle_gamma 27.917883
_cell_volume 557.652652
_symmetry_space_group_name_H-M "P -1"
_symmetry_group_IT_number 2
_symmetry_cell_setting 'triclinic'
loop_
_space_group_symop_operation_xyz
x,y,z
-x,-y,-z
loop_
_atom_site_type_symbol
_atom_site_label
_atom_site_fract_x
_atom_site_fract_y
_atom_site_fract_z
Si Si1 0.919703 0.481201 0.453250
Si Si2 0.472744 0.805452 0.233336
Si Si3 0.789330 0.719105 0.732198
Si Si4 0.572268 0.156438 0.173526
Si Si5 0.255842 0.716909 0.300877
Si Si6 0.167662 0.311604 0.932297
Si Si7 0.319781 0.644068 0.854507
O O1 0.779279 0.450289 0.560351
O O2 0.000000 0.500000 0.500000
O O3 0.140665 0.215862 0.422148
O O4 0.755404 0.798071 0.293427
O O5 0.368610 0.718551 0.332109
O O6 0.753114 0.583004 0.212599
O O7 0.362450 0.023637 0.254825
O O8 0.382883 0.966927 0.075088
O O9 0.664120 0.689660 0.751520
O O10 0.008200 0.396288 0.875851
O O11 0.692652 0.188621 0.154416
O O12 0.454958 0.342059 0.021326
O O13 0.472647 0.509413 0.234368
O O14 0.965633 0.082640 0.203185
O O15 0.000000 0.500000 0.000000
#
# Coordination Sequence:
#
# PCOD9038592 Si02
#       7
#     2   2   2   2   2   2   2
#     4  12  27  49  75 106 155 209 254 313 389 457
#     4  10  23  41  71 111 150 198 249 311 384 451
#     4  11  24  42  73 105 151 198 255 306 386 458
#     4  11  26  46  77 108 148 197 264 318 385 449
#     4  12  28  48  77 114 157 198 254 316 387 457
#     4   9  20  40  68 106 144 194 244 305 375 446
#     4  11  28  48  77 113 149 199 259 326 377 453
#
# _framework density 25.105233999999999
#
# number of rings (size 3 to 8) (size 9 to 14) (size 15 to 20)
#    0.000    1.143    1.429    2.571   16.000    2.857 
#    0.000    2.857    0.000    0.000    0.000    0.000 
#    0.000    0.000    0.000    0.000    0.000    0.000 
#
# Total GULP energy -78035.192265 kJ/mol
# GULP energy per Si atom -5573.942305 kJ/mol
# Density = 2.504809 g / cm^3
# Si number density = 25.105234 Si / 1000 Ang^3
#
#
#
# Elastic Constant Matrix: (Units=GPa)
#
#
# Indices 1 2 3 4 5 6 
#
# 1 135.1941 25.2256 37.6084 7.8506 -11.1173 -3.1652
# 2 25.2256 90.8571 64.1020 20.8284 7.1761 -8.2461
# 3 37.6084 64.1020 119.9323 13.8506 -22.8583 10.5122
# 4 7.8506 20.8284 13.8506 44.9855 -2.9041 -6.2135
# 5 -11.1173 7.1761 -22.8583 -2.9041 43.0237 4.0393
# 6 -3.1652 -8.2461 10.5122 -6.2135 4.0393 30.4017
#
#
#
# Elastic Compliance Matrix: (Units=1/GPa)
#
#
# Indices 1 2 3 4 5 6 
#
# 1 0.008236 -0.000759 -0.002057 -0.000223 0.001036 0.001180
# 2 -0.000759 0.028780 -0.018977 -0.006338 -0.016938 0.015244
# 3 -0.002057 -0.018977 0.023574 0.000814 0.016674 -0.015562
# 4 -0.000223 -0.006338 0.000814 0.025527 0.002891 0.002809
# 5 0.001036 -0.016938 0.016674 0.002891 0.036756 -0.014545
# 6 0.001180 0.015244 -0.015562 0.002809 -0.014545 0.045038
#
#
# Mechanical properties :
#
#
# Convention : Reuss Voigt Hill
#
# Bulk Modulus (GPa) = 58.80965 66.65062 62.73014
# Shear Modulus (GPa) = 23.02393 38.28535 30.65464
#
# Velocity S-wave (km/s) = 3.03165 3.90935 3.49814
# Velocity P-wave (km/s) = 5.97751 6.85445 6.43095
#
# Compressibility (1/GPa) = 0.01700401
#
# Stress axis : x y z
#
# Youngs Moduli (GPa) = 121.41148 34.74644 42.41939
#
# Poissons Ratio (x) = 0.02637 0.08728
# Poissons Ratio (y) = 0.09214 0.80499
# Poissons Ratio (z) = 0.24980 0.65938
#
# Static dielectric constant tensor:
#      x y z
#    x 2.238440 -0.326460 -0.088480 
#    y -0.326460 2.435550 0.036580 
#    z -0.088480 0.036580 2.061940 
# 
# From -- ./inp_files/518664.got.cif
#   From: 2010.05.17/outbox.cif.g08.bks.cpg/sg2_260_cif.got.tgz:518664.got - 2010.06.03 11:33:40.
