data_PCOD9038616
_publ_section_title
;
Structure prediction by ZEFSAII (Michael W. Deem and Ramdas Pophale) SiO2 
 PCOD9038616
Probable space group: P -1
;
_chemical_formula_sum "Si O2"
_cell_formula_units_Z 16
_cell_length_a 7.575875
_cell_length_b 18.380347
_cell_length_c 11.173038
_cell_angle_alpha 150.808895
_cell_angle_beta 56.632756
_cell_angle_gamma 126.877350
_cell_volume 605.626115
_symmetry_space_group_name_H-M "P -1"
_symmetry_group_IT_number 2
_symmetry_cell_setting 'triclinic'
loop_
_space_group_symop_operation_xyz
x,y,z
-x,-y,-z
loop_
_atom_site_type_symbol
_atom_site_label
_atom_site_fract_x
_atom_site_fract_y
_atom_site_fract_z
Si Si1 0.342507 0.117488 0.848033
Si Si2 0.915101 0.147462 0.097318
Si Si3 0.407428 0.640588 0.750300
Si Si4 0.909892 0.331461 0.732263
Si Si5 0.223720 0.934073 0.399652
Si Si6 0.337078 0.644175 0.367088
Si Si7 0.317843 0.207541 0.359371
Si Si8 0.045083 0.307181 0.027005
O O1 0.528803 0.036722 0.704283
O O2 0.262144 0.075331 0.682865
O O3 0.488275 0.291625 0.064995
O O4 0.133979 0.099116 0.986033
O O5 0.809755 0.254142 0.369562
O O6 0.007004 0.254265 0.101409
O O7 0.755295 0.979963 0.876942
O O8 0.500000 0.500000 0.500000
O O9 0.505501 0.744129 0.745138
O O10 0.149652 0.613193 0.813378
O O11 0.110104 0.276675 0.518388
O O12 0.821593 0.202001 0.679656
O O13 0.712746 0.333136 0.719230
O O14 0.000000 0.500000 0.000000
O O15 0.034530 0.850435 0.253736
O O16 0.571730 0.719080 0.450791
O O17 0.258962 0.455719 0.144627
#
# Coordination Sequence:
#
# PCOD9038616 Si02
#       8
#     2   2   2   2   2   2   2   2
#     4  10  23  41  71  99 135 191 231 290 365 409
#     4  12  25  45  71 110 144 184 242 306 357 434
#     4  11  24  43  72 105 140 183 244 301 355 427
#     4  12  26  49  71 102 146 185 247 290 358 438
#     4  10  23  46  66 102 139 189 241 291 349 437
#     4  12  27  46  77 105 144 195 235 306 367 421
#     4  12  28  46  73 109 146 189 241 301 369 419
#     4  11  24  45  71 101 146 183 245 295 354 434
#
# _framework density 26.418939000000002
#
# number of rings (size 3 to 8) (size 9 to 14) (size 15 to 20)
#    0.000    0.750    3.750    3.000    5.250    4.000 
#    2.250    0.000    0.000    0.000    0.000    0.000 
#    0.000    0.000    0.000    0.000    0.000    0.000 
#
# Total GULP energy -89412.523685 kJ/mol
# GULP energy per Si atom -5588.282730 kJ/mol
# Density = 2.635881 g / cm^3
# Si number density = 26.418939 Si / 1000 Ang^3
#
#
#
# Elastic Constant Matrix: (Units=GPa)
#
#
# Indices 1 2 3 4 5 6 
#
# 1 91.9216 3.2359 12.5435 8.2581 32.9441 1.2301
# 2 3.2359 45.3337 -27.4401 0.7825 7.6422 -7.8784
# 3 12.5435 -27.4401 134.8246 0.9571 3.8385 7.4747
# 4 8.2581 0.7825 0.9571 33.2156 10.1612 1.6058
# 5 32.9441 7.6422 3.8385 10.1612 46.3311 -16.2526
# 6 1.2301 -7.8784 7.4747 1.6058 -16.2526 39.0529
#
#
#
# Elastic Compliance Matrix: (Units=1/GPa)
#
#
# Indices 1 2 3 4 5 6 
#
# 1 0.015817 -0.000453 -0.000857 0.000461 -0.013300 -0.005979
# 2 -0.000453 0.026422 0.005362 0.000285 -0.003551 0.002829
# 3 -0.000857 0.005362 0.008694 0.000349 -0.001489 -0.001190
# 4 0.000461 0.000285 0.000349 0.033158 -0.009558 -0.005365
# 5 -0.013300 -0.003551 -0.001489 -0.009558 0.039788 0.016939
# 6 -0.005979 0.002829 -0.001190 -0.005365 0.016939 0.033863
#
#
# Mechanical properties :
#
#
# Convention : Reuss Voigt Hill
#
# Bulk Modulus (GPa) = 16.93856 27.63984 22.28920
# Shear Modulus (GPa) = 29.53060 42.63596 36.08328
#
# Velocity S-wave (km/s) = 3.34695 4.02162 3.69970
# Velocity P-wave (km/s) = 4.62186 5.66122 5.16774
#
# Compressibility (1/GPa) = 0.05903691
#
# Stress axis : x y z
#
# Youngs Moduli (GPa) = 63.22393 37.84778 115.02347
#
# Poissons Ratio (x) = 0.01713 0.09855
# Poissons Ratio (y) = 0.02862 -0.61673
# Poissons Ratio (z) = 0.05417 -0.20293
#
# Static dielectric constant tensor:
#      x y z
#    x 2.372330 -0.181130 0.038240 
#    y -0.181130 2.341850 -0.051900 
#    z 0.038240 -0.051900 2.074140 
# 
# From -- ./inp_files/405062.got.cif
#   From: 2010.05.17/outbox.cif.g08.bks.cpg/sg2_203_cif.got.tgz:405062.got - 2010.06.03 11:33:40.
