data_PCOD9038147
_publ_section_title
;
Structure prediction by ZEFSAII (Michael W. Deem and Ramdas Pophale) SiO2 
 PCOD9038147
Probable space group: P -1
;
_chemical_formula_sum "Si O2"
_cell_formula_units_Z 14
_cell_length_a 9.581999
_cell_length_b 8.662859
_cell_length_c 15.379156
_cell_angle_alpha 34.444284
_cell_angle_beta 62.682633
_cell_angle_gamma 61.301022
_cell_volume 628.231785
_symmetry_space_group_name_H-M "P -1"
_symmetry_group_IT_number 2
_symmetry_cell_setting 'triclinic'
loop_
_space_group_symop_operation_xyz
x,y,z
-x,-y,-z
loop_
_atom_site_type_symbol
_atom_site_label
_atom_site_fract_x
_atom_site_fract_y
_atom_site_fract_z
Si Si1 0.955068 0.379018 0.875361
Si Si2 0.573763 0.237399 0.657636
Si Si3 0.369299 0.785452 0.887738
Si Si4 0.840333 0.136421 0.865505
Si Si5 0.552328 0.526052 0.709353
Si Si6 0.919311 0.965583 0.717101
Si Si7 0.277288 0.974442 0.628616
O O1 0.941364 0.344614 0.789582
O O2 0.945168 0.658730 0.806017
O O3 0.797767 0.265746 0.003433
O O4 0.111478 0.155296 0.962839
O O5 0.500000 0.500000 0.500000
O O6 0.561131 0.342168 0.709082
O O7 0.467874 0.007639 0.789452
O O8 0.762491 0.128336 0.636129
O O9 0.317374 0.911862 0.747552
O O10 0.500000 0.500000 0.000000
O O11 0.658474 0.312741 0.844712
O O12 0.879679 0.037476 0.799003
O O13 0.370617 0.677630 0.704087
O O14 0.645062 0.777325 0.546664
O O15 0.092122 0.043322 0.624975
#
# Coordination Sequence:
#
# PCOD9038147 Si02
#       7
#     2   2   2   2   2   2   2
#     4  11  23  42  67 100 141 175 230 281 343 407
#     4  11  24  44  69 101 136 179 235 279 339 413
#     4  12  23  41  69  98 134 182 222 277 344 402
#     4  10  23  41  66  98 135 176 227 287 330 407
#     4  10  24  44  66  98 138 176 232 283 339 410
#     4  11  24  44  69  98 137 182 224 284 345 400
#     4  11  24  43  69  95 138 181 226 279 351 402
#
# _framework density 22.284768
#
# number of rings (size 3 to 8) (size 9 to 14) (size 15 to 20)
#    0.000    1.143    4.286    1.286    0.000    5.714 
#    0.000    4.286    0.000    0.000    0.000    0.000 
#    0.000    0.000    0.000    0.000    0.000    0.000 
#
# Total GULP energy -77938.422638 kJ/mol
# GULP energy per Si atom -5567.030188 kJ/mol
# Density = 2.223405 g / cm^3
# Si number density = 22.284768 Si / 1000 Ang^3
#
#
#
# Elastic Constant Matrix: (Units=GPa)
#
#
# Indices 1 2 3 4 5 6 
#
# 1 121.4410 21.9487 82.2624 -5.7695 -16.8925 -4.9108
# 2 21.9487 87.1464 30.2152 -27.7635 -8.0183 2.5605
# 3 82.2624 30.2152 156.8334 -3.3443 -45.6239 31.9293
# 4 -5.7695 -27.7635 -3.3443 32.3383 -12.3736 7.6995
# 5 -16.8925 -8.0183 -45.6239 -12.3736 72.6763 -21.4266
# 6 -4.9108 2.5605 31.9293 7.6995 -21.4266 47.5398
#
#
#
# Elastic Compliance Matrix: (Units=1/GPa)
#
#
# Indices 1 2 3 4 5 6 
#
# 1 0.015048 -0.001254 -0.009443 -0.001447 -0.000459 0.007992
# 2 -0.001254 0.017827 -0.001145 0.016599 0.003339 -0.001504
# 3 -0.009443 -0.001145 0.014884 0.002902 0.004799 -0.009217
# 4 -0.001447 0.016599 0.002902 0.050623 0.009960 -0.006703
# 5 -0.000459 0.003339 0.004799 0.009960 0.019879 0.003896
# 6 0.007992 -0.001504 -0.009217 -0.006703 0.003896 0.030974
#
#
# Mechanical properties :
#
#
# Convention : Reuss Voigt Hill
#
# Bulk Modulus (GPa) = 41.53538 70.47482 56.00510
# Shear Modulus (GPa) = 27.63283 45.91053 36.77168
#
# Velocity S-wave (km/s) = 3.52517 4.54384 4.06653
# Velocity P-wave (km/s) = 5.93700 7.69558 6.87277
#
# Compressibility (1/GPa) = 0.02407586
#
# Stress axis : x y z
#
# Youngs Moduli (GPa) = 66.45379 56.09314 67.18458
#
# Poissons Ratio (x) = 0.07034 0.63440
# Poissons Ratio (y) = 0.08333 0.07695
# Poissons Ratio (z) = 0.62750 0.06425
#
# Static dielectric constant tensor:
#      x y z
#    x 1.763930 0.067270 0.114460 
#    y 0.067270 1.937710 -0.014360 
#    z 0.114460 -0.014360 1.668950 
# 
# From -- ./inp_files/554837.got.cif
#   From: 2010.05.17/outbox.cif.g08.bks.cpg/sg2_278_cif.got.tgz:554837.got - 2010.06.03 11:33:40.
