data_PCOD9038786
_publ_section_title
;
Structure prediction by ZEFSAII (Michael W. Deem and Ramdas Pophale) SiO2 
 PCOD9038786
Probable space group: P -1
;
_chemical_formula_sum "Si O2"
_cell_formula_units_Z 12
_cell_length_a 9.419301
_cell_length_b 9.389867
_cell_length_c 9.229200
_cell_angle_alpha 118.769969
_cell_angle_beta 97.911467
_cell_angle_gamma 106.772462
_cell_volume 646.827380
_symmetry_space_group_name_H-M "P -1"
_symmetry_group_IT_number 2
_symmetry_cell_setting 'triclinic'
loop_
_space_group_symop_operation_xyz
x,y,z
-x,-y,-z
loop_
_atom_site_type_symbol
_atom_site_label
_atom_site_fract_x
_atom_site_fract_y
_atom_site_fract_z
Si Si1 0.343782 0.865052 0.489863
Si Si2 0.142709 0.511052 0.683836
Si Si3 0.994912 0.165309 0.670965
Si Si4 0.202314 0.483667 0.362196
Si Si5 0.334387 0.924455 0.861625
Si Si6 0.129781 0.144046 0.992180
O O1 0.184441 0.854324 0.383878
O O2 0.329745 0.663748 0.400792
O O3 0.341165 0.911768 0.682165
O O4 0.500000 0.000000 0.500000
O O5 0.215839 0.461026 0.525251
O O6 0.239316 0.724375 0.814173
O O7 0.118591 0.355950 0.719715
O O8 0.963374 0.494865 0.645550
O O9 0.047541 0.158943 0.838951
O O10 0.000000 0.000000 0.500000
O O11 0.192012 0.323391 0.181799
O O12 0.255165 0.061155 0.943526
O O13 0.500000 0.000000 0.000000
O O14 0.000000 0.000000 0.000000
#
# Coordination Sequence:
#
# PCOD9038786 Si02
#       6
#     2   2   2   2   2   2
#     4  10  23  42  62  90 129 165 199 251 320 361
#     4   9  19  41  63  86 126 164 202 249 312 363
#     4  11  22  40  66  92 120 162 211 256 298 364
#     4   9  19  38  65  90 120 164 207 250 302 370
#     4  11  24  43  62  91 129 165 197 260 315 359
#     4  12  23  39  66  97 120 157 219 254 298 370
#
# _framework density 18.55209
#
# number of rings (size 3 to 8) (size 9 to 14) (size 15 to 20)
#    0.000    1.667    3.333    2.000    2.333    4.000 
#    3.000    3.333    0.000    0.000    0.000    0.000 
#    0.000    0.000    0.000    0.000    0.000    0.000 
#
# Total GULP energy -66855.865484 kJ/mol
# GULP energy per Si atom -5571.322124 kJ/mol
# Density = 1.850986 g / cm^3
# Si number density = 18.552090 Si / 1000 Ang^3
#
#
#
# Elastic Constant Matrix: (Units=GPa)
#
#
# Indices 1 2 3 4 5 6 
#
# 1 79.8509 64.6555 50.2322 -4.5579 8.2251 2.5965
# 2 64.6555 190.1108 80.2014 -4.6257 -2.8207 16.4858
# 3 50.2322 80.2014 126.4801 13.7181 -12.2201 -13.4352
# 4 -4.5579 -4.6257 13.7181 25.8760 -12.8273 8.1873
# 5 8.2251 -2.8207 -12.2201 -12.8273 30.9873 3.8401
# 6 2.5965 16.4858 -13.4352 8.1873 3.8401 32.6083
#
#
#
# Elastic Compliance Matrix: (Units=1/GPa)
#
#
# Indices 1 2 3 4 5 6 
#
# 1 0.021470 -0.003703 -0.007740 0.005101 -0.006538 -0.003537
# 2 -0.003703 0.011195 -0.007696 0.011979 0.005435 -0.012184
# 3 -0.007740 -0.007696 0.019720 -0.019268 -0.001025 0.017591
# 4 0.005101 0.011979 -0.019268 0.078210 0.029157 -0.037471
# 5 -0.006538 0.005435 -0.001025 0.029157 0.048105 -0.015636
# 6 -0.003537 -0.012184 0.017591 -0.037471 -0.015636 0.055606
#
#
# Mechanical properties :
#
#
# Convention : Reuss Voigt Hill
#
# Bulk Modulus (GPa) = 70.88700 87.40221 79.14461
# Shear Modulus (GPa) = 18.03198 31.31785 24.67491
#
# Velocity S-wave (km/s) = 3.12102 4.11311 3.65092
# Velocity P-wave (km/s) = 7.16103 8.35290 7.77982
#
# Compressibility (1/GPa) = 0.01410696
#
# Stress axis : x y z
#
# Youngs Moduli (GPa) = 46.57662 89.32644 50.71073
#
# Poissons Ratio (x) = 0.33077 0.39248
# Poissons Ratio (y) = 0.17247 0.39029
# Poissons Ratio (z) = 0.36048 0.68749
#
# Static dielectric constant tensor:
#      x y z
#    x 1.615960 0.001350 0.015320 
#    y 0.001350 1.651520 -0.014930 
#    z 0.015320 -0.014930 1.644690 
# 
# From -- ./inp_files/144973.got.cif
#   From: 2010.05.17/outbox.cif.g08.bks.cpg/sg2_73_cif.got.tgz:144973.got - 2010.06.03 11:33:40.
