data_PCOD9038753
_publ_section_title
;
Structure prediction by ZEFSAII (Michael W. Deem and Ramdas Pophale) SiO2 
 PCOD9038753
Probable space group: P -1
;
_chemical_formula_sum "Si O2"
_cell_formula_units_Z 14
_cell_length_a 11.059923
_cell_length_b 22.810117
_cell_length_c 14.326789
_cell_angle_alpha 158.462946
_cell_angle_beta 30.257373
_cell_angle_gamma 148.834974
_cell_volume 641.379534
_symmetry_space_group_name_H-M "P -1"
_symmetry_group_IT_number 2
_symmetry_cell_setting 'triclinic'
loop_
_space_group_symop_operation_xyz
x,y,z
-x,-y,-z
loop_
_atom_site_type_symbol
_atom_site_label
_atom_site_fract_x
_atom_site_fract_y
_atom_site_fract_z
Si Si1 0.742810 0.357257 0.440696
Si Si2 0.606833 0.872795 0.523912
Si Si3 0.890898 0.317280 0.760886
Si Si4 0.218158 0.454385 0.578109
Si Si5 0.875568 0.219614 0.955121
Si Si6 0.311864 0.034420 0.597712
Si Si7 0.652161 0.656196 0.866461
O O1 0.623155 0.245250 0.441489
O O2 0.572399 0.478072 0.706990
O O3 0.000000 0.500000 0.500000
O O4 0.779834 0.253885 0.172291
O O5 0.552283 0.905707 0.501711
O O6 0.842018 0.794152 0.249074
O O7 0.705302 0.048372 0.771792
O O8 0.026275 0.331762 0.592827
O O9 0.897275 0.141627 0.541193
O O10 0.601929 0.307456 0.938919
O O11 0.000000 0.500000 0.000000
O O12 0.500000 0.500000 0.500000
O O13 0.209491 0.370629 0.358847
O O14 0.144960 0.625402 0.864773
O O15 0.500000 0.000000 0.500000
O O16 0.211394 0.185256 0.926689
#
# Coordination Sequence:
#
# PCOD9038753 Si02
#       7
#     2   2   2   2   2   2   2
#     4  11  24  42  67 100 133 175 223 276 338 403
#     4  11  23  46  69  94 140 175 225 281 335 402
#     4  11  21  40  66  93 129 173 220 270 331 396
#     4  11  22  40  66  98 129 173 218 274 336 390
#     4  10  24  43  69 102 129 178 226 275 344 397
#     4  10  24  41  64  97 130 176 222 269 330 394
#     4  10  23  42  60  95 133 167 228 270 330 401
#
# _framework density 21.827949
#
# number of rings (size 3 to 8) (size 9 to 14) (size 15 to 20)
#    0.000    1.429    1.429    3.000    2.000    8.571 
#    5.143    0.000    0.000    0.000    0.000    0.000 
#    0.000    0.000    0.000    0.000    0.000    0.000 
#
# Total GULP energy -78166.283476 kJ/mol
# GULP energy per Si atom -5583.305963 kJ/mol
# Density = 2.177827 g / cm^3
# Si number density = 21.827949 Si / 1000 Ang^3
#
#
#
# Elastic Constant Matrix: (Units=GPa)
#
#
# Indices 1 2 3 4 5 6 
#
# 1 70.9040 16.7901 37.1252 7.2302 15.9906 -21.7802
# 2 16.7901 114.1923 56.7808 13.1848 21.4456 -39.1887
# 3 37.1252 56.7808 145.8831 19.9165 20.0594 -9.0106
# 4 7.2302 13.1848 19.9165 17.7598 3.8021 5.0084
# 5 15.9906 21.4456 20.0594 3.8021 31.9220 -4.2525
# 6 -21.7802 -39.1887 -9.0106 5.0084 -4.2525 42.1340
#
#
#
# Elastic Compliance Matrix: (Units=1/GPa)
#
#
# Indices 1 2 3 4 5 6 
#
# 1 0.025921 0.011103 -0.005587 -0.016564 -0.011856 0.023304
# 2 0.011103 0.024828 -0.006094 -0.021704 -0.011977 0.028900
# 3 -0.005587 -0.006094 0.010819 -0.003634 -0.000250 -0.005836
# 4 -0.016564 -0.021704 -0.003634 0.092517 0.008864 -0.039629
# 5 -0.011856 -0.011977 -0.000250 0.008864 0.042537 -0.014082
# 6 0.023304 0.028900 -0.005836 -0.039629 -0.014082 0.064701
#
#
# Mechanical properties :
#
#
# Convention : Reuss Voigt Hill
#
# Bulk Modulus (GPa) = 16.55312 61.37463 38.96388
# Shear Modulus (GPa) = 17.69186 33.04872 25.37029
#
# Velocity S-wave (km/s) = 2.85004 3.89531 3.41293
# Velocity P-wave (km/s) = 4.29304 6.95771 5.78100
#
# Compressibility (1/GPa) = 0.06041159
#
# Stress axis : x y z
#
# Youngs Moduli (GPa) = 38.57877 40.27699 92.43196
#
# Poissons Ratio (x) = -0.44721 0.51644
# Poissons Ratio (y) = -0.42835 0.56330
# Poissons Ratio (z) = 0.21555 0.24546
#
# Static dielectric constant tensor:
#      x y z
#    x 1.905600 0.014920 -0.039050 
#    y 0.014920 1.811130 0.075750 
#    z -0.039050 0.075750 1.897960 
# 
# From -- ./inp_files/417125.got.cif
#   From: 2010.05.17/outbox.cif.g08.bks.cpg/sg2_209_cif.got.tgz:417125.got - 2010.06.03 11:33:40.
