data_PCOD9038618
_publ_section_title
;
Structure prediction by ZEFSAII (Michael W. Deem and Ramdas Pophale) SiO2 
 PCOD9038618
Probable space group: P -1
;
_chemical_formula_sum "Si O2"
_cell_formula_units_Z 14
_cell_length_a 10.025926
_cell_length_b 5.319400
_cell_length_c 21.393918
_cell_angle_alpha 117.972010
_cell_angle_beta 142.406133
_cell_angle_gamma 59.866956
_cell_volume 596.483378
_symmetry_space_group_name_H-M "P -1"
_symmetry_group_IT_number 2
_symmetry_cell_setting 'triclinic'
loop_
_space_group_symop_operation_xyz
x,y,z
-x,-y,-z
loop_
_atom_site_type_symbol
_atom_site_label
_atom_site_fract_x
_atom_site_fract_y
_atom_site_fract_z
Si Si1 0.767618 0.814813 0.508402
Si Si2 0.403549 0.616756 0.411352
Si Si3 0.481062 0.881012 0.185120
Si Si4 0.368054 0.036207 0.298994
Si Si5 0.771256 0.269769 0.272731
Si Si6 0.046601 0.119369 0.826862
Si Si7 0.737745 0.335401 0.038314
O O1 0.715354 0.054201 0.573738
O O2 0.627206 0.950911 0.410637
O O3 0.624951 0.584986 0.447812
O O4 0.034095 0.706030 0.602046
O O5 0.500000 0.500000 0.500000
O O6 0.266335 0.380273 0.314629
O O7 0.666052 0.583513 0.238432
O O8 0.359307 0.982091 0.216663
O O9 0.594276 0.128240 0.227446
O O10 0.318533 0.801610 0.063372
O O11 0.221296 0.854322 0.262087
O O12 0.859425 0.050388 0.221768
O O13 0.148075 0.913390 0.899096
O O14 0.124901 0.419015 0.893956
O O15 0.500000 0.500000 0.000000
#
# Coordination Sequence:
#
# PCOD9038618 Si02
#       7
#     2   2   2   2   2   2   2
#     4  10  23  41  71  99 144 182 243 282 338 427
#     4   9  19  40  64  96 138 178 227 294 333 399
#     4  12  29  46  70 104 153 178 239 295 361 404
#     4  11  28  44  68 109 145 185 227 300 348 425
#     4  12  25  45  74 106 134 200 233 284 354 426
#     4  12  25  44  82 101 133 188 246 279 361 415
#     4  12  24  48  73 106 136 182 238 305 338 421
#
# _framework density 23.470897000000001
#
# number of rings (size 3 to 8) (size 9 to 14) (size 15 to 20)
#    0.000    0.857    2.857    3.857   12.000    2.286 
#    0.000    0.000    0.000    0.000    0.000    0.000 
#    0.000    0.000    0.000    0.000    0.000    0.000 
#
# Total GULP energy -78261.980879 kJ/mol
# GULP energy per Si atom -5590.141491 kJ/mol
# Density = 2.341748 g / cm^3
# Si number density = 23.470897 Si / 1000 Ang^3
#
#
#
# Elastic Constant Matrix: (Units=GPa)
#
#
# Indices 1 2 3 4 5 6 
#
# 1 87.8321 -6.2593 25.0655 14.8012 -12.8580 12.3815
# 2 -6.2593 61.3727 32.0934 -4.1885 15.0495 32.3830
# 3 25.0655 32.0934 134.7021 -2.0521 0.5553 8.3786
# 4 14.8012 -4.1885 -2.0521 34.0672 6.3074 3.6408
# 5 -12.8580 15.0495 0.5553 6.3074 42.3139 7.9440
# 6 12.3815 32.3830 8.3786 3.6408 7.9440 37.0481
#
#
#
# Elastic Compliance Matrix: (Units=1/GPa)
#
#
# Indices 1 2 3 4 5 6 
#
# 1 0.017193 0.009831 -0.004798 -0.006054 0.005283 -0.013791
# 2 0.009831 0.045931 -0.010140 0.006295 -0.006579 -0.040348
# 3 -0.004798 -0.010140 0.010241 0.000519 0.000434 0.008007
# 4 -0.006054 0.006295 0.000519 0.034887 -0.008301 -0.005245
# 5 0.005283 -0.006579 0.000434 -0.008301 0.029098 -0.001536
# 6 -0.013791 -0.040348 0.008007 -0.005245 -0.001536 0.065902
#
#
# Mechanical properties :
#
#
# Convention : Reuss Voigt Hill
#
# Bulk Modulus (GPa) = 15.83508 42.85624 29.34566
# Shear Modulus (GPa) = 21.32048 38.21966 29.77007
#
# Velocity S-wave (km/s) = 3.01720 4.03970 3.56530
# Velocity P-wave (km/s) = 4.34734 6.32913 5.42942
#
# Compressibility (1/GPa) = 0.06315092
#
# Stress axis : x y z
#
# Youngs Moduli (GPa) = 58.16382 21.77163 97.65118
#
# Poissons Ratio (x) = -0.21403 0.46850
# Poissons Ratio (y) = -0.57179 0.99018
# Poissons Ratio (z) = 0.27905 0.22076
#
# Static dielectric constant tensor:
#      x y z
#    x 1.877120 -0.034200 0.020540 
#    y -0.034200 1.722490 0.037720 
#    z 0.020540 0.037720 1.929860 
# 
# From -- ./inp_files/126303.got.cif
#   From: 2010.05.17/outbox.cif.g08.bks.cpg/sg2_64_cif.got.tgz:126303.got - 2010.06.03 11:33:40.
