data_PCOD9038253
_publ_section_title
;
Structure prediction by ZEFSAII (Michael W. Deem and Ramdas Pophale) SiO2 
 PCOD9038253
Probable space group: P -1
;
_chemical_formula_sum "Si O2"
_cell_formula_units_Z 13
_cell_length_a 15.052864
_cell_length_b 8.547539
_cell_length_c 10.617175
_cell_angle_alpha 101.758795
_cell_angle_beta 51.928617
_cell_angle_gamma 58.643988
_cell_volume 574.182519
_symmetry_space_group_name_H-M "P -1"
_symmetry_group_IT_number 2
_symmetry_cell_setting 'triclinic'
loop_
_space_group_symop_operation_xyz
x,y,z
-x,-y,-z
loop_
_atom_site_type_symbol
_atom_site_label
_atom_site_fract_x
_atom_site_fract_y
_atom_site_fract_z
Si Si1 0.524532 0.358389 0.576549
Si Si2 0.639557 0.248859 0.730639
Si Si3 0.722114 0.658058 0.222548
Si Si4 0.109724 0.232721 0.982098
Si Si5 0.000000 0.000000 0.500000
Si Si6 0.065840 0.203126 0.281378
Si Si7 0.318536 0.115525 0.239768
O O1 0.500000 0.500000 0.500000
O O2 0.565817 0.388570 0.680499
O O3 0.335515 0.456821 0.773828
O O4 0.735009 0.011275 0.302125
O O5 0.870317 0.024775 0.527961
O O6 0.610463 0.092960 0.749042
O O7 0.500000 0.500000 0.000000
O O8 0.833944 0.646680 0.024821
O O9 0.500000 0.000000 0.500000
O O10 0.878852 0.482513 0.174191
O O11 0.148911 0.086291 0.049222
O O12 0.017564 0.101441 0.381972
O O13 0.858039 0.554922 0.506521
O O14 0.221875 0.121474 0.215285
O O15 0.500000 0.000000 0.000000
#
# Coordination Sequence:
#
# PCOD9038253 Si02
#       7
#     2   2   2   2   1   2   2
#     4  11  27  43  67 106 140 182 232 279 352 416
#     4  11  26  45  68  95 137 186 231 285 339 410
#     4   9  22  43  67 100 134 178 221 278 345 417
#     4  10  23  43  70  99 137 176 224 290 345 407
#     4  10  24  46  66  94 138 176 230 276 352 404
#     4  10  23  41  68  98 130 177 226 285 346 411
#     4  10  23  41  67  97 127 178 236 280 339 409
#
# _framework density 22.640885000000001
#
# number of rings (size 3 to 8) (size 9 to 14) (size 15 to 20)
#    0.000    1.846    0.000    0.923   15.077    3.077 
#    0.000    0.000    0.000    0.000    0.000    0.000 
#    0.000    0.000    0.000    0.000    0.000    0.000 
#
# Total GULP energy -72385.796174 kJ/mol
# GULP energy per Si atom -5568.138167 kJ/mol
# Density = 2.258935 g / cm^3
# Si number density = 22.640885 Si / 1000 Ang^3
#
#
#
# Elastic Constant Matrix: (Units=GPa)
#
#
# Indices 1 2 3 4 5 6 
#
# 1 86.8204 43.8857 42.4873 -20.9937 -16.5249 0.3876
# 2 43.8857 137.1435 38.1455 -43.3987 -7.4825 -8.7721
# 3 42.4873 38.1455 64.7848 -6.7947 1.5655 -1.5327
# 4 -20.9937 -43.3987 -6.7947 39.1539 -4.1928 -3.0923
# 5 -16.5249 -7.4825 1.5655 -4.1928 39.7325 -11.4136
# 6 0.3876 -8.7721 -1.5327 -3.0923 -11.4136 36.7902
#
#
#
# Elastic Compliance Matrix: (Units=1/GPa)
#
#
# Indices 1 2 3 4 5 6 
#
# 1 0.024613 0.002651 -0.016321 0.015299 0.014573 0.005500
# 2 0.002651 0.016025 -0.009196 0.019132 0.008720 0.007723
# 3 -0.016321 -0.009196 0.030088 -0.015613 -0.013119 -0.006149
# 4 0.015299 0.019132 -0.015613 0.055632 0.020718 0.014854
# 5 0.014573 0.008720 -0.013119 0.020718 0.040040 0.015542
# 6 0.005500 0.007723 -0.006149 0.014854 0.015542 0.034779
#
#
# Mechanical properties :
#
#
# Convention : Reuss Voigt Hill
#
# Bulk Modulus (GPa) = 40.00645 59.75396 49.88020
# Shear Modulus (GPa) = 19.58957 34.08400 26.83678
#
# Velocity S-wave (km/s) = 2.94467 3.88418 3.44659
# Velocity P-wave (km/s) = 5.41016 6.82387 6.15772
#
# Compressibility (1/GPa) = 0.02499597
#
# Stress axis : x y z
#
# Youngs Moduli (GPa) = 40.62864 62.40249 33.23620
#
# Poissons Ratio (x) = -0.16546 0.54243
# Poissons Ratio (y) = -0.10772 0.30564
# Poissons Ratio (z) = 0.66308 0.57385
#
# Static dielectric constant tensor:
#      x y z
#    x 1.866260 0.027740 0.056310 
#    y 0.027740 1.880190 0.040000 
#    z 0.056310 0.040000 1.927180 
# 
# From -- ./inp_files/298499.got.cif
#   From: 2010.05.17/outbox.cif.g08.bks.cpg/sg2_150_cif.got.tgz:298499.got - 2010.06.03 11:33:40.
