data_PCOD9038977
_publ_section_title
;
Structure prediction by ZEFSAII (Michael W. Deem and Ramdas Pophale) SiO2 
 PCOD9038977
Probable space group: P -1
;
_chemical_formula_sum "Si O2"
_cell_formula_units_Z 16
_cell_length_a 14.803933
_cell_length_b 15.777127
_cell_length_c 12.105751
_cell_angle_alpha 35.422130
_cell_angle_beta 52.890770
_cell_angle_gamma 27.186232
_cell_volume 665.210817
_symmetry_space_group_name_H-M "P -1"
_symmetry_group_IT_number 2
_symmetry_cell_setting 'triclinic'
loop_
_space_group_symop_operation_xyz
x,y,z
-x,-y,-z
loop_
_atom_site_type_symbol
_atom_site_label
_atom_site_fract_x
_atom_site_fract_y
_atom_site_fract_z
Si Si1 0.752852 0.667364 0.647571
Si Si2 0.054043 0.055390 0.089098
Si Si3 0.657581 0.731685 0.413690
Si Si4 0.596820 0.221494 0.054120
Si Si5 0.391563 0.748868 0.620098
Si Si6 0.752057 0.637684 0.914602
Si Si7 0.053309 0.164102 0.606771
Si Si8 0.115260 0.014183 0.346725
O O1 0.775278 0.679352 0.487486
O O2 0.842004 0.615539 0.759057
O O3 0.500000 0.000000 0.500000
O O4 0.845518 0.397300 0.868014
O O5 0.129399 0.976058 0.245619
O O6 0.003811 0.943668 0.213073
O O7 0.240978 0.916480 0.019793
O O8 0.574982 0.666984 0.587113
O O9 0.836321 0.501277 0.433046
O O10 0.422957 0.069425 0.200348
O O11 0.467324 0.513856 0.867477
O O12 0.413059 0.310004 0.058490
O O13 0.753543 0.003614 0.271706
O O14 0.162130 0.047621 0.530389
O O15 0.343829 0.780254 0.492345
O O16 0.958086 0.330050 0.145817
O O17 0.000000 0.000000 0.500000
#
# Coordination Sequence:
#
# PCOD9038977 Si02
#       8
#     2   2   2   2   2   2   2   2
#     4   9  18  38  62  88 129 167 200 262 317 371
#     4  11  21  39  66  96 128 166 214 270 311 377
#     4  11  23  43  63  98 136 163 209 268 323 380
#     4  12  22  39  67  99 125 168 214 261 328 378
#     4  12  24  41  69  93 124 179 213 259 325 365
#     4  10  23  42  65  92 129 171 214 262 315 383
#     4  12  23  40  66  99 135 160 212 269 319 389
#     4  11  22  45  66  87 126 169 227 264 301 381
#
# _framework density 24.052523000000001
#
# number of rings (size 3 to 8) (size 9 to 14) (size 15 to 20)
#    0.000    1.000    5.000    3.000    0.000    1.500 
#    9.000    0.625    0.000    0.000    0.000    0.000 
#    0.000    0.000    0.000    0.000    0.000    0.000 
#
# Total GULP energy -89375.543384 kJ/mol
# GULP energy per Si atom -5585.971462 kJ/mol
# Density = 2.399778 g / cm^3
# Si number density = 24.052523 Si / 1000 Ang^3
#
#
#
# Elastic Constant Matrix: (Units=GPa)
#
#
# Indices 1 2 3 4 5 6 
#
# 1 50.6407 18.9124 -8.1974 -4.1251 -1.6449 -4.5243
# 2 18.9124 118.0770 12.9210 -5.3687 -10.6543 10.1228
# 3 -8.1974 12.9210 74.5170 -15.0368 6.6096 13.5372
# 4 -4.1251 -5.3687 -15.0368 43.2227 14.6160 -10.1165
# 5 -1.6449 -10.6543 6.6096 14.6160 42.3355 2.9871
# 6 -4.5243 10.1228 13.5372 -10.1165 2.9871 33.0985
#
#
#
# Elastic Compliance Matrix: (Units=1/GPa)
#
#
# Indices 1 2 3 4 5 6 
#
# 1 0.022756 -0.004488 0.003676 0.004980 -0.002874 0.004761
# 2 -0.004488 0.009995 -0.002306 -0.002103 0.003688 -0.003703
# 3 0.003676 -0.002306 0.016626 0.006903 -0.005204 -0.003013
# 4 0.004980 -0.002103 0.006903 0.032511 -0.013318 0.009639
# 5 -0.002874 0.003688 -0.005204 -0.013318 0.030285 -0.006196
# 6 0.004761 -0.003703 -0.003013 0.009639 -0.006196 0.036734
#
#
# Mechanical properties :
#
#
# Convention : Reuss Voigt Hill
#
# Bulk Modulus (GPa) = 23.17938 32.27853 27.72895
# Shear Modulus (GPa) = 29.49475 38.37128 33.93301
#
# Velocity S-wave (km/s) = 3.50560 3.99847 3.76012
# Velocity P-wave (km/s) = 5.10329 5.89628 5.51406
#
# Compressibility (1/GPa) = 0.04314179
#
# Stress axis : x y z
#
# Youngs Moduli (GPa) = 43.94463 100.05147 60.14754
#
# Poissons Ratio (x) = 0.44905 -0.22113
# Poissons Ratio (y) = 0.19723 0.13867
# Poissons Ratio (z) = -0.16156 0.23068
#
# Static dielectric constant tensor:
#      x y z
#    x 1.977100 -0.001660 -0.077460 
#    y -0.001660 1.931740 -0.001520 
#    z -0.077460 -0.001520 1.938640 
# 
# From -- ./inp_files/455472.got.cif
#   From: 2010.05.17/outbox.cif.g08.bks.cpg/sg2_228_cif.got.tgz:455472.got - 2010.06.03 11:33:40.
