data_PCOD9038967
_publ_section_title
;
Structure prediction by ZEFSAII (Michael W. Deem and Ramdas Pophale) SiO2 
 PCOD9038967
Probable space group: P -1
;
_chemical_formula_sum "Si O2"
_cell_formula_units_Z 16
_cell_length_a 11.689128
_cell_length_b 13.948662
_cell_length_c 13.700051
_cell_angle_alpha 37.228114
_cell_angle_beta 137.135903
_cell_angle_gamma 109.975896
_cell_volume 743.596410
_symmetry_space_group_name_H-M "P -1"
_symmetry_group_IT_number 2
_symmetry_cell_setting 'triclinic'
loop_
_space_group_symop_operation_xyz
x,y,z
-x,-y,-z
loop_
_atom_site_type_symbol
_atom_site_label
_atom_site_fract_x
_atom_site_fract_y
_atom_site_fract_z
Si Si1 0.787294 0.201614 0.734551
Si Si2 0.164899 0.547903 0.583235
Si Si3 0.852339 0.533163 0.075388
Si Si4 0.710946 0.598629 0.565321
Si Si5 0.498556 0.203858 0.202627
Si Si6 0.274557 0.761714 0.100542
Si Si7 0.612565 0.789796 0.544524
Si Si8 0.097478 0.810008 0.511596
O O1 0.789116 0.371282 0.547530
O O2 0.773137 0.215345 0.831411
O O3 0.591959 0.205762 0.573575
O O4 0.000000 0.000000 0.000000
O O5 0.079629 0.714911 0.478719
O O6 0.000000 0.500000 0.500000
O O7 0.374805 0.356556 0.913364
O O8 0.867280 0.337909 0.261676
O O9 0.072419 0.485536 0.281737
O O10 0.667470 0.702574 0.889388
O O11 0.796741 0.614191 0.866095
O O12 0.509154 0.695546 0.292618
O O13 0.727902 0.422265 0.777607
O O14 0.668488 0.754153 0.494378
O O15 0.698913 0.194265 0.365458
O O16 0.564272 0.992054 0.386571
O O17 0.102489 0.968678 0.778264
#
# Coordination Sequence:
#
# PCOD9038967 Si02
#       8
#     2   2   2   2   2   2   2   2
#     4  11  21  36  66  95 127 164 215 266 323 379
#     4  11  23  38  61 101 138 160 208 270 329 381
#     4  11  23  39  67  92 130 168 216 264 328 381
#     4  10  24  43  62  92 127 176 221 264 314 394
#     4  11  24  41  67 100 134 167 212 276 328 375
#     4  10  23  42  65  89 134 172 214 266 326 379
#     4  11  23  42  65  96 126 172 223 264 318 390
#     4  11  23  42  64  99 136 167 213 275 326 381
#
# _framework density 21.517047999999999
#
# number of rings (size 3 to 8) (size 9 to 14) (size 15 to 20)
#    0.000    1.250    1.250    5.250    7.000    0.500 
#    0.000    6.250    0.000    0.000    0.000    0.000 
#    0.000    0.000    0.000    0.000    0.000    0.000 
#
# Total GULP energy -89533.717432 kJ/mol
# GULP energy per Si atom -5595.857340 kJ/mol
# Density = 2.146807 g / cm^3
# Si number density = 21.517048 Si / 1000 Ang^3
#
#
#
# Elastic Constant Matrix: (Units=GPa)
#
#
# Indices 1 2 3 4 5 6 
#
# 1 37.8984 26.4902 24.1443 3.5734 14.6875 19.0290
# 2 26.4902 119.3782 33.0095 -4.2035 18.4323 25.4363
# 3 24.1443 33.0095 97.1223 -11.7566 22.1866 1.2317
# 4 3.5734 -4.2035 -11.7566 28.1790 7.3369 3.0522
# 5 14.6875 18.4323 22.1866 7.3369 38.9746 9.3123
# 6 19.0290 25.4363 1.2317 3.0522 9.3123 24.8509
#
#
#
# Elastic Compliance Matrix: (Units=1/GPa)
#
#
# Indices 1 2 3 4 5 6 
#
# 1 0.058436 0.000107 -0.014554 -0.008334 -0.002106 -0.042321
# 2 0.000107 0.012166 -0.003468 0.002006 -0.001302 -0.012121
# 3 -0.014554 -0.003468 0.018014 0.009386 -0.008698 0.015907
# 4 -0.008334 0.002006 0.009386 0.043576 -0.012080 0.003037
# 5 -0.002106 -0.001302 -0.008698 -0.012080 0.036389 -0.008776
# 6 -0.042321 -0.012121 0.015907 0.003037 -0.008776 0.087180
#
#
# Mechanical properties :
#
#
# Convention : Reuss Voigt Hill
#
# Bulk Modulus (GPa) = 18.94451 46.85408 32.89930
# Shear Modulus (GPa) = 16.17147 29.78457 22.97802
#
# Velocity S-wave (km/s) = 2.74444 3.72456 3.27142
# Velocity P-wave (km/s) = 4.34352 6.34973 5.43991
#
# Compressibility (1/GPa) = 0.05278573
#
# Stress axis : x y z
#
# Youngs Moduli (GPa) = 17.11287 82.19454 55.51145
#
# Poissons Ratio (x) = -0.00876 0.80792
# Poissons Ratio (y) = -0.00182 0.19249
# Poissons Ratio (z) = 0.24906 0.28502
#
# Static dielectric constant tensor:
#      x y z
#    x 1.785520 -0.021490 -0.005220 
#    y -0.021490 1.797370 0.009330 
#    z -0.005220 0.009330 1.767280 
# 
# From -- ./inp_files/244109.got.cif
#   From: 2010.05.17/outbox.cif.g08.bks.cpg/sg2_123_cif.got.tgz:244109.got - 2010.06.03 11:33:40.
