data_PCOD9038432
_publ_section_title
;
Structure prediction by ZEFSAII (Michael W. Deem and Ramdas Pophale) SiO2 
 PCOD9038432
Probable space group: P -1
;
_chemical_formula_sum "Si O2"
_cell_formula_units_Z 14
_cell_length_a 21.328176
_cell_length_b 10.181531
_cell_length_c 23.470890
_cell_angle_alpha 153.172838
_cell_angle_beta 17.182520
_cell_angle_gamma 152.720412
_cell_volume 653.931556
_symmetry_space_group_name_H-M "P -1"
_symmetry_group_IT_number 2
_symmetry_cell_setting 'triclinic'
loop_
_space_group_symop_operation_xyz
x,y,z
-x,-y,-z
loop_
_atom_site_type_symbol
_atom_site_label
_atom_site_fract_x
_atom_site_fract_y
_atom_site_fract_z
Si Si1 0.487231 0.791222 0.486013
Si Si2 0.979675 0.553701 0.471739
Si Si3 0.834231 0.805923 0.496000
Si Si4 0.316900 0.212515 0.021794
Si Si5 0.340843 0.711447 0.896899
Si Si6 0.726473 0.266197 0.909559
Si Si7 0.480769 0.240939 0.766505
O O1 0.261052 0.521864 0.577561
O O2 0.671414 0.607944 0.246376
O O3 0.500000 0.000000 0.500000
O O4 0.497751 0.984571 0.608225
O O5 0.723499 0.472171 0.647968
O O6 0.000000 0.500000 0.500000
O O7 0.100494 0.331157 0.249362
O O8 0.096636 0.898588 0.488680
O O9 0.601995 0.823053 0.731432
O O10 0.056525 0.792932 0.330279
O O11 0.404215 0.131243 0.854030
O O12 0.500000 0.500000 0.000000
O O13 0.287590 0.944867 0.989207
O O14 0.216435 0.692783 0.056857
O O15 0.679465 0.567801 0.043351
O O16 0.500000 0.000000 0.000000
#
# Coordination Sequence:
#
# PCOD9038432 Si02
#       7
#     2   2   2   2   2   2   2
#     4  10  23  49  65  95 143 180 220 281 332 401
#     4  12  23  43  69 100 135 177 221 283 339 396
#     4  10  23  41  69  92 135 178 213 278 345 381
#     4  12  22  41  68  98 133 176 221 277 338 393
#     4  10  23  44  65  91 140 174 219 278 329 396
#     4  12  23  39  69 103 129 172 231 279 335 400
#     4  12  25  42  68  99 137 173 229 278 329 403
#
# _framework density 21.408968999999999
#
# number of rings (size 3 to 8) (size 9 to 14) (size 15 to 20)
#    0.857    0.000    5.714    1.714    0.000    4.000 
#    2.571    0.714    0.000    0.000    0.000    0.000 
#    0.000    0.000    0.000    0.000    0.000    0.000 
#
# Total GULP energy -78173.645143 kJ/mol
# GULP energy per Si atom -5583.831796 kJ/mol
# Density = 2.136024 g / cm^3
# Si number density = 21.408969 Si / 1000 Ang^3
#
#
#
# Elastic Constant Matrix: (Units=GPa)
#
#
# Indices 1 2 3 4 5 6 
#
# 1 106.4453 40.3456 34.3863 14.1516 29.2559 -10.8344
# 2 40.3456 93.5106 29.0066 19.5234 3.6364 -6.6271
# 3 34.3863 29.0066 110.1533 9.9185 9.8763 -9.4424
# 4 14.1516 19.5234 9.9185 42.1063 -4.8568 -6.5508
# 5 29.2559 3.6364 9.8763 -4.8568 32.4501 6.1458
# 6 -10.8344 -6.6271 -9.4424 -6.5508 6.1458 24.5875
#
#
#
# Elastic Compliance Matrix: (Units=1/GPa)
#
#
# Indices 1 2 3 4 5 6 
#
# 1 0.018232 -0.005202 -0.001569 -0.003928 -0.017749 0.009419
# 2 -0.005202 0.014260 -0.002163 -0.004157 0.003360 -0.001227
# 3 -0.001569 -0.002163 0.010688 -0.000755 -0.002316 0.003208
# 4 -0.003928 -0.004157 -0.000755 0.028482 0.008038 0.002438
# 5 -0.017749 0.003360 -0.002316 0.008038 0.051878 -0.018630
# 6 0.009419 -0.001227 0.003208 0.002438 -0.018630 0.051029
#
#
# Mechanical properties :
#
#
# Convention : Reuss Voigt Hill
#
# Bulk Modulus (GPa) = 39.50753 57.50958 48.50855
# Shear Modulus (GPa) = 24.89113 33.58681 29.23897
#
# Velocity S-wave (km/s) = 3.41346 3.96513 3.69959
# Velocity P-wave (km/s) = 5.83348 6.91980 6.39973
#
# Compressibility (1/GPa) = 0.02531163
#
# Stress axis : x y z
#
# Youngs Moduli (GPa) = 54.84844 70.12792 93.55855
#
# Poissons Ratio (x) = 0.36478 0.14682
# Poissons Ratio (y) = 0.28531 0.20240
# Poissons Ratio (z) = 0.08607 0.15171
#
# Static dielectric constant tensor:
#      x y z
#    x 1.774000 0.026130 0.005160 
#    y 0.026130 1.743360 -0.013980 
#    z 0.005160 -0.013980 1.836870 
# 
# From -- ./inp_files/613628.got.cif
#   From: 2010.05.17/outbox.cif.g08.bks.cpg/sg2_307_cif.got.tgz:613628.got - 2010.06.03 11:33:40.
