data_PCOD9038984
_publ_section_title
;
Structure prediction by ZEFSAII (Michael W. Deem and Ramdas Pophale) SiO2 
 PCOD9038984
Probable space group: P -1
;
_chemical_formula_sum "Si O2"
_cell_formula_units_Z 16
_cell_length_a 12.075778
_cell_length_b 6.147873
_cell_length_c 23.094471
_cell_angle_alpha 135.582742
_cell_angle_beta 32.430015
_cell_angle_gamma 128.810716
_cell_volume 642.203486
_symmetry_space_group_name_H-M "P -1"
_symmetry_group_IT_number 2
_symmetry_cell_setting 'triclinic'
loop_
_space_group_symop_operation_xyz
x,y,z
-x,-y,-z
loop_
_atom_site_type_symbol
_atom_site_label
_atom_site_fract_x
_atom_site_fract_y
_atom_site_fract_z
Si Si1 0.036842 0.926029 0.066428
Si Si2 0.310615 0.093909 0.278155
Si Si3 0.605384 0.279659 0.461871
Si Si4 0.749873 0.824009 0.797329
Si Si5 0.290664 0.455552 0.120402
Si Si6 0.088527 0.354910 0.520154
Si Si7 0.920416 0.776700 0.206693
Si Si8 0.709430 0.126449 0.173862
O O1 0.125560 0.246274 0.117923
O O2 0.806269 0.930171 0.143765
O O3 0.027548 0.704172 0.084129
O O4 0.175372 0.906221 0.944624
O O5 0.404373 0.174152 0.188662
O O6 0.178865 0.349743 0.414258
O O7 0.476588 0.035006 0.242608
O O8 0.197463 0.766853 0.246750
O O9 0.500000 0.500000 0.500000
O O10 0.723487 0.531818 0.499390
O O11 0.500000 0.000000 0.500000
O O12 0.780402 0.072306 0.316714
O O13 0.645974 0.715721 0.881647
O O14 0.913487 0.586620 0.656533
O O15 0.898511 0.123740 0.808831
O O16 0.500000 0.500000 0.000000
O O17 0.000000 0.000000 0.500000
O O18 0.768309 0.482572 0.233999
#
# Coordination Sequence:
#
# PCOD9038984 Si02
#       8
#     2   2   2   2   2   2   2   2
#     4  10  23  42  65  92 138 176 229 291 354 432
#     4  12  24  40  69  98 136 172 238 288 357 429
#     4  11  27  48  74 109 149 193 247 307 369 449
#     4  10  24  44  65  97 131 183 225 290 357 431
#     4  11  22  44  65  96 130 178 225 279 353 422
#     4  11  24  45  72 107 142 188 240 303 370 432
#     4  10  23  42  68  91 133 184 231 280 369 426
#     4  11  23  41  64 100 131 180 229 293 358 423
#
# _framework density 24.914223
#
# number of rings (size 3 to 8) (size 9 to 14) (size 15 to 20)
#    0.000    1.250    2.500    2.250    3.500    5.500 
#    2.250    0.000    0.000    0.000    0.000    0.000 
#    0.000    0.000    0.000    0.000    0.000    0.000 
#
# Total GULP energy -89212.092123 kJ/mol
# GULP energy per Si atom -5575.755758 kJ/mol
# Density = 2.485752 g / cm^3
# Si number density = 24.914223 Si / 1000 Ang^3
#
#
#
# Elastic Constant Matrix: (Units=GPa)
#
#
# Indices 1 2 3 4 5 6 
#
# 1 162.6450 40.6794 39.5271 -0.2959 18.4095 3.3409
# 2 40.6794 85.5911 11.8495 0.4827 20.5100 10.2311
# 3 39.5271 11.8495 88.7702 0.6803 27.4691 -3.4319
# 4 -0.2959 0.4827 0.6803 38.7948 0.8969 5.5177
# 5 18.4095 20.5100 27.4691 0.8969 38.2640 -0.4856
# 6 3.3409 10.2311 -3.4319 5.5177 -0.4856 33.8252
#
#
#
# Elastic Compliance Matrix: (Units=1/GPa)
#
#
# Indices 1 2 3 4 5 6 
#
# 1 0.007688 -0.003279 -0.003071 0.000162 0.000258 -0.000102
# 2 -0.003279 0.015441 0.001696 0.000561 -0.007986 -0.004381
# 3 -0.003071 0.001696 0.015780 -0.000255 -0.010738 0.001279
# 4 0.000162 0.000561 -0.000255 0.026441 -0.000873 -0.004537
# 5 0.000258 -0.007986 -0.010738 -0.000873 0.038045 0.001989
# 6 -0.000102 -0.004381 0.001279 -0.004537 0.001989 0.031797
#
#
# Mechanical properties :
#
#
# Convention : Reuss Voigt Hill
#
# Bulk Modulus (GPa) = 33.78135 57.90203 45.84169
# Shear Modulus (GPa) = 32.39045 38.50682 35.44863
#
# Velocity S-wave (km/s) = 3.60957 3.93565 3.77613
# Velocity P-wave (km/s) = 5.56422 6.62898 6.11980
#
# Compressibility (1/GPa) = 0.02960213
#
# Stress axis : x y z
#
# Youngs Moduli (GPa) = 130.07331 64.76152 63.37133
#
# Poissons Ratio (x) = 0.21238 0.19459
# Poissons Ratio (y) = 0.42657 -0.10751
# Poissons Ratio (z) = 0.39940 -0.10987
#
# Static dielectric constant tensor:
#      x y z
#    x 1.951300 -0.092390 -0.031810 
#    y -0.092390 2.097910 0.014450 
#    z -0.031810 0.014450 2.034020 
# 
# From -- ./inp_files/592862.got.cif
#   From: 2010.05.17/outbox.cif.g08.bks.cpg/sg2_297_cif.got.tgz:592862.got - 2010.06.03 11:33:40.
