data_PCOD9038626
_publ_section_title
;
Structure prediction by ZEFSAII (Michael W. Deem and Ramdas Pophale) SiO2 
 PCOD9038626
Probable space group: P -1
;
_chemical_formula_sum "Si O2"
_cell_formula_units_Z 12
_cell_length_a 20.705304
_cell_length_b 5.221772
_cell_length_c 12.854924
_cell_angle_alpha 123.163978
_cell_angle_beta 151.914106
_cell_angle_gamma 44.512554
_cell_volume 444.318308
_symmetry_space_group_name_H-M "P -1"
_symmetry_group_IT_number 2
_symmetry_cell_setting 'triclinic'
loop_
_space_group_symop_operation_xyz
x,y,z
-x,-y,-z
loop_
_atom_site_type_symbol
_atom_site_label
_atom_site_fract_x
_atom_site_fract_y
_atom_site_fract_z
Si Si1 0.978036 0.418909 0.783487
Si Si2 0.289849 0.685163 0.126890
Si Si3 0.092261 0.433562 0.508780
Si Si4 0.388395 0.420278 0.980854
Si Si5 0.324094 0.554219 0.589733
Si Si6 0.267337 0.411072 0.252950
O O1 0.017750 0.403953 0.715290
O O2 0.780436 0.607598 0.557945
O O3 0.065087 0.589032 0.003284
O O4 0.088816 0.990340 0.886992
O O5 0.368082 0.432406 0.079557
O O6 0.315310 0.490816 0.228884
O O7 0.345258 0.968972 0.275046
O O8 0.000000 0.500000 0.500000
O O9 0.217482 0.983974 0.571425
O O10 0.205338 0.595131 0.711243
O O11 0.486318 0.611194 0.142109
O O12 0.500000 0.000000 0.000000
O O13 0.310215 0.551508 0.445036
#
# Coordination Sequence:
#
# PCOD9038626 Si02
#       6
#     2   2   2   2   2   2
#     4  10  23  41  72 101 138 183 231 290 346 409
#     4  10  24  47  72 104 139 184 234 288 346 415
#     4  11  24  44  71  98 143 187 240 284 346 416
#     4  10  24  47  67 103 141 188 232 287 349 418
#     4  11  24  42  68 104 142 181 232 294 350 414
#     4  10  24  44  76 104 139 180 239 285 352 411
#
# _framework density 27.007667000000001
#
# number of rings (size 3 to 8) (size 9 to 14) (size 15 to 20)
#    1.000    0.667    0.000    3.500    2.333    6.000 
#    9.000    0.000    0.000    0.000    0.000    0.000 
#    0.000    0.000    0.000    0.000    0.000    0.000 
#
# Total GULP energy -67224.635133 kJ/mol
# GULP energy per Si atom -5602.052928 kJ/mol
# Density = 2.694620 g / cm^3
# Si number density = 27.007667 Si / 1000 Ang^3
#
#
#
# Elastic Constant Matrix: (Units=GPa)
#
#
# Indices 1 2 3 4 5 6 
#
# 1 148.2508 60.5118 44.5258 7.2367 -21.7783 -6.9924
# 2 60.5118 94.3159 27.8677 24.4717 -2.7551 -0.2732
# 3 44.5258 27.8677 161.8494 21.9173 16.9369 -0.6207
# 4 7.2367 24.4717 21.9173 28.5584 -1.7112 -12.0405
# 5 -21.7783 -2.7551 16.9369 -1.7112 50.3621 6.5202
# 6 -6.9924 -0.2732 -0.6207 -12.0405 6.5202 49.5950
#
#
#
# Elastic Compliance Matrix: (Units=1/GPa)
#
#
# Indices 1 2 3 4 5 6 
#
# 1 0.011928 -0.008693 -0.003566 0.008755 0.005797 0.002953
# 2 -0.008693 0.020525 0.001768 -0.019180 -0.003193 -0.005327
# 3 -0.003566 0.001768 0.008391 -0.008059 -0.004311 -0.001778
# 4 0.008755 -0.019180 -0.008059 0.062248 0.005567 0.015408
# 5 0.005797 -0.003193 -0.004311 0.005567 0.023963 -0.001053
# 6 0.002953 -0.005327 -0.001778 0.015408 -0.001053 0.024407
#
#
# Mechanical properties :
#
#
# Convention : Reuss Voigt Hill
#
# Bulk Modulus (GPa) = 50.34373 74.46963 62.40668
# Shear Modulus (GPa) = 27.92306 43.80381 35.86343
#
# Velocity S-wave (km/s) = 3.21891 4.03165 3.64799
# Velocity P-wave (km/s) = 5.70054 7.02180 6.39538
#
# Compressibility (1/GPa) = 0.01986345
#
# Stress axis : x y z
#
# Youngs Moduli (GPa) = 83.83699 48.72042 119.18078
#
# Poissons Ratio (x) = 0.42353 0.42494
# Poissons Ratio (y) = 0.72880 -0.21076
# Poissons Ratio (z) = 0.29892 -0.08616
#
# Static dielectric constant tensor:
#      x y z
#    x 2.085620 -0.009160 0.128610 
#    y -0.009160 2.073340 -0.019240 
#    z 0.128610 -0.019240 2.167720 
# 
# From -- ./inp_files/82449.got.cif
#   From: 2010.05.17/outbox.cif.g08.bks.cpg/sg2_42_cif.got.tgz:82449.got - 2010.06.03 11:33:40.
