data_PCOD9038036
_publ_section_title
;
Structure prediction by ZEFSAII (Michael W. Deem and Ramdas Pophale) SiO2 
 PCOD9038036
Probable space group: P -1
;
_chemical_formula_sum "Si O2"
_cell_formula_units_Z 14
_cell_length_a 13.812692
_cell_length_b 11.677224
_cell_length_c 11.074317
_cell_angle_alpha 51.954616
_cell_angle_beta 147.033984
_cell_angle_gamma 138.261725
_cell_volume 646.824282
_symmetry_space_group_name_H-M "P -1"
_symmetry_group_IT_number 2
_symmetry_cell_setting 'triclinic'
loop_
_space_group_symop_operation_xyz
x,y,z
-x,-y,-z
loop_
_atom_site_type_symbol
_atom_site_label
_atom_site_fract_x
_atom_site_fract_y
_atom_site_fract_z
Si Si1 0.736522 0.088696 0.018094
Si Si2 0.428197 0.592668 0.740889
Si Si3 0.802534 0.704256 0.679126
Si Si4 0.111775 0.200216 0.014750
Si Si5 0.488486 0.680706 0.016229
Si Si6 0.628788 0.350924 0.830116
Si Si7 0.297814 0.824832 0.350242
O O1 0.653343 0.191551 0.936430
O O2 0.724475 0.133144 0.837154
O O3 0.609270 0.884272 0.029106
O O4 0.982533 0.171232 0.245898
O O5 0.388189 0.629644 0.811116
O O6 0.339172 0.672293 0.505286
O O7 0.681397 0.698449 0.916729
O O8 0.363215 0.398261 0.776782
O O9 0.771340 0.516968 0.787412
O O10 0.604797 0.692456 0.416381
O O11 0.816405 0.767230 0.791008
O O12 0.921554 0.230739 0.779107
O O13 0.000000 0.000000 0.000000
O O14 0.334490 0.600202 0.021981
O O15 0.500000 0.000000 0.500000
#
# Coordination Sequence:
#
# PCOD9038036 Si02
#       7
#     2   2   2   2   2   2   2
#     4  11  23  42  66  96 126 166 217 266 309 384
#     4  11  22  43  62  92 137 164 209 269 318 377
#     4  10  23  41  65  99 122 167 221 255 319 379
#     4  11  20  37  68  97 124 161 217 268 306 373
#     4  11  24  42  64  93 134 171 204 267 328 368
#     4  11  23  42  67  91 132 171 210 261 322 379
#     4  11  21  38  68  97 120 167 221 254 315 377
#
# _framework density 21.644209
#
# number of rings (size 3 to 8) (size 9 to 14) (size 15 to 20)
#    0.000    1.143    4.286    2.571    2.000    0.571 
#    0.000    5.714    0.000    0.000    0.000    0.000 
#    0.000    0.000    0.000    0.000    0.000    0.000 
#
# Total GULP energy -78236.468308 kJ/mol
# GULP energy per Si atom -5588.319165 kJ/mol
# Density = 2.159495 g / cm^3
# Si number density = 21.644209 Si / 1000 Ang^3
#
#
#
# Elastic Constant Matrix: (Units=GPa)
#
#
# Indices 1 2 3 4 5 6 
#
# 1 79.4860 18.9142 15.8278 2.4937 3.5898 -8.4631
# 2 18.9142 111.2038 11.3789 -19.4822 7.5354 -21.3099
# 3 15.8278 11.3789 49.0989 6.3664 9.8550 6.1543
# 4 2.4937 -19.4822 6.3664 28.2171 -4.3149 -0.6343
# 5 3.5898 7.5354 9.8550 -4.3149 23.4041 0.7147
# 6 -8.4631 -21.3099 6.1543 -0.6343 0.7147 33.2433
#
#
#
# Elastic Compliance Matrix: (Units=1/GPa)
#
#
# Indices 1 2 3 4 5 6 
#
# 1 0.014248 -0.001503 -0.004493 -0.001227 -0.000142 0.003475
# 2 -0.001503 0.013493 -0.005179 0.010794 -0.000231 0.009436
# 3 -0.004493 -0.005179 0.027955 -0.011418 -0.011226 -0.009615
# 4 -0.001227 0.010794 -0.011418 0.047311 0.009956 0.009410
# 5 -0.000142 -0.000231 -0.011226 0.009956 0.049355 0.001023
# 6 0.003475 0.009436 -0.009615 0.009410 0.001023 0.038953
#
#
# Mechanical properties :
#
#
# Convention : Reuss Voigt Hill
#
# Bulk Modulus (GPa) = 29.98773 36.89228 33.44001
# Shear Modulus (GPa) = 22.24415 29.88409 26.06412
#
# Velocity S-wave (km/s) = 3.20928 3.71980 3.47393
# Velocity P-wave (km/s) = 5.25524 5.96080 5.61911
#
# Compressibility (1/GPa) = 0.03334697
#
# Stress axis : x y z
#
# Youngs Moduli (GPa) = 70.18519 74.11215 35.77241
#
# Poissons Ratio (x) = 0.11139 0.16072
# Poissons Ratio (y) = 0.10549 0.18525
# Poissons Ratio (z) = 0.31532 0.38379
#
# Static dielectric constant tensor:
#      x y z
#    x 1.800770 0.002240 0.004940 
#    y 0.002240 1.834110 -0.002550 
#    z 0.004940 -0.002550 1.767030 
# 
# From -- ./inp_files/451182.got.cif
#   From: 2010.05.17/outbox.cif.g08.bks.cpg/sg2_226_cif.got.tgz:451182.got - 2010.06.03 11:33:40.
