data_PCOD9038719
_publ_section_title
;
Structure prediction by ZEFSAII (Michael W. Deem and Ramdas Pophale) SiO2 
 PCOD9038719
Probable space group: P -1
;
_chemical_formula_sum "Si O2"
_cell_formula_units_Z 14
_cell_length_a 8.933478
_cell_length_b 9.200416
_cell_length_c 9.406248
_cell_angle_alpha 65.206305
_cell_angle_beta 103.508913
_cell_angle_gamma 114.879974
_cell_volume 635.178696
_symmetry_space_group_name_H-M "P -1"
_symmetry_group_IT_number 2
_symmetry_cell_setting 'triclinic'
loop_
_space_group_symop_operation_xyz
x,y,z
-x,-y,-z
loop_
_atom_site_type_symbol
_atom_site_label
_atom_site_fract_x
_atom_site_fract_y
_atom_site_fract_z
Si Si1 0.001119 0.814810 0.537968
Si Si2 0.834061 0.230460 0.690636
Si Si3 0.679113 0.004173 0.996455
Si Si4 0.873083 0.319176 0.104962
Si Si5 0.875746 0.802389 0.071216
Si Si6 0.327718 0.485456 0.396862
Si Si7 0.663012 0.521048 0.941709
O O1 0.814262 0.691619 0.514179
O O2 0.124459 0.813139 0.439422
O O3 0.055176 0.734205 0.719236
O O4 0.000000 0.000000 0.500000
O O5 0.715331 0.061792 0.816861
O O6 0.746800 0.369106 0.633544
O O7 0.016325 0.287708 0.783377
O O8 0.812496 0.160955 0.048025
O O9 0.500000 0.000000 0.000000
O O10 0.720960 0.833397 0.100331
O O11 0.712585 0.365798 0.074595
O O12 0.000000 0.500000 0.000000
O O13 0.802662 0.699287 0.954157
O O14 0.000000 0.000000 0.000000
O O15 0.500000 0.500000 0.500000
O O16 0.345038 0.487610 0.227354
O O17 0.500000 0.500000 0.000000
#
# Coordination Sequence:
#
# PCOD9038719 Si02
#       7
#     2   2   2   2   2   2   2
#     4  12  28  48  76 110 149 193 248 309 372 437
#     4  11  25  46  73 106 146 197 247 297 371 443
#     4  11  23  43  73 110 151 185 238 308 373 433
#     4  12  23  48  76 105 141 196 251 293 357 458
#     4  10  23  41  75 104 142 184 245 296 362 436
#     4  12  29  49  71 104 151 195 246 308 376 433
#     4  12  26  44  74 107 140 188 251 300 364 439
#
# _framework density 22.041041
#
# number of rings (size 3 to 8) (size 9 to 14) (size 15 to 20)
#    0.000    0.571    2.857    4.714    8.000    1.143 
#    0.000    1.429    0.000    0.000    0.000    0.000 
#    0.000    0.000    0.000    0.000    0.000    0.000 
#
# Total GULP energy -78269.894076 kJ/mol
# GULP energy per Si atom -5590.706720 kJ/mol
# Density = 2.199087 g / cm^3
# Si number density = 22.041041 Si / 1000 Ang^3
#
#
#
# Elastic Constant Matrix: (Units=GPa)
#
#
# Indices 1 2 3 4 5 6 
#
# 1 191.8879 64.8461 86.5986 0.8495 6.8813 -39.8678
# 2 64.8461 130.2939 62.3422 11.0013 6.9703 -28.7532
# 3 86.5986 62.3422 150.4877 12.0015 2.7500 -12.1907
# 4 0.8495 11.0013 12.0015 30.5030 -6.1839 1.0591
# 5 6.8813 6.9703 2.7500 -6.1839 50.9209 -6.4555
# 6 -39.8678 -28.7532 -12.1907 1.0591 -6.4555 48.1791
#
#
#
# Elastic Compliance Matrix: (Units=1/GPa)
#
#
# Indices 1 2 3 4 5 6 
#
# 1 0.008590 -0.001289 -0.004118 0.001685 0.000111 0.005275
# 2 -0.001289 0.011241 -0.003266 -0.003093 -0.000961 0.004755
# 3 -0.004118 -0.003266 0.010372 -0.002742 -0.000232 -0.002703
# 4 0.001685 -0.003093 -0.002742 0.035896 0.004535 -0.001327
# 5 0.000111 -0.000961 -0.000232 0.004535 0.020587 0.002119
# 6 0.005275 0.004755 -0.002703 -0.001327 0.002119 0.027587
#
#
# Mechanical properties :
#
#
# Convention : Reuss Voigt Hill
#
# Bulk Modulus (GPa) = 77.77926 100.02703 88.90314
# Shear Modulus (GPa) = 36.79061 43.17945 39.98503
#
# Velocity S-wave (km/s) = 4.09000 4.43091 4.26387
# Velocity P-wave (km/s) = 7.59402 8.46511 8.04137
#
# Compressibility (1/GPa) = 0.01285690
#
# Stress axis : x y z
#
# Youngs Moduli (GPa) = 116.41449 88.96142 96.41625
#
# Poissons Ratio (x) = 0.11466 0.39708
# Poissons Ratio (y) = 0.15004 0.31485
# Poissons Ratio (z) = 0.47944 0.29051
#
# Static dielectric constant tensor:
#      x y z
#    x 1.953930 -0.030670 -0.009560 
#    y -0.030670 1.853270 0.023280 
#    z -0.009560 0.023280 1.841530 
# 
# From -- ./inp_files/157697.got.cif
#   From: 2010.05.17/outbox.cif.g08.bks.cpg/sg2_79_cif.got.tgz:157697.got - 2010.06.03 11:33:40.
