data_PCOD9038883
_publ_section_title
;
Structure prediction by ZEFSAII (Michael W. Deem and Ramdas Pophale) SiO2 
 PCOD9038883
Probable space group: P -1
;
_chemical_formula_sum "Si O2"
_cell_formula_units_Z 14
_cell_length_a 9.978933
_cell_length_b 14.777727
_cell_length_c 8.255076
_cell_angle_alpha 63.801577
_cell_angle_beta 147.300594
_cell_angle_gamma 112.533396
_cell_volume 589.915054
_symmetry_space_group_name_H-M "P -1"
_symmetry_group_IT_number 2
_symmetry_cell_setting 'triclinic'
loop_
_space_group_symop_operation_xyz
x,y,z
-x,-y,-z
loop_
_atom_site_type_symbol
_atom_site_label
_atom_site_fract_x
_atom_site_fract_y
_atom_site_fract_z
Si Si1 0.751649 0.934947 0.260843
Si Si2 0.873721 0.200005 0.654009
Si Si3 0.432157 0.973741 0.632898
Si Si4 0.749385 0.497369 0.644565
Si Si5 0.193860 0.182868 0.310632
Si Si6 0.516007 0.333570 0.345978
Si Si7 0.158692 0.405631 0.674305
O O1 0.826039 0.830094 0.505955
O O2 0.668003 0.924791 0.998031
O O3 0.000000 0.000000 0.500000
O O4 0.500000 0.000000 0.000000
O O5 0.800031 0.105416 0.542143
O O6 0.609901 0.243035 0.405292
O O7 0.020788 0.296320 0.650503
O O8 0.990847 0.170896 0.971188
O O9 0.500000 0.000000 0.500000
O O10 0.354127 0.082946 0.530759
O O11 0.500000 0.500000 0.500000
O O12 0.732810 0.390636 0.616814
O O13 0.765078 0.576890 0.448861
O O14 0.000000 0.500000 0.000000
O O15 0.329756 0.286882 0.324394
O O16 0.384281 0.405502 0.030710
O O17 0.000000 0.500000 0.500000
#
# Coordination Sequence:
#
# PCOD9038883 Si02
#       7
#     2   2   2   2   2   2   2
#     4  10  23  42  64  92 134 188 225 279 353 407
#     4  11  23  40  74 104 135 186 250 292 355 425
#     4  11  21  41  69 104 139 186 243 291 344 426
#     4  12  28  47  73 107 145 185 237 308 369 431
#     4  10  23  42  67  99 145 185 228 293 360 427
#     4  11  24  45  72 102 137 193 238 290 371 433
#     4  11  24  47  76 100 142 192 243 297 367 445
#
# _framework density 23.732233000000001
#
# number of rings (size 3 to 8) (size 9 to 14) (size 15 to 20)
#    0.000    1.143    2.857    2.571    6.000    2.286 
#    0.000    0.000    0.000    0.000    0.000    0.000 
#    0.000    0.000    0.000    0.000    0.000    0.000 
#
# Total GULP energy -78067.264866 kJ/mol
# GULP energy per Si atom -5576.233205 kJ/mol
# Density = 2.367822 g / cm^3
# Si number density = 23.732233 Si / 1000 Ang^3
#
#
#
# Elastic Constant Matrix: (Units=GPa)
#
#
# Indices 1 2 3 4 5 6 
#
# 1 73.3922 21.4176 43.7538 -10.9450 -7.4460 26.9469
# 2 21.4176 114.2145 68.7689 9.3081 -21.3168 25.7898
# 3 43.7538 68.7689 226.1801 -3.5070 -26.5741 31.0330
# 4 -10.9450 9.3081 -3.5070 50.7714 7.3358 -7.5591
# 5 -7.4460 -21.3168 -26.5741 7.3358 39.8066 -8.2791
# 6 26.9469 25.7898 31.0330 -7.5591 -8.2791 40.4669
#
#
#
# Elastic Compliance Matrix: (Units=1/GPa)
#
#
# Indices 1 2 3 4 5 6 
#
# 1 0.019231 -0.000189 -0.002245 0.002541 -0.000682 -0.010629
# 2 -0.000189 0.012896 -0.002586 -0.004142 0.004675 -0.005927
# 3 -0.002245 -0.002586 0.006024 -0.000043 0.002001 -0.001075
# 4 0.002541 -0.004142 -0.000043 0.022341 -0.005031 0.004124
# 5 -0.000682 0.004675 0.002001 -0.005031 0.029997 0.001138
# 6 -0.010629 -0.005927 -0.001075 0.004124 0.001138 0.037394
#
#
# Mechanical properties :
#
#
# Convention : Reuss Voigt Hill
#
# Bulk Modulus (GPa) = 35.57313 75.74081 55.65697
# Shear Modulus (GPa) = 33.94560 44.86541 39.40551
#
# Velocity S-wave (km/s) = 3.78611 4.35269 4.07925
# Velocity P-wave (km/s) = 5.84250 7.56606 6.75944
#
# Compressibility (1/GPa) = 0.02811110
#
# Stress axis : x y z
#
# Youngs Moduli (GPa) = 51.99845 77.54061 166.00758
#
# Poissons Ratio (x) = 0.01463 0.37272
# Poissons Ratio (y) = 0.00981 0.42935
# Poissons Ratio (z) = 0.11675 0.20055
#
# Static dielectric constant tensor:
#      x y z
#    x 2.075670 0.096340 -0.049960 
#    y 0.096340 1.952710 -0.002820 
#    z -0.049960 -0.002820 1.941110 
# 
# From -- ./inp_files/277521.got.cif
#   From: 2010.05.17/outbox.cif.g08.bks.cpg/sg2_139_cif.got.tgz:277521.got - 2010.06.03 11:33:40.
