data_PCOD9038920
_publ_section_title
;
Structure prediction by ZEFSAII (Michael W. Deem and Ramdas Pophale) SiO2 
 PCOD9038920
Probable space group: P -1
;
_chemical_formula_sum "Si O2"
_cell_formula_units_Z 16
_cell_length_a 7.828014
_cell_length_b 18.747106
_cell_length_c 19.194655
_cell_angle_alpha 157.931740
_cell_angle_beta 43.058508
_cell_angle_gamma 134.388058
_cell_volume 719.810235
_symmetry_space_group_name_H-M "P -1"
_symmetry_group_IT_number 2
_symmetry_cell_setting 'triclinic'
loop_
_space_group_symop_operation_xyz
x,y,z
-x,-y,-z
loop_
_atom_site_type_symbol
_atom_site_label
_atom_site_fract_x
_atom_site_fract_y
_atom_site_fract_z
Si Si1 0.371303 0.541154 0.648402
Si Si2 0.337657 0.305639 0.062792
Si Si3 0.541149 0.721153 0.161550
Si Si4 0.569426 0.818010 0.618275
Si Si5 0.153047 0.944617 0.555102
Si Si6 0.555987 0.856125 0.971893
Si Si7 0.122456 0.674120 0.442437
Si Si8 0.946811 0.072168 0.186573
O O1 0.500000 0.500000 0.500000
O O2 0.471850 0.403254 0.552456
O O3 0.415874 0.749362 0.854029
O O4 0.082203 0.468761 0.663850
O O5 0.424897 0.285453 0.938416
O O6 0.087843 0.155468 0.003708
O O7 0.493328 0.238866 0.023075
O O8 0.301525 0.526651 0.286735
O O9 0.312457 0.853387 0.364517
O O10 0.766221 0.839840 0.246847
O O11 0.500000 0.500000 0.000000
O O12 0.340053 0.874872 0.691161
O O13 0.856485 0.891584 0.580900
O O14 0.520040 0.931296 0.806607
O O15 0.235086 0.819582 0.483424
O O16 0.852005 0.861221 0.871403
O O17 0.981921 0.803008 0.654255
#
# Coordination Sequence:
#
# PCOD9038920 Si02
#       8
#     2   2   2   2   2   2   2   2
#     4  11  24  37  59  94 129 171 217 260 309 366
#     4  11  23  39  67  93 124 170 214 260 318 384
#     4  11  22  42  72  96 122 160 213 268 332 381
#     4  10  24  41  61  90 132 170 208 267 313 372
#     4  10  23  42  64  97 124 157 213 270 322 378
#     4  11  25  41  62  93 137 176 214 254 310 380
#     4  11  22  38  65  92 128 170 209 264 312 377
#     4  11  23  42  62  91 137 177 212 249 315 381
#
# _framework density 22.228082000000001
#
# number of rings (size 3 to 8) (size 9 to 14) (size 15 to 20)
#    0.000    1.250    3.750    2.250    5.250    1.500 
#    0.000    2.500    0.000    6.750    0.000    0.000 
#    0.000    0.000    0.000    0.000    0.000    0.000 
#
# Total GULP energy -89173.765314 kJ/mol
# GULP energy per Si atom -5573.360332 kJ/mol
# Density = 2.217749 g / cm^3
# Si number density = 22.228082 Si / 1000 Ang^3
#
#
#
# Elastic Constant Matrix: (Units=GPa)
#
#
# Indices 1 2 3 4 5 6 
#
# 1 54.7217 23.4497 1.3847 -1.1014 5.0228 3.3460
# 2 23.4497 94.1353 19.5011 -7.2128 8.7555 -6.9997
# 3 1.3847 19.5011 90.3737 3.0955 28.5957 -3.0957
# 4 -1.1014 -7.2128 3.0955 39.3679 -2.9390 5.0625
# 5 5.0228 8.7555 28.5957 -2.9390 42.4661 -1.1215
# 6 3.3460 -6.9997 -3.0957 5.0625 -1.1215 32.2825
#
#
#
# Elastic Compliance Matrix: (Units=1/GPa)
#
#
# Indices 1 2 3 4 5 6 
#
# 1 0.021063 -0.005610 0.001580 -0.000328 -0.002508 -0.003284
# 2 -0.005610 0.012942 -0.002689 0.002066 0.000023 0.002807
# 3 0.001580 -0.002689 0.014817 -0.002434 -0.009760 0.000717
# 4 -0.000328 0.002066 -0.002434 0.026679 0.002997 -0.003831
# 5 -0.002508 0.000023 -0.009760 0.002997 0.030618 -0.000077
# 6 -0.003284 0.002807 0.000717 -0.003831 -0.000077 0.032592
#
#
# Mechanical properties :
#
#
# Convention : Reuss Voigt Hill
#
# Bulk Modulus (GPa) = 28.26048 36.43352 32.34700
# Shear Modulus (GPa) = 30.49834 35.81630 33.15732
#
# Velocity S-wave (km/s) = 3.70816 4.01847 3.86643
# Velocity P-wave (km/s) = 5.57453 6.16093 5.87505
#
# Compressibility (1/GPa) = 0.03538511
#
# Stress axis : x y z
#
# Youngs Moduli (GPa) = 47.47700 77.26514 67.48923
#
# Poissons Ratio (x) = 0.43348 -0.10665
# Poissons Ratio (y) = 0.26636 0.18145
# Poissons Ratio (z) = -0.07502 0.20774
#
# Static dielectric constant tensor:
#      x y z
#    x 1.897700 -0.002840 -0.012550 
#    y -0.002840 1.857170 0.001880 
#    z -0.012550 0.001880 1.877740 
# 
# From -- ./inp_files/591792.got.cif
#   From: 2010.05.17/outbox.cif.g08.bks.cpg/sg2_296_cif.got.tgz:591792.got - 2010.06.03 11:33:40.
