data_PCOD9038728
_publ_section_title
;
Structure prediction by ZEFSAII (Michael W. Deem and Ramdas Pophale) SiO2 
 PCOD9038728
Probable space group: P -1
;
_chemical_formula_sum "Si O2"
_cell_formula_units_Z 12
_cell_length_a 10.237346
_cell_length_b 4.908782
_cell_length_c 12.914057
_cell_angle_alpha 110.956543
_cell_angle_beta 124.401944
_cell_angle_gamma 87.056259
_cell_volume 490.380927
_symmetry_space_group_name_H-M "P -1"
_symmetry_group_IT_number 2
_symmetry_cell_setting 'triclinic'
loop_
_space_group_symop_operation_xyz
x,y,z
-x,-y,-z
loop_
_atom_site_type_symbol
_atom_site_label
_atom_site_fract_x
_atom_site_fract_y
_atom_site_fract_z
Si Si1 0.658852 0.887902 0.478142
Si Si2 0.534192 0.731403 0.666920
Si Si3 0.603325 0.808261 0.217191
Si Si4 0.180679 0.629639 0.228675
Si Si5 0.871219 0.192117 0.000822
Si Si6 0.636048 0.812641 0.009346
O O1 0.500673 0.033594 0.402085
O O2 0.705852 0.826991 0.371683
O O3 0.779732 0.112385 0.632833
O O4 0.601940 0.561232 0.453685
O O5 0.478255 0.899007 0.764980
O O6 0.699095 0.607479 0.733627
O O7 0.700819 0.790055 0.153235
O O8 0.456347 0.519514 0.108950
O O9 0.204839 0.737488 0.134043
O O10 0.990849 0.487792 0.133712
O O11 0.763353 0.004456 0.015176
O O12 0.000000 0.000000 0.000000
O O13 0.500000 0.000000 0.000000
#
# Coordination Sequence:
#
# PCOD9038728 Si02
#       6
#     2   2   2   2   2   2
#     4  10  23  42  77 113 143 197 250 315 372 438
#     4  10  23  41  76 115 143 191 249 313 373 434
#     4   9  24  40  77 110 142 184 262 310 365 429
#     4  11  26  47  70 109 161 193 248 306 382 452
#     4  11  30  46  73 107 156 204 240 307 385 444
#     4  11  24  49  75 102 152 200 254 305 365 453
#
# _framework density 24.470772
#
# number of rings (size 3 to 8) (size 9 to 14) (size 15 to 20)
#    1.000    0.667    0.000    2.000   11.667    4.000 
#    0.000    1.667    0.000    3.000    0.000    0.000 
#    0.000    0.000    0.000    0.000    0.000    0.000 
#
# Total GULP energy -67015.430792 kJ/mol
# GULP energy per Si atom -5584.619233 kJ/mol
# Density = 2.441508 g / cm^3
# Si number density = 24.470772 Si / 1000 Ang^3
#
#
#
# Elastic Constant Matrix: (Units=GPa)
#
#
# Indices 1 2 3 4 5 6 
#
# 1 143.0850 55.7492 70.1973 1.5680 -29.5635 36.8794
# 2 55.7492 150.3010 66.8817 7.9935 -13.3886 12.6693
# 3 70.1973 66.8817 237.6977 27.0135 -19.3437 30.3001
# 4 1.5680 7.9935 27.0135 60.3642 -2.5154 -6.8003
# 5 -29.5635 -13.3886 -19.3437 -2.5154 29.7045 -4.7666
# 6 36.8794 12.6693 30.3001 -6.8003 -4.7666 56.1337
#
#
#
# Elastic Compliance Matrix: (Units=1/GPa)
#
#
# Indices 1 2 3 4 5 6 
#
# 1 0.012013 -0.002565 -0.001405 0.000384 0.008995 -0.005744
# 2 -0.002565 0.008301 -0.001621 -0.000221 0.000223 0.000679
# 3 -0.001405 -0.001621 0.005701 -0.002481 0.001052 -0.001999
# 4 0.000384 -0.000221 -0.002481 0.018109 0.000745 0.003394
# 5 0.008995 0.000223 0.001052 0.000745 0.043019 -0.002785
# 6 -0.005744 0.000679 -0.001999 0.003394 -0.002785 0.022689
#
#
# Mechanical properties :
#
#
# Convention : Reuss Voigt Hill
#
# Bulk Modulus (GPa) = 67.42974 101.86002 84.64488
# Shear Modulus (GPa) = 39.69569 51.79087 45.74328
#
# Velocity S-wave (km/s) = 4.03198 4.60547 4.32823
# Velocity P-wave (km/s) = 7.02075 8.36636 7.72292
#
# Compressibility (1/GPa) = 0.01483025
#
# Stress axis : x y z
#
# Youngs Moduli (GPa) = 83.24580 120.47253 175.41863
#
# Poissons Ratio (x) = 0.30906 0.24649
# Poissons Ratio (y) = 0.21356 0.28441
# Poissons Ratio (z) = 0.11697 0.19532
#
# Static dielectric constant tensor:
#      x y z
#    x 1.983880 0.043480 -0.081280 
#    y 0.043480 2.119820 -0.049800 
#    z -0.081280 -0.049800 2.139010 
# 
# From -- ./inp_files/409617.got.cif
#   From: 2010.05.17/outbox.cif.g08.bks.cpg/sg2_205_cif.got.tgz:409617.got - 2010.06.03 11:33:40.
