data_PCOD9038518
_publ_section_title
;
Structure prediction by ZEFSAII (Michael W. Deem and Ramdas Pophale) SiO2 
 PCOD9038518
Probable space group: P -1
;
_chemical_formula_sum "Si O2"
_cell_formula_units_Z 16
_cell_length_a 10.769531
_cell_length_b 9.970606
_cell_length_c 9.102503
_cell_angle_alpha 133.043825
_cell_angle_beta 90.810186
_cell_angle_gamma 101.373424
_cell_volume 685.041871
_symmetry_space_group_name_H-M "P -1"
_symmetry_group_IT_number 2
_symmetry_cell_setting 'triclinic'
loop_
_space_group_symop_operation_xyz
x,y,z
-x,-y,-z
loop_
_atom_site_type_symbol
_atom_site_label
_atom_site_fract_x
_atom_site_fract_y
_atom_site_fract_z
Si Si1 0.419806 0.241559 0.670782
Si Si2 0.281052 0.734648 0.786789
Si Si3 0.821512 0.969863 0.863837
Si Si4 0.879284 0.451075 0.849280
Si Si5 0.527100 0.727916 0.636983
Si Si6 0.101467 0.399020 0.359659
Si Si7 0.135698 0.965049 0.429947
Si Si8 0.367279 0.632610 0.022828
O O1 0.476312 0.226461 0.500929
O O2 0.269923 0.121208 0.590785
O O3 0.517620 0.214032 0.777276
O O4 0.422067 0.462904 0.843051
O O5 0.421638 0.811722 0.775847
O O6 0.225573 0.536289 0.549483
O O7 0.306710 0.703754 0.934816
O O8 0.184079 0.867463 0.895851
O O9 0.672913 0.837351 0.767019
O O10 0.904112 0.820125 0.776791
O O11 0.857031 0.050504 0.759396
O O12 0.898177 0.573626 0.794645
O O13 0.749113 0.454909 0.932333
O O14 0.860984 0.231581 0.642237
O O15 0.000000 0.500000 0.000000
O O16 0.500000 0.500000 0.500000
O O17 0.000000 0.500000 0.500000
O O18 0.000000 0.000000 0.500000
#
# Coordination Sequence:
#
# PCOD9038518 Si02
#       8
#     2   2   2   2   2   2   2   2
#     4  10  23  41  70 107 145 192 247 300 369 440
#     4  12  23  46  72 103 146 192 239 300 372 435
#     4  11  25  45  75 108 139 191 250 300 360 446
#     4  12  26  47  72 101 143 194 241 304 377 437
#     4  11  20  42  70 100 148 191 233 299 370 432
#     4  12  27  48  74 102 147 190 244 306 367 441
#     4  11  23  47  73 103 146 193 244 307 366 433
#     4  11  22  42  69 106 146 187 243 305 367 443
#
# _framework density 23.356237
#
# number of rings (size 3 to 8) (size 9 to 14) (size 15 to 20)
#    0.000    0.750    3.750    4.125    0.000    1.000 
#    9.000    0.000    0.000    0.000    0.000    0.000 
#    0.000    0.000    0.000    0.000    0.000    0.000 
#
# Total GULP energy -89475.362050 kJ/mol
# GULP energy per Si atom -5592.210128 kJ/mol
# Density = 2.330308 g / cm^3
# Si number density = 23.356237 Si / 1000 Ang^3
#
#
#
# Elastic Constant Matrix: (Units=GPa)
#
#
# Indices 1 2 3 4 5 6 
#
# 1 122.0957 21.0546 39.1293 -22.4347 -13.3392 6.6318
# 2 21.0546 30.2083 16.0459 -1.5821 13.8737 -14.5455
# 3 39.1293 16.0459 104.3950 -0.9935 2.6304 -6.1665
# 4 -22.4347 -1.5821 -0.9935 37.7545 -1.2997 -6.3230
# 5 -13.3392 13.8737 2.6304 -1.2997 51.8232 -0.1500
# 6 6.6318 -14.5455 -6.1665 -6.3230 -0.1500 38.2549
#
#
#
# Elastic Compliance Matrix: (Units=1/GPa)
#
#
# Indices 1 2 3 4 5 6 
#
# 1 0.014637 -0.015407 -0.003721 0.006928 0.008232 -0.007818
# 2 -0.015407 0.068732 -0.002605 -0.002437 -0.022214 0.027895
# 3 -0.003721 -0.002605 0.011449 -0.001850 -0.000885 0.001191
# 4 0.006928 -0.002437 -0.001850 0.031022 0.003315 0.002715
# 5 0.008232 -0.022214 -0.000885 0.003315 0.027463 -0.009360
# 6 -0.007818 0.027895 0.001191 0.002715 -0.009360 0.038706
#
#
# Mechanical properties :
#
#
# Convention : Reuss Voigt Hill
#
# Bulk Modulus (GPa) = 19.47395 45.46208 32.46802
# Shear Modulus (GPa) = 19.79461 37.59779 28.69620
#
# Velocity S-wave (km/s) = 2.91436 4.01653 3.50899
# Velocity P-wave (km/s) = 4.43628 6.40444 5.50897
#
# Compressibility (1/GPa) = 0.05135065
#
# Stress axis : x y z
#
# Youngs Moduli (GPa) = 68.32071 14.54922 87.34183
#
# Poissons Ratio (x) = 0.22417 0.32503
# Poissons Ratio (y) = 1.05264 0.22754
# Poissons Ratio (z) = 0.25424 0.03790
#
# Static dielectric constant tensor:
#      x y z
#    x 1.962140 -0.008120 0.013930 
#    y -0.008120 1.858330 0.050770 
#    z 0.013930 0.050770 1.897340 
# 
# From -- ./inp_files/246008.got.cif
#   From: 2010.05.17/outbox.cif.g08.bks.cpg/sg2_124_cif.got.tgz:246008.got - 2010.06.03 11:33:40.
