data_PCOD9038309
_publ_section_title
;
Structure prediction by ZEFSAII (Michael W. Deem and Ramdas Pophale) SiO2 
 PCOD9038309
Probable space group: P -1
;
_chemical_formula_sum "Si O2"
_cell_formula_units_Z 16
_cell_length_a 16.000495
_cell_length_b 5.297570
_cell_length_c 23.861644
_cell_angle_alpha 58.894906
_cell_angle_beta 158.502958
_cell_angle_gamma 120.536885
_cell_volume 632.193662
_symmetry_space_group_name_H-M "P -1"
_symmetry_group_IT_number 2
_symmetry_cell_setting 'triclinic'
loop_
_space_group_symop_operation_xyz
x,y,z
-x,-y,-z
loop_
_atom_site_type_symbol
_atom_site_label
_atom_site_fract_x
_atom_site_fract_y
_atom_site_fract_z
Si Si1 0.762957 0.657750 0.215867
Si Si2 0.356702 0.762251 0.098566
Si Si3 0.851105 0.701408 0.458732
Si Si4 0.295887 0.379435 0.943603
Si Si5 0.409823 0.223807 0.597432
Si Si6 0.782419 0.900592 0.913956
Si Si7 0.377631 0.295045 0.397684
Si Si8 0.978427 0.780480 0.733161
O O1 0.741382 0.516802 0.155644
O O2 0.962805 0.542121 0.392139
O O3 0.507462 0.558088 0.087733
O O4 0.828110 0.993748 0.200012
O O5 0.623498 0.694236 0.279652
O O6 0.226020 0.446966 0.039423
O O7 0.257135 0.897338 0.079024
O O8 0.344677 0.038698 0.017705
O O9 0.742717 0.714548 0.451440
O O10 0.000000 0.000000 0.500000
O O11 0.059973 0.456115 0.815056
O O12 0.584497 0.504147 0.656863
O O13 0.235628 0.162415 0.445574
O O14 0.557347 0.952187 0.731273
O O15 0.000000 0.000000 0.000000
O O16 0.500000 0.500000 0.500000
O O17 0.122622 0.194719 0.270867
O O18 0.500000 0.000000 0.500000
#
# Coordination Sequence:
#
# PCOD9038309 Si02
#       8
#     2   2   2   2   2   2   2   2
#     4  11  23  43  70  99 146 184 247 292 369 424
#     4  11  26  47  72 105 143 187 248 286 364 433
#     4  11  21  45  71 102 142 196 245 300 357 435
#     4  11  25  42  66 106 143 187 235 302 363 435
#     4  10  23  45  68 104 140 183 248 295 363 434
#     4  11  26  48  72 102 141 191 238 302 356 431
#     4  10  23  41  68 103 137 177 231 294 355 419
#     4  11  23  42  71 103 142 188 237 303 368 433
#
# _framework density 25.308698
#
# number of rings (size 3 to 8) (size 9 to 14) (size 15 to 20)
#    0.000    1.250    2.500    2.250    5.250    3.000 
#    2.250    1.875    0.000    0.000    0.000    0.000 
#    0.000    0.000    0.000    0.000    0.000    0.000 
#
# Total GULP energy -89454.710603 kJ/mol
# GULP energy per Si atom -5590.919413 kJ/mol
# Density = 2.525109 g / cm^3
# Si number density = 25.308698 Si / 1000 Ang^3
#
#
#
# Elastic Constant Matrix: (Units=GPa)
#
#
# Indices 1 2 3 4 5 6 
#
# 1 78.3186 24.9012 11.1437 -9.5369 4.3212 4.2649
# 2 24.9012 150.4082 22.3379 -19.0672 7.2899 9.6428
# 3 11.1437 22.3379 115.5354 -31.0468 -3.6463 -10.2077
# 4 -9.5369 -19.0672 -31.0468 46.6660 -1.0529 -0.5071
# 5 4.3212 7.2899 -3.6463 -1.0529 33.4846 -7.8516
# 6 4.2649 9.6428 -10.2077 -0.5071 -7.8516 40.1410
#
#
#
# Elastic Compliance Matrix: (Units=1/GPa)
#
#
# Indices 1 2 3 4 5 6 
#
# 1 0.013818 -0.001793 -0.000773 0.001520 -0.001796 -0.001566
# 2 -0.001793 0.007591 -0.001024 0.001984 -0.002000 -0.002260
# 3 -0.000773 -0.001024 0.011226 0.006993 0.002654 0.003790
# 4 0.001520 0.001984 0.006993 0.027253 0.001403 0.001759
# 5 -0.001796 -0.002000 0.002654 0.001403 0.032684 0.007757
# 6 -0.001566 -0.002260 0.003790 0.001759 0.007757 0.028125
#
#
# Mechanical properties :
#
#
# Convention : Reuss Voigt Hill
#
# Bulk Modulus (GPa) = 39.28581 51.22531 45.25556
# Shear Modulus (GPa) = 36.66742 43.11697 39.89219
#
# Velocity S-wave (km/s) = 3.81045 4.13200 3.97448
# Velocity P-wave (km/s) = 5.90895 6.56115 6.24357
#
# Compressibility (1/GPa) = 0.02545448
#
# Stress axis : x y z
#
# Youngs Moduli (GPa) = 72.37055 131.73788 89.08081
#
# Poissons Ratio (x) = 0.23617 0.06885
# Poissons Ratio (y) = 0.12974 0.09125
# Poissons Ratio (z) = 0.05593 0.13495
#
# Static dielectric constant tensor:
#      x y z
#    x 2.066050 0.037900 -0.027840 
#    y 0.037900 2.008890 0.079980 
#    z -0.027840 0.079980 2.023700 
# 
# From -- ./inp_files/95453.got.cif
#   From: 2010.05.17/outbox.cif.g08.bks.cpg/sg2_48_cif.got.tgz:95453.got - 2010.06.03 11:33:40.
