data_PCOD9038353
_publ_section_title
;
Structure prediction by ZEFSAII (Michael W. Deem and Ramdas Pophale) SiO2 
 PCOD9038353
Probable space group: P -1
;
_chemical_formula_sum "Si O2"
_cell_formula_units_Z 16
_cell_length_a 7.688848
_cell_length_b 5.120371
_cell_length_c 20.927653
_cell_angle_alpha 101.816922
_cell_angle_beta 120.064541
_cell_angle_gamma 64.766937
_cell_volume 644.987480
_symmetry_space_group_name_H-M "P -1"
_symmetry_group_IT_number 2
_symmetry_cell_setting 'triclinic'
loop_
_space_group_symop_operation_xyz
x,y,z
-x,-y,-z
loop_
_atom_site_type_symbol
_atom_site_label
_atom_site_fract_x
_atom_site_fract_y
_atom_site_fract_z
Si Si1 0.397293 0.498877 0.320927
Si Si2 0.970269 0.459903 0.817928
Si Si3 0.754286 0.334408 0.040072
Si Si4 0.788201 0.095829 0.248215
Si Si5 0.885415 0.261688 0.921435
Si Si6 0.183086 0.019037 0.396976
Si Si7 0.496274 0.260155 0.778646
Si Si8 0.420589 0.781959 0.544431
O O1 0.446528 0.679323 0.281291
O O2 0.599353 0.291817 0.389199
O O3 0.231905 0.362416 0.255098
O O4 0.253175 0.710314 0.359718
O O5 0.157563 0.566111 0.875635
O O6 0.074638 0.137942 0.791281
O O7 0.870650 0.462143 0.869145
O O8 0.500000 0.500000 0.000000
O O9 0.829906 0.398392 0.987343
O O10 0.874539 0.988555 0.046294
O O11 0.649674 0.931422 0.249608
O O12 0.635453 0.404873 0.208359
O O13 0.948218 0.174118 0.330337
O O14 0.703595 0.138125 0.858341
O O15 0.378766 0.113926 0.416511
O O16 0.211516 0.994915 0.477710
O O17 0.500000 0.500000 0.500000
#
# Coordination Sequence:
#
# PCOD9038353 Si02
#       8
#     2   2   2   2   2   2   2   2
#     4   9  21  38  65  93 128 184 226 288 346 423
#     4  10  23  41  68  96 133 183 232 293 342 422
#     4  11  24  44  70 100 142 180 236 290 356 421
#     4  11  26  42  70 102 140 183 238 291 350 417
#     4  10  25  44  68 101 137 189 234 288 355 423
#     4   9  20  38  65  97 131 181 235 288 347 424
#     4  11  26  45  66 102 142 183 233 295 353 414
#     4   9  18  36  67  94 132 176 237 284 350 418
#
# _framework density 24.806683
#
# number of rings (size 3 to 8) (size 9 to 14) (size 15 to 20)
#    0.000    2.000    0.000    1.125   14.000    1.500 
#    0.000    1.250    0.000    0.000    0.000    0.000 
#    0.000    0.000    0.000    0.000    0.000    0.000 
#
# Total GULP energy -89286.771612 kJ/mol
# GULP energy per Si atom -5580.423226 kJ/mol
# Density = 2.475022 g / cm^3
# Si number density = 24.806683 Si / 1000 Ang^3
#
#
#
# Elastic Constant Matrix: (Units=GPa)
#
#
# Indices 1 2 3 4 5 6 
#
# 1 74.4462 19.7997 60.3759 -10.8681 -0.1368 -1.0540
# 2 19.7997 86.8519 43.2079 -6.4175 5.2607 -6.0822
# 3 60.3759 43.2079 180.2180 1.2881 -5.7797 4.8585
# 4 -10.8681 -6.4175 1.2881 30.5307 9.0506 0.9800
# 5 -0.1368 5.2607 -5.7797 9.0506 44.5493 1.2920
# 6 -1.0540 -6.0822 4.8585 0.9800 1.2920 31.5380
#
#
#
# Elastic Compliance Matrix: (Units=1/GPa)
#
#
# Indices 1 2 3 4 5 6 
#
# 1 0.020333 -0.000337 -0.006911 0.008149 -0.002494 0.001528
# 2 -0.000337 0.013987 -0.003449 0.003737 -0.002953 0.003222
# 3 -0.006911 -0.003449 0.008860 -0.004215 0.002457 -0.002231
# 4 0.008149 0.003737 -0.004215 0.039249 -0.008960 0.000790
# 5 -0.002494 -0.002953 0.002457 -0.008960 0.024979 -0.001776
# 6 0.001528 0.003222 -0.002231 0.000790 -0.001776 0.032772
#
#
# Mechanical properties :
#
#
# Convention : Reuss Voigt Hill
#
# Bulk Modulus (GPa) = 45.89848 65.36480 55.63164
# Shear Modulus (GPa) = 29.61460 35.86578 32.74019
#
# Velocity S-wave (km/s) = 3.45891 3.80651 3.63686
# Velocity P-wave (km/s) = 5.87322 6.76212 6.33328
#
# Compressibility (1/GPa) = 0.02178721
#
# Stress axis : x y z
#
# Youngs Moduli (GPa) = 49.18016 71.49431 112.86830
#
# Poissons Ratio (x) = 0.02411 0.77999
# Poissons Ratio (y) = 0.01659 0.38926
# Poissons Ratio (z) = 0.33986 0.24657
#
# Static dielectric constant tensor:
#      x y z
#    x 2.070960 0.059990 0.077630 
#    y 0.059990 2.087070 0.007460 
#    z 0.077630 0.007460 2.076620 
# 
# From -- ./inp_files/585797.got.cif
#   From: 2010.05.17/outbox.cif.g08.bks.cpg/sg2_293_cif.got.tgz:585797.got - 2010.06.03 11:33:40.
