data_PCOD9038776
_publ_section_title
;
Structure prediction by ZEFSAII (Michael W. Deem and Ramdas Pophale) SiO2 
 PCOD9038776
Probable space group: P -1
;
_chemical_formula_sum "Si O2"
_cell_formula_units_Z 14
_cell_length_a 8.383528
_cell_length_b 8.945111
_cell_length_c 12.012983
_cell_angle_alpha 91.630029
_cell_angle_beta 103.669378
_cell_angle_gamma 127.649018
_cell_volume 675.370753
_symmetry_space_group_name_H-M "P -1"
_symmetry_group_IT_number 2
_symmetry_cell_setting 'triclinic'
loop_
_space_group_symop_operation_xyz
x,y,z
-x,-y,-z
loop_
_atom_site_type_symbol
_atom_site_label
_atom_site_fract_x
_atom_site_fract_y
_atom_site_fract_z
Si Si1 0.901368 0.004571 0.813729
Si Si2 0.176482 0.164912 0.450419
Si Si3 0.026227 0.635130 0.260244
Si Si4 0.308808 0.092454 0.994423
Si Si5 0.826649 0.525385 0.444973
Si Si6 0.565417 0.207289 0.533322
Si Si7 0.799065 0.323293 0.040529
O O1 0.913306 0.190554 0.802644
O O2 0.851131 0.904150 0.682702
O O3 0.733519 0.878445 0.883914
O O4 0.132792 0.079502 0.893303
O O5 0.178725 0.344250 0.465618
O O6 0.383986 0.212190 0.541472
O O7 0.000000 0.000000 0.500000
O O8 0.238398 0.686670 0.348001
O O9 0.887566 0.622175 0.338080
O O10 0.885801 0.427564 0.175888
O O11 0.553687 0.245876 0.993245
O O12 0.237439 0.875877 0.976024
O O13 0.618441 0.307788 0.423167
O O14 0.000000 0.500000 0.500000
O O15 0.500000 0.000000 0.500000
O O16 0.000000 0.500000 0.000000
#
# Coordination Sequence:
#
# PCOD9038776 Si02
#       7
#     2   2   2   2   2   2   2
#     4  11  23  46  68 101 141 184 235 287 355 416
#     4  12  23  42  66 100 139 181 229 281 352 428
#     4  11  23  43  68  98 138 180 223 288 351 423
#     4  10  26  47  70 100 138 185 237 302 345 410
#     4  10  23  42  61  99 135 175 227 281 345 420
#     4  11  23  42  65  98 139 181 224 282 349 425
#     4  11  24  47  71  99 133 183 244 289 355 412
#
# _framework density 20.729355000000002
#
# number of rings (size 3 to 8) (size 9 to 14) (size 15 to 20)
#    0.000    1.143    4.286    1.286    6.000    1.714 
#    0.000    0.000    0.000    0.000    0.000    0.000 
#    0.000    0.000    0.000    0.000    0.000    0.000 
#
# Total GULP energy -77973.875534 kJ/mol
# GULP energy per Si atom -5569.562538 kJ/mol
# Density = 2.068217 g / cm^3
# Si number density = 20.729355 Si / 1000 Ang^3
#
#
#
# Elastic Constant Matrix: (Units=GPa)
#
#
# Indices 1 2 3 4 5 6 
#
# 1 147.8192 48.5615 48.2453 0.8448 15.7677 11.7859
# 2 48.5615 95.0573 33.1521 -1.7755 -0.0642 8.0350
# 3 48.2453 33.1521 101.5104 13.8150 -0.1945 -0.9806
# 4 0.8448 -1.7755 13.8150 37.5944 -5.7174 -9.4583
# 5 15.7677 -0.0642 -0.1945 -5.7174 36.0868 4.2796
# 6 11.7859 8.0350 -0.9806 -9.4583 4.2796 46.0067
#
#
#
# Elastic Compliance Matrix: (Units=1/GPa)
#
#
# Indices 1 2 3 4 5 6 
#
# 1 0.009615 -0.003601 -0.003396 -0.000148 -0.004065 -0.001559
# 2 -0.003601 0.013540 -0.002962 0.001782 0.002021 -0.001327
# 3 -0.003396 -0.002962 0.013065 -0.004587 0.000745 0.000654
# 4 -0.000148 0.001782 -0.004587 0.030393 0.004208 0.005486
# 5 -0.004065 0.002021 0.000745 0.004208 0.030310 -0.001250
# 6 -0.001559 -0.001327 0.000654 0.005486 -0.001250 0.023625
#
#
# Mechanical properties :
#
#
# Convention : Reuss Voigt Hill
#
# Bulk Modulus (GPa) = 61.34759 67.14495 64.24627
# Shear Modulus (GPa) = 34.27008 38.23275 36.25141
#
# Velocity S-wave (km/s) = 4.07039 4.29928 4.18640
# Velocity P-wave (km/s) = 7.19371 7.55689 7.37754
#
# Compressibility (1/GPa) = 0.01630056
#
# Stress axis : x y z
#
# Youngs Moduli (GPa) = 103.99984 73.85783 76.54217
#
# Poissons Ratio (x) = 0.26599 0.25997
# Poissons Ratio (y) = 0.37454 0.22670
# Poissons Ratio (z) = 0.35323 0.21875
#
# Static dielectric constant tensor:
#      x y z
#    x 1.812500 0.114250 -0.040950 
#    y 0.114250 1.895550 -0.038860 
#    z -0.040950 -0.038860 1.766470 
# 
# From -- ./inp_files/308239.got.cif
#   From: 2010.05.17/outbox.cif.g08.bks.cpg/sg2_155_cif.got.tgz:308239.got - 2010.06.03 11:33:40.
