data_PCOD9038340
_publ_section_title
;
Structure prediction by ZEFSAII (Michael W. Deem and Ramdas Pophale) SiO2 
 PCOD9038340
Probable space group: P -1
;
_chemical_formula_sum "Si O2"
_cell_formula_units_Z 14
_cell_length_a 5.652100
_cell_length_b 8.695214
_cell_length_c 13.719345
_cell_angle_alpha 96.296085
_cell_angle_beta 125.275724
_cell_angle_gamma 73.252342
_cell_volume 525.710122
_symmetry_space_group_name_H-M "P -1"
_symmetry_group_IT_number 2
_symmetry_cell_setting 'triclinic'
loop_
_space_group_symop_operation_xyz
x,y,z
-x,-y,-z
loop_
_atom_site_type_symbol
_atom_site_label
_atom_site_fract_x
_atom_site_fract_y
_atom_site_fract_z
Si Si1 0.166298 0.312525 0.508221
Si Si2 0.751610 0.729858 0.679306
Si Si3 0.383212 0.033336 0.680387
Si Si4 0.729110 0.394016 0.701554
Si Si5 0.931469 0.929343 0.184638
Si Si6 0.328613 0.520273 0.098702
Si Si7 0.761638 0.235945 0.060244
O O1 0.097434 0.240401 0.384060
O O2 0.167081 0.190816 0.588290
O O3 0.518440 0.313095 0.584648
O O4 0.000000 0.500000 0.500000
O O5 0.780183 0.541902 0.666138
O O6 0.921099 0.747009 0.821573
O O7 0.435134 0.863825 0.624582
O O8 0.257071 0.016186 0.756740
O O9 0.721121 0.059871 0.746947
O O10 0.563662 0.476395 0.765782
O O11 0.014685 0.262794 0.806863
O O12 0.767641 0.053365 0.070201
O O13 0.539933 0.368438 0.083828
O O14 0.312809 0.693538 0.059380
O O15 0.000000 0.500000 0.000000
#
# Coordination Sequence:
#
# PCOD9038340 Si02
#       7
#     2   2   2   2   2   2   2
#     4  11  23  40  64 101 138 175 216 273 335 389
#     4  11  21  41  68  97 132 177 222 269 326 399
#     4  10  23  43  66  98 134 177 222 266 325 400
#     4  11  23  41  66  97 134 171 220 275 333 389
#     4  10  23  43  67  97 135 171 218 278 330 388
#     4  11  22  42  67  96 127 172 225 270 326 395
#     4  10  23  41  68  95 128 173 224 269 326 393
#
# _framework density 26.630645999999999
#
# number of rings (size 3 to 8) (size 9 to 14) (size 15 to 20)
#    0.000    1.429    1.429    3.429    2.000    4.000 
#    0.000    7.143    0.000    0.000    0.000    0.000 
#    0.000    0.000    0.000    0.000    0.000    0.000 
#
# Total GULP energy -78187.535340 kJ/mol
# GULP energy per Si atom -5584.823953 kJ/mol
# Density = 2.657003 g / cm^3
# Si number density = 26.630646 Si / 1000 Ang^3
#
#
#
# Elastic Constant Matrix: (Units=GPa)
#
#
# Indices 1 2 3 4 5 6 
#
# 1 102.5592 19.7580 30.1102 0.0750 -4.6295 -0.8623
# 2 19.7580 126.9672 6.9728 -41.9607 19.8726 -8.1113
# 3 30.1102 6.9728 62.2976 -7.8041 -7.8241 7.5638
# 4 0.0750 -41.9607 -7.8041 54.4435 0.4207 -3.5236
# 5 -4.6295 19.8726 -7.8241 0.4207 34.3384 9.1444
# 6 -0.8623 -8.1113 7.5638 -3.5236 9.1444 47.5302
#
#
#
# Elastic Compliance Matrix: (Units=1/GPa)
#
#
# Indices 1 2 3 4 5 6 
#
# 1 0.012059 -0.002911 -0.005628 -0.003083 0.002068 -0.000009
# 2 -0.002911 0.013943 -0.000672 0.011069 -0.010136 0.005204
# 3 -0.005628 -0.000672 0.020310 0.002079 0.005386 -0.004331
# 4 -0.003083 0.011069 0.002079 0.027593 -0.008043 0.005095
# 5 0.002068 -0.010136 0.005386 -0.008043 0.039452 -0.010736
# 6 -0.000009 0.005204 -0.004331 0.005095 -0.010736 0.025060
#
#
# Mechanical properties :
#
#
# Convention : Reuss Voigt Hill
#
# Bulk Modulus (GPa) = 35.85460 45.05621 40.45541
# Shear Modulus (GPa) = 30.09601 42.92796 36.51199
#
# Velocity S-wave (km/s) = 3.36538 4.01930 3.70679
# Velocity P-wave (km/s) = 5.34733 6.20446 5.79177
#
# Compressibility (1/GPa) = 0.02789042
#
# Stress axis : x y z
#
# Youngs Moduli (GPa) = 82.92481 71.72047 49.23648
#
# Poissons Ratio (x) = 0.20876 0.27711
# Poissons Ratio (y) = 0.24137 0.03309
# Poissons Ratio (z) = 0.46672 0.04820
#
# Static dielectric constant tensor:
#      x y z
#    x 2.153030 0.047850 0.125870 
#    y 0.047850 2.134510 0.009160 
#    z 0.125870 0.009160 2.164810 
# 
# From -- ./inp_files/33536.got.cif
#   From: 2010.05.17/outbox.cif.g08.bks.cpg/sg2_17_cif.got.tgz:33536.got - 2010.06.03 11:33:40.
