data_PCOD9038611
_publ_section_title
;
Structure prediction by ZEFSAII (Michael W. Deem and Ramdas Pophale) SiO2 
 PCOD9038611
Probable space group: P -1
;
_chemical_formula_sum "Si O2"
_cell_formula_units_Z 14
_cell_length_a 11.457050
_cell_length_b 8.353538
_cell_length_c 11.306742
_cell_angle_alpha 45.069084
_cell_angle_beta 118.833769
_cell_angle_gamma 126.324007
_cell_volume 613.348267
_symmetry_space_group_name_H-M "P -1"
_symmetry_group_IT_number 2
_symmetry_cell_setting 'triclinic'
loop_
_space_group_symop_operation_xyz
x,y,z
-x,-y,-z
loop_
_atom_site_type_symbol
_atom_site_label
_atom_site_fract_x
_atom_site_fract_y
_atom_site_fract_z
Si Si1 0.821658 0.393929 0.817047
Si Si2 0.423632 0.438428 0.362895
Si Si3 0.980428 0.431563 0.661327
Si Si4 0.726045 0.113905 0.354708
Si Si5 0.068253 0.914293 0.689797
Si Si6 0.883978 0.909657 0.132752
Si Si7 0.419512 0.541967 0.823283
O O1 0.669368 0.394788 0.780377
O O2 0.840108 0.420900 0.668874
O O3 0.950471 0.639238 0.803489
O O4 0.858116 0.159803 0.982135
O O5 0.500000 0.500000 0.500000
O O6 0.512150 0.455902 0.274950
O O7 0.311818 0.148668 0.465420
O O8 0.121618 0.654261 0.666742
O O9 0.992405 0.167814 0.822654
O O10 0.000000 0.500000 0.500000
O O11 0.768648 0.068666 0.265883
O O12 0.605990 0.211052 0.285928
O O13 0.083315 0.094194 0.710416
O O14 0.000000 0.000000 0.500000
O O15 0.736028 0.687921 0.137816
O O16 0.500000 0.500000 0.000000
#
# Coordination Sequence:
#
# PCOD9038611 Si02
#       7
#     2   2   2   2   2   2   2
#     4  11  25  41  68 104 135 174 219 288 352 398
#     4  12  27  45  71 100 135 183 239 276 330 411
#     4  10  23  41  71  98 131 174 221 282 342 406
#     4  10  23  43  68  95 133 174 229 279 334 402
#     4  11  21  43  71 104 133 170 223 290 345 405
#     4  11  24  44  68 100 141 174 230 280 345 403
#     4  11  28  47  68  96 139 189 227 279 338 402
#
# _framework density 22.825530000000001
#
# number of rings (size 3 to 8) (size 9 to 14) (size 15 to 20)
#    0.000    1.143    1.429    3.857    8.000    1.714 
#    2.571    0.000    0.000    0.000    0.000    0.000 
#    0.000    0.000    0.000    0.000    0.000    0.000 
#
# Total GULP energy -78019.498710 kJ/mol
# GULP energy per Si atom -5572.821336 kJ/mol
# Density = 2.277358 g / cm^3
# Si number density = 22.825530 Si / 1000 Ang^3
#
#
#
# Elastic Constant Matrix: (Units=GPa)
#
#
# Indices 1 2 3 4 5 6 
#
# 1 164.3513 14.9631 13.2492 9.1397 18.5412 -34.6505
# 2 14.9631 70.2214 19.6058 3.7763 11.4268 -22.5481
# 3 13.2492 19.6058 76.7575 -4.7086 27.7257 -16.0964
# 4 9.1397 3.7763 -4.7086 40.1411 -16.5237 2.2851
# 5 18.5412 11.4268 27.7257 -16.5237 28.7819 -8.0876
# 6 -34.6505 -22.5481 -16.0964 2.2851 -8.0876 31.7940
#
#
#
# Elastic Compliance Matrix: (Units=1/GPa)
#
#
# Indices 1 2 3 4 5 6 
#
# 1 0.010056 0.003320 0.004311 -0.008204 -0.013074 0.012761
# 2 0.003320 0.020905 0.001372 -0.008407 -0.011888 0.016718
# 3 0.004311 0.001372 0.024544 -0.011358 -0.030339 0.011196
# 4 -0.008204 -0.008407 -0.011358 0.043875 0.040993 -0.013380
# 5 -0.013074 -0.011888 -0.030339 0.040993 0.095991 -0.016568
# 6 0.012761 0.016718 0.011196 -0.013380 -0.016568 0.059631
#
#
# Mechanical properties :
#
#
# Convention : Reuss Voigt Hill
#
# Bulk Modulus (GPa) = 13.60361 45.21850 29.41106
# Shear Modulus (GPa) = 19.12044 37.71085 28.41565
#
# Velocity S-wave (km/s) = 2.89741 4.06906 3.53215
# Velocity P-wave (km/s) = 4.14319 6.47532 5.43580
#
# Compressibility (1/GPa) = 0.07350987
#
# Stress axis : x y z
#
# Youngs Moduli (GPa) = 99.44043 47.83496 40.74392
#
# Poissons Ratio (x) = -0.15879 -0.17566
# Poissons Ratio (y) = -0.33010 -0.05588
# Poissons Ratio (z) = -0.42872 -0.06561
#
# Static dielectric constant tensor:
#      x y z
#    x 0.034370 1.445280 0.162440 
#    y 1.445280 0.677100 -0.121760 
#    z 0.162440 -0.121760 1.938840 
# 
# From -- ./inp_files/418775.got.cif
#   From: 2010.05.17/outbox.cif.g08.bks.cpg/sg2_210_cif.got.tgz:418775.got - 2010.06.03 11:33:40.
