data_PCOD9038272
_publ_section_title
;
Structure prediction by ZEFSAII (Michael W. Deem and Ramdas Pophale) SiO2 
 PCOD9038272
Probable space group: P -1
;
_chemical_formula_sum "Si O2"
_cell_formula_units_Z 16
_cell_length_a 9.071199
_cell_length_b 8.618120
_cell_length_c 10.752626
_cell_angle_alpha 55.881613
_cell_angle_beta 93.972265
_cell_angle_gamma 93.315228
_cell_volume 694.065031
_symmetry_space_group_name_H-M "P -1"
_symmetry_group_IT_number 2
_symmetry_cell_setting 'triclinic'
loop_
_space_group_symop_operation_xyz
x,y,z
-x,-y,-z
loop_
_atom_site_type_symbol
_atom_site_label
_atom_site_fract_x
_atom_site_fract_y
_atom_site_fract_z
Si Si1 0.336252 0.330531 0.765356
Si Si2 0.573421 0.040345 0.191393
Si Si3 0.618557 0.413300 0.872870
Si Si4 0.726010 0.788258 0.801487
Si Si5 0.854746 0.342512 0.482556
Si Si6 0.073112 0.181333 0.984755
Si Si7 0.324172 0.981832 0.524466
Si Si8 0.883008 0.434911 0.709189
O O1 0.452417 0.447181 0.803069
O O2 0.241560 0.467756 0.613116
O O3 0.221966 0.228388 0.896509
O O4 0.420874 0.165884 0.774329
O O5 0.408142 0.092797 0.202015
O O6 0.680751 0.035427 0.319908
O O7 0.622848 0.205654 0.025177
O O8 0.674515 0.571392 0.901049
O O9 0.717260 0.441991 0.743050
O O10 0.740138 0.843292 0.632861
O O11 0.875590 0.828547 0.866458
O O12 0.759178 0.190836 0.470094
O O13 0.882281 0.301193 0.647418
O O14 0.012520 0.391820 0.406499
O O15 0.965025 0.348432 0.871627
O O16 0.000000 0.000000 0.000000
O O17 0.500000 0.000000 0.500000
#
# Coordination Sequence:
#
# PCOD9038272 Si02
#       8
#     2   2   2   2   2   2   2   2
#     4  11  24  40  74 100 130 177 229 281 336 395
#     4  11  24  41  68 106 139 170 222 289 335 394
#     4  12  25  43  72 102 134 177 230 283 333 402
#     4  11  25  43  69  99 141 178 222 278 341 394
#     4  10  23  48  68  97 140 177 219 286 336 408
#     4  11  23  42  67  96 136 181 225 274 337 400
#     4  10  23  41  67  98 135 177 219 272 342 393
#     4  10  25  42  71  95 134 179 229 269 344 394
#
# _framework density 23.052596999999999
#
# number of rings (size 3 to 8) (size 9 to 14) (size 15 to 20)
#    0.000    1.250    1.250    3.750   10.500    1.000 
#    2.250    0.625    0.000    0.000    0.000    0.000 
#    0.000    0.000    0.000    0.000    0.000    0.000 
#
# Total GULP energy -89432.927460 kJ/mol
# GULP energy per Si atom -5589.557966 kJ/mol
# Density = 2.300013 g / cm^3
# Si number density = 23.052597 Si / 1000 Ang^3
#
#
#
# Elastic Constant Matrix: (Units=GPa)
#
#
# Indices 1 2 3 4 5 6 
#
# 1 82.3529 15.9543 15.8553 2.6903 -11.6835 29.2911
# 2 15.9543 73.0992 14.0549 -1.6764 4.5822 31.7242
# 3 15.8553 14.0549 106.3045 11.2179 16.8097 14.9473
# 4 2.6903 -1.6764 11.2179 30.5055 10.2034 10.2673
# 5 -11.6835 4.5822 16.8097 10.2034 30.6813 6.8935
# 6 29.2911 31.7242 14.9473 10.2673 6.8935 46.2241
#
#
#
# Elastic Compliance Matrix: (Units=1/GPa)
#
#
# Indices 1 2 3 4 5 6 
#
# 1 0.019056 0.001862 -0.002977 0.000398 0.011672 -0.014220
# 2 0.001862 0.020965 -0.001420 0.007221 -0.000300 -0.016668
# 3 -0.002977 -0.001420 0.011189 -0.001961 -0.006546 0.000655
# 4 0.000398 0.007221 -0.001961 0.041631 -0.010959 -0.012187
# 5 0.011672 -0.000300 -0.006546 -0.010959 0.046464 -0.009568
# 6 -0.014220 -0.016668 0.000655 -0.012187 -0.009568 0.046006
#
#
# Mechanical properties :
#
#
# Convention : Reuss Voigt Hill
#
# Bulk Modulus (GPa) = 21.67350 39.27619 30.47485
# Shear Modulus (GPa) = 24.30020 35.87499 30.08760
#
# Velocity S-wave (km/s) = 3.25024 3.94918 3.61664
# Velocity P-wave (km/s) = 4.84847 6.15381 5.53972
#
# Compressibility (1/GPa) = 0.04613929
#
# Stress axis : x y z
#
# Youngs Moduli (GPa) = 52.47789 47.69863 89.37579
#
# Poissons Ratio (x) = -0.08881 0.26603
# Poissons Ratio (y) = -0.09771 0.12695
# Poissons Ratio (z) = 0.15620 0.06775
#
# Static dielectric constant tensor:
#      x y z
#    x 1.879470 -0.023850 0.024780 
#    y -0.023850 1.866530 -0.007360 
#    z 0.024780 -0.007360 1.916900 
# 
# From -- ./inp_files/381077.got.cif
#   From: 2010.05.17/outbox.cif.g08.bks.cpg/sg2_191_cif.got.tgz:381077.got - 2010.06.03 11:33:40.
