data_PCOD9038878
_publ_section_title
;
Structure prediction by ZEFSAII (Michael W. Deem and Ramdas Pophale) SiO2 
 PCOD9038878
Probable space group: P -1
;
_chemical_formula_sum "Si O2"
_cell_formula_units_Z 14
_cell_length_a 20.855137
_cell_length_b 6.591900
_cell_length_c 5.208598
_cell_angle_alpha 104.150039
_cell_angle_beta 68.336826
_cell_angle_gamma 77.627612
_cell_volume 607.331015
_symmetry_space_group_name_H-M "P -1"
_symmetry_group_IT_number 2
_symmetry_cell_setting 'triclinic'
loop_
_space_group_symop_operation_xyz
x,y,z
-x,-y,-z
loop_
_atom_site_type_symbol
_atom_site_label
_atom_site_fract_x
_atom_site_fract_y
_atom_site_fract_z
Si Si1 0.667795 0.757171 0.293441
Si Si2 0.270868 0.701834 0.192891
Si Si3 0.999871 0.648827 0.293210
Si Si4 0.558058 0.668251 0.751680
Si Si5 0.882015 0.112119 0.741762
Si Si6 0.538587 0.210010 0.584197
Si Si7 0.244079 0.959826 0.818028
O O1 0.634512 0.704207 0.591652
O O2 0.606157 0.986780 0.378038
O O3 0.742516 0.813699 0.204796
O O4 0.679557 0.544603 0.031621
O O5 0.184810 0.737902 0.289232
O O6 0.277841 0.790810 0.487411
O O7 0.281801 0.866182 0.006325
O O8 0.067961 0.741927 0.217229
O O9 0.000000 0.500000 0.500000
O O10 0.930631 0.878784 0.472939
O O11 0.000000 0.500000 0.000000
O O12 0.566580 0.410738 0.682071
O O13 0.490605 0.265024 0.415337
O O14 0.513137 0.795512 0.100551
O O15 0.838331 0.039657 0.014726
#
# Coordination Sequence:
#
# PCOD9038878 Si02
#       7
#     2   2   2   2   2   2   2
#     4  12  24  42  70  97 124 180 220 264 334 395
#     4  10  26  43  65  95 139 171 213 268 323 390
#     4  11  26  41  76 100 130 175 224 261 320 382
#     4  10  23  42  64  91 128 165 218 278 325 383
#     4   9  26  46  66 100 140 168 216 272 320 378
#     4  10  23  42  64  91 128 165 218 278 325 383
#     4  10  26  43  65  95 139 171 213 268 323 390
#
# _framework density 23.051680999999999
#
# number of rings (size 3 to 8) (size 9 to 14) (size 15 to 20)
#    0.857    0.857    0.000    1.714    6.000   10.286 
#    0.000    0.000    0.000    0.000    0.000    0.000 
#    0.000    0.000    0.000    0.000    0.000    0.000 
#
# Total GULP energy -78227.912335 kJ/mol
# GULP energy per Si atom -5587.708024 kJ/mol
# Density = 2.299921 g / cm^3
# Si number density = 23.051681 Si / 1000 Ang^3
#
#
#
# Elastic Constant Matrix: (Units=GPa)
#
#
# Indices 1 2 3 4 5 6 
#
# 1 59.4937 27.4745 51.2075 -10.9167 -7.6793 6.4957
# 2 27.4745 120.7472 49.9764 -5.0063 -20.6311 32.7350
# 3 51.2075 49.9764 154.8247 -8.9250 2.4564 12.5298
# 4 -10.9167 -5.0063 -8.9250 46.3883 4.3212 -11.8415
# 5 -7.6793 -20.6311 2.4564 4.3212 25.2250 -4.0127
# 6 6.4957 32.7350 12.5298 -11.8415 -4.0127 42.4839
#
#
#
# Elastic Compliance Matrix: (Units=1/GPa)
#
#
# Indices 1 2 3 4 5 6 
#
# 1 0.025981 -0.001621 -0.008059 0.004117 0.006894 0.001452
# 2 -0.001621 0.014511 -0.003709 -0.002993 0.010712 -0.009662
# 3 -0.008059 -0.003709 0.010407 0.000446 -0.006492 0.000531
# 4 0.004117 -0.002993 0.000446 0.024733 -0.004196 0.008043
# 5 0.006894 0.010712 -0.006492 -0.004196 0.051262 -0.003721
# 6 0.001452 -0.009662 0.000531 0.008043 -0.003721 0.032495
#
#
# Mechanical properties :
#
#
# Convention : Reuss Voigt Hill
#
# Bulk Modulus (GPa) = 41.45685 65.82027 53.63856
# Shear Modulus (GPa) = 25.74576 36.57992 31.16284
#
# Velocity S-wave (km/s) = 3.34559 3.98787 3.68077
# Velocity P-wave (km/s) = 5.73997 7.05829 6.43299
#
# Compressibility (1/GPa) = 0.02412147
#
# Stress axis : x y z
#
# Youngs Moduli (GPa) = 38.49022 68.91269 96.08656
#
# Poissons Ratio (x) = 0.11170 0.77439
# Poissons Ratio (y) = 0.06239 0.35634
# Poissons Ratio (z) = 0.31020 0.25557
#
# Static dielectric constant tensor:
#      x y z
#    x 1.932270 0.013940 -0.035620 
#    y 0.013940 1.902320 -0.051790 
#    z -0.035620 -0.051790 1.826380 
# 
# From -- ./inp_files/125637.got.cif
#   From: 2010.05.17/outbox.cif.g08.bks.cpg/sg2_63_cif.got.tgz:125637.got - 2010.06.03 11:33:40.
