data_PCOD9038321
_publ_section_title
;
Structure prediction by ZEFSAII (Michael W. Deem and Ramdas Pophale) SiO2 
 PCOD9038321
Probable space group: P -1
;
_chemical_formula_sum "Si O2"
_cell_formula_units_Z 14
_cell_length_a 10.911091
_cell_length_b 14.106699
_cell_length_c 17.295925
_cell_angle_alpha 28.772122
_cell_angle_beta 149.119720
_cell_angle_gamma 149.902510
_cell_volume 584.979403
_symmetry_space_group_name_H-M "P -1"
_symmetry_group_IT_number 2
_symmetry_cell_setting 'triclinic'
loop_
_space_group_symop_operation_xyz
x,y,z
-x,-y,-z
loop_
_atom_site_type_symbol
_atom_site_label
_atom_site_fract_x
_atom_site_fract_y
_atom_site_fract_z
Si Si1 0.734092 0.957742 0.337581
Si Si2 0.932653 0.776599 0.171743
Si Si3 0.621909 0.828168 0.200429
Si Si4 0.199467 0.175575 0.243138
Si Si5 0.634790 0.366108 0.946999
Si Si6 0.631388 0.367047 0.209797
Si Si7 0.506571 0.926052 0.391731
O O1 0.505664 0.865649 0.345239
O O2 0.661742 0.808112 0.327929
O O3 0.742626 0.187853 0.148519
O O4 0.000000 0.000000 0.500000
O O5 0.654049 0.711993 0.111073
O O6 0.883140 0.562246 0.247046
O O7 0.203281 0.832922 0.323957
O O8 0.000000 0.000000 0.000000
O O9 0.437218 0.629812 0.185553
O O10 0.922832 0.959490 0.235209
O O11 0.500000 0.000000 0.000000
O O12 0.168874 0.398491 0.077927
O O13 0.421575 0.222546 0.265163
O O14 0.325915 0.154307 0.407056
O O15 0.655399 0.193208 0.290099
O O16 0.500000 0.500000 0.000000
#
# Coordination Sequence:
#
# PCOD9038321 Si02
#       7
#     2   2   2   2   2   2   2
#     4  11  22  44  65  93 131 177 223 273 314 386
#     4  11  21  40  69  98 130 167 214 269 336 396
#     4  10  23  41  68  90 129 179 226 261 320 383
#     4  11  24  42  66  99 134 171 213 277 334 388
#     4  10  23  43  70  95 131 173 223 267 333 398
#     4  11  23  39  67  99 127 171 213 261 339 398
#     4  12  23  41  66  96 136 168 215 276 327 388
#
# _framework density 23.932466999999999
#
# number of rings (size 3 to 8) (size 9 to 14) (size 15 to 20)
#    0.000    1.143    4.286    2.143    0.000    5.714 
#    0.000    2.143    0.000    0.000    0.000    0.000 
#    0.000    0.000    0.000    0.000    0.000    0.000 
#
# Total GULP energy -78253.398649 kJ/mol
# GULP energy per Si atom -5589.528475 kJ/mol
# Density = 2.387800 g / cm^3
# Si number density = 23.932467 Si / 1000 Ang^3
#
#
#
# Elastic Constant Matrix: (Units=GPa)
#
#
# Indices 1 2 3 4 5 6 
#
# 1 99.0687 27.6004 4.1648 6.8018 -19.7118 -1.3648
# 2 27.6004 95.2704 8.3705 14.8094 5.1349 -12.5466
# 3 4.1648 8.3705 76.5955 18.1965 -2.8522 1.6928
# 4 6.8018 14.8094 18.1965 28.8403 -1.0741 -1.9783
# 5 -19.7118 5.1349 -2.8522 -1.0741 33.9768 9.5383
# 6 -1.3648 -12.5466 1.6928 -1.9783 9.5383 36.2063
#
#
#
# Elastic Compliance Matrix: (Units=1/GPa)
#
#
# Indices 1 2 3 4 5 6 
#
# 1 0.013296 -0.004755 0.000439 -0.000873 0.009484 -0.003713
# 2 -0.004755 0.013962 -0.000306 -0.005686 -0.006802 0.006155
# 3 0.000439 -0.000306 0.015496 -0.009782 0.001805 -0.001824
# 4 -0.000873 -0.005686 -0.009782 0.044044 0.000737 0.000666
# 5 0.009484 -0.006802 0.001805 0.000737 0.039643 -0.012487
# 6 -0.003713 0.006155 -0.001824 0.000666 -0.012487 0.033024
#
#
# Mechanical properties :
#
#
# Convention : Reuss Voigt Hill
#
# Bulk Modulus (GPa) = 29.84063 39.02292 34.43178
# Shear Modulus (GPa) = 27.79651 35.19127 31.49389
#
# Velocity S-wave (km/s) = 3.41171 3.83879 3.63154
# Velocity P-wave (km/s) = 5.29296 5.99911 5.65706
#
# Compressibility (1/GPa) = 0.03351135
#
# Stress axis : x y z
#
# Youngs Moduli (GPa) = 75.20967 71.62330 64.53093
#
# Poissons Ratio (x) = 0.34058 -0.02834
# Poissons Ratio (y) = 0.35763 0.01973
# Poissons Ratio (z) = -0.03303 0.02189
#
# Static dielectric constant tensor:
#      x y z
#    x 1.995030 -0.069640 -0.004230 
#    y -0.069640 1.949910 -0.001880 
#    z -0.004230 -0.001880 1.898000 
# 
# From -- ./inp_files/181022.got.cif
#   From: 2010.05.17/outbox.cif.g08.bks.cpg/sg2_91_cif.got.tgz:181022.got - 2010.06.03 11:33:40.
