data_PCOD9038872
_publ_section_title
;
Structure prediction by ZEFSAII (Michael W. Deem and Ramdas Pophale) SiO2 
 PCOD9038872
Probable space group: P -1
;
_chemical_formula_sum "Si O2"
_cell_formula_units_Z 16
_cell_length_a 12.019072
_cell_length_b 13.496547
_cell_length_c 17.011857
_cell_angle_alpha 145.080405
_cell_angle_beta 149.397642
_cell_angle_gamma 56.728625
_cell_volume 677.218241
_symmetry_space_group_name_H-M "P -1"
_symmetry_group_IT_number 2
_symmetry_cell_setting 'triclinic'
loop_
_space_group_symop_operation_xyz
x,y,z
-x,-y,-z
loop_
_atom_site_type_symbol
_atom_site_label
_atom_site_fract_x
_atom_site_fract_y
_atom_site_fract_z
Si Si1 0.865970 0.565948 0.351329
Si Si2 0.724519 0.232367 0.398297
Si Si3 0.674801 0.002484 0.679478
Si Si4 0.293172 0.127371 0.231521
Si Si5 0.981179 0.578304 0.901075
Si Si6 0.563515 0.588515 0.745002
Si Si7 0.291894 0.839946 0.920455
Si Si8 0.503683 0.591230 0.251168
O O1 0.782259 0.335209 0.173409
O O2 0.609779 0.566234 0.217559
O O3 0.001514 0.651059 0.405805
O O4 0.090248 0.719469 0.649639
O O5 0.531516 0.270974 0.254876
O O6 0.785519 0.361497 0.599950
O O7 0.589767 0.988034 0.167906
O O8 0.558769 0.925461 0.645720
O O9 0.712080 0.822259 0.556893
O O10 0.500000 0.000000 0.500000
O O11 0.912216 0.235737 0.975481
O O12 0.393262 0.364984 0.454416
O O13 0.280686 0.021485 0.073937
O O14 0.000000 0.000000 0.000000
O O15 0.848622 0.639814 0.927737
O O16 0.227276 0.568180 0.068766
O O17 0.508091 0.554939 0.782203
#
# Coordination Sequence:
#
# PCOD9038872 Si02
#       8
#     2   2   2   2   2   2   2   2
#     4  11  24  43  63  89 132 176 219 257 313 383
#     4  12  25  41  67  99 127 168 215 273 318 375
#     4   9  20  37  60  92 123 162 203 249 322 377
#     4  11  20  35  63  91 124 161 203 264 324 370
#     4  11  22  40  64  98 128 156 211 267 330 382
#     4  11  22  38  65  97 127 158 205 272 329 375
#     4  11  23  41  63  95 129 166 220 268 316 374
#     4  10  23  42  64  89 129 176 205 256 322 388
#
# _framework density 23.626062000000001
#
# number of rings (size 3 to 8) (size 9 to 14) (size 15 to 20)
#    0.000    1.250    1.250    6.375    3.500    0.500 
#    0.000    0.625    0.000    0.000    0.000    0.000 
#    0.000    0.000    0.000    0.000    0.000    0.000 
#
# Total GULP energy -89306.779544 kJ/mol
# GULP energy per Si atom -5581.673722 kJ/mol
# Density = 2.357229 g / cm^3
# Si number density = 23.626062 Si / 1000 Ang^3
#
#
#
# Elastic Constant Matrix: (Units=GPa)
#
#
# Indices 1 2 3 4 5 6 
#
# 1 100.4179 18.6990 2.0649 0.6813 14.0624 -4.3305
# 2 18.6990 52.5498 26.7504 1.9577 9.6442 9.6247
# 3 2.0649 26.7504 99.4693 19.3178 14.6714 4.9429
# 4 0.6813 1.9577 19.3178 45.9797 0.0868 8.6742
# 5 14.0624 9.6442 14.6714 0.0868 32.4487 0.3308
# 6 -4.3305 9.6247 4.9429 8.6742 0.3308 36.8664
#
#
#
# Elastic Compliance Matrix: (Units=1/GPa)
#
#
# Indices 1 2 3 4 5 6 
#
# 1 0.011528 -0.004624 0.001762 -0.001205 -0.004442 0.002648
# 2 -0.004624 0.025735 -0.006705 0.003130 -0.002550 -0.007076
# 3 0.001762 -0.006705 0.013580 -0.005725 -0.004911 0.001528
# 4 -0.001205 0.003130 -0.005725 0.025193 0.002176 -0.006138
# 5 -0.004442 -0.002550 -0.004911 0.002176 0.035716 -0.000030
# 6 0.002648 -0.007076 0.001528 -0.006138 -0.000030 0.030523
#
#
# Mechanical properties :
#
#
# Convention : Reuss Voigt Hill
#
# Bulk Modulus (GPa) = 31.53657 38.60728 35.07193
# Shear Modulus (GPa) = 29.07337 36.72048 32.89692
#
# Velocity S-wave (km/s) = 3.51174 3.94666 3.73554
# Velocity P-wave (km/s) = 5.46080 6.09464 5.78640
#
# Compressibility (1/GPa) = 0.03170922
#
# Stress axis : x y z
#
# Youngs Moduli (GPa) = 86.74852 38.85687 73.63575
#
# Poissons Ratio (x) = 0.17966 -0.12973
# Poissons Ratio (y) = 0.40110 0.49374
# Poissons Ratio (z) = -0.15283 0.26054
#
# Static dielectric constant tensor:
#      x y z
#    x 2.013460 0.002330 0.057470 
#    y 0.002330 1.953480 -0.055190 
#    z 0.057470 -0.055190 1.954290 
# 
# From -- ./inp_files/569986.got.cif
#   From: 2010.05.17/outbox.cif.g08.bks.cpg/sg2_285_cif.got.tgz:569986.got - 2010.06.03 11:33:40.
