data_PCOD9038803
_publ_section_title
;
Structure prediction by ZEFSAII (Michael W. Deem and Ramdas Pophale) SiO2 
 PCOD9038803
Probable space group: P -1
;
_chemical_formula_sum "Si O2"
_cell_formula_units_Z 16
_cell_length_a 7.794333
_cell_length_b 15.143478
_cell_length_c 17.785535
_cell_angle_alpha 32.899522
_cell_angle_beta 144.521282
_cell_angle_gamma 136.199314
_cell_volume 656.979169
_symmetry_space_group_name_H-M "P -1"
_symmetry_group_IT_number 2
_symmetry_cell_setting 'triclinic'
loop_
_space_group_symop_operation_xyz
x,y,z
-x,-y,-z
loop_
_atom_site_type_symbol
_atom_site_label
_atom_site_fract_x
_atom_site_fract_y
_atom_site_fract_z
Si Si1 0.979880 0.316150 0.440669
Si Si2 0.323318 0.383344 0.672009
Si Si3 0.320641 0.939430 0.670420
Si Si4 0.190794 0.966160 0.768446
Si Si5 0.019132 0.613384 0.126131
Si Si6 0.811756 0.113539 0.901407
Si Si7 0.249043 0.742161 0.373104
Si Si8 0.380255 0.255865 0.210889
O O1 0.619554 0.296525 0.333453
O O2 0.166518 0.365351 0.547098
O O3 0.074197 0.138916 0.581512
O O4 0.035812 0.456447 0.297012
O O5 0.654362 0.343187 0.822198
O O6 0.338387 0.575533 0.557730
O O7 0.100624 0.271299 0.725531
O O8 0.424201 0.819793 0.730005
O O9 0.294191 0.881578 0.789443
O O10 0.566161 0.098507 0.641472
O O11 0.000000 0.000000 0.500000
O O12 0.499611 0.017783 0.886635
O O13 0.908628 0.864857 0.779604
O O14 0.986516 0.777144 0.045875
O O15 0.766627 0.595249 0.985867
O O16 0.709925 0.244327 0.711216
O O17 0.000000 0.000000 0.000000
#
# Coordination Sequence:
#
# PCOD9038803 Si02
#       8
#     2   2   2   2   2   2   2   2
#     4  12  23  45  71  99 135 185 232 273 343 419
#     4  11  23  41  75  95 133 177 234 279 338 414
#     4  11  23  42  68  96 141 183 228 280 343 408
#     4  11  24  44  71 100 134 188 234 279 336 422
#     4  12  24  43  69 102 136 180 222 291 351 399
#     4  11  23  41  69  96 140 173 226 290 351 402
#     4  10  23  42  63 106 127 176 232 286 329 411
#     4  12  28  44  69 106 142 181 231 285 348 412
#
# _framework density 24.353891999999998
#
# number of rings (size 3 to 8) (size 9 to 14) (size 15 to 20)
#    0.000    0.750    3.750    4.875    3.500    0.500 
#    0.000    0.000    0.000    5.250    0.000    0.000 
#    0.000    0.000    0.000    0.000    0.000    0.000 
#
# Total GULP energy -89478.522026 kJ/mol
# GULP energy per Si atom -5592.407627 kJ/mol
# Density = 2.429846 g / cm^3
# Si number density = 24.353892 Si / 1000 Ang^3
#
#
#
# Elastic Constant Matrix: (Units=GPa)
#
#
# Indices 1 2 3 4 5 6 
#
# 1 97.7121 22.2813 18.4789 -10.2629 9.6759 29.0522
# 2 22.2813 70.1042 17.0849 3.8280 7.5827 24.7042
# 3 18.4789 17.0849 98.8009 14.3514 12.0651 14.0300
# 4 -10.2629 3.8280 14.3514 34.4737 4.9073 1.4791
# 5 9.6759 7.5827 12.0651 4.9073 29.8074 4.8464
# 6 29.0522 24.7042 14.0300 1.4791 4.8464 49.3440
#
#
#
# Elastic Compliance Matrix: (Units=1/GPa)
#
#
# Indices 1 2 3 4 5 6 
#
# 1 0.013861 -0.001563 -0.001817 0.005804 -0.003230 -0.006719
# 2 -0.001563 0.018017 -0.001315 -0.001297 -0.002114 -0.007480
# 3 -0.001817 -0.001315 0.011928 -0.004895 -0.002898 -0.001232
# 4 0.005804 -0.001297 -0.004895 0.033684 -0.004807 -0.001914
# 5 -0.003230 -0.002114 -0.002898 -0.004807 0.037052 0.000289
# 6 -0.006719 -0.007480 -0.001232 -0.001914 0.000289 0.028346
#
#
# Mechanical properties :
#
#
# Convention : Reuss Voigt Hill
#
# Bulk Modulus (GPa) = 29.05431 42.47860 35.76645
# Shear Modulus (GPa) = 30.53439 36.64315 33.58877
#
# Velocity S-wave (km/s) = 3.54471 3.88314 3.71778
# Velocity P-wave (km/s) = 5.35810 6.13067 5.75736
#
# Compressibility (1/GPa) = 0.03441831
#
# Stress axis : x y z
#
# Youngs Moduli (GPa) = 72.14354 55.50368 83.83322
#
# Poissons Ratio (x) = 0.08673 0.15232
# Poissons Ratio (y) = 0.11274 0.11020
# Poissons Ratio (z) = 0.13108 0.07296
#
# Static dielectric constant tensor:
#      x y z
#    x 1.983310 -0.006650 -0.007070 
#    y -0.006650 1.994430 0.018110 
#    z -0.007070 0.018110 1.976630 
# 
# From -- ./inp_files/591223.got.cif
#   From: 2010.05.17/outbox.cif.g08.bks.cpg/sg2_296_cif.got.tgz:591223.got - 2010.06.03 11:33:40.
