data_PCOD9038329
_publ_section_title
;
Structure prediction by ZEFSAII (Michael W. Deem and Ramdas Pophale) SiO2 
 PCOD9038329
Probable space group: P -1
;
_chemical_formula_sum "Si O2"
_cell_formula_units_Z 14
_cell_length_a 7.857309
_cell_length_b 10.059810
_cell_length_c 19.751022
_cell_angle_alpha 156.227538
_cell_angle_beta 57.593564
_cell_angle_gamma 118.460512
_cell_volume 530.871832
_symmetry_space_group_name_H-M "P -1"
_symmetry_group_IT_number 2
_symmetry_cell_setting 'triclinic'
loop_
_space_group_symop_operation_xyz
x,y,z
-x,-y,-z
loop_
_atom_site_type_symbol
_atom_site_label
_atom_site_fract_x
_atom_site_fract_y
_atom_site_fract_z
Si Si1 0.535383 0.284570 0.269960
Si Si2 0.566560 0.846629 0.173972
Si Si3 0.920388 0.305345 0.112124
Si Si4 0.784556 0.105367 0.362280
Si Si5 0.198710 0.914610 0.361839
Si Si6 0.184418 0.046130 0.163191
Si Si7 0.802504 0.256592 0.579091
O O1 0.700355 0.401499 0.235969
O O2 0.374462 0.577596 0.462341
O O3 0.395905 0.000160 0.135868
O O4 0.652749 0.099527 0.219930
O O5 0.354924 0.015050 0.320033
O O6 0.702331 0.821723 0.199885
O O7 0.500000 0.500000 0.000000
O O8 0.084916 0.585156 0.212371
O O9 0.885150 0.212057 0.997752
O O10 0.000000 0.000000 0.000000
O O11 0.791014 0.053479 0.417419
O O12 0.006681 0.144015 0.300352
O O13 0.310986 0.854773 0.381776
O O14 0.029747 0.204524 0.534112
O O15 0.232058 0.368507 0.258558
#
# Coordination Sequence:
#
# PCOD9038329 Si02
#       7
#     2   2   2   2   2   2   2
#     4  11  25  44  70 101 130 179 229 269 330 403
#     4  12  26  42  66  98 136 172 221 276 336 393
#     4  12  24  43  68 100 136 177 220 274 336 394
#     4  11  24  44  72  97 133 178 228 271 330 399
#     4  11  24  42  65  97 137 172 220 273 337 389
#     4  11  22  45  70  98 136 174 226 275 330 396
#     4  10  23  41  68  93 131 172 223 271 329 386
#
# _framework density 26.371713
#
# number of rings (size 3 to 8) (size 9 to 14) (size 15 to 20)
#    0.000    0.857    1.429    6.857    4.000    1.714 
#    2.571    2.857    0.000    0.000    0.000    0.000 
#    0.000    0.000    0.000    0.000    0.000    0.000 
#
# Total GULP energy -78357.050138 kJ/mol
# GULP energy per Si atom -5596.932153 kJ/mol
# Density = 2.631169 g / cm^3
# Si number density = 26.371713 Si / 1000 Ang^3
#
#
#
# Elastic Constant Matrix: (Units=GPa)
#
#
# Indices 1 2 3 4 5 6 
#
# 1 95.8544 31.5712 32.5531 -10.2672 33.6648 -0.6213
# 2 31.5712 111.4246 33.6230 -23.4229 7.9590 -1.1189
# 3 32.5531 33.6230 82.0802 -12.2326 42.4157 -1.2958
# 4 -10.2672 -23.4229 -12.2326 41.3856 -4.0334 -3.9875
# 5 33.6648 7.9590 42.4157 -4.0334 59.3978 -11.3466
# 6 -0.6213 -1.1189 -1.2958 -3.9875 -11.3466 55.1552
#
#
#
# Elastic Compliance Matrix: (Units=1/GPa)
#
#
# Indices 1 2 3 4 5 6 
#
# 1 0.014407 -0.003311 -0.000259 0.000726 -0.007765 -0.001456
# 2 -0.003311 0.012287 -0.005342 0.005145 0.004665 0.001418
# 3 -0.000259 -0.005342 0.022928 0.001879 -0.015899 -0.002708
# 4 0.000726 0.005145 0.001879 0.028006 -0.000130 0.002155
# 5 -0.007765 0.004665 -0.015899 -0.000130 0.033189 0.006452
# 6 -0.001456 0.001418 -0.002708 0.002155 0.006452 0.019562
#
#
# Mechanical properties :
#
#
# Convention : Reuss Voigt Hill
#
# Bulk Modulus (GPa) = 31.44885 53.87263 42.66074
# Shear Modulus (GPa) = 31.48578 43.96185 37.72382
#
# Velocity S-wave (km/s) = 3.45907 4.08733 3.78625
# Velocity P-wave (km/s) = 5.28248 6.53816 5.94358
#
# Compressibility (1/GPa) = 0.03179766
#
# Stress axis : x y z
#
# Youngs Moduli (GPa) = 69.41236 81.38493 43.61547
#
# Poissons Ratio (x) = 0.26946 0.01131
# Poissons Ratio (y) = 0.22982 0.23298
# Poissons Ratio (z) = 0.01801 0.43472
#
# Static dielectric constant tensor:
#      x y z
#    x 2.076800 -0.009790 0.052860 
#    y -0.009790 2.067300 -0.110590 
#    z 0.052860 -0.110590 2.160420 
# 
# From -- ./inp_files/557712.got.cif
#   From: 2010.05.17/outbox.cif.g08.bks.cpg/sg2_279_cif.got.tgz:557712.got - 2010.06.03 11:33:40.
