data_PCOD9038779
_publ_section_title
;
Structure prediction by ZEFSAII (Michael W. Deem and Ramdas Pophale) SiO2 
 PCOD9038779
Probable space group: P -1
;
_chemical_formula_sum "Si O2"
_cell_formula_units_Z 14
_cell_length_a 20.640924
_cell_length_b 5.201322
_cell_length_c 9.323410
_cell_angle_alpha 104.455857
_cell_angle_beta 145.652046
_cell_angle_gamma 78.093083
_cell_volume 546.879919
_symmetry_space_group_name_H-M "P -1"
_symmetry_group_IT_number 2
_symmetry_cell_setting 'triclinic'
loop_
_space_group_symop_operation_xyz
x,y,z
-x,-y,-z
loop_
_atom_site_type_symbol
_atom_site_label
_atom_site_fract_x
_atom_site_fract_y
_atom_site_fract_z
Si Si1 0.846476 0.506103 0.357461
Si Si2 0.452993 0.290156 0.499438
Si Si3 0.041444 0.864210 0.701848
Si Si4 0.876234 0.391297 0.714385
Si Si5 0.394451 0.489471 0.948984
Si Si6 0.753996 0.848705 0.732892
Si Si7 0.670142 0.085265 0.354607
O O1 0.882875 0.379203 0.256459
O O2 0.880467 0.362180 0.547170
O O3 0.711054 0.511700 0.130297
O O4 0.926220 0.763140 0.550477
O O5 0.500000 0.500000 0.500000
O O6 0.317037 0.259633 0.275741
O O7 0.500000 0.000000 0.500000
O O8 0.500049 0.399603 0.752906
O O9 0.000000 0.000000 0.500000
O O10 0.128020 0.025215 0.979718
O O11 0.791438 0.615001 0.659867
O O12 0.809882 0.124847 0.604221
O O13 0.000000 0.500000 0.000000
O O14 0.374900 0.689297 0.806784
O O15 0.388726 0.184739 0.846385
O O16 0.668688 0.052824 0.520422
#
# Coordination Sequence:
#
# PCOD9038779 Si02
#       7
#     2   2   2   2   2   2   2
#     4  10  23  42  62 107 141 201 243 305 382 450
#     4  12  30  52  79 112 158 207 257 321 387 462
#     4  11  25  40  70 103 152 199 251 309 386 461
#     4  11  24  44  76 110 157 196 256 320 385 453
#     4  11  25  47  78 105 153 199 255 316 384 450
#     4  12  27  46  76 117 150 203 265 318 386 463
#     4  11  24  47  74 115 146 198 255 322 380 455
#
# _framework density 25.599771
#
# number of rings (size 3 to 8) (size 9 to 14) (size 15 to 20)
#    0.000    0.857    2.857    3.429   10.000    3.429 
#    0.000    0.000    0.000    0.000    0.000    0.000 
#    0.000    0.000    0.000    0.000    0.000    0.000 
#
# Total GULP energy -78201.357014 kJ/mol
# GULP energy per Si atom -5585.811215 kJ/mol
# Density = 2.554151 g / cm^3
# Si number density = 25.599771 Si / 1000 Ang^3
#
#
#
# Elastic Constant Matrix: (Units=GPa)
#
#
# Indices 1 2 3 4 5 6 
#
# 1 97.6028 55.4512 -4.3564 14.0323 8.7686 13.6723
# 2 55.4512 141.0446 29.8246 23.5849 -4.8344 17.7835
# 3 -4.3564 29.8246 122.0536 26.4376 -4.7913 -0.1015
# 4 14.0323 23.5849 26.4376 42.7245 8.3458 -0.6467
# 5 8.7686 -4.8344 -4.7913 8.3458 51.1147 8.8479
# 6 13.6723 17.7835 -0.1015 -0.6467 8.8479 50.8927
#
#
#
# Elastic Compliance Matrix: (Units=1/GPa)
#
#
# Indices 1 2 3 4 5 6 
#
# 1 0.014293 -0.005534 0.002374 -0.002735 -0.002032 -0.001583
# 2 -0.005534 0.010710 -0.001951 -0.003483 0.002832 -0.002796
# 3 0.002374 -0.001951 0.010171 -0.006280 0.001433 -0.000264
# 4 -0.002735 -0.003483 -0.006280 0.031368 -0.006160 0.003409
# 5 -0.002032 0.002832 0.001433 -0.006160 0.022075 -0.004357
# 6 -0.001583 -0.002796 -0.000264 0.003409 -0.004357 0.021852
#
#
# Mechanical properties :
#
#
# Convention : Reuss Voigt Hill
#
# Bulk Modulus (GPa) = 40.07789 58.05999 49.06894
# Shear Modulus (GPa) = 38.75705 47.59849 43.17777
#
# Velocity S-wave (km/s) = 3.89519 4.31668 4.11134
# Velocity P-wave (km/s) = 5.99329 6.89739 6.46117
#
# Compressibility (1/GPa) = 0.02495141
#
# Stress axis : x y z
#
# Youngs Moduli (GPa) = 69.96369 93.36846 98.31863
#
# Poissons Ratio (x) = 0.51669 -0.23339
# Poissons Ratio (y) = 0.38717 0.19186
# Poissons Ratio (z) = -0.16608 0.18220
#
# Static dielectric constant tensor:
#      x y z
#    x 2.721710 0.617670 -0.255820 
#    y 0.617670 2.860460 -0.320560 
#    z -0.255820 -0.320560 2.092140 
# 
# From -- ./inp_files/340586.got.cif
#   From: 2010.05.17/outbox.cif.g08.bks.cpg/sg2_171_cif.got.tgz:340586.got - 2010.06.03 11:33:40.
