data_PCOD9038791
_publ_section_title
;
Structure prediction by ZEFSAII (Michael W. Deem and Ramdas Pophale) SiO2 
 PCOD9038791
Probable space group: P -1
;
_chemical_formula_sum "Si O2"
_cell_formula_units_Z 16
_cell_length_a 15.317579
_cell_length_b 9.659785
_cell_length_c 9.431166
_cell_angle_alpha 76.779383
_cell_angle_beta 141.243774
_cell_angle_gamma 111.770141
_cell_volume 806.868341
_symmetry_space_group_name_H-M "P -1"
_symmetry_group_IT_number 2
_symmetry_cell_setting 'triclinic'
loop_
_space_group_symop_operation_xyz
x,y,z
-x,-y,-z
loop_
_atom_site_type_symbol
_atom_site_label
_atom_site_fract_x
_atom_site_fract_y
_atom_site_fract_z
Si Si1 0.359895 0.551894 0.348506
Si Si2 0.874519 0.633639 0.125427
Si Si3 0.780311 0.222982 0.521722
Si Si4 0.631164 0.606288 0.328760
Si Si5 0.350556 0.867955 0.311057
Si Si6 0.190478 0.083494 0.377502
Si Si7 0.692659 0.455146 0.172333
Si Si8 0.845994 0.945777 0.999108
O O1 0.500000 0.500000 0.500000
O O2 0.341813 0.514847 0.500895
O O3 0.379144 0.726163 0.305383
O O4 0.221914 0.448598 0.110620
O O5 0.828450 0.518925 0.223823
O O6 0.045127 0.689708 0.287134
O O7 0.829446 0.781211 0.075950
O O8 0.727809 0.198141 0.623842
O O9 0.699533 0.312178 0.302620
O O10 0.759476 0.056227 0.477841
O O11 0.715240 0.765303 0.465792
O O12 0.689089 0.579341 0.254962
O O13 0.457970 0.580774 0.098560
O O14 0.500000 0.000000 0.500000
O O15 0.248050 0.952828 0.085573
O O16 0.199438 0.087809 0.216418
O O17 0.017159 0.042029 0.199264
#
# Coordination Sequence:
#
# PCOD9038791 Si02
#       8
#     2   2   2   2   2   2   2   2
#     4  12  23  40  65  97 123 161 219 264 315 369
#     4  11  22  40  69  91 130 168 209 263 310 377
#     4  10  23  42  62  93 130 168 207 255 325 374
#     4  11  23  39  65  90 128 171 214 255 312 372
#     4  11  24  37  62  95 127 158 206 272 315 369
#     4   9  19  38  65  91 122 166 203 261 311 375
#     4  11  24  41  60  93 132 174 209 254 312 376
#     4   9  19  38  62  94 126 156 206 260 325 355
#
# _framework density 19.829751999999999
#
# number of rings (size 3 to 8) (size 9 to 14) (size 15 to 20)
#    0.000    1.500    3.750    1.875    1.750    2.000 
#    0.000    3.750    0.000    0.000    0.000    0.000 
#    0.000    0.000    0.000    0.000    0.000    0.000 
#
# Total GULP energy -89333.180621 kJ/mol
# GULP energy per Si atom -5583.323789 kJ/mol
# Density = 1.978462 g / cm^3
# Si number density = 19.829752 Si / 1000 Ang^3
#
#
#
# Elastic Constant Matrix: (Units=GPa)
#
#
# Indices 1 2 3 4 5 6 
#
# 1 57.8378 8.5285 12.8453 5.9141 4.7344 2.9837
# 2 8.5285 100.0011 32.4661 13.1940 5.6188 -20.5726
# 3 12.8453 32.4661 54.7611 12.6714 -5.9682 -7.2603
# 4 5.9141 13.1940 12.6714 35.8170 0.1593 -0.4742
# 5 4.7344 5.6188 -5.9682 0.1593 17.7163 -9.3139
# 6 2.9837 -20.5726 -7.2603 -0.4742 -9.3139 33.5739
#
#
#
# Elastic Compliance Matrix: (Units=1/GPa)
#
#
# Indices 1 2 3 4 5 6 
#
# 1 0.020031 -0.000201 -0.006339 -0.001026 -0.010705 -0.006258
# 2 -0.000201 0.014203 -0.007406 -0.002482 -0.003745 0.006045
# 3 -0.006339 -0.007406 0.028377 -0.006250 0.017267 0.006864
# 4 -0.001026 -0.002482 -0.006250 0.031186 -0.002992 -0.003171
# 5 -0.010705 -0.003745 0.017267 -0.002992 0.079110 0.024294
# 6 -0.006258 0.006045 0.006864 -0.003171 0.024294 0.042225
#
#
# Mechanical properties :
#
#
# Convention : Reuss Voigt Hill
#
# Bulk Modulus (GPa) = 28.80157 35.58666 32.19411
# Shear Modulus (GPa) = 19.63905 28.00546 23.82225
#
# Velocity S-wave (km/s) = 3.15045 3.76213 3.46979
# Velocity P-wave (km/s) = 5.27160 6.07096 5.68534
#
# Compressibility (1/GPa) = 0.03472033
#
# Stress axis : x y z
#
# Youngs Moduli (GPa) = 49.92213 70.40818 35.24026
#
# Poissons Ratio (x) = 0.01416 0.22337
# Poissons Ratio (y) = 0.01004 0.26097
# Poissons Ratio (z) = 0.31643 0.52141
#
# Static dielectric constant tensor:
#      x y z
#    x 1.740060 -0.014320 0.010860 
#    y -0.014320 1.700040 -0.030680 
#    z 0.010860 -0.030680 1.666440 
# 
# From -- ./inp_files/298441.got.cif
#   From: 2010.05.17/outbox.cif.g08.bks.cpg/sg2_150_cif.got.tgz:298441.got - 2010.06.03 11:33:40.
