data_PCOD9038010
_publ_section_title
;
Structure prediction by ZEFSAII (Michael W. Deem and Ramdas Pophale) SiO2 
 PCOD9038010
Probable space group: P -1
;
_chemical_formula_sum "Si O2"
_cell_formula_units_Z 15
_cell_length_a 17.591665
_cell_length_b 9.000197
_cell_length_c 12.355310
_cell_angle_alpha 45.680698
_cell_angle_beta 42.117385
_cell_angle_gamma 79.334294
_cell_volume 675.470601
_symmetry_space_group_name_H-M "P -1"
_symmetry_group_IT_number 2
_symmetry_cell_setting 'triclinic'
loop_
_space_group_symop_operation_xyz
x,y,z
-x,-y,-z
loop_
_atom_site_type_symbol
_atom_site_label
_atom_site_fract_x
_atom_site_fract_y
_atom_site_fract_z
Si Si1 0.878701 0.124340 0.238076
Si Si2 0.000000 0.500000 0.500000
Si Si3 0.766536 0.406988 0.295718
Si Si4 0.396750 0.589727 0.735414
Si Si5 0.921658 0.102085 0.972906
Si Si6 0.676485 0.257975 0.060810
Si Si7 0.402151 0.535299 0.393424
Si Si8 0.391198 0.533795 0.152489
O O1 0.781864 0.181519 0.371715
O O2 0.779543 0.789120 0.515467
O O3 0.893102 0.210866 0.052980
O O4 0.052621 0.312044 0.005909
O O5 0.981778 0.661311 0.342466
O O6 0.153921 0.611698 0.214357
O O7 0.712214 0.464467 0.217994
O O8 0.645597 0.324934 0.558259
O O9 0.320471 0.554133 0.949038
O O10 0.449417 0.417580 0.752217
O O11 0.558755 0.928400 0.391898
O O12 0.755219 0.806839 0.254535
O O13 0.000000 0.000000 0.000000
O O14 0.599153 0.249176 0.038431
O O15 0.421798 0.602742 0.211441
O O16 0.500000 0.500000 0.000000
#
# Coordination Sequence:
#
# PCOD9038010 Si02
#       8
#     2   1   2   2   2   2   2   2
#     4  10  23  41  65  97 130 175 220 265 335 402
#     4  12  22  36  68 106 126 160 228 292 324 380
#     4  11  23  40  67  90 133 181 211 261 341 412
#     4  11  23  44  64  94 133 176 213 271 336 399
#     4  11  21  41  69  97 133 170 231 282 325 396
#     4  11  24  40  69  98 128 169 227 279 325 393
#     4  11  22  41  66  95 127 171 225 268 330 402
#     4  11  22  42  71  96 125 170 225 280 326 391
#
# _framework density 22.20674
#
# number of rings (size 3 to 8) (size 9 to 14) (size 15 to 20)
#    0.000    1.067    4.000    3.600    3.733    0.000 
#    0.000    3.333    5.867    0.000    0.000    0.000 
#    0.000    0.000    0.000    0.000    0.000    0.000 
#
# Total GULP energy -83584.220079 kJ/mol
# GULP energy per Si atom -5572.281339 kJ/mol
# Density = 2.215620 g / cm^3
# Si number density = 22.206740 Si / 1000 Ang^3
#
#
#
# Elastic Constant Matrix: (Units=GPa)
#
#
# Indices 1 2 3 4 5 6 
#
# 1 103.5202 60.3479 24.6693 21.7418 -4.8961 -15.5004
# 2 60.3479 121.1499 45.3885 49.5943 -4.4460 -12.4387
# 3 24.6693 45.3885 90.1092 35.0851 2.4381 -2.1823
# 4 21.7418 49.5943 35.0851 46.1578 -0.8163 -8.0247
# 5 -4.8961 -4.4460 2.4381 -0.8163 39.9191 9.3186
# 6 -15.5004 -12.4387 -2.1823 -8.0247 9.3186 41.5750
#
#
#
# Elastic Compliance Matrix: (Units=1/GPa)
#
#
# Indices 1 2 3 4 5 6 
#
# 1 0.014208 -0.007404 -0.001153 0.002752 0.000227 0.003502
# 2 -0.007404 0.018956 -0.001370 -0.015901 0.001071 -0.000470
# 3 -0.001153 -0.001370 0.016240 -0.010661 -0.001083 -0.001803
# 4 0.002752 -0.015901 -0.010661 0.046389 -0.000973 0.004881
# 5 0.000227 0.001071 -0.001083 -0.000973 0.026598 -0.005801
# 6 0.003502 -0.000470 -0.001803 0.004881 -0.005801 0.027366
#
#
# Mechanical properties :
#
#
# Convention : Reuss Voigt Hill
#
# Bulk Modulus (GPa) = 33.84206 63.95453 48.89829
# Shear Modulus (GPa) = 27.86092 37.82195 32.84143
#
# Velocity S-wave (km/s) = 3.54590 4.13143 3.84981
# Velocity P-wave (km/s) = 5.66014 7.18473 6.46752
#
# Compressibility (1/GPa) = 0.02954903
#
# Stress axis : x y z
#
# Youngs Moduli (GPa) = 70.38212 52.75302 61.57458
#
# Poissons Ratio (x) = 0.39060 0.07101
# Poissons Ratio (y) = 0.52113 0.08438
# Poissons Ratio (z) = 0.08117 0.07229
#
# Static dielectric constant tensor:
#      x y z
#    x 1.823070 -0.012590 -0.016570 
#    y -0.012590 1.884090 0.011870 
#    z -0.016570 0.011870 1.825160 
# 
# From -- ./inp_files/174833.got.cif
#   From: 2010.05.17/outbox.cif.g08.bks.cpg/sg2_88_cif.got.tgz:174833.got - 2010.06.03 11:33:40.
