data_PCOD9038156
_publ_section_title
;
Structure prediction by ZEFSAII (Michael W. Deem and Ramdas Pophale) SiO2 
 PCOD9038156
Probable space group: P -1
;
_chemical_formula_sum "Si O2"
_cell_formula_units_Z 14
_cell_length_a 9.507785
_cell_length_b 14.415335
_cell_length_c 17.885182
_cell_angle_alpha 160.254652
_cell_angle_beta 132.911055
_cell_angle_gamma 44.535733
_cell_volume 580.312782
_symmetry_space_group_name_H-M "P -1"
_symmetry_group_IT_number 2
_symmetry_cell_setting 'triclinic'
loop_
_space_group_symop_operation_xyz
x,y,z
-x,-y,-z
loop_
_atom_site_type_symbol
_atom_site_label
_atom_site_fract_x
_atom_site_fract_y
_atom_site_fract_z
Si Si1 0.309767 0.280419 0.100254
Si Si2 0.362422 0.553942 0.567160
Si Si3 0.376209 0.373013 0.915228
Si Si4 0.999814 0.756714 0.137777
Si Si5 0.202037 0.889200 0.442189
Si Si6 0.901899 0.023549 0.105828
Si Si7 0.691398 0.071670 0.908094
O O1 0.517597 0.263943 0.203118
O O2 0.283502 0.574677 0.268322
O O3 0.223526 0.110008 0.874319
O O4 0.164530 0.247791 0.091295
O O5 0.500000 0.500000 0.500000
O O6 0.142541 0.739993 0.663436
O O7 0.358999 0.231356 0.339145
O O8 0.351459 0.072894 0.651261
O O9 0.494433 0.313128 0.991251
O O10 0.500000 0.500000 0.000000
O O11 0.155505 0.591443 0.007189
O O12 0.116446 0.935886 0.362465
O O13 0.000000 0.500000 0.000000
O O14 0.000000 0.000000 0.500000
O O15 0.128666 0.946123 0.098983
O O16 0.769720 0.123529 0.058024
#
# Coordination Sequence:
#
# PCOD9038156 Si02
#       7
#     2   2   2   2   2   2   2
#     4  11  22  42  71  99 136 171 226 283 331 399
#     4  12  25  42  71 104 132 178 232 278 335 402
#     4  12  25  44  69 101 136 176 225 278 339 402
#     4  10  23  41  66  99 131 175 220 275 334 396
#     4  11  23  41  68 100 135 176 222 273 338 399
#     4  11  26  46  65 101 138 180 227 275 345 401
#     4  11  26  45  68  95 142 183 219 282 338 405
#
# _framework density 24.124921000000001
#
# number of rings (size 3 to 8) (size 9 to 14) (size 15 to 20)
#    0.000    0.857    5.714    1.714    4.000    1.714 
#    0.000    1.429    0.000    0.000    0.000    0.000 
#    0.000    0.000    0.000    0.000    0.000    0.000 
#
# Total GULP energy -77946.861334 kJ/mol
# GULP energy per Si atom -5567.632952 kJ/mol
# Density = 2.407001 g / cm^3
# Si number density = 24.124921 Si / 1000 Ang^3
#
#
#
# Elastic Constant Matrix: (Units=GPa)
#
#
# Indices 1 2 3 4 5 6 
#
# 1 174.1669 21.9997 45.5836 9.7139 15.4153 9.2954
# 2 21.9997 90.1590 1.6877 -30.7556 -6.6888 -4.7542
# 3 45.5836 1.6877 57.4782 1.4112 7.0041 6.8502
# 4 9.7139 -30.7556 1.4112 27.8613 -2.0776 1.3651
# 5 15.4153 -6.6888 7.0041 -2.0776 48.2610 3.1012
# 6 9.2954 -4.7542 6.8502 1.3651 3.1012 31.0391
#
#
#
# Elastic Compliance Matrix: (Units=1/GPa)
#
#
# Indices 1 2 3 4 5 6 
#
# 1 0.008851 -0.005357 -0.006111 -0.008841 -0.002971 -0.001437
# 2 -0.005357 0.021821 0.001973 0.026119 0.005392 0.002824
# 3 -0.006111 0.001973 0.022542 0.003256 -0.000718 -0.002914
# 4 -0.008841 0.026119 0.003256 0.068196 0.008775 0.002054
# 5 -0.002971 0.005392 -0.000718 0.008775 0.022951 -0.000805
# 6 -0.001437 0.002824 -0.002914 0.002054 -0.000805 0.033713
#
#
# Mechanical properties :
#
#
# Convention : Reuss Voigt Hill
#
# Bulk Modulus (GPa) = 29.22134 51.14956 40.18545
# Shear Modulus (GPa) = 23.98406 38.26781 31.12593
#
# Velocity S-wave (km/s) = 3.15645 3.98708 3.59583
# Velocity P-wave (km/s) = 5.04213 6.51488 5.82524
#
# Compressibility (1/GPa) = 0.03422156
#
# Stress axis : x y z
#
# Youngs Moduli (GPa) = 112.98699 45.82786 44.36253
#
# Poissons Ratio (x) = 0.24552 0.27112
# Poissons Ratio (y) = 0.60532 -0.08753
# Poissons Ratio (z) = 0.69051 -0.09043
#
# Static dielectric constant tensor:
#      x y z
#    x 1.901620 -0.055940 -0.037010 
#    y -0.055940 2.120140 0.027900 
#    z -0.037010 0.027900 1.957480 
# 
# From -- ./inp_files/561474.got.cif
#   From: 2010.05.17/outbox.cif.g08.bks.cpg/sg2_281_cif.got.tgz:561474.got - 2010.06.03 11:33:40.
