data_PCOD9038910
_publ_section_title
;
Structure prediction by ZEFSAII (Michael W. Deem and Ramdas Pophale) SiO2 
 PCOD9038910
Probable space group: P -1
;
_chemical_formula_sum "Si O2"
_cell_formula_units_Z 16
_cell_length_a 10.817711
_cell_length_b 13.377007
_cell_length_c 5.242242
_cell_angle_alpha 116.339204
_cell_angle_beta 99.802674
_cell_angle_gamma 72.479555
_cell_volume 647.706439
_symmetry_space_group_name_H-M "P -1"
_symmetry_group_IT_number 2
_symmetry_cell_setting 'triclinic'
loop_
_space_group_symop_operation_xyz
x,y,z
-x,-y,-z
loop_
_atom_site_type_symbol
_atom_site_label
_atom_site_fract_x
_atom_site_fract_y
_atom_site_fract_z
Si Si1 0.121892 0.455455 0.297837
Si Si2 0.639395 0.913338 0.426251
Si Si3 0.542333 0.343703 0.102053
Si Si4 0.033146 0.808893 0.856316
Si Si5 0.269238 0.119063 0.079458
Si Si6 0.267218 0.907595 0.103074
Si Si7 0.049147 0.670220 0.188379
Si Si8 0.616375 0.582344 0.364846
O O1 0.244687 0.413119 0.471786
O O2 0.000000 0.500000 0.500000
O O3 0.137476 0.556840 0.227610
O O4 0.079253 0.365523 0.993522
O O5 0.663937 0.845907 0.100326
O O6 0.500000 0.000000 0.500000
O O7 0.678469 0.835126 0.596608
O O8 0.736070 0.999230 0.568203
O O9 0.636914 0.216433 0.959927
O O10 0.613148 0.447047 0.205354
O O11 0.486386 0.358895 0.385977
O O12 0.431686 0.367308 0.871948
O O13 0.125116 0.894510 0.982137
O O14 0.027778 0.760127 0.514728
O O15 0.884905 0.852962 0.943012
O O16 0.096048 0.717107 0.997596
O O17 0.317371 0.979730 0.980408
#
# Coordination Sequence:
#
# PCOD9038910 Si02
#       8
#     2   2   2   2   2   2   2   2
#     4  11  24  47  67 100 136 176 221 275 348 395
#     4  10  23  45  66  94 132 184 216 269 334 397
#     4  10  23  42  64  96 127 176 220 266 330 389
#     4  12  24  44  67 106 131 175 227 287 334 394
#     4  10  24  43  69  98 136 170 226 280 331 393
#     4  10  26  41  73  96 137 177 226 276 342 391
#     4  11  26  40  67  99 138 175 219 267 351 398
#     4  10  24  42  65  92 133 168 220 276 320 397
#
# _framework density 24.702552000000001
#
# number of rings (size 3 to 8) (size 9 to 14) (size 15 to 20)
#    0.750    0.750    1.250    2.250    7.000    2.500 
#    6.750    0.000    0.000    0.000    0.000    0.000 
#    0.000    0.000    0.000    0.000    0.000    0.000 
#
# Total GULP energy -89459.099099 kJ/mol
# GULP energy per Si atom -5591.193694 kJ/mol
# Density = 2.464633 g / cm^3
# Si number density = 24.702552 Si / 1000 Ang^3
#
#
#
# Elastic Constant Matrix: (Units=GPa)
#
#
# Indices 1 2 3 4 5 6 
#
# 1 62.7700 11.2023 35.0921 -11.1920 15.4913 -14.1121
# 2 11.2023 107.2794 31.5323 -15.5265 7.7403 -6.6615
# 3 35.0921 31.5323 135.7195 -37.5387 10.1618 10.5571
# 4 -11.1920 -15.5265 -37.5387 37.9593 7.8019 5.2135
# 5 15.4913 7.7403 10.1618 7.8019 36.6505 -6.2682
# 6 -14.1121 -6.6615 10.5571 5.2135 -6.2682 33.9814
#
#
#
# Elastic Compliance Matrix: (Units=1/GPa)
#
#
# Indices 1 2 3 4 5 6 
#
# 1 0.023507 0.000664 -0.006279 0.000944 -0.006748 0.010453
# 2 0.000664 0.010489 -0.001794 0.002900 -0.002269 0.002026
# 3 -0.006279 -0.001794 0.014822 0.014835 -0.006111 -0.010967
# 4 0.000944 0.002900 0.014835 0.048107 -0.017814 -0.014315
# 5 -0.006748 -0.002269 -0.006111 -0.017814 0.037523 0.008306
# 6 0.010453 0.002026 -0.010967 -0.014315 0.008306 0.041302
#
#
# Mechanical properties :
#
#
# Convention : Reuss Voigt Hill
#
# Bulk Modulus (GPa) = 29.41249 51.26914 40.34082
# Shear Modulus (GPa) = 24.76457 36.91438 30.83947
#
# Velocity S-wave (km/s) = 3.16968 3.86988 3.53715
# Velocity P-wave (km/s) = 5.03273 6.38495 5.74874
#
# Compressibility (1/GPa) = 0.03399916
#
# Stress axis : x y z
#
# Youngs Moduli (GPa) = 42.54053 95.34093 67.46554
#
# Poissons Ratio (x) = -0.06326 0.42361
# Poissons Ratio (y) = -0.02823 0.12104
# Poissons Ratio (z) = 0.26711 0.17105
#
# Static dielectric constant tensor:
#      x y z
#    x 1.962480 0.037450 -0.031850 
#    y 0.037450 2.025150 -0.040760 
#    z -0.031850 -0.040760 2.056900 
# 
# From -- ./inp_files/80050.got.cif
#   From: 2010.05.17/outbox.cif.g08.bks.cpg/sg2_41_cif.got.tgz:80050.got - 2010.06.03 11:33:40.
