data_PCOD9038570
_publ_section_title
;
Structure prediction by ZEFSAII (Michael W. Deem and Ramdas Pophale) SiO2 
 PCOD9038570
Probable space group: P -1
;
_chemical_formula_sum "Si O2"
_cell_formula_units_Z 14
_cell_length_a 10.198909
_cell_length_b 5.365994
_cell_length_c 20.683459
_cell_angle_alpha 118.892245
_cell_angle_beta 140.168476
_cell_angle_gamma 60.873076
_cell_volume 621.144194
_symmetry_space_group_name_H-M "P -1"
_symmetry_group_IT_number 2
_symmetry_cell_setting 'triclinic'
loop_
_space_group_symop_operation_xyz
x,y,z
-x,-y,-z
loop_
_atom_site_type_symbol
_atom_site_label
_atom_site_fract_x
_atom_site_fract_y
_atom_site_fract_z
Si Si1 0.776444 0.853773 0.523100
Si Si2 0.443557 0.595429 0.418092
Si Si3 0.552703 0.707104 0.177261
Si Si4 0.444757 0.003467 0.308810
Si Si5 0.817054 0.106204 0.255281
Si Si6 0.965015 0.157822 0.827094
Si Si7 0.893152 0.231208 0.042241
O O1 0.692978 0.088514 0.578181
O O2 0.663978 0.954395 0.425127
O O3 0.661521 0.595348 0.465225
O O4 0.022546 0.803650 0.619906
O O5 0.500000 0.500000 0.500000
O O6 0.341451 0.344347 0.318849
O O7 0.657555 0.395008 0.207636
O O8 0.476245 0.908198 0.235568
O O9 0.709867 0.862428 0.216303
O O10 0.353767 0.689792 0.056019
O O11 0.284539 0.831450 0.260733
O O12 0.935801 0.974684 0.218929
O O13 0.019896 0.473784 0.895335
O O14 0.060531 0.936073 0.893092
O O15 0.000000 0.000000 0.000000
#
# Coordination Sequence:
#
# PCOD9038570 Si02
#       7
#     2   2   2   2   2   2   2
#     4  10  23  41  71 102 152 187 245 292 352 434
#     4   9  19  39  67 103 137 185 249 294 336 417
#     4  12  30  48  72 107 152 187 243 303 365 435
#     4  11  26  43  77 106 143 195 250 291 358 429
#     4  12  29  48  71 111 152 194 233 294 372 434
#     4  12  27  47  84 106 141 196 244 297 368 427
#     4  12  27  50  80 110 140 183 251 313 357 422
#
# _framework density 22.53905
#
# number of rings (size 3 to 8) (size 9 to 14) (size 15 to 20)
#    0.000    0.857    1.429    4.714   14.000    4.571 
#    0.000    0.000    0.000    0.000    0.000    0.000 
#    0.000    0.000    0.000    0.000    0.000    0.000 
#
# Total GULP energy -78252.857431 kJ/mol
# GULP energy per Si atom -5589.489817 kJ/mol
# Density = 2.248775 g / cm^3
# Si number density = 22.539050 Si / 1000 Ang^3
#
#
#
# Elastic Constant Matrix: (Units=GPa)
#
#
# Indices 1 2 3 4 5 6 
#
# 1 80.3238 -0.7192 13.7030 11.8498 -12.2516 12.3737
# 2 -0.7192 91.4072 49.5680 10.3612 3.1360 20.9648
# 3 13.7030 49.5680 145.3655 -10.1383 9.1780 9.0690
# 4 11.8498 10.3612 -10.1383 46.2000 -2.2201 3.0115
# 5 -12.2516 3.1360 9.1780 -2.2201 35.6925 6.0787
# 6 12.3737 20.9648 9.0690 3.0115 6.0787 36.1290
#
#
#
# Elastic Compliance Matrix: (Units=1/GPa)
#
#
# Indices 1 2 3 4 5 6 
#
# 1 0.015982 0.003903 -0.003132 -0.004824 0.006963 -0.007722
# 2 0.003903 0.017031 -0.006120 -0.005400 0.002732 -0.009693
# 3 -0.003132 -0.006120 0.009587 0.003970 -0.003168 0.002419
# 4 -0.004824 -0.005400 0.003970 0.024794 -0.000981 0.001888
# 5 0.006963 0.002732 -0.003168 -0.000981 0.032375 -0.008540
# 6 -0.007722 -0.009693 0.002419 0.001888 -0.008540 0.036620
#
#
# Mechanical properties :
#
#
# Convention : Reuss Voigt Hill
#
# Bulk Modulus (GPa) = 31.34489 49.13333 40.23911
# Shear Modulus (GPa) = 31.70162 40.57395 36.13778
#
# Velocity S-wave (km/s) = 3.75443 4.24744 4.00852
# Velocity P-wave (km/s) = 5.72114 6.77501 6.27026
#
# Compressibility (1/GPa) = 0.03190312
#
# Stress axis : x y z
#
# Youngs Moduli (GPa) = 62.56996 58.71719 104.30707
#
# Poissons Ratio (x) = -0.22917 0.32667
# Poissons Ratio (y) = -0.24421 0.63832
# Poissons Ratio (z) = 0.19595 0.35933
#
# Static dielectric constant tensor:
#      x y z
#    x 1.803130 0.027740 -0.008890 
#    y 0.027740 1.662790 0.111730 
#    z -0.008890 0.111730 1.784890 
# 
# From -- ./inp_files/293778.got.cif
#   From: 2010.05.17/outbox.cif.g08.bks.cpg/sg2_147_cif.got.tgz:293778.got - 2010.06.03 11:33:40.
