data_PCOD9038496
_publ_section_title
;
Structure prediction by ZEFSAII (Michael W. Deem and Ramdas Pophale) SiO2 
 PCOD9038496
Probable space group: P -1
;
_chemical_formula_sum "Si O2"
_cell_formula_units_Z 16
_cell_length_a 22.166953
_cell_length_b 9.899538
_cell_length_c 6.997998
_cell_angle_alpha 132.761678
_cell_angle_beta 97.604209
_cell_angle_gamma 52.045596
_cell_volume 773.587648
_symmetry_space_group_name_H-M "P -1"
_symmetry_group_IT_number 2
_symmetry_cell_setting 'triclinic'
loop_
_space_group_symop_operation_xyz
x,y,z
-x,-y,-z
loop_
_atom_site_type_symbol
_atom_site_label
_atom_site_fract_x
_atom_site_fract_y
_atom_site_fract_z
Si Si1 0.636150 0.721392 0.200019
Si Si2 0.959432 0.387979 0.339261
Si Si3 0.752639 0.589966 0.789457
Si Si4 0.316308 0.573618 0.671367
Si Si5 0.429569 0.787800 0.146366
Si Si6 0.043720 0.918667 0.644017
Si Si7 0.241563 0.104296 0.207804
Si Si8 0.539337 0.724831 0.830810
O O1 0.668055 0.539115 0.221016
O O2 0.573943 0.017161 0.541762
O O3 0.709826 0.664554 0.050705
O O4 0.595003 0.665828 0.982305
O O5 0.974415 0.221276 0.367242
O O6 0.853668 0.631734 0.496203
O O7 0.000000 0.500000 0.500000
O O8 0.006969 0.177266 0.985500
O O9 0.704274 0.555128 0.592890
O O10 0.852354 0.306231 0.559040
O O11 0.746566 0.800557 0.887566
O O12 0.400816 0.480375 0.512977
O O13 0.241550 0.889533 0.950189
O O14 0.327848 0.946051 0.226360
O O15 0.500000 0.500000 0.000000
O O16 0.465444 0.757526 0.920693
O O17 0.000000 0.000000 0.500000
O O18 0.500000 0.000000 0.000000
#
# Coordination Sequence:
#
# PCOD9038496 Si02
#       8
#     2   2   2   2   2   2   2   2
#     4  11  23  42  65  89 131 174 219 274 325 384
#     4  10  23  45  70 100 138 171 221 277 336 409
#     4  10  23  43  65  97 131 169 217 272 326 398
#     4  11  23  43  65  91 129 173 222 268 327 381
#     4  12  25  39  62  97 130 174 226 268 322 385
#     4  10  23  41  70 102 133 174 215 272 347 405
#     4  11  24  43  66  96 131 175 216 273 329 387
#     4  11  23  41  61  87 124 174 221 270 327 378
#
# _framework density 20.682853999999999
#
# number of rings (size 3 to 8) (size 9 to 14) (size 15 to 20)
#    0.000    1.250    2.500    2.625    5.250    3.000 
#    0.000    0.000    0.000    0.000    0.000    0.000 
#    0.000    0.000    0.000    0.000    0.000    0.000 
#
# Total GULP energy -89400.404829 kJ/mol
# GULP energy per Si atom -5587.525302 kJ/mol
# Density = 2.063578 g / cm^3
# Si number density = 20.682854 Si / 1000 Ang^3
#
#
#
# Elastic Constant Matrix: (Units=GPa)
#
#
# Indices 1 2 3 4 5 6 
#
# 1 83.9020 48.8095 29.4956 -0.8581 -8.2096 4.9972
# 2 48.8095 141.8194 78.3026 6.4814 -9.2814 1.5891
# 3 29.4956 78.3026 108.8113 3.3013 -13.5875 17.4074
# 4 -0.8581 6.4814 3.3013 40.8957 3.1375 5.3190
# 5 -8.2096 -9.2814 -13.5875 3.1375 35.1155 6.4117
# 6 4.9972 1.5891 17.4074 5.3190 6.4117 29.8511
#
#
#
# Elastic Compliance Matrix: (Units=1/GPa)
#
#
# Indices 1 2 3 4 5 6 
#
# 1 0.015395 -0.005507 0.000684 0.001378 0.002935 -0.003559
# 2 -0.005507 0.014517 -0.010345 -0.002314 -0.002550 0.007142
# 3 0.000684 -0.010345 0.019306 0.001185 0.007082 -0.012554
# 4 0.001378 -0.002314 0.001185 0.025505 -0.001181 -0.005089
# 5 0.002935 -0.002550 0.007082 -0.001181 0.033427 -0.011455
# 6 -0.003559 0.007142 -0.012554 -0.005089 -0.011455 0.044403
#
#
# Mechanical properties :
#
#
# Convention : Reuss Voigt Hill
#
# Bulk Modulus (GPa) = 52.95999 71.97201 62.46600
# Shear Modulus (GPa) = 26.42944 33.03415 29.73180
#
# Velocity S-wave (km/s) = 3.57857 4.00080 3.79556
# Velocity P-wave (km/s) = 6.53730 7.49769 7.03390
#
# Compressibility (1/GPa) = 0.01888218
#
# Stress axis : x y z
#
# Youngs Moduli (GPa) = 64.95519 68.88484 51.79783
#
# Poissons Ratio (x) = 0.37936 -0.03542
# Poissons Ratio (y) = 0.35772 0.53583
# Poissons Ratio (z) = -0.04442 0.71259
#
# Static dielectric constant tensor:
#      x y z
#    x 1.792720 -0.009660 -0.018700 
#    y -0.009660 1.712430 -0.015100 
#    z -0.018700 -0.015100 1.752110 
# 
# From -- ./inp_files/123003.got.cif
#   From: 2010.05.17/outbox.cif.g08.bks.cpg/sg2_62_cif.got.tgz:123003.got - 2010.06.03 11:33:40.
