data_PCOD9038409
_publ_section_title
;
Structure prediction by ZEFSAII (Michael W. Deem and Ramdas Pophale) SiO2 
 PCOD9038409
Probable space group: P -1
;
_chemical_formula_sum "Si O2"
_cell_formula_units_Z 14
_cell_length_a 12.109929
_cell_length_b 9.295622
_cell_length_c 6.011266
_cell_angle_alpha 70.081179
_cell_angle_beta 73.834414
_cell_angle_gamma 69.550950
_cell_volume 586.272735
_symmetry_space_group_name_H-M "P -1"
_symmetry_group_IT_number 2
_symmetry_cell_setting 'triclinic'
loop_
_space_group_symop_operation_xyz
x,y,z
-x,-y,-z
loop_
_atom_site_type_symbol
_atom_site_label
_atom_site_fract_x
_atom_site_fract_y
_atom_site_fract_z
Si Si1 0.302218 0.617185 0.595185
Si Si2 0.811147 0.832665 0.595012
Si Si3 0.130393 0.444725 0.569167
Si Si4 0.457522 0.063822 0.238208
Si Si5 0.833481 0.114886 0.131620
Si Si6 0.912329 0.838264 0.974736
Si Si7 0.500585 0.625974 0.122465
O O1 0.189676 0.574775 0.563166
O O2 0.260199 0.748160 0.747915
O O3 0.386284 0.661479 0.334386
O O4 0.384455 0.453002 0.744737
O O5 0.791212 0.668006 0.604566
O O6 0.681007 0.927386 0.696384
O O7 0.851639 0.949287 0.342812
O O8 0.912589 0.797856 0.738426
O O9 0.128595 0.306928 0.820412
O O10 0.000000 0.500000 0.500000
O O11 0.500000 0.000000 0.500000
O O12 0.487989 0.228750 0.107950
O O13 0.500000 0.000000 0.000000
O O14 0.827502 0.023463 0.949477
O O15 0.953920 0.168652 0.023780
O O16 0.500000 0.500000 0.000000
#
# Coordination Sequence:
#
# PCOD9038409 Si02
#       7
#     2   2   2   2   2   2   2
#     4  11  25  45  73 107 146 188 244 307 376 440
#     4  11  24  44  71  97 143 185 244 297 365 441
#     4  11  25  44  69 104 142 189 237 298 372 442
#     4  12  30  48  78 109 149 199 254 309 378 449
#     4  10  23  41  69 103 139 182 240 293 368 435
#     4  10  23  43  68  99 143 185 238 296 360 441
#     4  11  27  47  75 105 147 190 250 311 378 443
#
# _framework density 23.879669
#
# number of rings (size 3 to 8) (size 9 to 14) (size 15 to 20)
#    0.000    1.143    0.000    3.857   12.000    8.000 
#    0.000    0.000    0.000    0.000    0.000    0.000 
#    0.000    0.000    0.000    0.000    0.000    0.000 
#
# Total GULP energy -78018.658544 kJ/mol
# GULP energy per Si atom -5572.761325 kJ/mol
# Density = 2.382532 g / cm^3
# Si number density = 23.879669 Si / 1000 Ang^3
#
#
#
# Elastic Constant Matrix: (Units=GPa)
#
#
# Indices 1 2 3 4 5 6 
#
# 1 107.5447 23.5496 38.1124 3.4347 -5.7849 -0.4297
# 2 23.5496 110.4417 37.9560 1.6439 -5.7551 8.0551
# 3 38.1124 37.9560 85.0404 -1.9352 -17.4636 -4.1645
# 4 3.4347 1.6439 -1.9352 39.4978 -5.9868 -9.4993
# 5 -5.7849 -5.7551 -17.4636 -5.9868 30.7606 7.6850
# 6 -0.4297 8.0551 -4.1645 -9.4993 7.6850 35.1249
#
#
#
# Elastic Compliance Matrix: (Units=1/GPa)
#
#
# Indices 1 2 3 4 5 6 
#
# 1 0.011202 -0.000672 -0.004985 -0.001458 -0.001015 -0.000472
# 2 -0.000672 0.011161 -0.004942 -0.001533 -0.000265 -0.003510
# 3 -0.004985 -0.004942 0.018137 0.003365 0.008523 0.002268
# 4 -0.001458 -0.001533 0.003365 0.028179 0.005021 0.007255
# 5 -0.001015 -0.000265 0.008523 0.005021 0.039648 -0.006258
# 6 -0.000472 -0.003510 0.002268 0.007255 -0.006258 0.032869
#
#
# Mechanical properties :
#
#
# Convention : Reuss Voigt Hill
#
# Bulk Modulus (GPa) = 51.80688 55.80700 53.80694
# Shear Modulus (GPa) = 29.61578 34.63723 32.12650
#
# Velocity S-wave (km/s) = 3.52548 3.81266 3.67188
# Velocity P-wave (km/s) = 6.18984 6.54238 6.36855
#
# Compressibility (1/GPa) = 0.01930246
#
# Stress axis : x y z
#
# Youngs Moduli (GPa) = 89.26629 89.59639 55.13652
#
# Poissons Ratio (x) = 0.06022 0.27487
# Poissons Ratio (y) = 0.06000 0.27246
# Poissons Ratio (z) = 0.44502 0.44274
#
# Static dielectric constant tensor:
#      x y z
#    x 1.714690 -0.078990 -0.037370 
#    y -0.078990 1.877630 0.079400 
#    z -0.037370 0.079400 2.211610 
# 
# From -- ./inp_files/49303.got.cif
#   From: 2010.05.17/outbox.cif.g08.bks.cpg/sg2_25_cif.got.tgz:49303.got - 2010.06.03 11:33:40.
