data_PCOD9038519
_publ_section_title
;
Structure prediction by ZEFSAII (Michael W. Deem and Ramdas Pophale) SiO2 
 PCOD9038519
Probable space group: P -1
;
_chemical_formula_sum "Si O2"
_cell_formula_units_Z 14
_cell_length_a 23.696373
_cell_length_b 14.464656
_cell_length_c 5.328703
_cell_angle_alpha 62.145996
_cell_angle_beta 57.798571
_cell_angle_gamma 20.459495
_cell_volume 537.045170
_symmetry_space_group_name_H-M "P -1"
_symmetry_group_IT_number 2
_symmetry_cell_setting 'triclinic'
loop_
_space_group_symop_operation_xyz
x,y,z
-x,-y,-z
loop_
_atom_site_type_symbol
_atom_site_label
_atom_site_fract_x
_atom_site_fract_y
_atom_site_fract_z
Si Si1 0.645086 0.028514 0.776519
Si Si2 0.126431 0.490123 0.263314
Si Si3 0.580959 0.837235 0.761080
Si Si4 0.792855 0.279952 0.870227
Si Si5 0.948506 0.249828 0.285730
Si Si6 0.786288 0.010377 0.686251
Si Si7 0.606068 0.480388 0.551145
O O1 0.795904 0.734924 0.699251
O O2 0.706872 0.010402 0.883564
O O3 0.573006 0.213121 0.503056
O O4 0.486698 0.184096 0.035472
O O5 0.230995 0.384801 0.383235
O O6 0.926478 0.790375 0.411410
O O7 0.166376 0.512411 0.916094
O O8 0.500000 0.000000 0.500000
O O9 0.500000 0.000000 0.000000
O O10 0.853473 0.309132 0.625584
O O11 0.667741 0.424042 0.754487
O O12 0.731532 0.347850 0.210921
O O13 0.955075 0.971188 0.842365
O O14 0.093773 0.113884 0.229271
O O15 0.635718 0.313459 0.648520
#
# Coordination Sequence:
#
# PCOD9038519 Si02
#       7
#     2   2   2   2   2   2   2
#     4  11  26  46  69 106 144 188 231 292 365 415
#     4  11  24  46  73 102 140 185 240 295 345 423
#     4  10  25  47  70 101 139 183 229 286 346 417
#     4  10  23  43  74 104 139 185 239 293 344 414
#     4  10  23  41  70 108 138 182 237 296 348 409
#     4  11  25  46  71 101 146 186 237 291 351 428
#     4  11  24  47  71 104 141 189 238 290 351 419
#
# _framework density 26.068573000000001
#
# number of rings (size 3 to 8) (size 9 to 14) (size 15 to 20)
#    0.000    1.429    1.429    1.714    8.000    4.571 
#    7.714    2.143    0.000    0.000    0.000    0.000 
#    0.000    0.000    0.000    0.000    0.000    0.000 
#
# Total GULP energy -78312.629562 kJ/mol
# GULP energy per Si atom -5593.759254 kJ/mol
# Density = 2.600924 g / cm^3
# Si number density = 26.068573 Si / 1000 Ang^3
#
#
#
# Elastic Constant Matrix: (Units=GPa)
#
#
# Indices 1 2 3 4 5 6 
#
# 1 189.8480 49.6587 41.8049 -19.3751 -24.5612 10.5471
# 2 49.6587 117.4496 28.4601 -10.7348 -3.0332 25.9206
# 3 41.8049 28.4601 69.7015 2.1110 14.3899 -0.1554
# 4 -19.3751 -10.7348 2.1110 49.3362 2.3075 -7.7927
# 5 -24.5612 -3.0332 14.3899 2.3075 35.2978 -5.0957
# 6 10.5471 25.9206 -0.1554 -7.7927 -5.0957 50.0900
#
#
#
# Elastic Compliance Matrix: (Units=1/GPa)
#
#
# Indices 1 2 3 4 5 6 
#
# 1 0.008345 -0.001669 -0.006061 0.002854 0.007997 0.000345
# 2 -0.001669 0.011446 -0.003830 0.001128 0.000537 -0.005354
# 3 -0.006061 -0.003830 0.022384 -0.003321 -0.013243 0.001464
# 4 0.002854 0.001128 -0.003321 0.022059 0.002352 0.002476
# 5 0.007997 0.000537 -0.013243 0.002352 0.039531 0.002384
# 6 0.000345 -0.005354 0.001464 0.002476 0.002384 0.023294
#
#
# Mechanical properties :
#
#
# Convention : Reuss Voigt Hill
#
# Bulk Modulus (GPa) = 52.47489 68.53852 60.50671
# Shear Modulus (GPa) = 31.94302 44.08315 38.01308
#
# Velocity S-wave (km/s) = 3.50429 4.11669 3.82278
# Velocity P-wave (km/s) = 6.04538 6.99607 6.53803
#
# Compressibility (1/GPa) = 0.01905673
#
# Stress axis : x y z
#
# Youngs Moduli (GPa) = 119.83075 87.36384 44.67572
#
# Poissons Ratio (x) = 0.14577 0.27076
# Poissons Ratio (y) = 0.19995 0.17111
# Poissons Ratio (z) = 0.72624 0.33460
#
# Static dielectric constant tensor:
#      x y z
#    x 2.012200 0.049960 -0.013430 
#    y 0.049960 2.228280 0.079910 
#    z -0.013430 0.079910 2.056130 
# 
# From -- ./inp_files/124114.got.cif
#   From: 2010.05.17/outbox.cif.g08.bks.cpg/sg2_63_cif.got.tgz:124114.got - 2010.06.03 11:33:40.
