data_PCOD9038538
_publ_section_title
;
Structure prediction by ZEFSAII (Michael W. Deem and Ramdas Pophale) SiO2 
 PCOD9038538
Probable space group: P -1
;
_chemical_formula_sum "Si O2"
_cell_formula_units_Z 16
_cell_length_a 12.999579
_cell_length_b 14.365152
_cell_length_c 5.667535
_cell_angle_alpha 95.476892
_cell_angle_beta 113.866685
_cell_angle_gamma 129.636943
_cell_volume 644.617598
_symmetry_space_group_name_H-M "P -1"
_symmetry_group_IT_number 2
_symmetry_cell_setting 'triclinic'
loop_
_space_group_symop_operation_xyz
x,y,z
-x,-y,-z
loop_
_atom_site_type_symbol
_atom_site_label
_atom_site_fract_x
_atom_site_fract_y
_atom_site_fract_z
Si Si1 0.522160 0.461312 0.258118
Si Si2 0.837927 0.043625 0.230342
Si Si3 0.714826 0.316845 0.237207
Si Si4 0.972926 0.405194 0.147451
Si Si5 0.484251 0.081983 0.343809
Si Si6 0.608472 0.820183 0.341626
Si Si7 0.100869 0.294163 0.249524
Si Si8 0.775081 0.812666 0.873733
O O1 0.500000 0.500000 0.500000
O O2 0.715514 0.554145 0.483625
O O3 0.369460 0.294481 0.094198
O O4 0.500000 0.500000 0.000000
O O5 0.765832 0.965732 0.393155
O O6 0.688248 0.018106 0.990123
O O7 0.858643 0.960241 0.075209
O O8 0.009093 0.203728 0.381555
O O9 0.870752 0.475651 0.505476
O O10 0.638195 0.200384 0.337861
O O11 0.798002 0.311058 0.097881
O O12 0.556789 0.281671 0.999500
O O13 0.994632 0.313914 0.050735
O O14 0.000000 0.500000 0.000000
O O15 0.458208 0.154855 0.505151
O O16 0.500000 0.000000 0.500000
O O17 0.680752 0.774637 0.528921
O O18 0.119895 0.216463 0.076801
#
# Coordination Sequence:
#
# PCOD9038538 Si02
#       8
#     2   2   2   2   2   2   2   2
#     4  10  25  48  72 108 142 193 249 303 363 444
#     4  10  24  43  69 106 145 184 241 297 368 432
#     4  10  24  44  67 101 136 189 235 301 358 435
#     4  11  26  45  68 101 144 184 237 298 369 424
#     4  10  23  41  70  97 138 187 243 293 355 434
#     4  10  23  43  74  97 140 186 240 295 368 427
#     4  11  26  45  71 106 142 188 244 303 365 445
#     4  10  24  48  71 104 142 192 237 298 368 441
#
# _framework density 24.820917999999999
#
# number of rings (size 3 to 8) (size 9 to 14) (size 15 to 20)
#    0.000    1.750    0.000    1.125   15.750    1.500 
#   15.750    0.000    0.000    0.000    0.000    0.000 
#    0.000    0.000    0.000    0.000    0.000    0.000 
#
# Total GULP energy -89463.403251 kJ/mol
# GULP energy per Si atom -5591.462703 kJ/mol
# Density = 2.476442 g / cm^3
# Si number density = 24.820918 Si / 1000 Ang^3
#
#
#
# Elastic Constant Matrix: (Units=GPa)
#
#
# Indices 1 2 3 4 5 6 
#
# 1 186.5136 69.0058 28.3368 -23.5709 12.5608 7.1986
# 2 69.0058 149.3491 12.4864 -21.1485 -0.2943 27.9868
# 3 28.3368 12.4864 51.7080 -21.8170 0.2360 2.5027
# 4 -23.5709 -21.1485 -21.8170 47.4234 3.4684 5.2143
# 5 12.5608 -0.2943 0.2360 3.4684 18.8256 -6.4258
# 6 7.1986 27.9868 2.5027 5.2143 -6.4258 51.8994
#
#
#
# Elastic Compliance Matrix: (Units=1/GPa)
#
#
# Indices 1 2 3 4 5 6 
#
# 1 0.007424 -0.002982 -0.002675 0.001527 -0.005282 -0.000100
# 2 -0.002982 0.009502 0.001253 0.003933 -0.000382 -0.005213
# 3 -0.002675 0.001253 0.025445 0.011367 -0.001588 -0.002870
# 4 0.001527 0.003933 0.011367 0.030267 -0.009081 -0.007046
# 5 -0.005282 -0.000382 -0.001588 -0.009081 0.061591 0.009553
# 6 -0.000100 -0.005213 -0.002870 -0.007046 0.009553 0.024122
#
#
# Mechanical properties :
#
#
# Convention : Reuss Voigt Hill
#
# Bulk Modulus (GPa) = 29.79526 67.46984 48.63255
# Shear Modulus (GPa) = 28.03532 42.14580 35.09056
#
# Velocity S-wave (km/s) = 3.36445 4.12514 3.76407
# Velocity P-wave (km/s) = 5.20796 7.06617 6.20700
#
# Compressibility (1/GPa) = 0.03356239
#
# Stress axis : x y z
#
# Youngs Moduli (GPa) = 134.70372 105.24376 39.30049
#
# Poissons Ratio (x) = 0.31383 0.10514
# Poissons Ratio (y) = 0.40167 -0.04925
# Poissons Ratio (z) = 0.36036 -0.13188
#
# Static dielectric constant tensor:
#      x y z
#    x 1.996660 -0.025840 -0.065050 
#    y -0.025840 1.932260 0.045460 
#    z -0.065050 0.045460 2.109140 
# 
# From -- ./inp_files/77941.got.cif
#   From: 2010.05.17/outbox.cif.g08.bks.cpg/sg2_39_cif.got.tgz:77941.got - 2010.06.03 11:33:40.
