data_PCOD9038604
_publ_section_title
;
Structure prediction by ZEFSAII (Michael W. Deem and Ramdas Pophale) SiO2 
 PCOD9038604
Probable space group: P -1
;
_chemical_formula_sum "Si O2"
_cell_formula_units_Z 15
_cell_length_a 5.512248
_cell_length_b 18.957861
_cell_length_c 7.857511
_cell_angle_alpha 66.361900
_cell_angle_beta 62.593217
_cell_angle_gamma 59.963107
_cell_volume 615.321762
_symmetry_space_group_name_H-M "P -1"
_symmetry_group_IT_number 2
_symmetry_cell_setting 'triclinic'
loop_
_space_group_symop_operation_xyz
x,y,z
-x,-y,-z
loop_
_atom_site_type_symbol
_atom_site_label
_atom_site_fract_x
_atom_site_fract_y
_atom_site_fract_z
Si Si1 0.392234 0.529811 0.689992
Si Si2 0.350274 0.798286 0.247926
Si Si3 0.706672 0.648129 0.500403
Si Si4 0.000000 0.500000 0.000000
Si Si5 0.796983 0.392942 0.880242
Si Si6 0.800431 0.096300 0.453532
Si Si7 0.921275 0.783573 0.878968
Si Si8 0.797579 0.790349 0.527435
O O1 0.500000 0.500000 0.500000
O O2 0.550999 0.585983 0.657164
O O3 0.453406 0.449311 0.877259
O O4 0.043336 0.561481 0.775141
O O5 0.513557 0.702791 0.350687
O O6 0.274860 0.861073 0.374294
O O7 0.586156 0.810588 0.033036
O O8 0.025515 0.801142 0.305375
O O9 0.687089 0.720805 0.564303
O O10 0.027770 0.606717 0.350814
O O11 0.075370 0.562966 0.063606
O O12 0.870361 0.298682 0.005558
O O13 0.476137 0.121385 0.452842
O O14 0.000000 0.000000 0.500000
O O15 0.962438 0.141999 0.238580
O O16 0.932956 0.761851 0.696159
#
# Coordination Sequence:
#
# PCOD9038604 Si02
#       8
#     2   2   2   1   2   2   2   2
#     4  12  27  46  62  94 135 181 229 284 332 391
#     4   9  22  43  64 102 133 172 225 270 334 402
#     4  10  23  43  66  90 132 178 226 276 331 394
#     4  12  28  42  62  94 130 174 232 282 338 390
#     4  11  26  43  65  97 131 181 231 276 339 390
#     4  10  23  45  70 100 136 176 218 269 339 411
#     4  10  24  44  67 101 137 173 227 280 332 404
#     4  10  23  41  71  95 131 180 216 278 338 398
#
# _framework density 24.377489000000001
#
# number of rings (size 3 to 8) (size 9 to 14) (size 15 to 20)
#    0.000    1.600    1.333    0.800    9.333    6.933 
#    0.000    1.333    0.000    0.000    0.000    0.000 
#    0.000    0.000    0.000    0.000    0.000    0.000 
#
# Total GULP energy -83654.650616 kJ/mol
# GULP energy per Si atom -5576.976708 kJ/mol
# Density = 2.432200 g / cm^3
# Si number density = 24.377489 Si / 1000 Ang^3
#
#
#
# Elastic Constant Matrix: (Units=GPa)
#
#
# Indices 1 2 3 4 5 6 
#
# 1 74.2228 35.8521 19.6087 -13.6655 -16.3187 -12.6750
# 2 35.8521 129.8456 40.8762 -16.8947 -6.2301 -23.4308
# 3 19.6087 40.8762 142.9910 3.6295 -37.5331 -9.8170
# 4 -13.6655 -16.8947 3.6295 38.9340 0.9346 5.1985
# 5 -16.3187 -6.2301 -37.5331 0.9346 42.8333 4.3887
# 6 -12.6750 -23.4308 -9.8170 5.1985 4.3887 29.5476
#
#
#
# Elastic Compliance Matrix: (Units=1/GPa)
#
#
# Indices 1 2 3 4 5 6 
#
# 1 0.017773 -0.003597 0.000312 0.004068 0.006099 0.003254
# 2 -0.003597 0.011039 -0.003172 0.003088 -0.003236 0.006095
# 3 0.000312 -0.003172 0.010195 -0.002445 0.008628 0.000154
# 4 0.004068 0.003088 -0.002445 0.028910 -0.000609 -0.001615
# 5 0.006099 -0.003236 0.008628 -0.000609 0.032965 -0.001872
# 6 0.003254 0.006095 0.000154 -0.001615 -0.001872 0.040686
#
#
# Mechanical properties :
#
#
# Convention : Reuss Voigt Hill
#
# Bulk Modulus (GPa) = 38.32165 59.97038 49.14602
# Shear Modulus (GPa) = 30.64093 38.97780 34.80937
#
# Velocity S-wave (km/s) = 3.54917 4.00300 3.78290
# Velocity P-wave (km/s) = 5.70524 6.78376 6.26774
#
# Compressibility (1/GPa) = 0.02609491
#
# Stress axis : x y z
#
# Youngs Moduli (GPa) = 56.26365 90.58540 98.08849
#
# Poissons Ratio (x) = 0.32580 -0.03060
# Poissons Ratio (y) = 0.20236 0.31112
# Poissons Ratio (z) = -0.01755 0.28732
#
# Static dielectric constant tensor:
#      x y z
#    x -0.000400 0.759180 2.230790 
#    y 0.759180 1.596470 -0.808080 
#    z 2.230790 -0.808080 -0.261970 
# 
# From -- ./inp_files/138845.got.cif
#   From: 2010.05.17/outbox.cif.g08.bks.cpg/sg2_70_cif.got.tgz:138845.got - 2010.06.03 11:33:40.
