data_PCOD9038251
_publ_section_title
;
Structure prediction by ZEFSAII (Michael W. Deem and Ramdas Pophale) SiO2 
 PCOD9038251
Probable space group: P -1
;
_chemical_formula_sum "Si O2"
_cell_formula_units_Z 16
_cell_length_a 15.832253
_cell_length_b 9.437543
_cell_length_c 6.799938
_cell_angle_alpha 55.726934
_cell_angle_beta 105.884961
_cell_angle_gamma 126.165402
_cell_volume 675.210196
_symmetry_space_group_name_H-M "P -1"
_symmetry_group_IT_number 2
_symmetry_cell_setting 'triclinic'
loop_
_space_group_symop_operation_xyz
x,y,z
-x,-y,-z
loop_
_atom_site_type_symbol
_atom_site_label
_atom_site_fract_x
_atom_site_fract_y
_atom_site_fract_z
Si Si1 0.602175 0.608936 0.843440
Si Si2 0.645192 0.349862 0.310581
Si Si3 0.861729 0.521569 0.484241
Si Si4 0.068324 0.757468 0.184516
Si Si5 0.224866 0.972856 0.482087
Si Si6 0.636298 0.113332 0.146870
Si Si7 0.108039 0.081615 0.619288
Si Si8 0.442620 0.677621 0.311465
O O1 0.665166 0.851945 0.682051
O O2 0.573723 0.504782 0.691888
O O3 0.500000 0.500000 0.000000
O O4 0.676503 0.546616 0.043733
O O5 0.747534 0.365593 0.445128
O O6 0.588521 0.160689 0.270810
O O7 0.580980 0.354191 0.449239
O O8 0.901813 0.404771 0.731547
O O9 0.855129 0.696467 0.450003
O O10 0.948474 0.633144 0.279570
O O11 0.138588 0.857857 0.348456
O O12 0.091193 0.926958 0.906079
O O13 0.188128 0.086127 0.512140
O O14 0.254395 0.848437 0.742727
O O15 0.558583 0.882350 0.202462
O O16 0.636658 0.261327 0.869720
O O17 0.000000 0.000000 0.500000
#
# Coordination Sequence:
#
# PCOD9038251 Si02
#       8
#     2   2   2   2   2   2   2   2
#     4  11  26  43  68 100 141 185 232 294 358 427
#     4  11  22  42  68  97 133 186 229 289 356 417
#     4  11  24  47  72 103 146 191 236 293 358 422
#     4  11  26  48  71 104 146 190 237 296 352 425
#     4  12  25  46  70 104 138 185 237 286 357 424
#     4  10  23  41  67  96 138 175 232 291 348 419
#     4  12  27  45  72 107 142 189 236 296 354 421
#     4  10  23  43  66 101 134 179 233 287 353 423
#
# _framework density 23.696327
#
# number of rings (size 3 to 8) (size 9 to 14) (size 15 to 20)
#    0.000    1.000    2.500    3.000    3.500    6.500 
#    0.000    0.000    0.000    0.000    0.000    0.000 
#    0.000    0.000    0.000    0.000    0.000    0.000 
#
# Total GULP energy -89526.683781 kJ/mol
# GULP energy per Si atom -5595.417736 kJ/mol
# Density = 2.364239 g / cm^3
# Si number density = 23.696327 Si / 1000 Ang^3
#
#
#
# Elastic Constant Matrix: (Units=GPa)
#
#
# Indices 1 2 3 4 5 6 
#
# 1 78.9158 3.1130 26.9150 6.7346 5.3187 -6.6485
# 2 3.1130 78.2175 25.2911 -1.2735 -7.8200 -9.4078
# 3 26.9150 25.2911 117.9623 7.0330 16.0567 -8.2893
# 4 6.7346 -1.2735 7.0330 28.8040 -0.9864 4.7896
# 5 5.3187 -7.8200 16.0567 -0.9864 39.5767 -2.0372
# 6 -6.6485 -9.4078 -8.2893 4.7896 -2.0372 39.5637
#
#
#
# Elastic Compliance Matrix: (Units=1/GPa)
#
#
# Indices 1 2 3 4 5 6 
#
# 1 0.014127 0.000549 -0.002933 -0.002951 -0.000559 0.002218
# 2 0.000549 0.014813 -0.003784 0.001121 0.004567 0.002921
# 3 -0.002933 -0.003784 0.010815 -0.002439 -0.004755 0.000924
# 4 -0.002951 0.001121 -0.002439 0.036978 0.002267 -0.005100
# 5 -0.000559 0.004567 -0.004755 0.002267 0.028291 0.001178
# 6 0.002218 0.002921 0.000924 -0.005100 0.001178 0.027215
#
#
# Mechanical properties :
#
#
# Convention : Reuss Voigt Hill
#
# Bulk Modulus (GPa) = 36.47204 42.85933 39.66568
# Shear Modulus (GPa) = 32.52776 36.24064 34.38420
#
# Velocity S-wave (km/s) = 3.70901 3.91497 3.81338
# Velocity P-wave (km/s) = 5.81095 6.20984 6.01370
#
# Compressibility (1/GPa) = 0.02741826
#
# Stress axis : x y z
#
# Youngs Moduli (GPa) = 70.78743 67.50914 92.46103
#
# Poissons Ratio (x) = -0.03706 0.27119
# Poissons Ratio (y) = -0.03886 0.34990
# Poissons Ratio (z) = 0.20762 0.25548
#
# Static dielectric constant tensor:
#      x y z
#    x 1.937880 -0.054750 0.027640 
#    y -0.054750 2.033640 -0.018940 
#    z 0.027640 -0.018940 1.891280 
# 
# From -- ./inp_files/47366.got.cif
#   From: 2010.05.17/outbox.cif.g08.bks.cpg/sg2_24_cif.got.tgz:47366.got - 2010.06.03 11:33:40.
