data_PCOD9038202
_publ_section_title
;
Structure prediction by ZEFSAII (Michael W. Deem and Ramdas Pophale) SiO2 
 PCOD9038202
Probable space group: P -1
;
_chemical_formula_sum "Si O2"
_cell_formula_units_Z 16
_cell_length_a 9.207116
_cell_length_b 13.818933
_cell_length_c 14.577307
_cell_angle_alpha 66.477464
_cell_angle_beta 57.647846
_cell_angle_gamma 26.977623
_cell_volume 695.977701
_symmetry_space_group_name_H-M "P -1"
_symmetry_group_IT_number 2
_symmetry_cell_setting 'triclinic'
loop_
_space_group_symop_operation_xyz
x,y,z
-x,-y,-z
loop_
_atom_site_type_symbol
_atom_site_label
_atom_site_fract_x
_atom_site_fract_y
_atom_site_fract_z
Si Si1 0.921468 0.296589 0.212617
Si Si2 0.125005 0.650629 0.108254
Si Si3 0.651411 0.222785 0.788690
Si Si4 0.855930 0.244477 0.446770
Si Si5 0.207255 0.285908 0.972923
Si Si6 0.297101 0.880618 0.559125
Si Si7 0.443289 0.360191 0.270924
Si Si8 0.896420 0.978658 0.124259
O O1 0.663871 0.535026 0.231131
O O2 0.026833 0.199219 0.313449
O O3 0.690084 0.326881 0.232381
O O4 0.196415 0.201224 0.085023
O O5 0.156000 0.571902 0.223922
O O6 0.843340 0.895084 0.127706
O O7 0.500000 0.500000 0.000000
O O8 0.993985 0.646359 0.073798
O O9 0.956357 0.055181 0.674741
O O10 0.777160 0.210542 0.844458
O O11 0.566800 0.148261 0.872329
O O12 0.500000 0.500000 0.500000
O O13 0.181528 0.049967 0.481500
O O14 0.703092 0.211646 0.481185
O O15 0.000000 0.500000 0.000000
O O16 0.604600 0.684478 0.603419
O O17 0.613653 0.188315 0.204264
O O18 0.000000 0.000000 0.000000
#
# Coordination Sequence:
#
# PCOD9038202 Si02
#       8
#     2   2   2   2   2   2   2   2
#     4  10  17  33  53  80 110 149 180 226 278 322
#     4  12  19  35  55  74 110 154 189 221 268 330
#     4  10  19  35  53  81 123 145 179 226 281 339
#     4  10  18  32  55  79 112 139 186 237 283 316
#     4  10  21  33  55  82 117 156 179 216 281 344
#     4   9  20  33  52  86 109 139 185 237 278 322
#     4  10  20  32  53  77 109 137 186 234 264 319
#     4  11  20  31  53  77 104 150 188 224 261 326
#
# _framework density 22.989242000000001
#
# number of rings (size 3 to 8) (size 9 to 14) (size 15 to 20)
#    0.000    1.750    5.000    0.750    0.000    0.000 
#    0.000   10.000    0.000    0.000    0.000   11.375 
#    0.000    0.750    0.000    0.000    0.000    0.000 
#
# Total GULP energy -89196.535117 kJ/mol
# GULP energy per Si atom -5574.783445 kJ/mol
# Density = 2.293692 g / cm^3
# Si number density = 22.989242 Si / 1000 Ang^3
#
#
#
# Elastic Constant Matrix: (Units=GPa)
#
#
# Indices 1 2 3 4 5 6 
#
# 1 74.3829 20.0478 28.8818 3.7875 14.8892 23.6725
# 2 20.0478 100.1222 36.1871 -19.0968 6.0857 32.5942
# 3 28.8818 36.1871 138.5609 -32.3004 20.6229 -5.0025
# 4 3.7875 -19.0968 -32.3004 48.1784 -3.0688 4.6944
# 5 14.8892 6.0857 20.6229 -3.0688 29.9185 3.2955
# 6 23.6725 32.5942 -5.0025 4.6944 3.2955 32.7697
#
#
#
# Elastic Compliance Matrix: (Units=1/GPa)
#
#
# Indices 1 2 3 4 5 6 
#
# 1 0.022601 0.004331 -0.006356 -0.002676 -0.005748 -0.020644
# 2 0.004331 0.020848 -0.005937 0.006537 0.001212 -0.025830
# 3 -0.006356 -0.005937 0.012443 0.004980 -0.005038 0.012189
# 4 -0.002676 0.006537 0.004980 0.027674 0.000267 -0.007800
# 5 -0.005748 0.001212 -0.005038 0.000267 0.039743 -0.001857
# 6 -0.020644 -0.025830 0.012189 -0.007800 -0.001857 0.074285
#
#
# Mechanical properties :
#
#
# Convention : Reuss Voigt Hill
#
# Bulk Modulus (GPa) = 25.01856 53.69994 39.35925
# Shear Modulus (GPa) = 22.04194 37.36993 29.70593
#
# Velocity S-wave (km/s) = 3.09980 4.03617 3.59857
# Velocity P-wave (km/s) = 4.87012 6.71791 5.86721
#
# Compressibility (1/GPa) = 0.03997032
#
# Stress axis : x y z
#
# Youngs Moduli (GPa) = 44.24543 47.96582 80.36567
#
# Poissons Ratio (x) = -0.20774 0.51077
# Poissons Ratio (y) = -0.19163 0.47709
# Poissons Ratio (z) = 0.28121 0.28475
#
# Static dielectric constant tensor:
#      x y z
#    x 1.851840 -0.224650 0.112980 
#    y -0.224650 1.694980 0.096690 
#    z 0.112980 0.096690 1.892690 
# 
# From -- ./inp_files/401255.got.cif
#   From: 2010.05.17/outbox.cif.g08.bks.cpg/sg2_201_cif.got.tgz:401255.got - 2010.06.03 11:33:40.
