data_PCOD9038484
_publ_section_title
;
Structure prediction by ZEFSAII (Michael W. Deem and Ramdas Pophale) SiO2 
 PCOD9038484
Probable space group: P -1
;
_chemical_formula_sum "Si O2"
_cell_formula_units_Z 12
_cell_length_a 9.651932
_cell_length_b 8.930946
_cell_length_c 12.262662
_cell_angle_alpha 142.701207
_cell_angle_beta 54.832989
_cell_angle_gamma 117.357594
_cell_volume 523.627523
_symmetry_space_group_name_H-M "P -1"
_symmetry_group_IT_number 2
_symmetry_cell_setting 'triclinic'
loop_
_space_group_symop_operation_xyz
x,y,z
-x,-y,-z
loop_
_atom_site_type_symbol
_atom_site_label
_atom_site_fract_x
_atom_site_fract_y
_atom_site_fract_z
Si Si1 0.938216 0.140777 0.835760
Si Si2 0.110374 0.756549 0.840413
Si Si3 0.058834 0.771241 0.420773
Si Si4 0.358723 0.745059 0.133860
Si Si5 0.321793 0.278391 0.747125
Si Si6 0.572914 0.133898 0.374272
O O1 0.785936 0.183445 0.845936
O O2 0.117429 0.292447 0.831827
O O3 0.857559 0.190099 0.017006
O O4 0.001616 0.863868 0.618458
O O5 0.014125 0.495419 0.728158
O O6 0.274741 0.727251 0.673485
O O7 0.000000 0.000000 0.000000
O O8 0.257963 0.743879 0.293525
O O9 0.500786 0.947799 0.206567
O O10 0.400813 0.479761 0.911389
O O11 0.000000 0.000000 0.500000
O O12 0.349109 0.026437 0.655576
O O13 0.420201 0.278842 0.587519
#
# Coordination Sequence:
#
# PCOD9038484 Si02
#       6
#     2   2   2   2   2   2
#     4  11  23  41  71  96 130 185 228 268 336 414
#     4  12  25  45  66 102 141 176 222 289 342 398
#     4  10  23  41  70 100 130 181 229 271 330 415
#     4  11  22  40  71  95 130 179 234 267 329 415
#     4  11  22  42  69  96 135 185 223 268 345 413
#     4  11  25  41  64 102 137 170 227 289 333 392
#
# _framework density 22.917052999999999
#
# number of rings (size 3 to 8) (size 9 to 14) (size 15 to 20)
#    0.000    1.000    5.000    1.000    2.333    2.667 
#    0.000    5.833    0.000    0.000    0.000    0.000 
#    0.000    0.000    0.000    0.000    0.000    0.000 
#
# Total GULP energy -66955.603676 kJ/mol
# GULP energy per Si atom -5579.633640 kJ/mol
# Density = 2.286489 g / cm^3
# Si number density = 22.917053 Si / 1000 Ang^3
#
#
#
# Elastic Constant Matrix: (Units=GPa)
#
#
# Indices 1 2 3 4 5 6 
#
# 1 75.8919 11.3328 7.9566 2.5062 -17.3850 8.0159
# 2 11.3328 75.9384 21.3066 -0.9740 -9.3365 5.8984
# 3 7.9566 21.3066 110.8468 -4.5347 10.7708 -13.6127
# 4 2.5062 -0.9740 -4.5347 47.5682 8.7981 6.2352
# 5 -17.3850 -9.3365 10.7708 8.7981 34.5021 0.0420
# 6 8.0159 5.8984 -13.6127 6.2352 0.0420 17.3795
#
#
#
# Elastic Compliance Matrix: (Units=1/GPa)
#
#
# Indices 1 2 3 4 5 6 
#
# 1 0.016987 0.000534 -0.003658 -0.001796 0.010316 -0.010262
# 2 0.000534 0.015940 -0.004861 -0.000059 0.006126 -0.009458
# 3 -0.003658 -0.004861 0.012547 0.000964 -0.007337 0.012837
# 4 -0.001796 -0.000059 0.000964 0.023426 -0.007187 -0.006784
# 5 0.010316 0.006126 -0.007337 -0.007187 0.039975 -0.010102
# 6 -0.010262 -0.009458 0.012837 -0.006784 -0.010102 0.077995
#
#
# Mechanical properties :
#
#
# Convention : Reuss Voigt Hill
#
# Bulk Modulus (GPa) = 33.89517 38.20768 36.05143
# Shear Modulus (GPa) = 23.50991 34.69535 29.10263
#
# Velocity S-wave (km/s) = 3.20639 3.89518 3.56745
# Velocity P-wave (km/s) = 5.34139 6.07768 5.72139
#
# Compressibility (1/GPa) = 0.02950273
#
# Stress axis : x y z
#
# Youngs Moduli (GPa) = 58.86916 62.73516 79.69853
#
# Poissons Ratio (x) = -0.03348 0.29154
# Poissons Ratio (y) = -0.03142 0.38745
# Poissons Ratio (z) = 0.21534 0.30498
#
# Static dielectric constant tensor:
#      x y z
#    x 1.908510 -0.073190 -0.026740 
#    y -0.073190 2.015320 0.055970 
#    z -0.026740 0.055970 1.988590 
# 
# From -- ./inp_files/519310.got.cif
#   From: 2010.05.17/outbox.cif.g08.bks.cpg/sg2_260_cif.got.tgz:519310.got - 2010.06.03 11:33:40.
