data_PCOD9038579
_publ_section_title
;
Structure prediction by ZEFSAII (Michael W. Deem and Ramdas Pophale) SiO2 
 PCOD9038579
Probable space group: P -1
;
_chemical_formula_sum "Si O2"
_cell_formula_units_Z 14
_cell_length_a 10.386562
_cell_length_b 9.569070
_cell_length_c 11.347697
_cell_angle_alpha 134.021762
_cell_angle_beta 123.748067
_cell_angle_gamma 58.629139
_cell_volume 657.055312
_symmetry_space_group_name_H-M "P -1"
_symmetry_group_IT_number 2
_symmetry_cell_setting 'triclinic'
loop_
_space_group_symop_operation_xyz
x,y,z
-x,-y,-z
loop_
_atom_site_type_symbol
_atom_site_label
_atom_site_fract_x
_atom_site_fract_y
_atom_site_fract_z
Si Si1 0.054031 0.975521 0.146454
Si Si2 0.650128 0.588982 0.593137
Si Si3 0.872657 0.669560 0.972392
Si Si4 0.555451 0.549516 0.186938
Si Si5 0.438771 0.184371 0.987157
Si Si6 0.136647 0.616992 0.625457
Si Si7 0.582197 0.028260 0.715340
O O1 0.240509 0.965034 0.231796
O O2 0.951611 0.156068 0.274663
O O3 0.991418 0.790260 0.048746
O O4 0.000000 0.000000 0.000000
O O5 0.500000 0.500000 0.500000
O O6 0.755136 0.627339 0.782451
O O7 0.766757 0.438408 0.477839
O O8 0.590511 0.792913 0.605647
O O9 0.750296 0.778654 0.074158
O O10 0.000000 0.500000 0.000000
O O11 0.739546 0.455877 0.248664
O O12 0.520606 0.792893 0.315029
O O13 0.500000 0.500000 0.000000
O O14 0.474699 0.408250 0.148998
O O15 0.524175 0.108882 0.863814
O O16 0.500000 0.000000 0.000000
O O17 0.000000 0.500000 0.500000
#
# Coordination Sequence:
#
# PCOD9038579 Si02
#       7
#     2   2   2   2   2   2   2
#     4  12  22  44  74 101 139 184 237 280 350 423
#     4  12  27  46  69 102 149 186 228 291 373 414
#     4  12  26  46  75 107 136 182 244 293 341 422
#     4  10  23  41  71 105 134 180 245 282 331 426
#     4  11  20  40  72 105 133 181 236 284 339 409
#     4  12  25  45  70 103 144 183 225 292 361 410
#     4  11  23  43  69 101 140 186 234 285 344 423
#
# _framework density 21.307186000000002
#
# number of rings (size 3 to 8) (size 9 to 14) (size 15 to 20)
#    0.000    0.571    4.286    4.286    2.000    4.000 
#    2.571    0.714    0.000    0.000    0.000    0.000 
#    0.000    0.000    0.000    0.000    0.000    0.000 
#
# Total GULP energy -78035.973447 kJ/mol
# GULP energy per Si atom -5573.998103 kJ/mol
# Density = 2.125869 g / cm^3
# Si number density = 21.307186 Si / 1000 Ang^3
#
#
#
# Elastic Constant Matrix: (Units=GPa)
#
#
# Indices 1 2 3 4 5 6 
#
# 1 194.1056 81.4143 48.3957 13.5575 12.0529 7.1353
# 2 81.4143 162.8261 31.0682 -0.1968 10.6948 27.5040
# 3 48.3957 31.0682 56.3172 -10.4812 -3.0152 18.5079
# 4 13.5575 -0.1968 -10.4812 27.8881 -6.9556 14.6707
# 5 12.0529 10.6948 -3.0152 -6.9556 48.1360 17.1359
# 6 7.1353 27.5040 18.5079 14.6707 17.1359 46.2719
#
#
#
# Elastic Compliance Matrix: (Units=1/GPa)
#
#
# Indices 1 2 3 4 5 6 
#
# 1 0.052679 -0.022021 -0.108460 -0.154649 -0.083054 0.128137
# 2 -0.022021 0.016467 0.042300 0.064907 0.033989 -0.056478
# 3 -0.108460 0.042300 0.260819 0.354001 0.190447 -0.295507
# 4 -0.154649 0.064907 0.354001 0.540302 0.277807 -0.430512
# 5 -0.083054 0.033989 0.190447 0.277807 0.169549 -0.234441
# 6 0.128137 -0.056478 -0.295507 -0.430512 -0.234441 0.376936
#
#
# Mechanical properties :
#
#
# Convention : Reuss Voigt Hill
#
# Bulk Modulus (GPa) = 6.51031 81.66726 44.08878
# Shear Modulus (GPa) = 3.04078 41.28392 22.16235
#
# Velocity S-wave (km/s) = 1.19591 4.40655 3.22861
# Velocity P-wave (km/s) = 2.22913 8.01885 5.88519
#
# Compressibility (1/GPa) = 0.15360249
#
# Stress axis : x y z
#
# Youngs Moduli (GPa) = 18.98303 60.72654 3.83408
#
# Poissons Ratio (x) = 1.33727 0.41584
# Poissons Ratio (y) = 0.41803 -0.16218
# Poissons Ratio (z) = 2.05889 -2.56871
#
# Static dielectric constant tensor:
#      x y z
#    x 1.782920 -0.001110 -0.008140 
#    y -0.001110 1.792490 0.042000 
#    z -0.008140 0.042000 1.878880 
# 
# From -- ./inp_files/159575.got.cif
#   From: 2010.05.17/outbox.cif.g08.bks.cpg/sg2_80_cif.got.tgz:159575.got - 2010.06.03 11:33:40.
