data_PCOD9038764
_publ_section_title
;
Structure prediction by ZEFSAII (Michael W. Deem and Ramdas Pophale) SiO2 
 PCOD9038764
Probable space group: P -1
;
_chemical_formula_sum "Si O2"
_cell_formula_units_Z 14
_cell_length_a 7.347334
_cell_length_b 8.850285
_cell_length_c 12.814882
_cell_angle_alpha 49.057109
_cell_angle_beta 81.351937
_cell_angle_gamma 107.166565
_cell_volume 528.791233
_symmetry_space_group_name_H-M "P -1"
_symmetry_group_IT_number 2
_symmetry_cell_setting 'triclinic'
loop_
_space_group_symop_operation_xyz
x,y,z
-x,-y,-z
loop_
_atom_site_type_symbol
_atom_site_label
_atom_site_fract_x
_atom_site_fract_y
_atom_site_fract_z
Si Si1 0.680009 0.387641 0.228628
Si Si2 0.095429 0.746733 0.588769
Si Si3 0.664231 0.598082 0.611421
Si Si4 0.962601 0.243098 0.850302
Si Si5 0.549666 0.959684 0.145750
Si Si6 0.675461 0.859623 0.782786
Si Si7 0.891293 0.969710 0.242597
O O1 0.774283 0.224164 0.329028
O O2 0.522134 0.365788 0.345927
O O3 0.890573 0.645630 0.108524
O O4 0.542615 0.350928 0.154171
O O5 0.241382 0.939316 0.404795
O O6 0.860705 0.715816 0.625810
O O7 0.025590 0.484259 0.676349
O O8 0.564554 0.320527 0.731710
O O9 0.769917 0.742099 0.432109
O O10 0.047930 0.114379 0.830778
O O11 0.715685 0.101038 0.973578
O O12 0.391801 0.046244 0.154708
O O13 0.713845 0.029187 0.198726
O O14 0.883691 0.849652 0.801215
#
# Coordination Sequence:
#
# PCOD9038764 Si02
#       7
#     2   2   2   2   2   2   2
#     4  10  23  42  61  94 126 161 197 262 302 366
#     4   9  21  40  61  93 121 157 205 253 294 379
#     4  11  22  38  70  91 121 161 209 248 317 345
#     4  10  23  42  62  90 131 156 211 247 306 363
#     4  12  23  40  66  90 124 170 197 257 304 363
#     4  11  24  40  67  91 125 158 209 251 315 346
#     4  11  23  40  63  99 118 156 214 259 287 380
#
# _framework density 26.475474999999999
#
# number of rings (size 3 to 8) (size 9 to 14) (size 15 to 20)
#    0.857    0.571    1.429    3.857    0.000    8.571 
#    0.000    0.714    0.000    0.000    0.000    0.000 
#    0.000    0.000    0.000    0.000    0.000    0.000 
#
# Total GULP energy -78361.997671 kJ/mol
# GULP energy per Si atom -5597.285548 kJ/mol
# Density = 2.641522 g / cm^3
# Si number density = 26.475475 Si / 1000 Ang^3
#
#
#
# Elastic Constant Matrix: (Units=GPa)
#
#
# Indices 1 2 3 4 5 6 
#
# 1 136.6064 12.3337 5.7289 4.5980 -18.3710 31.7652
# 2 12.3337 86.6990 42.9399 5.9745 -15.9179 29.4794
# 3 5.7289 42.9399 87.5244 -9.6384 -12.5291 4.5029
# 4 4.5980 5.9745 -9.6384 41.2663 12.5336 1.7802
# 5 -18.3710 -15.9179 -12.5291 12.5336 42.0200 4.2320
# 6 31.7652 29.4794 4.5029 1.7802 4.2320 48.3761
#
#
#
# Elastic Compliance Matrix: (Units=1/GPa)
#
#
# Indices 1 2 3 4 5 6 
#
# 1 0.010574 0.004586 -0.001727 -0.004281 0.008143 -0.010132
# 2 0.004586 0.025927 -0.011271 -0.010156 0.013364 -0.018557
# 3 -0.001727 -0.011271 0.017080 0.006282 -0.002449 0.006395
# 4 -0.004281 -0.010156 0.006282 0.031569 -0.014117 0.008489
# 5 0.008143 0.013364 -0.002449 -0.014117 0.037515 -0.016025
# 6 -0.010132 -0.018557 0.006395 0.008489 -0.016025 0.039127
#
#
# Mechanical properties :
#
#
# Convention : Reuss Voigt Hill
#
# Bulk Modulus (GPa) = 27.20493 48.09276 37.64884
# Shear Modulus (GPa) = 26.19625 42.98763 34.59194
#
# Velocity S-wave (km/s) = 3.14897 4.03386 3.61857
# Velocity P-wave (km/s) = 4.84966 6.31668 5.63115
#
# Compressibility (1/GPa) = 0.03675804
#
# Stress axis : x y z
#
# Youngs Moduli (GPa) = 94.57398 38.56962 58.54818
#
# Poissons Ratio (x) = -0.17688 0.10109
# Poissons Ratio (y) = -0.43371 0.65988
# Poissons Ratio (z) = 0.16329 0.43471
#
# Static dielectric constant tensor:
#      x y z
#    x 2.100230 0.099200 0.102700 
#    y 0.099200 2.119580 0.004630 
#    z 0.102700 0.004630 2.033570 
# 
# From -- ./inp_files/378293.got.cif
#   From: 2010.05.17/outbox.cif.g08.bks.cpg/sg2_190_cif.got.tgz:378293.got - 2010.06.03 11:33:40.
