data_PCOD9038845
_publ_section_title
;
Structure prediction by ZEFSAII (Michael W. Deem and Ramdas Pophale) SiO2 
 PCOD9038845
Probable space group: P -1
;
_chemical_formula_sum "Si O2"
_cell_formula_units_Z 11
_cell_length_a 12.833321
_cell_length_b 6.396785
_cell_length_c 15.106232
_cell_angle_alpha 131.124738
_cell_angle_beta 148.095851
_cell_angle_gamma 60.141178
_cell_volume 487.963923
_symmetry_space_group_name_H-M "P -1"
_symmetry_group_IT_number 2
_symmetry_cell_setting 'triclinic'
loop_
_space_group_symop_operation_xyz
x,y,z
-x,-y,-z
loop_
_atom_site_type_symbol
_atom_site_label
_atom_site_fract_x
_atom_site_fract_y
_atom_site_fract_z
Si Si1 0.447949 0.130922 0.615176
Si Si2 0.679120 0.686194 0.874020
Si Si3 0.792711 0.790390 0.781987
Si Si4 0.537735 0.817703 0.147955
Si Si5 0.000000 0.000000 0.500000
Si Si6 0.064170 0.759148 0.286212
O O1 0.502645 0.435045 0.697066
O O2 0.382474 0.056463 0.341400
O O3 0.473821 0.177632 0.752694
O O4 0.224915 0.964729 0.401237
O O5 0.724631 0.695998 0.805720
O O6 0.618835 0.984880 0.941463
O O7 0.874170 0.643324 0.057423
O O8 0.833331 0.507944 0.684745
O O9 0.000000 0.000000 0.000000
O O10 0.756762 0.949391 0.312581
O O11 0.500000 0.500000 0.000000
O O12 0.000413 0.913613 0.369421
#
# Coordination Sequence:
#
# PCOD9038845 Si02
#       6
#     2   2   2   2   1   2
#     4  10  23  42  63  98 131 170 216 266 328 383
#     4  11  24  43  67  99 128 170 220 271 323 385
#     4  11  23  43  69  96 133 172 215 270 331 379
#     4  10  23  42  66  91 132 175 214 267 322 386
#     4  10  24  42  66  94 128 176 214 258 328 380
#     4  11  23  43  68  97 134 173 217 267 322 388
#
# _framework density 22.542649999999998
#
# number of rings (size 3 to 8) (size 9 to 14) (size 15 to 20)
#    0.000    1.455    1.818    2.182    2.545    5.091 
#    6.545    3.636    0.000    0.000    0.000    0.000 
#    0.000    0.000    0.000    0.000    0.000    0.000 
#
# Total GULP energy -61326.692038 kJ/mol
# GULP energy per Si atom -5575.153822 kJ/mol
# Density = 2.249134 g / cm^3
# Si number density = 22.542650 Si / 1000 Ang^3
#
#
#
# Elastic Constant Matrix: (Units=GPa)
#
#
# Indices 1 2 3 4 5 6 
#
# 1 110.5427 41.3601 12.2658 9.3254 8.2137 12.3890
# 2 41.3601 94.2261 13.7305 14.3202 6.6276 -8.6473
# 3 12.2658 13.7305 66.7069 7.6918 7.3190 -2.4009
# 4 9.3254 14.3202 7.6918 32.1323 3.7476 7.7451
# 5 8.2137 6.6276 7.3190 3.7476 26.6580 6.5466
# 6 12.3890 -8.6473 -2.4009 7.7451 6.5466 30.6030
#
#
#
# Elastic Compliance Matrix: (Units=1/GPa)
#
#
# Indices 1 2 3 4 5 6 
#
# 1 0.012104 -0.005895 -0.001352 0.001139 -0.000363 -0.006883
# 2 -0.005895 0.015379 -0.000628 -0.006817 -0.003104 0.009072
# 3 -0.001352 -0.000628 0.016376 -0.003587 -0.004273 0.003476
# 4 0.001139 -0.006817 -0.003587 0.037624 0.000035 -0.012198
# 5 -0.000363 -0.003104 -0.004273 0.000035 0.042036 -0.010067
# 6 -0.006883 0.009072 0.003476 -0.012198 -0.010067 0.043540
#
#
# Mechanical properties :
#
#
# Convention : Reuss Voigt Hill
#
# Bulk Modulus (GPa) = 35.57557 45.13206 40.35382
# Shear Modulus (GPa) = 26.01731 31.48661 28.75196
#
# Velocity S-wave (km/s) = 3.40095 3.74138 3.57521
# Velocity P-wave (km/s) = 5.58906 6.22319 5.91463
#
# Compressibility (1/GPa) = 0.02810918
#
# Stress axis : x y z
#
# Youngs Moduli (GPa) = 82.61543 65.02327 61.06346
#
# Poissons Ratio (x) = 0.38334 0.08253
# Poissons Ratio (y) = 0.48706 0.03837
# Poissons Ratio (z) = 0.11165 0.04086
#
# Static dielectric constant tensor:
#      x y z
#    x 1.808600 -0.003030 -0.015000 
#    y -0.003030 1.839000 -0.003750 
#    z -0.015000 -0.003750 1.824000 
# 
# From -- ./inp_files/21206.got.cif
#   From: 2010.05.17/outbox.cif.g08.bks.cpg/sg2_11_cif.got.tgz:21206.got - 2010.06.03 11:33:40.
