data_PCOD9038129
_publ_section_title
;
Structure prediction by ZEFSAII (Michael W. Deem and Ramdas Pophale) SiO2 
 PCOD9038129
Probable space group: P -1
;
_chemical_formula_sum "Si O2"
_cell_formula_units_Z 16
_cell_length_a 12.184098
_cell_length_b 6.725882
_cell_length_c 25.305967
_cell_angle_alpha 45.286232
_cell_angle_beta 148.882817
_cell_angle_gamma 134.411077
_cell_volume 734.280243
_symmetry_space_group_name_H-M "P -1"
_symmetry_group_IT_number 2
_symmetry_cell_setting 'triclinic'
loop_
_space_group_symop_operation_xyz
x,y,z
-x,-y,-z
loop_
_atom_site_type_symbol
_atom_site_label
_atom_site_fract_x
_atom_site_fract_y
_atom_site_fract_z
Si Si1 0.405004 0.273336 0.923746
Si Si2 0.094544 0.542205 0.682784
Si Si3 0.137185 0.395085 0.215499
Si Si4 0.695586 0.752703 0.509432
Si Si5 0.501993 0.021063 0.716400
Si Si6 0.752437 0.067980 0.573814
Si Si7 0.886878 0.752734 0.890301
Si Si8 0.778345 0.700402 0.038925
O O1 0.206175 0.312696 0.799017
O O2 0.329259 0.265001 0.955087
O O3 0.591962 0.581906 0.940913
O O4 0.500000 0.000000 0.000000
O O5 0.292700 0.816573 0.698087
O O6 0.917200 0.647833 0.624272
O O7 0.929426 0.369328 0.602419
O O8 0.181783 0.176959 0.318375
O O9 0.104511 0.255690 0.169122
O O10 0.918674 0.468163 0.134172
O O11 0.332562 0.699860 0.238632
O O12 0.500000 0.500000 0.500000
O O13 0.740818 0.026499 0.514659
O O14 0.609487 0.835144 0.403058
O O15 0.648342 0.808378 0.794646
O O16 0.500000 0.000000 0.500000
O O17 0.040513 0.000361 0.944411
O O18 0.000000 0.500000 0.000000
#
# Coordination Sequence:
#
# PCOD9038129 Si02
#       8
#     2   2   2   2   2   2   2   2
#     4  11  24  42  68 100 145 180 233 286 348 410
#     4  12  27  42  70 105 138 177 230 294 350 402
#     4  11  23  44  69  98 139 185 236 281 342 422
#     4  12  24  47  73  98 135 181 233 282 349 419
#     4  11  27  45  69 105 143 178 232 293 351 409
#     4  12  23  41  74 101 130 178 231 284 345 414
#     4  11  26  42  70  98 142 186 232 277 352 418
#     4  10  23  41  66  97 135 185 235 281 334 409
#
# _framework density 21.790044999999999
#
# number of rings (size 3 to 8) (size 9 to 14) (size 15 to 20)
#    0.000    0.750    2.500    4.125    7.000    3.500 
#    0.000    0.000    0.000    0.000    0.000    0.000 
#    0.000    0.000    0.000    0.000    0.000    0.000 
#
# Total GULP energy -89159.432726 kJ/mol
# GULP energy per Si atom -5572.464545 kJ/mol
# Density = 2.174045 g / cm^3
# Si number density = 21.790045 Si / 1000 Ang^3
#
#
#
# Elastic Constant Matrix: (Units=GPa)
#
#
# Indices 1 2 3 4 5 6 
#
# 1 67.3489 20.4917 32.3451 1.9464 19.2086 -1.7115
# 2 20.4917 91.9933 23.7314 28.8622 6.0086 -1.8073
# 3 32.3451 23.7314 130.7527 3.4035 18.4093 2.2478
# 4 1.9464 28.8622 3.4035 39.4237 -5.6334 -5.4942
# 5 19.2086 6.0086 18.4093 -5.6334 40.6265 1.7458
# 6 -1.7115 -1.8073 2.2478 -5.4942 1.7458 37.0335
#
#
#
# Elastic Compliance Matrix: (Units=1/GPa)
#
#
# Indices 1 2 3 4 5 6 
#
# 1 0.019468 -0.003279 -0.003257 0.000891 -0.007181 0.001408
# 2 -0.003279 0.015707 -0.001488 -0.011577 -0.001663 -0.000934
# 3 -0.003257 -0.001488 0.009059 0.000046 -0.002310 -0.000657
# 4 0.000891 -0.011577 0.000046 0.035262 0.005969 0.004423
# 5 -0.007181 -0.001663 -0.002310 0.005969 0.030165 -0.000809
# 6 0.001408 -0.000934 -0.000657 0.004423 -0.000809 0.027756
#
#
# Mechanical properties :
#
#
# Convention : Reuss Voigt Hill
#
# Bulk Modulus (GPa) = 35.47895 49.24794 42.36344
# Shear Modulus (GPa) = 30.70084 37.65185 34.17635
#
# Velocity S-wave (km/s) = 3.75766 4.16136 3.96465
# Velocity P-wave (km/s) = 5.92825 6.76309 6.35938
#
# Compressibility (1/GPa) = 0.02818573
#
# Stress axis : x y z
#
# Youngs Moduli (GPa) = 51.36601 63.66563 110.38496
#
# Poissons Ratio (x) = 0.20877 0.35954
# Poissons Ratio (y) = 0.16844 0.16425
# Poissons Ratio (z) = 0.16731 0.09474
#
# Static dielectric constant tensor:
#      x y z
#    x 1.838330 0.033680 0.056960 
#    y 0.033680 1.881880 0.029940 
#    z 0.056960 0.029940 1.767740 
# 
# From -- ./inp_files/543560.got.cif
#   From: 2010.05.17/outbox.cif.g08.bks.cpg/sg2_272_cif.got.tgz:543560.got - 2010.06.03 11:33:40.
