data_PCOD9038185
_publ_section_title
;
Structure prediction by ZEFSAII (Michael W. Deem and Ramdas Pophale) SiO2 
 PCOD9038185
Probable space group: P -1
;
_chemical_formula_sum "Si O2"
_cell_formula_units_Z 14
_cell_length_a 25.600322
_cell_length_b 12.683735
_cell_length_c 5.155036
_cell_angle_alpha 123.721381
_cell_angle_beta 57.140871
_cell_angle_gamma 154.754038
_cell_volume 589.927152
_symmetry_space_group_name_H-M "P -1"
_symmetry_group_IT_number 2
_symmetry_cell_setting 'triclinic'
loop_
_space_group_symop_operation_xyz
x,y,z
-x,-y,-z
loop_
_atom_site_type_symbol
_atom_site_label
_atom_site_fract_x
_atom_site_fract_y
_atom_site_fract_z
Si Si1 0.478847 0.810577 0.788855
Si Si2 0.615813 0.300991 0.606658
Si Si3 0.132238 0.193461 0.294299
Si Si4 0.827867 0.893193 0.435348
Si Si5 0.641799 0.769695 0.575779
Si Si6 0.299038 0.969269 0.705796
Si Si7 0.028548 0.464610 0.628028
O O1 0.377993 0.624108 0.585127
O O2 0.594818 0.938319 0.551557
O O3 0.429444 0.684754 0.028341
O O4 0.500000 0.000000 0.000000
O O5 0.755227 0.505914 0.571794
O O6 0.500000 0.000000 0.500000
O O7 0.167588 0.141638 0.324944
O O8 0.000000 0.000000 0.500000
O O9 0.140379 0.161759 0.932812
O O10 0.938923 0.188158 0.493918
O O11 0.706906 0.759771 0.498268
O O12 0.500000 0.500000 0.500000
O O13 0.703761 0.921949 0.347525
O O14 0.668313 0.920060 0.942715
O O15 0.169366 0.674054 0.594019
O O16 0.000000 0.500000 0.500000
O O17 0.000000 0.500000 0.000000
#
# Coordination Sequence:
#
# PCOD9038185 Si02
#       7
#     2   2   2   2   2   2   2
#     4  10  23  41  67 103 137 176 228 294 355 416
#     4  10  23  44  70  96 142 181 237 293 355 426
#     4  12  28  47  73 107 147 192 240 297 371 441
#     4  12  26  46  75 104 147 191 238 306 362 430
#     4  12  27  44  70 106 139 186 246 292 367 427
#     4  12  24  44  72 103 139 189 240 298 358 428
#     4  12  23  46  71 102 143 188 249 301 354 429
#
# _framework density 23.731743999999999
#
# number of rings (size 3 to 8) (size 9 to 14) (size 15 to 20)
#    0.000    0.571    2.857    4.286    6.000    4.571 
#    0.000    0.000    0.000    0.000    0.000    0.000 
#    0.000    0.000    0.000    0.000    0.000    0.000 
#
# Total GULP energy -78161.666270 kJ/mol
# GULP energy per Si atom -5582.976162 kJ/mol
# Density = 2.367773 g / cm^3
# Si number density = 23.731744 Si / 1000 Ang^3
#
#
#
# Elastic Constant Matrix: (Units=GPa)
#
#
# Indices 1 2 3 4 5 6 
#
# 1 65.7375 -8.9275 22.6056 12.2314 14.4264 7.2076
# 2 -8.9275 129.2489 16.2377 28.1750 -3.6982 28.7473
# 3 22.6056 16.2377 127.8973 -5.0929 27.8094 20.4143
# 4 12.2314 28.1750 -5.0929 35.4110 3.1742 -0.1736
# 5 14.4264 -3.6982 27.8094 3.1742 52.6050 -10.1484
# 6 7.2076 28.7473 20.4143 -0.1736 -10.1484 48.6488
#
#
#
# Elastic Compliance Matrix: (Units=1/GPa)
#
#
# Indices 1 2 3 4 5 6 
#
# 1 0.020744 0.005575 -0.002964 -0.011681 -0.004190 -0.006039
# 2 0.005575 0.012738 -0.001755 -0.012310 -0.000459 -0.007756
# 3 -0.002964 -0.001755 0.010755 0.004492 -0.006095 -0.004292
# 4 -0.011681 -0.012310 0.004492 0.042864 -0.001271 0.007008
# 5 -0.004190 -0.000459 -0.006095 -0.001271 0.025100 0.008681
# 6 -0.006039 -0.007756 -0.004292 0.007008 0.008681 0.029671
#
#
# Mechanical properties :
#
#
# Convention : Reuss Voigt Hill
#
# Bulk Modulus (GPa) = 21.76367 42.52395 32.14381
# Shear Modulus (GPa) = 32.15945 46.86414 39.51180
#
# Velocity S-wave (km/s) = 3.68519 4.44863 4.08479
# Velocity P-wave (km/s) = 5.22476 6.65917 5.98510
#
# Compressibility (1/GPa) = 0.04594814
#
# Stress axis : x y z
#
# Youngs Moduli (GPa) = 48.20750 78.50485 92.98204
#
# Poissons Ratio (x) = -0.43767 0.27563
# Poissons Ratio (y) = -0.26876 0.16317
# Poissons Ratio (z) = 0.14290 0.13777
#
# Static dielectric constant tensor:
#      x y z
#    x 1.883920 0.125040 0.042500 
#    y 0.125040 1.569080 -0.061810 
#    z 0.042500 -0.061810 1.899330 
# 
# From -- ./inp_files/128619.got.cif
#   From: 2010.05.17/outbox.cif.g08.bks.cpg/sg2_65_cif.got.tgz:128619.got - 2010.06.03 11:33:40.
