data_PCOD9039201
_publ_section_title
;
Structure prediction by ZEFSAII (Michael W. Deem and Ramdas Pophale) SiO2 
 PCOD9039201
Probable space group: P -1
;
_chemical_formula_sum "Si O2"
_cell_formula_units_Z 14
_cell_length_a 14.816796
_cell_length_b 23.396214
_cell_length_c 5.244151
_cell_angle_alpha 97.210905
_cell_angle_beta 92.305286
_cell_angle_gamma 159.220072
_cell_volume 572.150356
_symmetry_space_group_name_H-M "P -1"
_symmetry_group_IT_number 2
_symmetry_cell_setting 'triclinic'
loop_
_space_group_symop_operation_xyz
x,y,z
-x,-y,-z
loop_
_atom_site_type_symbol
_atom_site_label
_atom_site_fract_x
_atom_site_fract_y
_atom_site_fract_z
Si Si1 0.773472 0.976727 0.949690
Si Si2 0.346816 0.644583 0.009164
Si Si3 0.752704 0.312444 0.636879
Si Si4 0.807261 0.833320 0.266128
Si Si5 0.083129 0.814530 0.981052
Si Si6 0.601340 0.003326 0.376720
Si Si7 0.485957 0.450875 0.717871
O O1 0.616182 0.846577 0.075182
O O2 0.497029 0.832587 0.679364
O O3 0.995972 0.070402 0.886271
O O4 0.942249 0.136673 0.110778
O O5 0.070031 0.481398 0.702836
O O6 0.227838 0.610142 0.213071
O O7 0.500118 0.676072 0.075964
O O8 0.626847 0.186745 0.742638
O O9 0.743792 0.738422 0.376360
O O10 0.000000 0.000000 0.500000
O O11 0.300554 0.923037 0.855458
O O12 0.792079 0.604407 0.820897
O O13 0.156143 0.866928 0.316880
O O14 0.500000 0.000000 0.500000
O O15 0.500000 0.500000 0.500000
O O16 0.500000 0.500000 0.000000
#
# Coordination Sequence:
#
# PCOD9039201 Si02
#       7
#     2   2   2   2   2   2   2
#     4  11  22  44  74 100 146 195 249 305 387 448
#     4  11  23  43  70 101 147 185 250 303 378 438
#     4  10  23  42  67 100 144 191 240 305 380 440
#     4  12  27  46  74 114 148 196 261 319 373 456
#     4  11  24  45  74 100 145 194 249 307 384 448
#     4  11  24  45  71 104 142 194 255 311 371 453
#     4  12  28  49  77 109 155 201 254 312 391 461
#
# _framework density 24.469094999999999
#
# number of rings (size 3 to 8) (size 9 to 14) (size 15 to 20)
#    0.000    0.857    4.286    2.143    6.000    1.143 
#    2.571    0.000    0.000    0.000    0.000    0.000 
#    0.000    0.000    0.000    0.000    0.000    0.000 
#
# Total GULP energy -78046.824083 kJ/mol
# GULP energy per Si atom -5574.773149 kJ/mol
# Density = 2.441340 g / cm^3
# Si number density = 24.469095 Si / 1000 Ang^3
#
#
#
# Elastic Constant Matrix: (Units=GPa)
#
#
# Indices 1 2 3 4 5 6 
#
# 1 138.4739 43.8977 36.3293 0.6355 8.0218 24.2994
# 2 43.8977 123.3979 40.1720 10.5677 0.5707 1.6416
# 3 36.3293 40.1720 73.5960 0.8539 8.5894 5.8494
# 4 0.6355 10.5677 0.8539 41.5022 7.3820 -1.6333
# 5 8.0218 0.5707 8.5894 7.3820 43.0521 3.5845
# 6 24.2994 1.6416 5.8494 -1.6333 3.5845 43.8969
#
#
#
# Elastic Compliance Matrix: (Units=1/GPa)
#
#
# Indices 1 2 3 4 5 6 
#
# 1 0.009659 -0.002449 -0.002957 0.000503 -0.000866 -0.004772
# 2 -0.002449 0.010810 -0.004963 -0.002858 0.001679 0.001369
# 3 -0.002957 -0.004963 0.018138 0.001501 -0.003237 -0.000275
# 4 0.000503 -0.002858 0.001501 0.025684 -0.004841 0.000979
# 5 -0.000866 0.001679 -0.003237 -0.004841 0.024957 -0.001370
# 6 -0.004772 0.001369 -0.000275 0.000979 -0.001370 0.025556
#
#
# Mechanical properties :
#
#
# Convention : Reuss Voigt Hill
#
# Bulk Modulus (GPa) = 55.96180 64.02955 59.99568
# Shear Modulus (GPa) = 35.33650 40.02818 37.68234
#
# Velocity S-wave (km/s) = 3.80429 4.04897 3.92854
# Velocity P-wave (km/s) = 6.49745 6.93421 6.71938
#
# Compressibility (1/GPa) = 0.01786933
#
# Stress axis : x y z
#
# Youngs Moduli (GPa) = 103.53185 92.51058 55.13183
#
# Poissons Ratio (x) = 0.22657 0.16300
# Poissons Ratio (y) = 0.25356 0.27362
# Poissons Ratio (z) = 0.30610 0.45913
#
# Static dielectric constant tensor:
#      x y z
#    x 2.649010 0.543890 0.605790 
#    y 0.543890 2.380700 0.403900 
#    z 0.605790 0.403900 2.565290 
# 
# From -- ./inp_files/94631.got.cif
#   From: 2010.05.17/outbox.cif.g08.bks.cpg/sg2_48_cif.got.tgz:94631.got - 2010.06.03 11:33:40.
