data_PCOD9039300
_publ_section_title
;
Structure prediction by ZEFSAII (Michael W. Deem and Ramdas Pophale) SiO2 
 PCOD9039300
Probable space group: P -1
;
_chemical_formula_sum "Si O2"
_cell_formula_units_Z 12
_cell_length_a 10.010769
_cell_length_b 11.759691
_cell_length_c 10.641637
_cell_angle_alpha 132.704006
_cell_angle_beta 130.419508
_cell_angle_gamma 87.814439
_cell_volume 487.969402
_symmetry_space_group_name_H-M "P -1"
_symmetry_group_IT_number 2
_symmetry_cell_setting 'triclinic'
loop_
_space_group_symop_operation_xyz
x,y,z
-x,-y,-z
loop_
_atom_site_type_symbol
_atom_site_label
_atom_site_fract_x
_atom_site_fract_y
_atom_site_fract_z
Si Si1 0.485392 0.316840 0.398784
Si Si2 0.132014 0.680956 0.327112
Si Si3 0.748305 0.439178 0.267967
Si Si4 0.421798 0.078403 0.609080
Si Si5 0.683108 0.976410 0.133844
Si Si6 0.205421 0.171430 0.359638
O O1 0.500000 0.500000 0.500000
O O2 0.734880 0.377566 0.564848
O O3 0.450632 0.294231 0.510753
O O4 0.273560 0.094389 0.019586
O O5 0.318468 0.909329 0.532483
O O6 0.079987 0.784533 0.477386
O O7 0.000000 0.500000 0.000000
O O8 0.796504 0.650653 0.472261
O O9 0.000000 0.500000 0.500000
O O10 0.654053 0.324148 0.987636
O O11 0.499100 0.245072 0.056507
O O12 0.230007 0.072576 0.418563
O O13 0.500000 0.000000 0.500000
O O14 0.500000 0.000000 0.000000
O O15 0.000000 0.000000 0.000000
#
# Coordination Sequence:
#
# PCOD9039300 Si02
#       6
#     2   2   2   2   2   2
#     4  11  22  43  66  93 134 168 220 272 321 401
#     4  10  23  42  67  96 130 172 213 269 336 389
#     4  11  24  43  68  96 131 177 223 274 336 390
#     4  11  23  44  65  94 136 169 224 275 322 401
#     4   9  21  40  65  91 127 166 216 260 326 389
#     4  12  26  42  66  98 134 179 221 274 334 388
#
# _framework density 24.591705000000001
#
# number of rings (size 3 to 8) (size 9 to 14) (size 15 to 20)
#    0.000    1.333    3.333    1.500    7.000    2.667 
#    0.000    0.833    0.000    0.000    0.000    0.000 
#    0.000    0.000    0.000    0.000    0.000    0.000 
#
# Total GULP energy -66896.720258 kJ/mol
# GULP energy per Si atom -5574.726688 kJ/mol
# Density = 2.453573 g / cm^3
# Si number density = 24.591705 Si / 1000 Ang^3
#
#
#
# Elastic Constant Matrix: (Units=GPa)
#
#
# Indices 1 2 3 4 5 6 
#
# 1 76.2526 14.4479 36.7752 13.5965 -37.6707 -19.3844
# 2 14.4479 132.6229 43.6579 20.7051 -9.8961 -35.3901
# 3 36.7752 43.6579 205.9557 19.9909 -55.5508 -32.7090
# 4 13.5965 20.7051 19.9909 51.7307 -7.8979 -1.7358
# 5 -37.6707 -9.8961 -55.5508 -7.8979 56.4465 14.0471
# 6 -19.3844 -35.3901 -32.7090 -1.7358 14.0471 45.7273
#
#
#
# Elastic Compliance Matrix: (Units=1/GPa)
#
#
# Indices 1 2 3 4 5 6 
#
# 1 0.021296 0.000550 0.000981 -0.003976 0.013241 0.005937
# 2 0.000550 0.010408 -0.001049 -0.003845 -0.001319 0.007797
# 3 0.000981 -0.001049 0.007307 -0.001537 0.006777 0.002691
# 4 -0.003976 -0.003845 -0.001537 0.022266 -0.000543 -0.004748
# 5 0.013241 -0.001319 0.006777 -0.000543 0.033101 -0.000749
# 6 0.005937 0.007797 0.002691 -0.004748 -0.000749 0.032395
#
#
# Mechanical properties :
#
#
# Convention : Reuss Voigt Hill
#
# Bulk Modulus (GPa) = 25.01512 67.17702 46.09607
# Shear Modulus (GPa) = 35.93649 52.11092 44.02371
#
# Velocity S-wave (km/s) = 3.82688 4.60830 4.23565
# Velocity P-wave (km/s) = 5.45169 7.46267 6.53500
#
# Compressibility (1/GPa) = 0.03997582
#
# Stress axis : x y z
#
# Youngs Moduli (GPa) = 46.95634 96.07996 136.85499
#
# Poissons Ratio (x) = -0.05285 -0.13422
# Poissons Ratio (y) = -0.02583 0.14350
# Poissons Ratio (z) = -0.04605 0.10075
#
# Static dielectric constant tensor:
#      x y z
#    x 0.995350 -0.814460 0.191270 
#    y -0.814460 1.169720 0.076350 
#    z 0.191270 0.076350 2.095380 
# 
# From -- ./inp_files/146170.got.cif
#   From: 2010.05.17/outbox.cif.g08.bks.cpg/sg2_74_cif.got.tgz:146170.got - 2010.06.03 11:33:40.
