data_PCOD9039234
_publ_section_title
;
Structure prediction by ZEFSAII (Michael W. Deem and Ramdas Pophale) SiO2 
 PCOD9039234
Probable space group: P -1
;
_chemical_formula_sum "Si O2"
_cell_formula_units_Z 16
_cell_length_a 9.605763
_cell_length_b 16.993456
_cell_length_c 6.842602
_cell_angle_alpha 121.850392
_cell_angle_beta 52.910036
_cell_angle_gamma 123.259623
_cell_volume 711.812591
_symmetry_space_group_name_H-M "P -1"
_symmetry_group_IT_number 2
_symmetry_cell_setting 'triclinic'
loop_
_space_group_symop_operation_xyz
x,y,z
-x,-y,-z
loop_
_atom_site_type_symbol
_atom_site_label
_atom_site_fract_x
_atom_site_fract_y
_atom_site_fract_z
Si Si1 0.647808 0.586396 0.610152
Si Si2 0.279609 0.818341 0.568847
Si Si3 0.549094 0.870546 0.754463
Si Si4 0.004125 0.391924 0.911239
Si Si5 0.762889 0.994296 0.064615
Si Si6 0.417667 0.723286 0.994830
Si Si7 0.839743 0.873156 0.186147
Si Si8 0.097631 0.332434 0.173292
O O1 0.500000 0.500000 0.500000
O O2 0.826526 0.628299 0.371381
O O3 0.756175 0.581146 0.711766
O O4 0.520296 0.648590 0.864876
O O5 0.364220 0.842218 0.745271
O O6 0.260965 0.922389 0.661395
O O7 0.413922 0.790889 0.271080
O O8 0.089514 0.727113 0.626489
O O9 0.711318 0.891863 0.487141
O O10 0.527106 0.775183 0.778446
O O11 0.599660 0.951513 0.989719
O O12 0.797713 0.321711 0.941369
O O13 0.042124 0.377474 0.086314
O O14 0.000000 0.500000 0.000000
O O15 0.795332 0.909285 0.057584
O O16 0.948584 0.055282 0.870108
O O17 0.828645 0.759254 0.051359
#
# Coordination Sequence:
#
# PCOD9039234 Si02
#       8
#     2   2   2   2   2   2   2   2
#     4  12  26  47  75 107 142 186 240 301 369 432
#     4  11  24  42  69 100 145 191 240 293 356 425
#     4  12  22  40  67 102 141 191 245 290 356 432
#     4  12  26  51  75 108 144 183 245 306 364 439
#     4  10  23  42  67 103 146 190 244 301 347 414
#     4  12  26  47  72 107 147 192 239 303 362 430
#     4  10  23  44  68 104 145 192 242 296 355 427
#     4  11  24  47  73 104 144 195 234 296 374 429
#
# _framework density 22.477826
#
# number of rings (size 3 to 8) (size 9 to 14) (size 15 to 20)
#    0.000    0.750    3.750    3.750    0.000    4.000 
#    4.500    0.000    0.000    0.000    0.000    0.000 
#    0.000    0.000    0.000    0.000    0.000    0.000 
#
# Total GULP energy -89295.796950 kJ/mol
# GULP energy per Si atom -5580.987309 kJ/mol
# Density = 2.242667 g / cm^3
# Si number density = 22.477826 Si / 1000 Ang^3
#
#
#
# Elastic Constant Matrix: (Units=GPa)
#
#
# Indices 1 2 3 4 5 6 
#
# 1 140.6203 43.8241 34.2403 4.1813 20.8875 18.6522
# 2 43.8241 71.5562 23.7961 1.0858 13.9826 5.9640
# 3 34.2403 23.7961 96.2413 -4.2585 -9.8397 2.1247
# 4 4.1813 1.0858 -4.2585 18.3487 1.0378 -1.4858
# 5 20.8875 13.9826 -9.8397 1.0378 45.7853 -0.0006
# 6 18.6522 5.9640 2.1247 -1.4858 -0.0006 44.4665
#
#
#
# Elastic Compliance Matrix: (Units=1/GPa)
#
#
# Indices 1 2 3 4 5 6 
#
# 1 0.010349 -0.004154 -0.003116 -0.002908 -0.004056 -0.003732
# 2 -0.004154 0.018684 -0.003631 -0.000793 -0.004573 -0.000617
# 3 -0.003116 -0.003631 0.013072 0.003766 0.005254 0.001295
# 4 -0.002908 -0.000793 0.003766 0.056266 0.001103 0.003026
# 5 -0.004056 -0.004573 0.005254 0.001103 0.026192 0.002101
# 6 -0.003732 -0.000617 0.001295 0.003026 0.002101 0.024176
#
#
# Mechanical properties :
#
#
# Convention : Reuss Voigt Hill
#
# Bulk Modulus (GPa) = 49.25303 56.90432 53.07868
# Shear Modulus (GPa) = 28.19955 35.49057 31.84506
#
# Velocity S-wave (km/s) = 3.54580 3.97787 3.76803
# Velocity P-wave (km/s) = 6.22278 6.81679 6.52655
#
# Compressibility (1/GPa) = 0.02030332
#
# Stress axis : x y z
#
# Youngs Moduli (GPa) = 96.63139 53.52298 76.49944
#
# Poissons Ratio (x) = 0.22234 0.23835
# Poissons Ratio (y) = 0.40141 0.27775
# Poissons Ratio (z) = 0.30107 0.19433
#
# Static dielectric constant tensor:
#      x y z
#    x 1.826350 0.065100 0.018270 
#    y 0.065100 1.808630 -0.008610 
#    z 0.018270 -0.008610 1.788900 
# 
# From -- ./inp_files/48526.got.cif
#   From: 2010.05.17/outbox.cif.g08.bks.cpg/sg2_25_cif.got.tgz:48526.got - 2010.06.03 11:33:40.
