data_PCOD9039903
_publ_section_title
;
Structure prediction by ZEFSAII (Michael W. Deem and Ramdas Pophale) SiO2 
 PCOD9039903
Probable space group: P -1
;
_chemical_formula_sum "Si O2"
_cell_formula_units_Z 16
_cell_length_a 9.130559
_cell_length_b 14.266802
_cell_length_c 12.174642
_cell_angle_alpha 150.560056
_cell_angle_beta 68.956028
_cell_angle_gamma 99.485388
_cell_volume 688.646671
_symmetry_space_group_name_H-M "P -1"
_symmetry_group_IT_number 2
_symmetry_cell_setting 'triclinic'
loop_
_space_group_symop_operation_xyz
x,y,z
-x,-y,-z
loop_
_atom_site_type_symbol
_atom_site_label
_atom_site_fract_x
_atom_site_fract_y
_atom_site_fract_z
Si Si1 0.004007 0.278439 0.734215
Si Si2 0.504602 0.266979 0.034863
Si Si3 0.368638 0.711080 0.559057
Si Si4 0.016511 0.765553 0.060196
Si Si5 0.355427 0.692019 0.187472
Si Si6 0.747748 0.065276 0.957578
Si Si7 0.252011 0.307189 0.526206
Si Si8 0.673786 0.989699 0.309175
O O1 0.833979 0.302204 0.739346
O O2 0.169499 0.210667 0.547124
O O3 0.002379 0.171707 0.742431
O O4 0.000000 0.500000 0.000000
O O5 0.369419 0.482780 0.315979
O O6 0.599390 0.183260 0.035511
O O7 0.621443 0.308819 0.950810
O O8 0.439463 0.102487 0.826972
O O9 0.281217 0.828266 0.809239
O O10 0.563320 0.695035 0.500087
O O11 0.294213 0.841253 0.605392
O O12 0.091530 0.907176 0.113981
O O13 0.135593 0.537114 0.780271
O O14 0.832907 0.802257 0.104474
O O15 0.382085 0.884728 0.435678
O O16 0.500000 0.500000 0.000000
O O17 0.749334 0.835517 0.722141
#
# Coordination Sequence:
#
# PCOD9039903 Si02
#       8
#     2   2   2   2   2   2   2   2
#     4  10  23  42  72 102 143 186 232 285 357 423
#     4  12  25  45  74 103 142 190 235 296 355 419
#     4  12  26  48  73 107 140 188 252 296 343 424
#     4  11  26  46  69 107 145 189 234 291 363 428
#     4  12  25  45  73 109 150 183 234 298 361 427
#     4  12  25  45  80 102 137 193 251 292 346 427
#     4  11  24  43  73 104 138 184 241 295 348 416
#     4  12  29  43  71 109 148 186 234 294 368 422
#
# _framework density 23.233974
#
# number of rings (size 3 to 8) (size 9 to 14) (size 15 to 20)
#    0.000    0.500    5.000    2.625    5.250    2.500 
#    0.000    1.250    0.000    0.000    0.000    0.000 
#    0.000    0.000    0.000    0.000    0.000    0.000 
#
# Total GULP energy -89542.708519 kJ/mol
# GULP energy per Si atom -5596.419282 kJ/mol
# Density = 2.318109 g / cm^3
# Si number density = 23.233974 Si / 1000 Ang^3
#
#
#
# Elastic Constant Matrix: (Units=GPa)
#
#
# Indices 1 2 3 4 5 6 
#
# 1 48.8864 -3.5755 -2.3299 9.4589 -1.2083 1.2129
# 2 -3.5755 22.3838 15.8888 0.5647 -4.7423 -2.2806
# 3 -2.3299 15.8888 131.5984 4.7419 22.4483 0.3542
# 4 9.4589 0.5647 4.7419 37.8237 -6.7814 -0.1473
# 5 -1.2083 -4.7423 22.4483 -6.7814 39.7776 4.1780
# 6 1.2129 -2.2806 0.3542 -0.1473 4.1780 28.6982
#
#
#
# Elastic Compliance Matrix: (Units=1/GPa)
#
#
# Indices 1 2 3 4 5 6 
#
# 1 0.021802 0.003476 0.000144 -0.005501 0.000130 -0.000694
# 2 0.003476 0.053809 -0.008409 0.001406 0.011232 0.002605
# 3 0.000144 -0.008409 0.009900 -0.002409 -0.007018 0.000213
# 4 -0.005501 0.001406 -0.002409 0.029239 0.006387 -0.000406
# 5 0.000130 0.011232 -0.007018 0.006387 0.031915 -0.003640
# 6 -0.000694 0.002605 0.000213 -0.000406 -0.003640 0.035607
#
#
# Mechanical properties :
#
#
# Convention : Reuss Voigt Hill
#
# Bulk Modulus (GPa) = 13.16954 24.75948 18.96451
# Shear Modulus (GPa) = 23.02453 34.11892 28.57173
#
# Velocity S-wave (km/s) = 3.15141 3.83625 3.51057
# Velocity P-wave (km/s) = 4.34998 5.50474 4.96107
#
# Compressibility (1/GPa) = 0.07593282
#
# Stress axis : x y z
#
# Youngs Moduli (GPa) = 45.86822 18.58433 101.00896
#
# Poissons Ratio (x) = -0.06460 -0.01457
# Poissons Ratio (y) = -0.15943 0.84937
# Poissons Ratio (z) = -0.00661 0.15627
#
# Static dielectric constant tensor:
#      x y z
#    x 1.848550 0.040230 -0.002400 
#    y 0.040230 1.908620 0.010080 
#    z -0.002400 0.010080 1.880400 
# 
# From -- ./inp_files/399940.got.cif
#   From: 2010.05.17/outbox.cif.g08.bks.cpg/sg2_200_cif.got.tgz:399940.got - 2010.06.03 11:33:40.
