data_PCOD9039356
_publ_section_title
;
Structure prediction by ZEFSAII (Michael W. Deem and Ramdas Pophale) SiO2 
 PCOD9039356
Probable space group: P -1
;
_chemical_formula_sum "Si O2"
_cell_formula_units_Z 14
_cell_length_a 14.214488
_cell_length_b 9.729855
_cell_length_c 5.332104
_cell_angle_alpha 63.711676
_cell_angle_beta 71.059009
_cell_angle_gamma 51.367045
_cell_volume 515.274262
_symmetry_space_group_name_H-M "P -1"
_symmetry_group_IT_number 2
_symmetry_cell_setting 'triclinic'
loop_
_space_group_symop_operation_xyz
x,y,z
-x,-y,-z
loop_
_atom_site_type_symbol
_atom_site_label
_atom_site_fract_x
_atom_site_fract_y
_atom_site_fract_z
Si Si1 0.425083 0.601643 0.737473
Si Si2 0.376738 0.329664 0.884270
Si Si3 0.416093 0.932557 0.720026
Si Si4 0.923427 0.028757 0.797883
Si Si5 0.789639 0.725646 0.600638
Si Si6 0.021775 0.307720 0.202481
Si Si7 0.214046 0.567277 0.440554
O O1 0.500000 0.500000 0.500000
O O2 0.334913 0.532777 0.869906
O O3 0.395022 0.805954 0.649742
O O4 0.500000 0.500000 0.000000
O O5 0.342236 0.393799 0.572373
O O6 0.511818 0.184368 0.996240
O O7 0.300527 0.252152 0.115420
O O8 0.500000 0.000000 0.500000
O O9 0.287516 0.127192 0.669021
O O10 0.802455 0.237596 0.751869
O O11 0.910336 0.860075 0.914076
O O12 0.000000 0.000000 0.500000
O O13 0.000000 0.000000 0.000000
O O14 0.890941 0.752528 0.585509
O O15 0.833567 0.519827 0.639478
O O16 0.887030 0.365418 0.312944
O O17 0.000000 0.500000 0.000000
#
# Coordination Sequence:
#
# PCOD9039356 Si02
#       7
#     2   2   2   2   2   2   2
#     4  10  23  45  70  97 135 184 227 284 343 419
#     4  10  23  42  68 100 137 182 231 284 353 414
#     4   9  22  44  67 101 140 177 236 292 353 414
#     4  10  24  44  69  98 136 186 234 288 343 416
#     4  11  23  43  67 102 140 184 235 293 350 415
#     4  11  22  44  67 102 140 178 242 288 354 412
#     4  11  24  41  72  95 140 191 229 289 351 421
#
# _framework density 27.170000000000002
#
# number of rings (size 3 to 8) (size 9 to 14) (size 15 to 20)
#    0.000    1.714    1.429    1.286   10.000    1.714 
#    7.714    1.429    0.000    0.000    0.000    0.000 
#    0.000    0.000    0.000    0.000    0.000    0.000 
#
# Total GULP energy -78095.991585 kJ/mol
# GULP energy per Si atom -5578.285113 kJ/mol
# Density = 2.710816 g / cm^3
# Si number density = 27.170000 Si / 1000 Ang^3
#
#
#
# Elastic Constant Matrix: (Units=GPa)
#
#
# Indices 1 2 3 4 5 6 
#
# 1 127.8749 37.5532 31.7450 -7.1403 19.1397 13.8233
# 2 37.5532 188.5860 51.4129 -25.5505 13.3338 40.7586
# 3 31.7450 51.4129 112.8235 -6.2820 27.0355 -4.5391
# 4 -7.1403 -25.5505 -6.2820 43.2326 0.1591 4.8444
# 5 19.1397 13.3338 27.0355 0.1591 56.8274 -3.5892
# 6 13.8233 40.7586 -4.5391 4.8444 -3.5892 54.7109
#
#
#
# Elastic Compliance Matrix: (Units=1/GPa)
#
#
# Indices 1 2 3 4 5 6 
#
# 1 0.009068 -0.000480 -0.001826 0.001219 -0.002224 -0.002339
# 2 -0.000480 0.008728 -0.003690 0.005352 -0.000600 -0.007200
# 3 -0.001826 -0.003690 0.012122 -0.001160 -0.004027 0.004055
# 4 0.001219 0.005352 -0.001160 0.027105 -0.001626 -0.006898
# 5 -0.002224 -0.000600 -0.004027 -0.001626 0.020544 0.002167
# 6 -0.002339 -0.007200 0.004055 -0.006898 0.002167 0.025322
#
#
# Mechanical properties :
#
#
# Convention : Reuss Voigt Hill
#
# Bulk Modulus (GPa) = 55.78464 74.52296 65.15380
# Shear Modulus (GPa) = 41.37108 51.52575 46.44841
#
# Velocity S-wave (km/s) = 3.90638 4.35952 4.13915
# Velocity P-wave (km/s) = 6.39708 7.26832 6.84657
#
# Compressibility (1/GPa) = 0.01792608
#
# Stress axis : x y z
#
# Youngs Moduli (GPa) = 110.27534 114.57532 82.49355
#
# Poissons Ratio (x) = 0.05500 0.15064
# Poissons Ratio (y) = 0.05294 0.30440
# Poissons Ratio (z) = 0.20137 0.42278
#
# Static dielectric constant tensor:
#      x y z
#    x 2.266880 0.075500 0.042700 
#    y 0.075500 2.246370 0.055190 
#    z 0.042700 0.055190 2.276270 
# 
# From -- ./inp_files/89836.got.cif
#   From: 2010.05.17/outbox.cif.g08.bks.cpg/sg2_45_cif.got.tgz:89836.got - 2010.06.03 11:33:40.
