data_PCOD9039793
_publ_section_title
;
Structure prediction by ZEFSAII (Michael W. Deem and Ramdas Pophale) SiO2 
 PCOD9039793
Probable space group: P -1
;
_chemical_formula_sum "Si O2"
_cell_formula_units_Z 16
_cell_length_a 11.629088
_cell_length_b 9.396626
_cell_length_c 13.777223
_cell_angle_alpha 133.267447
_cell_angle_beta 131.727190
_cell_angle_gamma 49.238888
_cell_volume 762.671983
_symmetry_space_group_name_H-M "P -1"
_symmetry_group_IT_number 2
_symmetry_cell_setting 'triclinic'
loop_
_space_group_symop_operation_xyz
x,y,z
-x,-y,-z
loop_
_atom_site_type_symbol
_atom_site_label
_atom_site_fract_x
_atom_site_fract_y
_atom_site_fract_z
Si Si1 0.521019 0.770171 0.179424
Si Si2 0.984258 0.418202 0.126181
Si Si3 0.773377 0.314605 0.105244
Si Si4 0.439603 0.816974 0.579452
Si Si5 0.839071 0.928952 0.099126
Si Si6 0.371003 0.262814 0.993868
Si Si7 0.451663 0.454570 0.297405
Si Si8 0.124284 0.747751 0.323600
O O1 0.664468 0.552434 0.186559
O O2 0.526560 0.975832 0.329940
O O3 0.345972 0.740784 0.065981
O O4 0.554240 0.807449 0.102257
O O5 0.938886 0.308626 0.141917
O O6 0.065597 0.589469 0.279698
O O7 0.807309 0.557963 0.046573
O O8 0.088904 0.251656 0.027311
O O9 0.809175 0.145716 0.130510
O O10 0.518066 0.630190 0.457729
O O11 0.508540 0.718091 0.676193
O O12 0.242588 0.854756 0.489058
O O13 0.971812 0.892786 0.243342
O O14 0.680901 0.897859 0.044665
O O15 0.483466 0.356661 0.164336
O O16 0.255735 0.586515 0.249779
#
# Coordination Sequence:
#
# PCOD9039793 Si02
#       8
#     2   2   2   2   2   2   2   2
#     4  10  22  39  53  78 117 145 179 220 266 328
#     4  10  17  33  55  83 111 138 178 229 271 318
#     4  10  23  34  51  78 113 155 178 209 269 332
#     4   9  18  33  55  82 110 140 175 226 275 313
#     4  11  17  32  55  84 108 139 185 227 267 311
#     4  10  18  33  60  84 106 136 182 237 269 300
#     4   9  16  31  56  87 104 129 179 236 268 307
#     4   9  17  32  57  83 104 129 177 239 268 303
#
# _framework density 20.978874999999999
#
# number of rings (size 3 to 8) (size 9 to 14) (size 15 to 20)
#    0.750    1.500    2.500    1.875    0.000    2.000 
#    0.000    6.250    0.000   16.500    0.000    0.000 
#    0.000    0.000    0.000    0.000    0.000    0.000 
#
# Total GULP energy -89206.573177 kJ/mol
# GULP energy per Si atom -5575.410824 kJ/mol
# Density = 2.093113 g / cm^3
# Si number density = 20.978875 Si / 1000 Ang^3
#
#
#
# Elastic Constant Matrix: (Units=GPa)
#
#
# Indices 1 2 3 4 5 6 
#
# 1 63.6627 4.1505 -14.9844 6.9409 4.0130 11.0826
# 2 4.1505 81.5007 18.6388 20.8703 -0.3649 18.2406
# 3 -14.9844 18.6388 47.4395 15.9553 4.3591 -3.8360
# 4 6.9409 20.8703 15.9553 35.1590 6.0106 7.7144
# 5 4.0130 -0.3649 4.3591 6.0106 20.2989 0.1935
# 6 11.0826 18.2406 -3.8360 7.7144 0.1935 27.6164
#
#
#
# Elastic Compliance Matrix: (Units=1/GPa)
#
#
# Indices 1 2 3 4 5 6 
#
# 1 0.019319 -0.000345 0.008070 -0.005551 -0.003869 -0.004826
# 2 -0.000345 0.017640 -0.006293 -0.005786 0.003553 -0.010796
# 3 0.008070 -0.006293 0.031808 -0.013507 -0.004627 0.009142
# 4 -0.005551 -0.005786 -0.013507 0.042220 -0.008536 -0.007561
# 5 -0.003869 0.003553 -0.004627 -0.008536 0.053608 0.000572
# 6 -0.004826 -0.010796 0.009142 -0.007561 0.000572 0.048656
#
#
# Mechanical properties :
#
#
# Convention : Reuss Voigt Hill
#
# Bulk Modulus (GPa) = 13.96055 23.13473 18.54764
# Shear Modulus (GPa) = 21.34330 28.93472 25.13901
#
# Velocity S-wave (km/s) = 3.19309 3.71783 3.46540
# Velocity P-wave (km/s) = 4.50149 5.42966 4.98722
#
# Compressibility (1/GPa) = 0.07163044
#
# Stress axis : x y z
#
# Youngs Moduli (GPa) = 51.76277 56.68809 31.43834
#
# Poissons Ratio (x) = 0.01956 -0.25370
# Poissons Ratio (y) = 0.01786 0.19785
# Poissons Ratio (z) = -0.41772 0.35676
#
# Static dielectric constant tensor:
#      x y z
#    x 1.779260 -0.006990 0.014850 
#    y -0.006990 1.793860 0.014520 
#    z 0.014850 0.014520 1.772910 
# 
# From -- ./inp_files/516294.got.cif
#   From: 2010.05.17/outbox.cif.g08.bks.cpg/sg2_259_cif.got.tgz:516294.got - 2010.06.03 11:33:40.
