data_PCOD9039741
_publ_section_title
;
Structure prediction by ZEFSAII (Michael W. Deem and Ramdas Pophale) SiO2 
 PCOD9039741
Probable space group: P -1
;
_chemical_formula_sum "Si O2"
_cell_formula_units_Z 16
_cell_length_a 15.856468
_cell_length_b 19.505480
_cell_length_c 12.749775
_cell_angle_alpha 151.208226
_cell_angle_beta 131.595769
_cell_angle_gamma 28.409386
_cell_volume 799.105150
_symmetry_space_group_name_H-M "P -1"
_symmetry_group_IT_number 2
_symmetry_cell_setting 'triclinic'
loop_
_space_group_symop_operation_xyz
x,y,z
-x,-y,-z
loop_
_atom_site_type_symbol
_atom_site_label
_atom_site_fract_x
_atom_site_fract_y
_atom_site_fract_z
Si Si1 0.122806 0.818315 0.459476
Si Si2 0.293644 0.309136 0.231507
Si Si3 0.472056 0.911577 0.272837
Si Si4 0.449940 0.468868 0.096729
Si Si5 0.157879 0.467193 0.091008
Si Si6 0.815780 0.292644 0.197394
Si Si7 0.114059 0.727174 0.006658
Si Si8 0.057274 0.461676 0.615725
O O1 0.340950 0.596434 0.291226
O O2 0.069020 0.715640 0.317439
O O3 0.000000 0.000000 0.500000
O O4 0.079149 0.978627 0.727144
O O5 0.243327 0.379600 0.161856
O O6 0.269091 0.492865 0.509919
O O7 0.116918 0.406965 0.274513
O O8 0.500000 0.000000 0.000000
O O9 0.500000 0.000000 0.500000
O O10 0.255699 0.160975 0.381725
O O11 0.463168 0.777441 0.151356
O O12 0.653347 0.740555 0.110948
O O13 0.626381 0.396125 0.143900
O O14 0.295282 0.621782 0.075688
O O15 0.000000 0.500000 0.000000
O O16 0.880187 0.291817 0.138520
O O17 0.000000 0.000000 0.000000
O O18 0.106316 0.574296 0.836595
O O19 0.000000 0.500000 0.500000
#
# Coordination Sequence:
#
# PCOD9039741 Si02
#       8
#     2   2   2   2   2   2   2   2
#     4   9  22  43  66 102 133 176 231 284 353 406
#     4  12  28  45  68 105 145 182 235 294 360 418
#     4  11  22  43  69 101 134 174 234 281 348 411
#     4  10  23  42  70  95 133 177 227 284 340 421
#     4  11  25  44  72 104 139 185 233 292 345 421
#     4  12  26  46  66 102 139 182 232 290 352 418
#     4  11  23  43  70  97 132 181 233 279 350 411
#     4  12  24  44  68  99 138 182 229 288 348 422
#
# _framework density 20.022396000000001
#
# number of rings (size 3 to 8) (size 9 to 14) (size 15 to 20)
#    0.000    1.000    2.500    3.375    5.250    2.000 
#    0.000    1.875    0.000    0.000    0.000    0.000 
#    0.000    0.000    0.000    0.000    0.000    0.000 
#
# Total GULP energy -89173.051846 kJ/mol
# GULP energy per Si atom -5573.315740 kJ/mol
# Density = 1.997682 g / cm^3
# Si number density = 20.022396 Si / 1000 Ang^3
#
#
#
# Elastic Constant Matrix: (Units=GPa)
#
#
# Indices 1 2 3 4 5 6 
#
# 1 90.7108 16.8617 20.7834 -5.7712 10.4374 10.4947
# 2 16.8617 92.2186 27.7250 -1.5194 2.5916 18.0561
# 3 20.7834 27.7250 121.0559 -6.1942 9.4013 11.5183
# 4 -5.7712 -1.5194 -6.1942 36.2754 11.7846 -1.1317
# 5 10.4374 2.5916 9.4013 11.7846 24.9740 -4.8116
# 6 10.4947 18.0561 11.5183 -1.1317 -4.8116 36.8977
#
#
#
# Elastic Compliance Matrix: (Units=1/GPa)
#
#
# Indices 1 2 3 4 5 6 
#
# 1 0.013021 -0.001109 -0.000795 0.004301 -0.007789 -0.003797
# 2 -0.001109 0.012784 -0.002114 0.000225 -0.001220 -0.005433
# 3 -0.000795 -0.002114 0.009632 0.002953 -0.004910 -0.002296
# 4 0.004301 0.000225 0.002953 0.035240 -0.020297 -0.003821
# 5 -0.007789 -0.001220 -0.004910 -0.020297 0.056999 0.011156
# 6 -0.003797 -0.005433 -0.002296 -0.003821 0.011156 0.032894
#
#
# Mechanical properties :
#
#
# Convention : Reuss Voigt Hill
#
# Bulk Modulus (GPa) = 36.49534 48.30283 42.39909
# Shear Modulus (GPa) = 28.13085 35.53711 31.83398
#
# Velocity S-wave (km/s) = 3.75236 4.21749 3.99170
# Velocity P-wave (km/s) = 6.08608 6.92048 6.51665
#
# Compressibility (1/GPa) = 0.02740076
#
# Stress axis : x y z
#
# Youngs Moduli (GPa) = 76.79630 78.22352 103.81746
#
# Poissons Ratio (x) = 0.08672 0.08258
# Poissons Ratio (y) = 0.08514 0.21950
# Poissons Ratio (z) = 0.06109 0.16539
#
# Static dielectric constant tensor:
#      x y z
#    x 1.794760 -0.032200 0.031780 
#    y -0.032200 1.726290 0.011850 
#    z 0.031780 0.011850 1.770420 
# 
# From -- ./inp_files/392961.got.cif
#   From: 2010.05.17/outbox.cif.g08.bks.cpg/sg2_197_cif.got.tgz:392961.got - 2010.06.03 11:33:40.
