data_PCOD9039834
_publ_section_title
;
Structure prediction by ZEFSAII (Michael W. Deem and Ramdas Pophale) SiO2 
 PCOD9039834
Probable space group: P -1
;
_chemical_formula_sum "Si O2"
_cell_formula_units_Z 12
_cell_length_a 5.006966
_cell_length_b 13.534444
_cell_length_c 21.348536
_cell_angle_alpha 24.703919
_cell_angle_beta 71.268487
_cell_angle_gamma 57.955592
_cell_volume 456.601105
_symmetry_space_group_name_H-M "P -1"
_symmetry_group_IT_number 2
_symmetry_cell_setting 'triclinic'
loop_
_space_group_symop_operation_xyz
x,y,z
-x,-y,-z
loop_
_atom_site_type_symbol
_atom_site_label
_atom_site_fract_x
_atom_site_fract_y
_atom_site_fract_z
Si Si1 0.298803 0.335207 0.846043
Si Si2 0.271681 0.419136 0.151646
Si Si3 0.911156 0.781534 0.510183
Si Si4 0.351696 0.520833 0.347223
Si Si5 0.268513 0.824472 0.301701
Si Si6 0.521259 0.789710 0.876766
O O1 0.987234 0.597186 0.674198
O O2 0.740427 0.227561 0.742071
O O3 0.101128 0.400229 0.888538
O O4 0.500000 0.000000 0.000000
O O5 0.413278 0.605272 0.225477
O O6 0.224701 0.375204 0.107297
O O7 0.450586 0.588445 0.038192
O O8 0.551484 0.103253 0.345418
O O9 0.262298 0.764228 0.493661
O O10 0.909330 0.564833 0.586123
O O11 0.500000 0.500000 0.500000
O O12 0.408801 0.006272 0.208509
O O13 0.861833 0.999891 0.250739
#
# Coordination Sequence:
#
# PCOD9039834 Si02
#       6
#     2   2   2   2   2   2
#     4  10  24  46  72 106 139 189 235 300 354 420
#     4  11  24  49  68 106 148 186 239 291 352 434
#     4  10  23  44  71 107 138 190 232 291 362 413
#     4  10  23  42  71 107 137 183 242 286 361 407
#     4  12  23  46  72 105 144 184 240 292 349 423
#     4  11  27  43  71 104 141 196 230 289 355 417
#
# _framework density 26.281143
#
# number of rings (size 3 to 8) (size 9 to 14) (size 15 to 20)
#    1.000    0.333    0.000    5.000    0.000    5.333 
#    9.000    0.000    0.000    0.000    0.000    0.000 
#    0.000    0.000    0.000    0.000    0.000    0.000 
#
# Total GULP energy -67089.874806 kJ/mol
# GULP energy per Si atom -5590.822901 kJ/mol
# Density = 2.622133 g / cm^3
# Si number density = 26.281143 Si / 1000 Ang^3
#
#
#
# Elastic Constant Matrix: (Units=GPa)
#
#
# Indices 1 2 3 4 5 6 
#
# 1 135.7594 42.6952 21.5004 17.5875 -33.2384 21.0249
# 2 42.6952 170.8933 47.1066 3.7573 -18.4059 -18.9130
# 3 21.5004 47.1066 160.1503 -9.7593 -21.7550 6.9606
# 4 17.5875 3.7573 -9.7593 35.9446 -1.3836 -5.8420
# 5 -33.2384 -18.4059 -21.7550 -1.3836 35.9389 -1.9250
# 6 21.0249 -18.9130 6.9606 -5.8420 -1.9250 35.5496
#
#
#
# Elastic Compliance Matrix: (Units=1/GPa)
#
#
# Indices 1 2 3 4 5 6 
#
# 1 0.013429 -0.003428 0.000597 -0.007372 0.010177 -0.010544
# 2 -0.003428 0.008038 -0.002108 0.001398 0.000096 0.006952
# 3 0.000597 -0.002108 0.007535 0.001729 0.003969 -0.002451
# 4 -0.007372 0.001398 0.001729 0.033261 -0.003237 0.010056
# 5 0.010177 0.000096 0.003969 -0.003237 0.039289 -0.005149
# 6 -0.010544 0.006952 -0.002451 0.010056 -0.005149 0.039918
#
#
# Mechanical properties :
#
#
# Convention : Reuss Voigt Hill
#
# Bulk Modulus (GPa) = 52.29060 76.60084 64.44572
# Shear Modulus (GPa) = 31.70110 45.18666 38.44388
#
# Velocity S-wave (km/s) = 3.47685 4.15101 3.82880
# Velocity P-wave (km/s) = 6.00481 7.22388 6.64237
#
# Compressibility (1/GPa) = 0.01912390
#
# Stress axis : x y z
#
# Youngs Moduli (GPa) = 74.46401 124.40658 132.71337
#
# Poissons Ratio (x) = 0.42651 -0.07923
# Poissons Ratio (y) = 0.25529 0.27975
# Poissons Ratio (z) = -0.04445 0.26224
#
# Static dielectric constant tensor:
#      x y z
#    x 2.007310 -0.039470 0.042810 
#    y -0.039470 2.150380 0.040340 
#    z 0.042810 0.040340 2.114300 
# 
# From -- ./inp_files/583507.got.cif
#   From: 2010.05.17/outbox.cif.g08.bks.cpg/sg2_292_cif.got.tgz:583507.got - 2010.06.03 11:33:40.
