data_PCOD9039702
_publ_section_title
;
Structure prediction by ZEFSAII (Michael W. Deem and Ramdas Pophale) SiO2 
 PCOD9039702
Probable space group: P -1
;
_chemical_formula_sum "Si O2"
_cell_formula_units_Z 16
_cell_length_a 12.841681
_cell_length_b 10.177098
_cell_length_c 10.039846
_cell_angle_alpha 66.791367
_cell_angle_beta 43.667320
_cell_angle_gamma 49.778173
_cell_volume 685.090755
_symmetry_space_group_name_H-M "P -1"
_symmetry_group_IT_number 2
_symmetry_cell_setting 'triclinic'
loop_
_space_group_symop_operation_xyz
x,y,z
-x,-y,-z
loop_
_atom_site_type_symbol
_atom_site_label
_atom_site_fract_x
_atom_site_fract_y
_atom_site_fract_z
Si Si1 0.522587 0.355968 0.179843
Si Si2 0.465643 0.094335 0.823149
Si Si3 0.290942 0.028070 0.788818
Si Si4 0.613795 0.542208 0.210604
Si Si5 0.167362 0.046869 0.181775
Si Si6 0.790789 0.289570 0.368632
Si Si7 0.221521 0.714926 0.262820
Si Si8 0.832725 0.933657 0.407387
O O1 0.560604 0.180634 0.275833
O O2 0.641655 0.415621 0.117123
O O3 0.313605 0.520974 0.307536
O O4 0.607908 0.313071 0.971137
O O5 0.406609 0.278895 0.860745
O O6 0.352406 0.036643 0.033116
O O7 0.679151 0.961748 0.643161
O O8 0.379334 0.117880 0.743141
O O9 0.203541 0.095360 0.699060
O O10 0.161830 0.040602 0.024905
O O11 0.766707 0.421860 0.225396
O O12 0.409575 0.606044 0.421691
O O13 0.969428 0.223091 0.320477
O O14 0.179903 0.888114 0.306108
O O15 0.809780 0.118619 0.361063
O O16 0.035063 0.786412 0.328404
#
# Coordination Sequence:
#
# PCOD9039702 Si02
#       8
#     2   2   2   2   2   2   2   2
#     4  10  19  35  57  79 101 140 177 216 256 304
#     4   9  20  33  50  79 110 136 164 221 266 311
#     4   9  18  32  57  77 103 137 173 216 264 300
#     4  10  19  32  53  77 108 137 173 214 264 301
#     4   8  18  33  51  73 108 137 168 215 260 304
#     4   9  18  31  50  79 104 136 175 217 247 315
#     4   9  20  34  57  78 104 133 185 216 245 311
#     4  10  17  33  55  82 100 137 180 216 253 311
#
# _framework density 23.354569999999999
#
# number of rings (size 3 to 8) (size 9 to 14) (size 15 to 20)
#    0.750    2.000    1.250    0.375    1.750    2.000 
#    0.000    6.875    0.000    0.000    0.000    0.000 
#    0.000    0.000    0.000    0.000    0.000    0.000 
#
# Total GULP energy -89113.689969 kJ/mol
# GULP energy per Si atom -5569.605623 kJ/mol
# Density = 2.330141 g / cm^3
# Si number density = 23.354570 Si / 1000 Ang^3
#
#
#
# Elastic Constant Matrix: (Units=GPa)
#
#
# Indices 1 2 3 4 5 6 
#
# 1 48.2926 8.8169 -1.5706 4.1220 0.7607 -0.0468
# 2 8.8169 89.0809 15.5063 18.0069 -5.2060 -16.5368
# 3 -1.5706 15.5063 89.4960 7.2179 -8.2795 -10.9380
# 4 4.1220 18.0069 7.2179 27.7000 -9.0112 -4.4713
# 5 0.7607 -5.2060 -8.2795 -9.0112 27.6716 9.6704
# 6 -0.0468 -16.5368 -10.9380 -4.4713 9.6704 36.8963
#
#
#
# Elastic Compliance Matrix: (Units=1/GPa)
#
#
# Indices 1 2 3 4 5 6 
#
# 1 0.021324 -0.001879 0.000718 -0.002686 -0.001404 -0.000560
# 2 -0.001879 0.014267 -0.001357 -0.008519 -0.002396 0.005585
# 3 0.000718 -0.001357 0.011995 -0.001304 0.002107 0.002238
# 4 -0.002686 -0.008519 -0.001304 0.046582 0.014034 -0.002241
# 5 -0.001404 -0.002396 0.002107 0.014034 0.044572 -0.010433
# 6 -0.000560 0.005585 0.002238 -0.002241 -0.010433 0.032732
#
#
# Mechanical properties :
#
#
# Convention : Reuss Voigt Hill
#
# Bulk Modulus (GPa) = 23.50091 30.26383 26.88237
# Shear Modulus (GPa) = 26.22042 32.06139 29.14091
#
# Velocity S-wave (km/s) = 3.35432 3.70916 3.53620
# Velocity P-wave (km/s) = 5.00864 5.59736 5.31116
#
# Compressibility (1/GPa) = 0.04255155
#
# Stress axis : x y z
#
# Youngs Moduli (GPa) = 46.89488 70.09284 83.36790
#
# Poissons Ratio (x) = 0.13167 -0.05987
# Poissons Ratio (y) = 0.08809 0.11312
# Poissons Ratio (z) = -0.03367 0.09511
#
# Static dielectric constant tensor:
#      x y z
#    x 2.028110 -0.007670 0.093110 
#    y -0.007670 1.893700 0.023440 
#    z 0.093110 0.023440 1.966160 
# 
# From -- ./inp_files/530478.got.cif
#   From: 2010.05.17/outbox.cif.g08.bks.cpg/sg2_266_cif.got.tgz:530478.got - 2010.06.03 11:33:40.
