data_PCOD9039062
_publ_section_title
;
Structure prediction by ZEFSAII (Michael W. Deem and Ramdas Pophale) SiO2 
 PCOD9039062
Probable space group: P -1
;
_chemical_formula_sum "Si O2"
_cell_formula_units_Z 16
_cell_length_a 7.764945
_cell_length_b 15.680709
_cell_length_c 8.389488
_cell_angle_alpha 91.349434
_cell_angle_beta 134.774970
_cell_angle_gamma 76.716985
_cell_volume 691.463528
_symmetry_space_group_name_H-M "P -1"
_symmetry_group_IT_number 2
_symmetry_cell_setting 'triclinic'
loop_
_space_group_symop_operation_xyz
x,y,z
-x,-y,-z
loop_
_atom_site_type_symbol
_atom_site_label
_atom_site_fract_x
_atom_site_fract_y
_atom_site_fract_z
Si Si1 0.760765 0.160562 0.480236
Si Si2 0.346279 0.092615 0.821347
Si Si3 0.919676 0.186145 0.934657
Si Si4 0.528912 0.568936 0.153838
Si Si5 0.420520 0.029741 0.275367
Si Si6 0.582849 0.241035 0.040162
Si Si7 0.765935 0.514258 0.626548
Si Si8 0.013492 0.368382 0.014741
O O1 0.756372 0.194370 0.663343
O O2 0.589376 0.094766 0.344703
O O3 0.697594 0.230619 0.293990
O O4 0.052021 0.103461 0.635177
O O5 0.487543 0.068182 0.746668
O O6 0.391067 0.182247 0.914028
O O7 0.500000 0.000000 0.000000
O O8 0.778840 0.202979 0.016883
O O9 0.130156 0.088966 0.065138
O O10 0.061440 0.263461 0.017937
O O11 0.744184 0.529824 0.424769
O O12 0.500000 0.500000 0.000000
O O13 0.551446 0.657423 0.088503
O O14 0.260511 0.599691 0.074795
O O15 0.500000 0.000000 0.500000
O O16 0.500000 0.500000 0.500000
O O17 0.798883 0.600252 0.744890
O O18 0.977908 0.428415 0.834229
#
# Coordination Sequence:
#
# PCOD9039062 Si02
#       8
#     2   2   2   2   2   2   2   2
#     4  12  25  45  68  99 137 184 224 281 340 406
#     4  12  24  45  66  98 139 176 226 280 337 406
#     4  11  25  43  67 101 134 177 237 276 337 411
#     4  10  23  42  66 101 133 172 225 277 340 407
#     4  12  26  42  70  99 133 184 229 280 339 403
#     4  11  26  45  69 101 140 180 226 286 345 404
#     4   9  19  40  66  92 130 173 212 277 334 401
#     4   9  21  42  64  96 130 176 222 275 340 402
#
# _framework density 23.139327000000002
#
# number of rings (size 3 to 8) (size 9 to 14) (size 15 to 20)
#    0.000    1.250    2.500    1.875    3.500    7.500 
#   11.250    0.000    0.000    0.000    0.000    0.000 
#    0.000    0.000    0.000    0.000    0.000    0.000 
#
# Total GULP energy -89331.928419 kJ/mol
# GULP energy per Si atom -5583.245526 kJ/mol
# Density = 2.308666 g / cm^3
# Si number density = 23.139327 Si / 1000 Ang^3
#
#
#
# Elastic Constant Matrix: (Units=GPa)
#
#
# Indices 1 2 3 4 5 6 
#
# 1 87.3748 33.8779 43.9519 -11.2333 -13.1108 -6.0850
# 2 33.8779 104.3261 35.7699 9.2927 -10.9172 21.5608
# 3 43.9519 35.7699 132.5486 3.8668 -44.7417 11.7363
# 4 -11.2333 9.2927 3.8668 37.3348 8.2925 -2.6596
# 5 -13.1108 -10.9172 -44.7417 8.2925 47.0905 -2.1136
# 6 -6.0850 21.5608 11.7363 -2.6596 -2.1136 37.0240
#
#
#
# Elastic Compliance Matrix: (Units=1/GPa)
#
#
# Indices 1 2 3 4 5 6 
#
# 1 0.019102 -0.007205 -0.007031 0.009946 -0.004333 0.010031
# 2 -0.007205 0.014840 0.000391 -0.007218 0.002614 -0.010319
# 3 -0.007031 0.000391 0.015028 -0.007167 0.013409 -0.005896
# 4 0.009946 -0.007218 -0.007167 0.035591 -0.011532 0.010008
# 5 -0.004333 0.002614 0.013409 -0.011532 0.035168 -0.005305
# 6 0.010031 -0.010319 -0.005896 0.010008 -0.005305 0.036953
#
#
# Mechanical properties :
#
#
# Convention : Reuss Voigt Hill
#
# Bulk Modulus (GPa) = 46.99279 61.27211 54.13245
# Shear Modulus (GPa) = 26.11451 38.33316 32.22383
#
# Velocity S-wave (km/s) = 3.36307 4.07458 3.73580
# Velocity P-wave (km/s) = 5.95257 6.97663 6.48485
#
# Compressibility (1/GPa) = 0.02127986
#
# Stress axis : x y z
#
# Youngs Moduli (GPa) = 52.34946 67.38482 66.54456
#
# Poissons Ratio (x) = 0.48551 0.46787
# Poissons Ratio (y) = 0.37718 -0.02601
# Poissons Ratio (z) = 0.36806 -0.02634
#
# Static dielectric constant tensor:
#      x y z
#    x 1.944910 0.075320 -0.018740 
#    y 0.075320 1.882900 -0.006060 
#    z -0.018740 -0.006060 1.859330 
# 
# From -- ./inp_files/46504.got.cif
#   From: 2010.05.17/outbox.cif.g08.bks.cpg/sg2_24_cif.got.tgz:46504.got - 2010.06.03 11:33:40.
