data_PCOD9039020
_publ_section_title
;
Structure prediction by ZEFSAII (Michael W. Deem and Ramdas Pophale) SiO2 
 PCOD9039020
Probable space group: P -1
;
_chemical_formula_sum "Si O2"
_cell_formula_units_Z 16
_cell_length_a 8.359387
_cell_length_b 5.413892
_cell_length_c 23.032583
_cell_angle_alpha 83.979770
_cell_angle_beta 44.832811
_cell_angle_gamma 63.087930
_cell_volume 615.397722
_symmetry_space_group_name_H-M "P -1"
_symmetry_group_IT_number 2
_symmetry_cell_setting 'triclinic'
loop_
_space_group_symop_operation_xyz
x,y,z
-x,-y,-z
loop_
_atom_site_type_symbol
_atom_site_label
_atom_site_fract_x
_atom_site_fract_y
_atom_site_fract_z
Si Si1 0.419192 0.721727 0.850282
Si Si2 0.768882 0.757556 0.353263
Si Si3 0.968899 0.659702 0.942945
Si Si4 0.825917 0.489372 0.650623
Si Si5 0.171789 0.883826 0.517250
Si Si6 0.860408 0.454364 0.221667
Si Si7 0.452973 0.358053 0.391513
Si Si8 0.574325 0.099430 0.882029
O O1 0.558789 0.644663 0.753890
O O2 0.497776 0.922265 0.860370
O O3 0.103218 0.849225 0.916351
O O4 0.532736 0.401564 0.859612
O O5 0.459249 0.856419 0.441767
O O6 0.880447 0.642668 0.263008
O O7 0.967148 0.523936 0.354413
O O8 0.717493 0.080035 0.357508
O O9 0.126776 0.467389 0.850232
O O10 0.000000 0.500000 0.000000
O O11 0.652012 0.812486 0.012801
O O12 0.737184 0.659927 0.607363
O O13 0.976123 0.138920 0.605821
O O14 0.285058 0.539995 0.486175
O O15 0.000000 0.000000 0.500000
O O16 0.582085 0.493612 0.313667
O O17 0.122306 0.124480 0.169145
#
# Coordination Sequence:
#
# PCOD9039020 Si02
#       8
#     2   2   2   2   2   2   2   2
#     4  11  23  45  67 104 135 181 237 284 354 422
#     4  11  23  42  67  97 135 178 234 282 349 422
#     4  10  23  44  67  96 135 179 230 290 354 422
#     4  11  21  43  66  99 134 181 232 288 347 419
#     4   9  22  42  62  97 139 172 232 285 345 415
#     4  11  22  43  63  97 136 175 230 288 346 417
#     4  10  23  42  65  96 137 180 229 286 349 415
#     4  11  24  44  69  98 140 178 232 295 349 418
#
# _framework density 25.999445000000001
#
# number of rings (size 3 to 8) (size 9 to 14) (size 15 to 20)
#    0.000    1.500    2.500    1.875    0.000    4.500 
#    6.750    3.125    0.000    0.000    0.000    0.000 
#    0.000    0.000    0.000    0.000    0.000    0.000 
#
# Total GULP energy -89175.522874 kJ/mol
# GULP energy per Si atom -5573.470180 kJ/mol
# Density = 2.594027 g / cm^3
# Si number density = 25.999445 Si / 1000 Ang^3
#
#
#
# Elastic Constant Matrix: (Units=GPa)
#
#
# Indices 1 2 3 4 5 6 
#
# 1 68.4949 18.5578 -0.5264 -19.5705 5.1823 -6.5019
# 2 18.5578 64.7303 7.9309 -1.2591 11.4504 -9.6585
# 3 -0.5264 7.9309 128.9594 -11.4817 14.7007 9.9675
# 4 -19.5705 -1.2591 -11.4817 32.1244 -8.3639 -2.8048
# 5 5.1823 11.4504 14.7007 -8.3639 52.0649 2.1463
# 6 -6.5019 -9.6585 9.9675 -2.8048 2.1463 34.4521
#
#
#
# Elastic Compliance Matrix: (Units=1/GPa)
#
#
# Indices 1 2 3 4 5 6 
#
# 1 0.019935 -0.005321 0.001238 0.012835 0.000778 0.002909
# 2 -0.005321 0.018437 -0.001383 -0.003636 -0.003905 0.004512
# 3 0.001238 -0.001383 0.008480 0.003112 -0.001621 -0.002253
# 4 0.012835 -0.003636 0.003112 0.041577 0.005175 0.003565
# 5 0.000778 -0.003905 -0.001621 0.005175 0.021334 -0.001387
# 6 0.002909 0.004512 -0.002253 0.003565 -0.001387 0.031868
#
#
# Mechanical properties :
#
#
# Convention : Reuss Voigt Hill
#
# Bulk Modulus (GPa) = 27.83924 34.90100 31.37012
# Shear Modulus (GPa) = 30.38818 39.47646 34.93232
#
# Velocity S-wave (km/s) = 3.42248 3.90084 3.66946
# Velocity P-wave (km/s) = 5.13310 5.80875 5.48135
#
# Compressibility (1/GPa) = 0.03592052
#
# Stress axis : x y z
#
# Youngs Moduli (GPa) = 50.16211 54.23912 117.91783
#
# Poissons Ratio (x) = 0.28861 -0.14596
# Poissons Ratio (y) = 0.26691 0.16307
# Poissons Ratio (z) = -0.06209 0.07501
#
# Static dielectric constant tensor:
#      x y z
#    x 2.231740 0.125030 -0.035180 
#    y 0.125030 2.253200 0.011070 
#    z -0.035180 0.011070 2.068320 
# 
# From -- ./inp_files/53524.got.cif
#   From: 2010.05.17/outbox.cif.g08.bks.cpg/sg2_27_cif.got.tgz:53524.got - 2010.06.03 11:33:40.
