data_PCOD9039878
_publ_section_title
;
Structure prediction by ZEFSAII (Michael W. Deem and Ramdas Pophale) SiO2 
 PCOD9039878
Probable space group: P -1
;
_chemical_formula_sum "Si O2"
_cell_formula_units_Z 14
_cell_length_a 11.780093
_cell_length_b 14.216012
_cell_length_c 8.958491
_cell_angle_alpha 37.600063
_cell_angle_beta 63.171180
_cell_angle_gamma 47.023366
_cell_volume 656.334239
_symmetry_space_group_name_H-M "P -1"
_symmetry_group_IT_number 2
_symmetry_cell_setting 'triclinic'
loop_
_space_group_symop_operation_xyz
x,y,z
-x,-y,-z
loop_
_atom_site_type_symbol
_atom_site_label
_atom_site_fract_x
_atom_site_fract_y
_atom_site_fract_z
Si Si1 0.317608 0.434983 0.317898
Si Si2 0.064720 0.818235 0.334841
Si Si3 0.545495 0.789645 0.765798
Si Si4 0.309781 0.166420 0.890383
Si Si5 0.838059 0.553012 0.089362
Si Si6 0.600046 0.361371 0.754864
Si Si7 0.984215 0.819225 0.050058
O O1 0.441959 0.310951 0.269731
O O2 0.294524 0.296161 0.600213
O O3 0.390628 0.511934 0.285893
O O4 0.138868 0.616649 0.153436
O O5 0.223118 0.784690 0.223244
O O6 0.986916 0.801453 0.253195
O O7 0.122939 0.646378 0.627639
O O8 0.977449 0.027155 0.194607
O O9 0.721120 0.654578 0.894382
O O10 0.500000 0.000000 0.500000
O O11 0.451738 0.760127 0.983874
O O12 0.182419 0.121572 0.990872
O O13 0.244589 0.297909 0.911938
O O14 0.500000 0.000000 0.000000
O O15 0.000000 0.500000 0.000000
O O16 0.500000 0.500000 0.500000
#
# Coordination Sequence:
#
# PCOD9039878 Si02
#       7
#     2   2   2   2   2   2   2
#     4  11  24  44  68 103 142 189 238 291 367 425
#     4  10  23  43  73 100 132 193 237 287 359 430
#     4  12  27  44  70 107 146 187 239 307 358 423
#     4  12  25  43  70 107 141 188 242 297 362 430
#     4  12  26  46  69 103 143 190 240 299 359 430
#     4  11  22  45  73  99 144 186 241 296 358 425
#     4  10  23  42  71  99 136 182 237 289 351 435
#
# _framework density 21.330596
#
# number of rings (size 3 to 8) (size 9 to 14) (size 15 to 20)
#    0.000    0.857    4.286    2.571    8.000    2.286 
#    0.000    4.286    0.000    0.000    0.000    0.000 
#    0.000    0.000    0.000    0.000    0.000    0.000 
#
# Total GULP energy -78171.129099 kJ/mol
# GULP energy per Si atom -5583.652079 kJ/mol
# Density = 2.128205 g / cm^3
# Si number density = 21.330596 Si / 1000 Ang^3
#
#
#
# Elastic Constant Matrix: (Units=GPa)
#
#
# Indices 1 2 3 4 5 6 
#
# 1 89.0984 13.3327 32.8082 -7.8678 0.7021 -13.3147
# 2 13.3327 94.4003 56.7207 -7.3342 -1.8091 -13.6488
# 3 32.8082 56.7207 134.8405 -18.3223 -9.8898 -1.4788
# 4 -7.8678 -7.3342 -18.3223 34.3802 -6.8419 -4.5867
# 5 0.7021 -1.8091 -9.8898 -6.8419 32.3134 2.4612
# 6 -13.3147 -13.6488 -1.4788 -4.5867 2.4612 35.5093
#
#
#
# Elastic Compliance Matrix: (Units=1/GPa)
#
#
# Indices 1 2 3 4 5 6 
#
# 1 0.013370 0.001167 -0.003518 0.001925 -0.001325 0.005656
# 2 0.001167 0.015388 -0.006742 0.000471 -0.001603 0.006243
# 3 -0.003518 -0.006742 0.012048 0.004679 0.004615 -0.003124
# 4 0.001925 0.000471 0.004679 0.034442 0.008331 0.004969
# 5 -0.001325 -0.001603 0.004615 0.008331 0.034231 -0.002217
# 6 0.005656 0.006243 -0.003124 0.004969 -0.002217 0.033348
#
#
# Mechanical properties :
#
#
# Convention : Reuss Voigt Hill
#
# Bulk Modulus (GPa) = 44.20713 58.22916 51.21815
# Shear Modulus (GPa) = 29.66447 34.80574 32.23510
#
# Velocity S-wave (km/s) = 3.73326 4.04385 3.89165
# Velocity P-wave (km/s) = 6.27317 7.01151 6.65259
#
# Compressibility (1/GPa) = 0.02262078
#
# Stress axis : x y z
#
# Youngs Moduli (GPa) = 74.79567 64.98618 83.00033
#
# Poissons Ratio (x) = -0.07585 0.29196
# Poissons Ratio (y) = -0.08730 0.55959
# Poissons Ratio (z) = 0.26310 0.43814
#
# Static dielectric constant tensor:
#      x y z
#    x 1.795370 0.043130 0.030850 
#    y 0.043130 1.836090 -0.022750 
#    z 0.030850 -0.022750 2.124900 
# 
# From -- ./inp_files/216705.got.cif
#   From: 2010.05.17/outbox.cif.g08.bks.cpg/sg2_109_cif.got.tgz:216705.got - 2010.06.03 11:33:40.
