data_PCOD9039314
_publ_section_title
;
Structure prediction by ZEFSAII (Michael W. Deem and Ramdas Pophale) SiO2 
 PCOD9039314
Probable space group: P -1
;
_chemical_formula_sum "Si O2"
_cell_formula_units_Z 16
_cell_length_a 14.856348
_cell_length_b 9.182411
_cell_length_c 12.144310
_cell_angle_alpha 47.863119
_cell_angle_beta 71.839000
_cell_angle_gamma 109.623403
_cell_volume 739.962125
_symmetry_space_group_name_H-M "P -1"
_symmetry_group_IT_number 2
_symmetry_cell_setting 'triclinic'
loop_
_space_group_symop_operation_xyz
x,y,z
-x,-y,-z
loop_
_atom_site_type_symbol
_atom_site_label
_atom_site_fract_x
_atom_site_fract_y
_atom_site_fract_z
Si Si1 0.008908 0.343388 0.891770
Si Si2 0.117751 0.948706 0.567479
Si Si3 0.842491 0.781200 0.810022
Si Si4 0.574228 0.589161 0.238678
Si Si5 0.280388 0.547569 0.617900
Si Si6 0.733943 0.725697 0.436334
Si Si7 0.516284 0.178984 0.302957
Si Si8 0.892848 0.182407 0.768216
O O1 0.091797 0.675357 0.727215
O O2 0.130737 0.365175 0.832678
O O3 0.955477 0.270642 0.822835
O O4 0.863612 0.070561 0.159424
O O5 0.961085 0.804780 0.724684
O O6 0.162501 0.075468 0.362410
O O7 0.229044 0.219658 0.476898
O O8 0.887583 0.974909 0.803162
O O9 0.681072 0.427659 0.066086
O O10 0.645021 0.526137 0.317702
O O11 0.434940 0.466856 0.412704
O O12 0.508664 0.379402 0.260384
O O13 0.716055 0.949919 0.968526
O O14 0.250563 0.445871 0.554529
O O15 0.390441 0.908942 0.403927
O O16 0.500000 0.000000 0.500000
O O17 0.000000 0.500000 0.500000
#
# Coordination Sequence:
#
# PCOD9039314 Si02
#       8
#     2   2   2   2   2   2   2   2
#     4  12  25  40  69  99 129 172 222 270 322 389
#     4  11  25  42  65  95 136 173 217 264 332 380
#     4  10  23  45  67  96 130 176 213 273 319 396
#     4  10  23  42  67  97 131 170 213 272 331 380
#     4  11  23  41  65  99 131 170 214 273 327 380
#     4  12  25  41  66 101 137 162 221 277 320 387
#     4   9  21  38  67  91 126 168 219 256 324 379
#     4  11  22  44  69  95 130 174 217 265 329 392
#
# _framework density 21.622727999999999
#
# number of rings (size 3 to 8) (size 9 to 14) (size 15 to 20)
#    0.000    1.250    2.500    2.625    8.750    0.000 
#    2.250    2.500    0.000    0.000    0.000    0.000 
#    0.000    0.000    0.000    0.000    0.000    0.000 
#
# Total GULP energy -89431.169068 kJ/mol
# GULP energy per Si atom -5589.448067 kJ/mol
# Density = 2.157351 g / cm^3
# Si number density = 21.622728 Si / 1000 Ang^3
#
#
#
# Elastic Constant Matrix: (Units=GPa)
#
#
# Indices 1 2 3 4 5 6 
#
# 1 53.1462 13.9682 42.4669 8.1894 -15.9302 -10.7125
# 2 13.9682 124.0555 23.2737 -8.4059 4.0015 12.7594
# 3 42.4669 23.2737 137.8588 -7.6502 -31.7506 -8.6701
# 4 8.1894 -8.4059 -7.6502 35.6359 -1.3268 -2.1813
# 5 -15.9302 4.0015 -31.7506 -1.3268 21.9580 7.8166
# 6 -10.7125 12.7594 -8.6701 -2.1813 7.8166 20.8979
#
#
#
# Elastic Compliance Matrix: (Units=1/GPa)
#
#
# Indices 1 2 3 4 5 6 
#
# 1 0.031871 -0.004474 -0.006565 -0.008705 0.009716 0.011802
# 2 -0.004474 0.009931 -0.001745 0.002385 -0.004950 -0.006981
# 3 -0.006565 -0.001745 0.013339 0.004415 0.015913 -0.002257
# 4 -0.008705 0.002385 0.004415 0.031554 0.002103 -0.001579
# 5 0.009716 -0.004950 0.015913 0.002103 0.082311 -0.015963
# 6 0.011802 -0.006981 -0.002257 -0.001579 -0.015963 0.063033
#
#
# Mechanical properties :
#
#
# Convention : Reuss Voigt Hill
#
# Bulk Modulus (GPa) = 33.81600 52.71981 43.26791
# Shear Modulus (GPa) = 18.69402 31.38849 25.04125
#
# Velocity S-wave (km/s) = 2.94352 3.81418 3.40678
# Velocity P-wave (km/s) = 5.21780 6.62056 5.96059
#
# Compressibility (1/GPa) = 0.02957180
#
# Stress axis : x y z
#
# Youngs Moduli (GPa) = 31.37679 100.69192 74.96935
#
# Poissons Ratio (x) = 0.45049 0.49220
# Poissons Ratio (y) = 0.14038 0.13084
# Poissons Ratio (z) = 0.20600 0.17573
#
# Static dielectric constant tensor:
#      x y z
#    x 1.555980 0.494800 0.154820 
#    y 0.494800 0.945330 -0.308730 
#    z 0.154820 -0.308730 1.672930 
# 
# From -- ./inp_files/306550.got.cif
#   From: 2010.05.17/outbox.cif.g08.bks.cpg/sg2_154_cif.got.tgz:306550.got - 2010.06.03 11:33:40.
