data_PCOD9039700
_publ_section_title
;
Structure prediction by ZEFSAII (Michael W. Deem and Ramdas Pophale) SiO2 
 PCOD9039700
Probable space group: P -1
;
_chemical_formula_sum "Si O2"
_cell_formula_units_Z 15
_cell_length_a 10.379952
_cell_length_b 13.743421
_cell_length_c 7.879681
_cell_angle_alpha 95.920910
_cell_angle_beta 102.239613
_cell_angle_gamma 33.463542
_cell_volume 600.045650
_symmetry_space_group_name_H-M "P -1"
_symmetry_group_IT_number 2
_symmetry_cell_setting 'triclinic'
loop_
_space_group_symop_operation_xyz
x,y,z
-x,-y,-z
loop_
_atom_site_type_symbol
_atom_site_label
_atom_site_fract_x
_atom_site_fract_y
_atom_site_fract_z
Si Si1 0.112937 0.404861 0.197596
Si Si2 0.255770 0.841353 0.626952
Si Si3 0.835643 0.400618 0.245375
Si Si4 0.152226 0.058838 0.072276
Si Si5 0.116994 0.621183 0.365890
Si Si6 0.500000 0.500000 0.500000
Si Si7 0.629433 0.014420 0.227744
Si Si8 0.327466 0.752438 0.032997
O O1 0.164194 0.479579 0.306314
O O2 0.342882 0.191634 0.195805
O O3 0.929828 0.452967 0.263985
O O4 0.000000 0.500000 0.000000
O O5 0.389801 0.676692 0.528586
O O6 0.326432 0.910433 0.652801
O O7 0.287329 0.793468 0.826406
O O8 0.000000 0.000000 0.500000
O O9 0.783806 0.405145 0.425592
O O10 0.587392 0.546397 0.102467
O O11 0.044995 0.200025 0.202825
O O12 0.909449 0.156553 0.958528
O O13 0.294866 0.021927 0.954068
O O14 0.318384 0.865244 0.139770
O O15 0.274716 0.603736 0.311361
O O16 0.829011 0.815340 0.317226
#
# Coordination Sequence:
#
# PCOD9039700 Si02
#       8
#     2   2   2   2   2   1   2   2
#     4  12  27  51  74 100 143 194 249 292 350 436
#     4  11  22  39  67 104 141 184 231 293 360 420
#     4  12  27  45  72 103 144 190 239 297 354 431
#     4  10  23  42  70 102 141 183 233 294 357 417
#     4  12  28  44  73 109 141 193 236 300 365 418
#     4  12  24  40  74 104 148 176 232 294 362 422
#     4  11  25  44  70 104 140 187 242 290 356 429
#     4  10  24  42  69 104 145 183 238 295 362 425
#
# _framework density 24.998099
#
# number of rings (size 3 to 8) (size 9 to 14) (size 15 to 20)
#    0.000    0.800    2.667    4.000    3.733    5.867 
#    0.000    0.000    0.000    0.000    0.000    0.000 
#    0.000    0.000    0.000    0.000    0.000    0.000 
#
# Total GULP energy -83636.554534 kJ/mol
# GULP energy per Si atom -5575.770302 kJ/mol
# Density = 2.494120 g / cm^3
# Si number density = 24.998099 Si / 1000 Ang^3
#
#
#
# Elastic Constant Matrix: (Units=GPa)
#
#
# Indices 1 2 3 4 5 6 
#
# 1 57.8992 9.1931 -7.2411 11.2423 21.9722 7.1575
# 2 9.1931 187.7096 37.3022 21.5930 6.0893 -2.8671
# 3 -7.2411 37.3022 56.4447 -3.9554 6.7681 3.4271
# 4 11.2423 21.5930 -3.9554 42.7728 6.9192 16.8236
# 5 21.9722 6.0893 6.7681 6.9192 30.1797 4.6895
# 6 7.1575 -2.8671 3.4271 16.8236 4.6895 45.5285
#
#
#
# Elastic Compliance Matrix: (Units=1/GPa)
#
#
# Indices 1 2 3 4 5 6 
#
# 1 0.026553 -0.001979 0.007162 -0.001172 -0.019904 -0.002355
# 2 -0.001979 0.007122 -0.005728 -0.005050 0.002003 0.002851
# 3 0.007162 -0.005728 0.024431 0.006824 -0.010359 -0.004780
# 4 -0.001172 -0.005050 0.006824 0.032476 -0.005222 -0.012110
# 5 -0.019904 0.002003 -0.010359 -0.005222 0.050626 0.000750
# 6 -0.002355 0.002851 -0.004780 -0.012110 0.000750 0.027271
#
#
# Mechanical properties :
#
#
# Convention : Reuss Voigt Hill
#
# Bulk Modulus (GPa) = 17.53873 42.28467 29.91170
# Shear Modulus (GPa) = 26.51460 41.21616 33.86538
#
# Velocity S-wave (km/s) = 3.26032 4.06491 3.68464
# Velocity P-wave (km/s) = 4.60480 6.24365 5.48577
#
# Compressibility (1/GPa) = 0.05701667
#
# Stress axis : x y z
#
# Youngs Moduli (GPa) = 37.65987 140.40902 40.93135
#
# Poissons Ratio (x) = 0.27790 -0.29315
# Poissons Ratio (y) = 0.07454 0.23445
# Poissons Ratio (z) = -0.26972 0.80423
#
# Static dielectric constant tensor:
#      x y z
#    x 1.616820 0.201550 0.022070 
#    y 0.201550 1.655680 0.209970 
#    z 0.022070 0.209970 1.740450 
# 
# From -- ./inp_files/273449.got.cif
#   From: 2010.05.17/outbox.cif.g08.bks.cpg/sg2_137_cif.got.tgz:273449.got - 2010.06.03 11:33:40.
