data_PCOD9039627
_publ_section_title
;
Structure prediction by ZEFSAII (Michael W. Deem and Ramdas Pophale) SiO2 
 PCOD9039627
Probable space group: P -1
;
_chemical_formula_sum "Si O2"
_cell_formula_units_Z 14
_cell_length_a 10.644774
_cell_length_b 10.888338
_cell_length_c 10.952043
_cell_angle_alpha 144.021800
_cell_angle_beta 128.768682
_cell_angle_gamma 46.133925
_cell_volume 531.199146
_symmetry_space_group_name_H-M "P -1"
_symmetry_group_IT_number 2
_symmetry_cell_setting 'triclinic'
loop_
_space_group_symop_operation_xyz
x,y,z
-x,-y,-z
loop_
_atom_site_type_symbol
_atom_site_label
_atom_site_fract_x
_atom_site_fract_y
_atom_site_fract_z
Si Si1 0.926419 0.642462 0.881833
Si Si2 0.376972 0.915044 0.699575
Si Si3 0.829637 0.195331 0.689497
Si Si4 0.180174 0.894288 0.946846
Si Si5 0.613128 0.942088 0.646193
Si Si6 0.049322 0.269188 0.458223
Si Si7 0.618852 0.632500 0.820226
O O1 0.789983 0.543536 0.766065
O O2 0.039033 0.463036 0.703846
O O3 0.038746 0.692234 0.096534
O O4 0.820149 0.895463 0.965675
O O5 0.194434 0.914715 0.541597
O O6 0.509202 0.871574 0.630392
O O7 0.454002 0.738596 0.715489
O O8 0.361847 0.158492 0.932124
O O9 0.645353 0.425116 0.758774
O O10 0.866954 0.984354 0.633586
O O11 0.138877 0.714964 0.694888
O O12 0.342099 0.850819 0.101854
O O13 0.000000 0.000000 0.000000
O O14 0.807193 0.753354 0.576663
O O15 0.500000 0.000000 0.500000
#
# Coordination Sequence:
#
# PCOD9039627 Si02
#       7
#     2   2   2   2   2   2   2
#     4  11  23  43  68 100 129 176 220 272 328 383
#     4  11  24  46  65  95 137 176 213 276 327 389
#     4  11  23  42  66 101 130 173 226 265 328 391
#     4   9  21  41  66  97 130 174 218 265 328 392
#     4  11  21  43  71  93 132 173 214 272 333 380
#     4  10  23  42  69  97 135 170 217 281 320 387
#     4  11  25  44  68  92 137 177 221 265 325 397
#
# _framework density 26.355464000000001
#
# number of rings (size 3 to 8) (size 9 to 14) (size 15 to 20)
#    0.000    1.429    2.857    1.714    0.000    5.714 
#    2.571    4.286    0.000    0.000    0.000    0.000 
#    0.000    0.000    0.000    0.000    0.000    0.000 
#
# Total GULP energy -78240.546741 kJ/mol
# GULP energy per Si atom -5588.610482 kJ/mol
# Density = 2.629548 g / cm^3
# Si number density = 26.355464 Si / 1000 Ang^3
#
#
#
# Elastic Constant Matrix: (Units=GPa)
#
#
# Indices 1 2 3 4 5 6 
#
# 1 97.6241 7.1253 37.1966 -3.0101 1.1595 -15.9879
# 2 7.1253 140.8416 73.9242 -22.8662 16.5635 18.2790
# 3 37.1966 73.9242 188.9519 -32.3807 17.5367 -1.7259
# 4 -3.0101 -22.8662 -32.3807 65.1811 -8.2495 16.4906
# 5 1.1595 16.5635 17.5367 -8.2495 43.8297 -1.1733
# 6 -15.9879 18.2790 -1.7259 16.4906 -1.1733 21.9959
#
#
#
# Elastic Compliance Matrix: (Units=1/GPa)
#
#
# Indices 1 2 3 4 5 6 
#
# 1 0.013875 -0.002366 -0.002685 -0.005436 0.001006 0.015970
# 2 -0.002366 0.012646 -0.003220 0.006899 -0.002606 -0.017793
# 3 -0.002685 -0.003220 0.007630 0.002536 -0.001305 -0.000647
# 4 -0.005436 0.006899 0.002536 0.026221 0.000678 -0.029107
# 5 0.001006 -0.002606 -0.001305 0.000678 0.024520 0.003593
# 6 0.015970 -0.017793 -0.000647 -0.029107 0.003593 0.093820
#
#
# Mechanical properties :
#
#
# Convention : Reuss Voigt Hill
#
# Bulk Modulus (GPa) = 56.78918 73.76776 65.27847
# Shear Modulus (GPa) = 24.86042 46.81278 35.83660
#
# Velocity S-wave (km/s) = 3.07461 4.21908 3.69147
# Velocity P-wave (km/s) = 5.84795 7.19614 6.55679
#
# Compressibility (1/GPa) = 0.01760899
#
# Stress axis : x y z
#
# Youngs Moduli (GPa) = 72.07298 79.07804 131.05557
#
# Poissons Ratio (x) = 0.18713 0.35183
# Poissons Ratio (y) = 0.17055 0.42200
# Poissons Ratio (z) = 0.19349 0.25463
#
# Static dielectric constant tensor:
#      x y z
#    x 2.095440 0.003590 -0.021630 
#    y 0.003590 2.115670 -0.039320 
#    z -0.021630 -0.039320 2.101130 
# 
# From -- ./inp_files/429303.got.cif
#   From: 2010.05.17/outbox.cif.g08.bks.cpg/sg2_215_cif.got.tgz:429303.got - 2010.06.03 11:33:40.
