data_PCOD9039985
_publ_section_title
;
Structure prediction by ZEFSAII (Michael W. Deem and Ramdas Pophale) SiO2 
 PCOD9039985
Probable space group: P -1
;
_chemical_formula_sum "Si O2"
_cell_formula_units_Z 14
_cell_length_a 5.269714
_cell_length_b 13.940924
_cell_length_c 13.621180
_cell_angle_alpha 43.745440
_cell_angle_beta 100.822338
_cell_angle_gamma 79.974871
_cell_volume 604.830008
_symmetry_space_group_name_H-M "P -1"
_symmetry_group_IT_number 2
_symmetry_cell_setting 'triclinic'
loop_
_space_group_symop_operation_xyz
x,y,z
-x,-y,-z
loop_
_atom_site_type_symbol
_atom_site_label
_atom_site_fract_x
_atom_site_fract_y
_atom_site_fract_z
Si Si1 0.275701 0.796405 0.100402
Si Si2 0.784075 0.768973 0.625589
Si Si3 0.523138 0.736904 0.377989
Si Si4 0.822600 0.480219 0.739308
Si Si5 0.958303 0.864636 0.380394
Si Si6 0.199548 0.077670 0.293076
Si Si7 0.304206 0.162193 0.022094
O O1 0.433599 0.749632 0.250147
O O2 0.323818 0.633531 0.173969
O O3 0.398433 0.890330 0.974794
O O4 0.923651 0.885224 0.013666
O O5 0.001883 0.774833 0.553983
O O6 0.056398 0.970220 0.710662
O O7 0.760731 0.612131 0.717665
O O8 0.869098 0.797184 0.718828
O O9 0.730252 0.567522 0.563306
O O10 0.696353 0.837926 0.335388
O O11 0.153568 0.349823 0.859685
O O12 0.476324 0.918906 0.466911
O O13 0.232559 0.794770 0.379577
O O14 0.282275 0.130072 0.158405
#
# Coordination Sequence:
#
# PCOD9039985 Si02
#       7
#     2   2   2   2   2   2   2
#     4  10  23  43  62  97 127 175 198 266 303 386
#     4  10  23  42  73  90 126 163 220 251 328 360
#     4  11  22  39  72  92 127 164 221 247 322 354
#     4   9  22  40  66  95 124 164 210 267 296 387
#     4  11  22  41  66  99 121 163 212 273 289 389
#     4  11  23  45  64  97 124 173 201 272 307 381
#     4  10  25  39  66  89 141 155 215 249 324 361
#
# _framework density 23.146998
#
# number of rings (size 3 to 8) (size 9 to 14) (size 15 to 20)
#    0.857    0.857    2.857    1.714    6.000    1.143 
#    0.000    5.000    0.000    0.000    0.000    0.000 
#    0.000    0.000    0.000    0.000    0.000    0.000 
#
# Total GULP energy -78167.252860 kJ/mol
# GULP energy per Si atom -5583.375204 kJ/mol
# Density = 2.309431 g / cm^3
# Si number density = 23.146998 Si / 1000 Ang^3
#
#
#
# Elastic Constant Matrix: (Units=GPa)
#
#
# Indices 1 2 3 4 5 6 
#
# 1 137.5374 43.3972 44.2556 4.5578 -33.0246 33.3169
# 2 43.3972 71.2413 23.2450 4.9938 -9.8847 11.6840
# 3 44.2556 23.2450 75.5885 2.8521 -17.1635 15.3041
# 4 4.5578 4.9938 2.8521 37.1374 2.6867 8.4791
# 5 -33.0246 -9.8847 -17.1635 2.6867 42.0488 -7.0481
# 6 33.3169 11.6840 15.3041 8.4791 -7.0481 26.7121
#
#
#
# Elastic Compliance Matrix: (Units=1/GPa)
#
#
# Indices 1 2 3 4 5 6 
#
# 1 0.014447 -0.004920 -0.002849 0.001576 0.006756 -0.012953
# 2 -0.004920 0.017922 -0.002760 -0.001597 -0.000639 0.000217
# 3 -0.002849 -0.002760 0.017410 0.000121 0.003487 -0.004333
# 4 0.001576 -0.001597 0.000121 0.029792 -0.002931 -0.011566
# 5 0.006756 -0.000639 0.003487 -0.002931 0.030346 -0.001207
# 6 -0.012953 0.000217 -0.004333 -0.011566 -0.001207 0.059333
#
#
# Mechanical properties :
#
#
# Convention : Reuss Voigt Hill
#
# Bulk Modulus (GPa) = 34.81455 56.24030 45.52742
# Shear Modulus (GPa) = 25.01483 32.74429 28.87956
#
# Velocity S-wave (km/s) = 3.29096 3.76523 3.53605
# Velocity P-wave (km/s) = 5.43266 6.57665 6.03184
#
# Compressibility (1/GPa) = 0.02872363
#
# Stress axis : x y z
#
# Youngs Moduli (GPa) = 69.21624 55.79726 57.43694
#
# Poissons Ratio (x) = 0.27453 0.16361
# Poissons Ratio (y) = 0.34055 0.15850
# Poissons Ratio (z) = 0.19717 0.15397
#
# Static dielectric constant tensor:
#      x y z
#    x 2.008050 -0.043740 0.079500 
#    y -0.043740 1.886920 -0.036880 
#    z 0.079500 -0.036880 1.884990 
# 
# From -- ./inp_files/366086.got.cif
#   From: 2010.05.17/outbox.cif.g08.bks.cpg/sg2_184_cif.got.tgz:366086.got - 2010.06.03 11:33:40.
