data_PCOD9039030
_publ_section_title
;
Structure prediction by ZEFSAII (Michael W. Deem and Ramdas Pophale) SiO2 
 PCOD9039030
Probable space group: P -1
;
_chemical_formula_sum "Si O2"
_cell_formula_units_Z 14
_cell_length_a 8.949244
_cell_length_b 14.657132
_cell_length_c 14.208074
_cell_angle_alpha 150.300574
_cell_angle_beta 52.278424
_cell_angle_gamma 108.843803
_cell_volume 618.466610
_symmetry_space_group_name_H-M "P -1"
_symmetry_group_IT_number 2
_symmetry_cell_setting 'triclinic'
loop_
_space_group_symop_operation_xyz
x,y,z
-x,-y,-z
loop_
_atom_site_type_symbol
_atom_site_label
_atom_site_fract_x
_atom_site_fract_y
_atom_site_fract_z
Si Si1 0.695674 0.998327 0.353612
Si Si2 0.763251 0.534496 0.857328
Si Si3 0.879672 0.539705 0.483623
Si Si4 0.062014 0.886785 0.271471
Si Si5 0.389718 0.878587 0.983901
Si Si6 0.647907 0.511417 0.081357
Si Si7 0.955426 0.094754 0.000145
O O1 0.460740 0.227437 0.646738
O O2 0.845183 0.948108 0.345986
O O3 0.696460 0.786112 0.125837
O O4 0.829807 0.051663 0.275414
O O5 0.552917 0.533542 0.893762
O O6 0.987814 0.396202 0.583682
O O7 0.791328 0.432710 0.858917
O O8 0.621929 0.660106 0.718858
O O9 0.925756 0.325361 0.224306
O O10 0.000000 0.500000 0.500000
O O11 0.226583 0.931685 0.184389
O O12 0.204288 0.628648 0.012755
O O13 0.000000 0.000000 0.500000
O O14 0.255191 0.870362 0.940802
O O15 0.500000 0.000000 0.000000
O O16 0.000000 0.000000 0.000000
#
# Coordination Sequence:
#
# PCOD9039030 Si02
#       7
#     2   2   2   2   2   2   2
#     4  10  24  45  66 100 141 171 236 288 339 413
#     4  10  23  42  66 101 134 180 232 287 335 418
#     4  11  23  40  68  95 138 178 230 279 348 411
#     4  11  25  44  71 103 136 179 233 282 345 419
#     4  11  25  42  69 101 138 179 226 288 345 414
#     4  11  23  42  75  92 137 186 226 281 357 398
#     4  10  23  42  65  97 134 177 225 289 340 409
#
# _framework density 22.636631000000001
#
# number of rings (size 3 to 8) (size 9 to 14) (size 15 to 20)
#    0.000    1.429    0.000    4.286   10.000    1.714 
#    0.000    1.429    0.000    0.000    0.000    0.000 
#    0.000    0.000    0.000    0.000    0.000    0.000 
#
# Total GULP energy -78000.377735 kJ/mol
# GULP energy per Si atom -5571.455552 kJ/mol
# Density = 2.258511 g / cm^3
# Si number density = 22.636631 Si / 1000 Ang^3
#
#
#
# Elastic Constant Matrix: (Units=GPa)
#
#
# Indices 1 2 3 4 5 6 
#
# 1 75.5939 60.9166 34.2384 -24.3331 6.2769 -8.1674
# 2 60.9166 139.2484 39.0833 -24.5021 -8.5763 0.2264
# 3 34.2384 39.0833 90.8956 -16.5141 -7.8511 5.1577
# 4 -24.3331 -24.5021 -16.5141 42.0715 5.4346 -4.0606
# 5 6.2769 -8.5763 -7.8511 5.4346 29.8224 8.9056
# 6 -8.1674 0.2264 5.1577 -4.0606 8.9056 44.6125
#
#
#
# Elastic Compliance Matrix: (Units=1/GPa)
#
#
# Indices 1 2 3 4 5 6 
#
# 1 0.032019 -0.010829 -0.007250 0.012726 -0.017487 0.011404
# 2 -0.010829 0.012421 -0.000566 -0.000455 0.006794 -0.003378
# 3 -0.007250 -0.000566 0.014791 0.000018 0.006550 -0.004340
# 4 0.012726 -0.000455 0.000018 0.033031 -0.011078 0.007548
# 5 -0.017487 0.006794 0.006550 -0.011078 0.047217 -0.014427
# 6 0.011404 -0.003378 -0.004340 0.007548 -0.014427 0.028589
#
#
# Mechanical properties :
#
#
# Convention : Reuss Voigt Hill
#
# Bulk Modulus (GPa) = 45.57504 63.80160 54.68832
# Shear Modulus (GPa) = 23.51024 34.73459 29.12242
#
# Velocity S-wave (km/s) = 3.22622 3.92144 3.59070
# Velocity P-wave (km/s) = 5.83567 6.98212 6.43447
#
# Compressibility (1/GPa) = 0.02194183
#
# Stress axis : x y z
#
# Youngs Moduli (GPa) = 31.23140 80.50636 67.60699
#
# Poissons Ratio (x) = 0.87177 0.49016
# Poissons Ratio (y) = 0.33819 0.03828
# Poissons Ratio (z) = 0.22643 0.04558
#
# Static dielectric constant tensor:
#      x y z
#    x 1.737700 -0.008810 0.041780 
#    y -0.008810 1.909680 0.047010 
#    z 0.041780 0.047010 1.815040 
# 
# From -- ./inp_files/356556.got.cif
#   From: 2010.05.17/outbox.cif.g08.bks.cpg/sg2_179_cif.got.tgz:356556.got - 2010.06.03 11:33:40.
