data_PCOD9039203
_publ_section_title
;
Structure prediction by ZEFSAII (Michael W. Deem and Ramdas Pophale) SiO2 
 PCOD9039203
Probable space group: P -1
;
_chemical_formula_sum "Si O2"
_cell_formula_units_Z 12
_cell_length_a 5.688142
_cell_length_b 6.073287
_cell_length_c 14.588926
_cell_angle_alpha 87.025561
_cell_angle_beta 85.053353
_cell_angle_gamma 72.245376
_cell_volume 478.018980
_symmetry_space_group_name_H-M "P -1"
_symmetry_group_IT_number 2
_symmetry_cell_setting 'triclinic'
loop_
_space_group_symop_operation_xyz
x,y,z
-x,-y,-z
loop_
_atom_site_type_symbol
_atom_site_label
_atom_site_fract_x
_atom_site_fract_y
_atom_site_fract_z
Si Si1 0.768780 0.165849 0.452255
Si Si2 0.668399 0.352745 0.771190
Si Si3 0.950662 0.651454 0.687426
Si Si4 0.472075 0.707357 0.925379
Si Si5 0.071586 0.112657 0.123856
Si Si6 0.500719 0.102546 0.634979
O O1 0.558720 0.213877 0.535697
O O2 0.837721 0.369090 0.394052
O O3 0.710559 0.011224 0.376410
O O4 0.000000 0.000000 0.500000
O O5 0.850563 0.432195 0.695796
O O6 0.539350 0.578855 0.828536
O O7 0.479497 0.261489 0.720507
O O8 0.821523 0.147325 0.836115
O O9 0.000974 0.717649 0.788148
O O10 0.733083 0.878173 0.656870
O O11 0.690192 0.827291 0.930072
O O12 0.181561 0.852082 0.925403
O O13 0.500000 0.500000 0.000000
#
# Coordination Sequence:
#
# PCOD9039203 Si02
#       6
#     2   2   2   2   2   2
#     4   9  18  36  61  87 134 169 220 285 325 381
#     4  10  23  42  67 101 131 183 224 270 345 404
#     4   9  20  37  60  93 129 175 221 274 329 396
#     4  11  25  47  71 102 139 174 222 283 339 407
#     4  10  24  43  69 102 139 174 223 282 334 404
#     4   9  19  39  59  92 130 173 224 281 325 392
#
# _framework density 25.103605000000002
#
# number of rings (size 3 to 8) (size 9 to 14) (size 15 to 20)
#    0.000    2.333    0.000    0.500    7.000    4.667 
#   12.000    7.500    0.000    0.000    0.000    0.000 
#    0.000    0.000    0.000    0.000    0.000    0.000 
#
# Total GULP energy -67135.162851 kJ/mol
# GULP energy per Si atom -5594.596904 kJ/mol
# Density = 2.504647 g / cm^3
# Si number density = 25.103605 Si / 1000 Ang^3
#
#
#
# Elastic Constant Matrix: (Units=GPa)
#
#
# Indices 1 2 3 4 5 6 
#
# 1 164.6876 56.0782 56.1541 -16.9304 10.1179 12.6985
# 2 56.0782 70.7674 23.5213 -7.2439 -9.8396 -0.8571
# 3 56.1541 23.5213 81.7699 -21.4552 -5.0433 13.8419
# 4 -16.9304 -7.2439 -21.4552 55.5364 11.8520 -8.6857
# 5 10.1179 -9.8396 -5.0433 11.8520 49.0225 -5.3134
# 6 12.6985 -0.8571 13.8419 -8.6857 -5.3134 42.8615
#
#
#
# Elastic Compliance Matrix: (Units=1/GPa)
#
#
# Indices 1 2 3 4 5 6 
#
# 1 0.010918 -0.007583 -0.004956 0.001109 -0.004787 -0.002154
# 2 -0.007583 0.021455 -0.001426 -0.000828 0.006332 0.003753
# 3 -0.004956 -0.001426 0.017833 0.004435 0.001144 -0.003279
# 4 0.001109 -0.000828 0.004435 0.021293 -0.004877 0.001933
# 5 -0.004787 0.006332 0.001144 -0.004877 0.024301 0.003200
# 6 -0.002154 0.003753 -0.003279 0.001933 0.003200 0.025891
#
#
# Mechanical properties :
#
#
# Convention : Reuss Voigt Hill
#
# Bulk Modulus (GPa) = 44.89348 65.41467 55.15408
# Shear Modulus (GPa) = 31.83753 41.58219 36.70986
#
# Velocity S-wave (km/s) = 3.56511 4.07433 3.82820
# Velocity P-wave (km/s) = 5.90498 6.94608 6.44658
#
# Compressibility (1/GPa) = 0.02227495
#
# Stress axis : x y z
#
# Youngs Moduli (GPa) = 91.58868 46.60971 56.07684
#
# Poissons Ratio (x) = 0.35343 0.27793
# Poissons Ratio (y) = 0.69450 0.07998
# Poissons Ratio (z) = 0.45394 0.06648
#
# Static dielectric constant tensor:
#      x y z
#    x 2.030310 -0.020190 -0.052940 
#    y -0.020190 1.942060 0.031380 
#    z -0.052940 0.031380 1.988950 
# 
# From -- ./inp_files/5244.got.cif
#   From: 2010.05.17/outbox.cif.g08.bks.cpg/sg2_3_cif.got.tgz:5244.got - 2010.06.03 11:33:40.
