data_PCOD9039058
_publ_section_title
;
Structure prediction by ZEFSAII (Michael W. Deem and Ramdas Pophale) SiO2 
 PCOD9039058
Probable space group: P -1
;
_chemical_formula_sum "Si O2"
_cell_formula_units_Z 16
_cell_length_a 17.988159
_cell_length_b 9.348157
_cell_length_c 5.758020
_cell_angle_alpha 99.402442
_cell_angle_beta 100.304267
_cell_angle_gamma 47.233972
_cell_volume 698.178610
_symmetry_space_group_name_H-M "P -1"
_symmetry_group_IT_number 2
_symmetry_cell_setting 'triclinic'
loop_
_space_group_symop_operation_xyz
x,y,z
-x,-y,-z
loop_
_atom_site_type_symbol
_atom_site_label
_atom_site_fract_x
_atom_site_fract_y
_atom_site_fract_z
Si Si1 0.771306 0.669746 0.341112
Si Si2 0.942376 0.979954 0.770177
Si Si3 0.546081 0.893982 0.244900
Si Si4 0.890306 0.570720 0.956089
Si Si5 0.125596 0.679350 0.446960
Si Si6 0.786823 0.925630 0.719212
Si Si7 0.590497 0.501141 0.091416
Si Si8 0.622325 0.362544 0.573544
O O1 0.654356 0.834344 0.270684
O O2 0.773746 0.511049 0.430513
O O3 0.807470 0.773049 0.503896
O O4 0.853379 0.540359 0.156129
O O5 0.877002 0.926309 0.793204
O O6 0.029985 0.826180 0.598511
O O7 0.863814 0.190016 0.658653
O O8 0.000000 0.000000 0.000000
O O9 0.552107 0.711019 0.189725
O O10 0.500000 0.000000 0.500000
O O11 0.500000 0.000000 0.000000
O O12 0.900129 0.428693 0.744113
O O13 0.800762 0.804746 0.920617
O O14 0.000000 0.500000 0.000000
O O15 0.685272 0.139883 0.639576
O O16 0.652512 0.367041 0.322912
O O17 0.500000 0.500000 0.000000
O O18 0.636654 0.445725 0.836726
O O19 0.500000 0.500000 0.500000
#
# Coordination Sequence:
#
# PCOD9039058 Si02
#       8
#     2   2   2   2   2   2   2   2
#     4  11  27  44  72 104 150 192 257 308 390 463
#     4  11  23  43  70 102 144 188 243 309 388 459
#     4  12  30  49  79 110 157 206 262 321 393 459
#     4  11  23  45  73 102 146 190 252 311 388 457
#     4  10  23  42  66 100 142 180 242 305 381 455
#     4  11  26  41  72 104 141 195 252 310 384 461
#     4  10  24  45  74 101 145 194 251 317 386 444
#     4  10  24  43  71 105 147 188 251 310 375 448
#
# _framework density 22.916772999999999
#
# number of rings (size 3 to 8) (size 9 to 14) (size 15 to 20)
#    0.000    1.250    0.000    3.750   14.000    5.000 
#    0.000    0.000    0.000    0.000    0.000    0.000 
#    0.000    0.000    0.000    0.000    0.000    0.000 
#
# Total GULP energy -89090.368383 kJ/mol
# GULP energy per Si atom -5568.148024 kJ/mol
# Density = 2.286461 g / cm^3
# Si number density = 22.916773 Si / 1000 Ang^3
#
#
#
# Elastic Constant Matrix: (Units=GPa)
#
#
# Indices 1 2 3 4 5 6 
#
# 1 84.6222 7.3544 28.3804 13.2940 13.2262 7.3907
# 2 7.3544 134.5742 64.6951 3.3858 10.6459 23.9562
# 3 28.3804 64.6951 118.3399 -2.4382 -5.4941 4.0031
# 4 13.2940 3.3858 -2.4382 42.4912 -0.4346 3.7674
# 5 13.2262 10.6459 -5.4941 -0.4346 13.3298 3.4248
# 6 7.3907 23.9562 4.0031 3.7674 3.4248 40.8456
#
#
#
# Elastic Compliance Matrix: (Units=1/GPa)
#
#
# Indices 1 2 3 4 5 6 
#
# 1 0.020797 0.006963 -0.010207 -0.007627 -0.029713 -0.003652
# 2 0.006963 0.015401 -0.010949 -0.003635 -0.022032 -0.007037
# 3 -0.010207 -0.010949 0.018038 0.005015 0.025468 0.003903
# 4 -0.007627 -0.003635 0.005015 0.026688 0.013557 -0.000578
# 5 -0.029713 -0.022032 0.025468 0.013557 0.132145 0.003472
# 6 -0.003652 -0.007037 0.003903 -0.000578 0.003472 0.028650
#
#
# Mechanical properties :
#
#
# Convention : Reuss Voigt Hill
#
# Bulk Modulus (GPa) = 38.68692 59.82179 49.25435
# Shear Modulus (GPa) = 17.93906 35.14043 26.53975
#
# Velocity S-wave (km/s) = 2.80088 3.92011 3.40677
# Velocity P-wave (km/s) = 5.23240 6.83010 6.08392
#
# Compressibility (1/GPa) = 0.02584853
#
# Stress axis : x y z
#
# Youngs Moduli (GPa) = 48.08483 64.93025 55.43977
#
# Poissons Ratio (x) = -0.45211 0.56588
# Poissons Ratio (y) = -0.33481 0.60702
# Poissons Ratio (z) = 0.49081 0.71094
#
# Static dielectric constant tensor:
#      x y z
#    x 1.805850 -0.034070 0.013000 
#    y -0.034070 1.937720 -0.148520 
#    z 0.013000 -0.148520 2.017470 
# 
# From -- ./inp_files/107228.got.cif
#   From: 2010.05.17/outbox.cif.g08.bks.cpg/sg2_54_cif.got.tgz:107228.got - 2010.06.03 11:33:40.
