data_PCOD9039556
_publ_section_title
;
Structure prediction by ZEFSAII (Michael W. Deem and Ramdas Pophale) SiO2 
 PCOD9039556
Probable space group: P -1
;
_chemical_formula_sum "Si O2"
_cell_formula_units_Z 16
_cell_length_a 5.788422
_cell_length_b 11.668701
_cell_length_c 21.863345
_cell_angle_alpha 31.000902
_cell_angle_beta 107.120909
_cell_angle_gamma 118.040027
_cell_volume 651.890839
_symmetry_space_group_name_H-M "P -1"
_symmetry_group_IT_number 2
_symmetry_cell_setting 'triclinic'
loop_
_space_group_symop_operation_xyz
x,y,z
-x,-y,-z
loop_
_atom_site_type_symbol
_atom_site_label
_atom_site_fract_x
_atom_site_fract_y
_atom_site_fract_z
Si Si1 0.098360 0.364452 0.310498
Si Si2 0.640581 0.729129 0.448566
Si Si3 0.335970 0.443774 0.075541
Si Si4 0.167217 0.865800 0.044167
Si Si5 0.162254 0.852546 0.910782
Si Si6 0.850984 0.206869 0.490140
Si Si7 0.414437 0.855457 0.698810
Si Si8 0.377337 0.436392 0.682830
O O1 0.951520 0.199109 0.433503
O O2 0.904147 0.244788 0.292976
O O3 0.101420 0.633393 0.189319
O O4 0.418587 0.448725 0.296450
O O5 0.500000 0.500000 0.500000
O O6 0.555288 0.603890 0.565330
O O7 0.957559 0.821528 0.430578
O O8 0.536300 0.936953 0.340629
O O9 0.471912 0.331619 0.185161
O O10 0.043228 0.243196 0.119012
O O11 0.500000 0.500000 0.000000
O O12 0.330831 0.694034 0.985866
O O13 0.054769 0.784982 0.003256
O O14 0.500000 0.000000 0.000000
O O15 0.000000 0.000000 0.000000
O O16 0.297644 0.152336 0.790022
O O17 0.857313 0.477847 0.370900
O O18 0.564460 0.994051 0.585210
#
# Coordination Sequence:
#
# PCOD9039556 Si02
#       8
#     2   2   2   2   2   2   2   2
#     4  11  24  43  70 106 146 190 248 311 386 457
#     4  10  25  42  66 101 137 186 244 301 373 448
#     4  11  28  46  72 104 148 206 252 322 385 461
#     4  12  27  47  78 116 156 209 261 327 390 467
#     4  11  26  47  72 107 149 197 264 310 390 461
#     4  10  24  43  70 104 142 194 242 311 388 454
#     4  11  26  44  71 105 146 193 249 314 381 466
#     4  10  23  42  69 102 138 188 237 307 368 452
#
# _framework density 24.543987999999999
#
# number of rings (size 3 to 8) (size 9 to 14) (size 15 to 20)
#    0.000    1.250    1.250    1.875    8.750    9.500 
#    0.000    0.000    0.000    0.000    0.000    0.000 
#    0.000    0.000    0.000    0.000    0.000    0.000 
#
# Total GULP energy -89277.075331 kJ/mol
# GULP energy per Si atom -5579.817208 kJ/mol
# Density = 2.448812 g / cm^3
# Si number density = 24.543988 Si / 1000 Ang^3
#
#
#
# Elastic Constant Matrix: (Units=GPa)
#
#
# Indices 1 2 3 4 5 6 
#
# 1 104.9295 47.1865 47.8287 -21.7208 34.6395 -12.5802
# 2 47.1865 86.4298 26.7439 -13.2723 23.1647 -5.2172
# 3 47.8287 26.7439 112.4911 -12.7948 28.7107 -5.5707
# 4 -21.7208 -13.2723 -12.7948 40.4530 -8.7240 6.1945
# 5 34.6395 23.1647 28.7107 -8.7240 48.7356 -5.4856
# 6 -12.5802 -5.2172 -5.5707 6.1945 -5.4856 41.7242
#
#
#
# Elastic Compliance Matrix: (Units=1/GPa)
#
#
# Indices 1 2 3 4 5 6 
#
# 1 0.016994 -0.005665 -0.003687 0.004397 -0.006150 0.002462
# 2 -0.005665 0.015800 -0.000436 0.001414 -0.003018 -0.000397
# 3 -0.003687 -0.000436 0.011634 0.000748 -0.003919 -0.000239
# 4 0.004397 0.001414 0.000748 0.028285 0.000541 -0.002526
# 5 -0.006150 -0.003018 -0.003919 0.000541 0.028838 0.000956
# 6 0.002462 -0.000397 -0.000239 -0.002526 0.000956 0.025128
#
#
# Mechanical properties :
#
#
# Convention : Reuss Voigt Hill
#
# Bulk Modulus (GPa) = 40.23852 60.81872 50.52862
# Shear Modulus (GPa) = 32.35427 38.32197 35.33812
#
# Velocity S-wave (km/s) = 3.63466 3.95569 3.79857
# Velocity P-wave (km/s) = 5.83476 6.75993 6.31431
#
# Compressibility (1/GPa) = 0.02485181
#
# Stress axis : x y z
#
# Youngs Moduli (GPa) = 58.84511 63.29157 85.95155
#
# Poissons Ratio (x) = 0.35854 0.31690
# Poissons Ratio (y) = 0.33335 0.03750
# Poissons Ratio (z) = 0.21696 0.02761
#
# Static dielectric constant tensor:
#      x y z
#    x 2.095340 -0.023370 -0.052270 
#    y -0.023370 2.432310 0.194740 
#    z -0.052270 0.194740 2.074920 
# 
# From -- ./inp_files/604419.got.cif
#   From: 2010.05.17/outbox.cif.g08.bks.cpg/sg2_303_cif.got.tgz:604419.got - 2010.06.03 11:33:40.
