data_PCOD9039350
_publ_section_title
;
Structure prediction by ZEFSAII (Michael W. Deem and Ramdas Pophale) SiO2 
 PCOD9039350
Probable space group: P -1
;
_chemical_formula_sum "Si O2"
_cell_formula_units_Z 14
_cell_length_a 9.552470
_cell_length_b 9.944254
_cell_length_c 14.177042
_cell_angle_alpha 139.296689
_cell_angle_beta 73.514375
_cell_angle_gamma 127.430601
_cell_volume 655.406981
_symmetry_space_group_name_H-M "P -1"
_symmetry_group_IT_number 2
_symmetry_cell_setting 'triclinic'
loop_
_space_group_symop_operation_xyz
x,y,z
-x,-y,-z
loop_
_atom_site_type_symbol
_atom_site_label
_atom_site_fract_x
_atom_site_fract_y
_atom_site_fract_z
Si Si1 0.649756 0.270193 0.726250
Si Si2 0.960015 0.970646 0.686347
Si Si3 0.326409 0.936817 0.208702
Si Si4 0.685522 0.881046 0.416459
Si Si5 0.990439 0.863010 0.024320
Si Si6 0.664013 0.511974 0.373981
Si Si7 0.282779 0.761734 0.932828
O O1 0.493214 0.252071 0.688207
O O2 0.575919 0.084896 0.733771
O O3 0.731164 0.155694 0.585876
O O4 0.805764 0.560782 0.890391
O O5 0.864897 0.109534 0.755808
O O6 0.798772 0.672810 0.521858
O O7 0.143579 0.075342 0.647553
O O8 0.999777 0.004716 0.808663
O O9 0.472149 0.232683 0.294910
O O10 0.273613 0.719862 0.024482
O O11 0.633811 0.696122 0.419042
O O12 0.163646 0.859444 0.990476
O O13 0.000000 0.000000 0.000000
O O14 0.766356 0.456487 0.248340
O O15 0.500000 0.000000 0.000000
#
# Coordination Sequence:
#
# PCOD9039350 Si02
#       7
#     2   2   2   2   2   2   2
#     4  11  26  45  65  96 144 173 228 274 345 392
#     4  11  24  41  72 100 128 179 228 271 332 395
#     4  10  23  42  68 100 133 182 220 279 329 398
#     4  11  26  43  70 101 136 181 216 287 333 398
#     4  11  27  45  67  99 142 178 219 283 342 398
#     4  11  22  43  74  99 138 173 233 267 336 405
#     4   9  22  40  68  98 130 176 225 270 322 400
#
# _framework density 21.360776000000001
#
# number of rings (size 3 to 8) (size 9 to 14) (size 15 to 20)
#    0.000    1.429    1.429    1.714   10.000    5.143 
#    0.000    2.143    0.000    0.000    0.000    0.000 
#    0.000    0.000    0.000    0.000    0.000    0.000 
#
# Total GULP energy -78207.898622 kJ/mol
# GULP energy per Si atom -5586.278473 kJ/mol
# Density = 2.131216 g / cm^3
# Si number density = 21.360776 Si / 1000 Ang^3
#
#
#
# Elastic Constant Matrix: (Units=GPa)
#
#
# Indices 1 2 3 4 5 6 
#
# 1 99.3581 62.4598 44.3111 -9.3466 18.1867 2.5457
# 2 62.4598 101.3000 48.5173 -6.9274 8.7651 -11.6506
# 3 44.3111 48.5173 155.2558 -25.0771 21.0389 4.3070
# 4 -9.3466 -6.9274 -25.0771 33.3932 -1.7177 1.3886
# 5 18.1867 8.7651 21.0389 -1.7177 32.8322 -10.8390
# 6 2.5457 -11.6506 4.3070 1.3886 -10.8390 35.3561
#
#
#
# Elastic Compliance Matrix: (Units=1/GPa)
#
#
# Indices 1 2 3 4 5 6 
#
# 1 0.020399 -0.012653 0.000401 0.003200 -0.011049 -0.009200
# 2 -0.012653 0.020184 -0.004506 -0.002776 0.007874 0.010634
# 3 0.000401 -0.004506 0.009804 0.006407 -0.006613 -0.004987
# 4 0.003200 -0.002776 0.006407 0.035026 -0.004890 -0.004800
# 5 -0.011049 0.007874 -0.006613 -0.004890 0.044400 0.017999
# 6 -0.009200 0.010634 -0.004987 -0.004800 0.017999 0.038764
#
#
# Mechanical properties :
#
#
# Convention : Reuss Voigt Hill
#
# Bulk Modulus (GPa) = 59.27530 74.05448 66.66489
# Shear Modulus (GPa) = 24.07139 33.69136 28.88137
#
# Velocity S-wave (km/s) = 3.36057 3.97577 3.68105
# Velocity P-wave (km/s) = 6.54735 7.47124 7.02450
#
# Compressibility (1/GPa) = 0.01687043
#
# Stress axis : x y z
#
# Youngs Moduli (GPa) = 49.02249 49.54538 101.99896
#
# Poissons Ratio (x) = 0.62690 -0.04095
# Poissons Ratio (y) = 0.62028 0.45964
# Poissons Ratio (z) = -0.01968 0.22327
#
# Static dielectric constant tensor:
#      x y z
#    x 1.731930 0.001030 -0.015560 
#    y 0.001030 1.806090 -0.015770 
#    z -0.015560 -0.015770 1.848200 
# 
# From -- ./inp_files/213528.got.cif
#   From: 2010.05.17/outbox.cif.g08.bks.cpg/sg2_107_cif.got.tgz:213528.got - 2010.06.03 11:33:40.
