data_PCOD9039467
_publ_section_title
;
Structure prediction by ZEFSAII (Michael W. Deem and Ramdas Pophale) SiO2 
 PCOD9039467
Probable space group: P -1
;
_chemical_formula_sum "Si O2"
_cell_formula_units_Z 16
_cell_length_a 13.982048
_cell_length_b 9.128415
_cell_length_c 8.982307
_cell_angle_alpha 61.828360
_cell_angle_beta 92.981773
_cell_angle_gamma 48.916473
_cell_volume 638.589490
_symmetry_space_group_name_H-M "P -1"
_symmetry_group_IT_number 2
_symmetry_cell_setting 'triclinic'
loop_
_space_group_symop_operation_xyz
x,y,z
-x,-y,-z
loop_
_atom_site_type_symbol
_atom_site_label
_atom_site_fract_x
_atom_site_fract_y
_atom_site_fract_z
Si Si1 0.936250 0.101767 0.693471
Si Si2 0.367296 0.484189 0.882409
Si Si3 0.637156 0.909865 0.629595
Si Si4 0.560129 0.261504 0.710267
Si Si5 0.866367 0.337671 0.846794
Si Si6 0.934676 0.315339 0.301859
Si Si7 0.326800 0.925636 0.727530
Si Si8 0.140603 0.210355 0.865090
O O1 0.808117 0.330101 0.692447
O O2 0.962957 0.207348 0.522586
O O3 0.934148 0.935496 0.674896
O O4 0.070437 0.881132 0.927056
O O5 0.441799 0.386697 0.771818
O O6 0.220412 0.568031 0.815210
O O7 0.325764 0.727926 0.808530
O O8 0.505398 0.248942 0.115723
O O9 0.758428 0.602530 0.801632
O O10 0.500000 0.000000 0.500000
O O11 0.584529 0.074844 0.691889
O O12 0.698344 0.959665 0.489487
O O13 0.500000 0.500000 0.500000
O O14 0.722730 0.058731 0.902587
O O15 0.997433 0.284832 0.827231
O O16 0.907118 0.547315 0.189125
O O17 0.206347 0.144870 0.735698
#
# Coordination Sequence:
#
# PCOD9039467 Si02
#       8
#     2   2   2   2   2   2   2   2
#     4  10  25  44  70 101 134 189 225 282 354 412
#     4  10  23  42  68  96 143 183 233 277 343 418
#     4  12  28  43  72 104 139 181 235 289 352 408
#     4  11  25  44  67 105 139 188 229 286 345 416
#     4  11  26  48  69 103 143 182 231 294 344 422
#     4  11  24  43  70 107 136 184 233 290 342 417
#     4  10  23  44  67 101 136 190 225 284 345 416
#     4  11  26  44  73 105 141 182 236 289 351 404
#
# _framework density 25.055219999999998
#
# number of rings (size 3 to 8) (size 9 to 14) (size 15 to 20)
#    0.000    1.250    1.250    2.250    8.750    8.000 
#    0.000    0.000    0.000    0.000    0.000    0.000 
#    0.000    0.000    0.000    0.000    0.000    0.000 
#
# Total GULP energy -89656.141209 kJ/mol
# GULP energy per Si atom -5603.508826 kJ/mol
# Density = 2.499819 g / cm^3
# Si number density = 25.055220 Si / 1000 Ang^3
#
#
#
# Elastic Constant Matrix: (Units=GPa)
#
#
# Indices 1 2 3 4 5 6 
#
# 1 99.1866 31.2980 19.5286 -6.6366 7.3437 12.8159
# 2 31.2980 177.5571 30.2478 13.4875 -8.9374 25.8452
# 3 19.5286 30.2478 101.8524 10.1008 -18.7645 1.4026
# 4 -6.6366 13.4875 10.1008 51.1498 3.6280 -5.3175
# 5 7.3437 -8.9374 -18.7645 3.6280 34.9742 -3.2621
# 6 12.8159 25.8452 1.4026 -5.3175 -3.2621 36.2230
#
#
#
# Elastic Compliance Matrix: (Units=1/GPa)
#
#
# Indices 1 2 3 4 5 6 
#
# 1 0.012149 -0.001640 -0.003011 0.002648 -0.005148 -0.003087
# 2 -0.001640 0.007056 -0.001240 -0.002403 0.001299 -0.004642
# 3 -0.003011 -0.001240 0.012390 -0.002858 0.007420 0.001719
# 4 0.002648 -0.002403 -0.002858 0.021802 -0.004623 0.003673
# 5 -0.005148 0.001299 0.007420 -0.004623 0.034751 0.003059
# 6 -0.003087 -0.004642 0.001719 0.003673 0.003059 0.032759
#
#
# Mechanical properties :
#
#
# Convention : Reuss Voigt Hill
#
# Bulk Modulus (GPa) = 50.46615 60.08278 55.27447
# Shear Modulus (GPa) = 35.89558 44.30418 40.09988
#
# Velocity S-wave (km/s) = 3.78915 4.20963 4.00492
# Velocity P-wave (km/s) = 6.27131 6.90364 6.59505
#
# Compressibility (1/GPa) = 0.01981526
#
# Stress axis : x y z
#
# Youngs Moduli (GPa) = 82.30881 141.72813 80.70784
#
# Poissons Ratio (x) = 0.23236 0.24302
# Poissons Ratio (y) = 0.13495 0.10004
# Poissons Ratio (z) = 0.24784 0.17568
#
# Static dielectric constant tensor:
#      x y z
#    x 1.985970 -0.200410 0.075350 
#    y -0.200410 2.691040 -0.180360 
#    z 0.075350 -0.180360 2.060150 
# 
# From -- ./inp_files/186151.got.cif
#   From: 2010.05.17/outbox.cif.g08.bks.cpg/sg2_94_cif.got.tgz:186151.got - 2010.06.03 11:33:40.
