data_PCOD9039517
_publ_section_title
;
Structure prediction by ZEFSAII (Michael W. Deem and Ramdas Pophale) SiO2 
 PCOD9039517
Probable space group: P -1
;
_chemical_formula_sum "Si O2"
_cell_formula_units_Z 14
_cell_length_a 24.427826
_cell_length_b 6.441351
_cell_length_c 15.232383
_cell_angle_alpha 71.629052
_cell_angle_beta 16.145345
_cell_angle_gamma 66.340381
_cell_volume 586.747323
_symmetry_space_group_name_H-M "P -1"
_symmetry_group_IT_number 2
_symmetry_cell_setting 'triclinic'
loop_
_space_group_symop_operation_xyz
x,y,z
-x,-y,-z
loop_
_atom_site_type_symbol
_atom_site_label
_atom_site_fract_x
_atom_site_fract_y
_atom_site_fract_z
Si Si1 0.714224 0.108618 0.980897
Si Si2 0.093436 0.519268 0.688283
Si Si3 0.380009 0.280095 0.135986
Si Si4 0.848811 0.179450 0.136792
Si Si5 0.014199 0.619141 0.552340
Si Si6 0.732227 0.013136 0.153451
Si Si7 0.641355 0.468581 0.573097
O O1 0.840257 0.224476 0.708351
O O2 0.474881 0.253086 0.301621
O O3 0.792321 0.827434 0.889297
O O4 0.749516 0.160367 0.021311
O O5 0.321896 0.408293 0.302779
O O6 0.141053 0.572281 0.707184
O O7 0.986954 0.328889 0.873959
O O8 0.927973 0.763149 0.873909
O O9 0.140403 0.400150 0.449752
O O10 0.517926 0.357195 0.843354
O O11 0.500000 0.000000 0.000000
O O12 0.661173 0.347812 0.464639
O O13 0.765336 0.098631 0.187903
O O14 0.000000 0.000000 0.000000
O O15 0.000000 0.500000 0.500000
O O16 0.500000 0.000000 0.500000
#
# Coordination Sequence:
#
# PCOD9039517 Si02
#       7
#     2   2   2   2   2   2   2
#     4  10  24  44  66 103 143 187 240 292 365 436
#     4  12  26  47  75 108 149 191 250 307 371 439
#     4  11  25  44  72 114 145 193 246 304 371 444
#     4  12  27  48  75 107 147 193 252 305 367 441
#     4  10  23  42  68  99 143 188 234 297 360 432
#     4  12  28  47  77 105 147 196 247 308 372 438
#     4  11  25  47  74 109 152 198 241 308 376 440
#
# _framework density 23.860354999999998
#
# number of rings (size 3 to 8) (size 9 to 14) (size 15 to 20)
#    0.000    0.857    2.857    2.571    6.000    4.571 
#    0.000    0.000    0.000    0.000    0.000    0.000 
#    0.000    0.000    0.000    0.000    0.000    0.000 
#
# Total GULP energy -78159.304211 kJ/mol
# GULP energy per Si atom -5582.807444 kJ/mol
# Density = 2.380605 g / cm^3
# Si number density = 23.860355 Si / 1000 Ang^3
#
#
#
# Elastic Constant Matrix: (Units=GPa)
#
#
# Indices 1 2 3 4 5 6 
#
# 1 132.5160 54.0653 37.7051 23.7412 -0.2792 -9.9525
# 2 54.0653 88.0497 57.2286 23.3593 -4.3735 -19.8786
# 3 37.7051 57.2286 105.4241 22.2600 14.8533 -8.5666
# 4 23.7412 23.3593 22.2600 53.0405 -14.9494 -3.5089
# 5 -0.2792 -4.3735 14.8533 -14.9494 51.9786 9.1731
# 6 -9.9525 -19.8786 -8.5666 -3.5089 9.1731 49.1760
#
#
#
# Elastic Compliance Matrix: (Units=1/GPa)
#
#
# Indices 1 2 3 4 5 6 
#
# 1 0.010327 -0.005921 0.000177 -0.002429 -0.001151 -0.000231
# 2 -0.005921 0.023743 -0.010292 -0.002185 0.003247 0.005845
# 3 0.000177 -0.010292 0.016966 -0.004658 -0.007019 -0.000192
# 4 -0.002429 -0.002185 -0.004658 0.025186 0.008734 -0.002018
# 5 -0.001151 0.003247 -0.007019 0.008734 0.024753 -0.004137
# 6 -0.000231 0.005845 -0.000192 -0.002018 -0.004137 0.023245
#
#
# Mechanical properties :
#
#
# Convention : Reuss Voigt Hill
#
# Bulk Modulus (GPa) = 52.73372 69.33199 61.03286
# Shear Modulus (GPa) = 30.74759 42.63840 36.69299
#
# Velocity S-wave (km/s) = 3.59367 4.23188 3.92576
# Velocity P-wave (km/s) = 6.27441 7.28003 6.79585
#
# Compressibility (1/GPa) = 0.01896320
#
# Stress axis : x y z
#
# Youngs Moduli (GPa) = 96.83330 42.11762 58.94150
#
# Poissons Ratio (x) = 0.24939 -0.01043
# Poissons Ratio (y) = 0.57337 0.60664
# Poissons Ratio (z) = -0.01714 0.43348
#
# Static dielectric constant tensor:
#      x y z
#    x 2.004170 -0.020270 0.072010 
#    y -0.020270 1.896040 0.023970 
#    z 0.072010 0.023970 2.040300 
# 
# From -- ./inp_files/542122.got.cif
#   From: 2010.05.17/outbox.cif.g08.bks.cpg/sg2_272_cif.got.tgz:542122.got - 2010.06.03 11:33:40.
