data_PCOD9039961
_publ_section_title
;
Structure prediction by ZEFSAII (Michael W. Deem and Ramdas Pophale) SiO2 
 PCOD9039961
Probable space group: P -1
;
_chemical_formula_sum "Si O2"
_cell_formula_units_Z 13
_cell_length_a 8.897526
_cell_length_b 7.963668
_cell_length_c 16.910987
_cell_angle_alpha 43.181138
_cell_angle_beta 140.003215
_cell_angle_gamma 115.240209
_cell_volume 502.664141
_symmetry_space_group_name_H-M "P -1"
_symmetry_group_IT_number 2
_symmetry_cell_setting 'triclinic'
loop_
_space_group_symop_operation_xyz
x,y,z
-x,-y,-z
loop_
_atom_site_type_symbol
_atom_site_label
_atom_site_fract_x
_atom_site_fract_y
_atom_site_fract_z
Si Si1 0.699669 0.779378 0.576603
Si Si2 0.045625 0.409204 0.960618
Si Si3 0.561090 0.758841 0.921675
Si Si4 0.664097 0.343414 0.418712
Si Si5 0.500000 0.500000 0.500000
Si Si6 0.772760 0.818597 0.249652
Si Si7 0.951911 0.907207 0.125697
O O1 0.921723 0.651682 0.769988
O O2 0.504046 0.621932 0.580938
O O3 0.687714 0.693282 0.512019
O O4 0.627648 0.083886 0.456344
O O5 0.000000 0.500000 0.000000
O O6 0.335113 0.274898 0.112957
O O7 0.920015 0.183857 0.979572
O O8 0.358374 0.993138 0.797611
O O9 0.500000 0.500000 0.000000
O O10 0.810342 0.754971 0.068533
O O11 0.640366 0.593974 0.270501
O O12 0.942043 0.282477 0.578555
O O13 0.239752 0.755189 0.298922
O O14 0.798344 0.944310 0.132928
#
# Coordination Sequence:
#
# PCOD9039961 Si02
#       7
#     2   2   2   2   1   2   2
#     4  11  23  47  73 106 142 195 247 304 354 439
#     4  12  27  47  77 108 145 195 248 304 365 437
#     4  12  26  45  71 107 151 191 242 300 370 441
#     4  10  23  42  73 101 145 193 241 294 369 427
#     4  12  26  44  78 108 146 192 252 302 358 438
#     4  11  24  45  70 108 150 191 236 306 372 437
#     4  12  26  48  72 112 146 194 245 301 371 436
#
# _framework density 25.862200000000001
#
# number of rings (size 3 to 8) (size 9 to 14) (size 15 to 20)
#    0.000    0.615    3.077    4.615    4.308    1.231 
#    0.000    0.769    0.000    0.000    0.000    0.000 
#    0.000    0.000    0.000    0.000    0.000    0.000 
#
# Total GULP energy -72416.079159 kJ/mol
# GULP energy per Si atom -5570.467628 kJ/mol
# Density = 2.580334 g / cm^3
# Si number density = 25.862200 Si / 1000 Ang^3
#
#
#
# Elastic Constant Matrix: (Units=GPa)
#
#
# Indices 1 2 3 4 5 6 
#
# 1 153.8451 20.9737 30.9127 -24.6657 19.5916 10.5434
# 2 20.9737 141.3589 9.3149 -28.0047 -13.0062 21.7231
# 3 30.9127 9.3149 97.2249 -6.8483 6.7765 7.2413
# 4 -24.6657 -28.0047 -6.8483 41.1597 1.7165 -0.1340
# 5 19.5916 -13.0062 6.7765 1.7165 31.2123 -4.5124
# 6 10.5434 21.7231 7.2413 -0.1340 -4.5124 43.9413
#
#
#
# Elastic Compliance Matrix: (Units=1/GPa)
#
#
# Indices 1 2 3 4 5 6 
#
# 1 0.008556 -0.000402 -0.001787 0.004789 -0.005722 -0.002133
# 2 -0.000402 0.009235 -0.000268 0.005849 0.003248 -0.004074
# 3 -0.001787 -0.000268 0.011149 0.000666 -0.001656 -0.001444
# 4 0.004789 0.005849 0.000666 0.031370 -0.003070 -0.004370
# 5 -0.005722 0.003248 -0.001656 -0.003070 0.038082 0.003941
# 6 -0.002133 -0.004074 -0.001444 -0.004370 0.003941 0.025913
#
#
# Mechanical properties :
#
#
# Convention : Reuss Voigt Hill
#
# Bulk Modulus (GPa) = 41.61969 57.20347 49.41158
# Shear Modulus (GPa) = 36.43573 45.34451 40.89012
#
# Velocity S-wave (km/s) = 3.75753 4.19180 3.98059
# Velocity P-wave (km/s) = 5.91212 6.75239 6.34618
#
# Compressibility (1/GPa) = 0.02402709
#
# Stress axis : x y z
#
# Youngs Moduli (GPa) = 116.87028 108.28189 89.69247
#
# Poissons Ratio (x) = 0.04351 0.16029
# Poissons Ratio (y) = 0.04696 0.02404
# Poissons Ratio (z) = 0.20885 0.02902
#
# Static dielectric constant tensor:
#      x y z
#    x 1.746010 0.324300 0.320070 
#    y 0.324300 1.692720 -0.329830 
#    z 0.320070 -0.329830 1.841390 
# 
# From -- ./inp_files/554081.got.cif
#   From: 2010.05.17/outbox.cif.g08.bks.cpg/sg2_278_cif.got.tgz:554081.got - 2010.06.03 11:33:40.
