data_PCOD9039327
_publ_section_title
;
Structure prediction by ZEFSAII (Michael W. Deem and Ramdas Pophale) SiO2 
 PCOD9039327
Probable space group: P -1
;
_chemical_formula_sum "Si O2"
_cell_formula_units_Z 16
_cell_length_a 21.009264
_cell_length_b 17.304339
_cell_length_c 10.700675
_cell_angle_alpha 38.574455
_cell_angle_beta 37.021907
_cell_angle_gamma 18.508207
_cell_volume 737.342579
_symmetry_space_group_name_H-M "P -1"
_symmetry_group_IT_number 2
_symmetry_cell_setting 'triclinic'
loop_
_space_group_symop_operation_xyz
x,y,z
-x,-y,-z
loop_
_atom_site_type_symbol
_atom_site_label
_atom_site_fract_x
_atom_site_fract_y
_atom_site_fract_z
Si Si1 0.657424 0.982476 0.714035
Si Si2 0.235176 0.813409 0.372195
Si Si3 0.442678 0.003204 0.879724
Si Si4 0.215332 0.022915 0.912926
Si Si5 0.647490 0.690638 0.704138
Si Si6 0.924900 0.599110 0.225736
Si Si7 0.922486 0.181468 0.987381
Si Si8 0.652884 0.251033 0.450556
O O1 0.862232 0.689020 0.765348
O O2 0.514903 0.068699 0.720119
O O3 0.710946 0.072431 0.504530
O O4 0.546147 0.078943 0.901625
O O5 0.263243 0.876280 0.132524
O O6 0.408823 0.529141 0.461116
O O7 0.285129 0.835749 0.393434
O O8 0.000000 0.000000 0.500000
O O9 0.207935 0.241797 0.892235
O O10 0.580896 0.805368 0.801766
O O11 0.432386 0.874643 0.737822
O O12 0.113396 0.053510 0.920719
O O13 0.053913 0.290211 0.878770
O O14 0.221446 0.338733 0.536316
O O15 0.784531 0.428641 0.830698
O O16 0.777295 0.250062 0.222828
O O17 0.000000 0.000000 0.000000
#
# Coordination Sequence:
#
# PCOD9039327 Si02
#       8
#     2   2   2   2   2   2   2   2
#     4  11  24  41  66 102 137 166 212 280 337 389
#     4  11  23  42  70  95 126 176 222 264 328 391
#     4  10  23  42  67  98 131 172 214 277 338 384
#     4  11  23  44  68  96 129 175 224 271 325 394
#     4  11  24  45  68  93 131 178 226 271 323 400
#     4  11  24  42  70  98 128 175 225 272 329 390
#     4  12  26  42  64  95 135 175 217 271 329 389
#     4  11  24  41  64  98 134 169 216 269 323 396
#
# _framework density 21.699548
#
# number of rings (size 3 to 8) (size 9 to 14) (size 15 to 20)
#    0.000    1.000    2.500    4.875    1.750    8.500 
#    2.250    0.000    0.000    0.000    0.000    0.000 
#    0.000    0.000    0.000    0.000    0.000    0.000 
#
# Total GULP energy -89522.303983 kJ/mol
# GULP energy per Si atom -5595.143999 kJ/mol
# Density = 2.165016 g / cm^3
# Si number density = 21.699548 Si / 1000 Ang^3
#
#
#
# Elastic Constant Matrix: (Units=GPa)
#
#
# Indices 1 2 3 4 5 6 
#
# 1 145.7492 61.4670 24.7792 -11.9915 -27.4851 8.9507
# 2 61.4670 92.3573 11.1375 -8.0942 0.0181 1.3649
# 3 24.7792 11.1375 54.4017 -3.6581 -6.1890 3.7378
# 4 -11.9915 -8.0942 -3.6581 35.5260 10.7508 -6.2956
# 5 -27.4851 0.0181 -6.1890 10.7508 22.4816 -3.3500
# 6 8.9507 1.3649 3.7378 -6.2956 -3.3500 22.5036
#
#
#
# Elastic Compliance Matrix: (Units=1/GPa)
#
#
# Indices 1 2 3 4 5 6 
#
# 1 0.014928 -0.009900 -0.002665 -0.003752 0.018852 -0.003138
# 2 -0.009900 0.017941 -0.000611 0.005504 -0.014572 0.002322
# 3 -0.002665 -0.000611 0.020080 0.000103 0.001935 -0.001921
# 4 -0.003752 0.005504 0.000103 0.035775 -0.020463 0.008104
# 5 0.018852 -0.014572 0.001935 -0.020463 0.077695 -0.001095
# 6 -0.003138 0.002322 -0.001921 0.008104 -0.001095 0.047968
#
#
# Mechanical properties :
#
#
# Convention : Reuss Voigt Hill
#
# Bulk Modulus (GPa) = 37.59769 54.14173 45.86971
# Shear Modulus (GPa) = 20.03163 29.11054 24.57108
#
# Velocity S-wave (km/s) = 3.04161 3.66666 3.36866
# Velocity P-wave (km/s) = 5.44971 6.55215 6.02619
#
# Compressibility (1/GPa) = 0.02659738
#
# Stress axis : x y z
#
# Youngs Moduli (GPa) = 66.98628 55.73805 49.80155
#
# Poissons Ratio (x) = 0.55182 0.13271
# Poissons Ratio (y) = 0.66318 0.03042
# Poissons Ratio (z) = 0.17851 0.03405
#
# Static dielectric constant tensor:
#      x y z
#    x 1.773160 0.003350 -0.001910 
#    y 0.003350 1.786480 0.029910 
#    z -0.001910 0.029910 1.831100 
# 
# From -- ./inp_files/466052.got.cif
#   From: 2010.05.17/outbox.cif.g08.bks.cpg/sg2_234_cif.got.tgz:466052.got - 2010.06.03 11:33:40.
