data_PCOD9039641
_publ_section_title
;
Structure prediction by ZEFSAII (Michael W. Deem and Ramdas Pophale) SiO2 
 PCOD9039641
Probable space group: P -1
;
_chemical_formula_sum "Si O2"
_cell_formula_units_Z 14
_cell_length_a 14.149366
_cell_length_b 15.337503
_cell_length_c 6.483644
_cell_angle_alpha 124.162984
_cell_angle_beta 71.083756
_cell_angle_gamma 148.284387
_cell_volume 572.676483
_symmetry_space_group_name_H-M "P -1"
_symmetry_group_IT_number 2
_symmetry_cell_setting 'triclinic'
loop_
_space_group_symop_operation_xyz
x,y,z
-x,-y,-z
loop_
_atom_site_type_symbol
_atom_site_label
_atom_site_fract_x
_atom_site_fract_y
_atom_site_fract_z
Si Si1 0.352379 0.508595 0.567404
Si Si2 0.933578 0.858384 0.031776
Si Si3 0.798980 0.252756 0.791177
Si Si4 0.647277 0.660121 0.292598
Si Si5 0.879038 0.162200 0.909819
Si Si6 0.182655 0.605279 0.410845
Si Si7 0.454696 0.823585 0.879122
O O1 0.194628 0.336300 0.278219
O O2 0.548775 0.660319 0.503345
O O3 0.330199 0.413785 0.655612
O O4 0.366495 0.640598 0.808017
O O5 0.074053 0.910257 0.132546
O O6 0.831852 0.836059 0.251972
O O7 0.000000 0.000000 0.000000
O O8 0.735551 0.233949 0.589061
O O9 0.832023 0.160670 0.706546
O O10 0.644524 0.164162 0.936880
O O11 0.000000 0.500000 0.000000
O O12 0.500000 0.500000 0.000000
O O13 0.073006 0.403890 0.135033
O O14 0.683883 0.022203 0.978785
O O15 0.353982 0.724672 0.595462
O O16 0.000000 0.500000 0.500000
#
# Coordination Sequence:
#
# PCOD9039641 Si02
#       7
#     2   2   2   2   2   2   2
#     4  10  23  43  70  94 129 188 218 274 353 389
#     4  11  25  45  66  97 138 173 231 287 328 397
#     4  10  23  42  69  98 134 176 219 274 334 397
#     4   9  22  42  67  91 132 169 237 275 330 395
#     4  11  25  44  65 103 134 174 226 276 332 397
#     4  11  23  45  69  95 137 178 219 270 340 397
#     4  12  24  43  69 100 141 169 223 276 334 410
#
# _framework density 24.446614
#
# number of rings (size 3 to 8) (size 9 to 14) (size 15 to 20)
#    0.000    1.429    4.286    0.429   10.000    1.143 
#    0.000    0.000    0.000    0.000    0.000    0.000 
#    0.000    0.000    0.000    0.000    0.000    0.000 
#
# Total GULP energy -78093.244565 kJ/mol
# GULP energy per Si atom -5578.088898 kJ/mol
# Density = 2.439097 g / cm^3
# Si number density = 24.446614 Si / 1000 Ang^3
#
#
#
# Elastic Constant Matrix: (Units=GPa)
#
#
# Indices 1 2 3 4 5 6 
#
# 1 134.7763 51.0911 9.9803 -12.6915 24.1203 -17.1584
# 2 51.0911 129.6623 35.4448 -15.1124 11.6874 3.0148
# 3 9.9803 35.4448 71.4478 -0.5583 23.1999 -2.8163
# 4 -12.6915 -15.1124 -0.5583 48.7785 -4.0823 4.9243
# 5 24.1203 11.6874 23.1999 -4.0823 35.7996 -2.6219
# 6 -17.1584 3.0148 -2.8163 4.9243 -2.6219 35.7049
#
#
#
# Elastic Compliance Matrix: (Units=1/GPa)
#
#
# Indices 1 2 3 4 5 6 
#
# 1 0.011043 -0.004711 0.003530 0.000261 -0.007767 0.005377
# 2 -0.004711 0.011395 -0.006286 0.002922 0.003578 -0.003862
# 3 0.003530 -0.006286 0.021334 -0.002293 -0.014180 0.003185
# 4 0.000261 0.002922 -0.002293 0.021985 0.002633 -0.003141
# 5 -0.007767 0.003578 -0.014180 0.002633 0.041306 -0.002483
# 6 0.005377 -0.003862 0.003185 -0.003141 -0.002483 0.031419
#
#
# Mechanical properties :
#
#
# Convention : Reuss Voigt Hill
#
# Bulk Modulus (GPa) = 34.67601 58.76876 46.72238
# Shear Modulus (GPa) = 30.66959 40.01462 35.34211
#
# Velocity S-wave (km/s) = 3.54581 4.05015 3.80634
# Velocity P-wave (km/s) = 5.56587 6.77963 6.20251
#
# Compressibility (1/GPa) = 0.02883839
#
# Stress axis : x y z
#
# Youngs Moduli (GPa) = 90.55338 87.75915 46.87454
#
# Poissons Ratio (x) = 0.41343 -0.16549
# Poissons Ratio (y) = 0.42659 0.29466
# Poissons Ratio (z) = -0.31969 0.55166
#
# Static dielectric constant tensor:
#      x y z
#    x 1.998190 -0.020460 -0.017510 
#    y -0.020460 2.045300 0.035860 
#    z -0.017510 0.035860 1.997530 
# 
# From -- ./inp_files/98307.got.cif
#   From: 2010.05.17/outbox.cif.g08.bks.cpg/sg2_50_cif.got.tgz:98307.got - 2010.06.03 11:33:40.
