data_PCOD9039624
_publ_section_title
;
Structure prediction by ZEFSAII (Michael W. Deem and Ramdas Pophale) SiO2 
 PCOD9039624
Probable space group: P -1
;
_chemical_formula_sum "Si O2"
_cell_formula_units_Z 14
_cell_length_a 20.332930
_cell_length_b 11.668132
_cell_length_c 7.600906
_cell_angle_alpha 60.223431
_cell_angle_beta 93.842027
_cell_angle_gamma 147.635231
_cell_volume 545.919232
_symmetry_space_group_name_H-M "P -1"
_symmetry_group_IT_number 2
_symmetry_cell_setting 'triclinic'
loop_
_space_group_symop_operation_xyz
x,y,z
-x,-y,-z
loop_
_atom_site_type_symbol
_atom_site_label
_atom_site_fract_x
_atom_site_fract_y
_atom_site_fract_z
Si Si1 0.959906 0.863000 0.338176
Si Si2 0.328784 0.379830 0.084649
Si Si3 0.131548 0.874321 0.736588
Si Si4 0.823430 0.482540 0.107797
Si Si5 0.624810 0.286355 0.962492
Si Si6 0.184829 0.669825 0.441273
Si Si7 0.252571 0.073123 0.992920
O O1 0.831353 0.681244 0.609396
O O2 0.827559 0.497515 0.520481
O O3 0.150091 0.138874 0.197046
O O4 0.049950 0.166293 0.040085
O O5 0.441488 0.698282 0.980748
O O6 0.257695 0.131545 0.391983
O O7 0.376474 0.398787 0.894431
O O8 0.974382 0.694727 0.848448
O O9 0.256919 0.109790 0.757424
O O10 0.000000 0.500000 0.000000
O O11 0.654747 0.235976 0.161596
O O12 0.753645 0.242663 0.414404
O O13 0.500000 0.000000 0.000000
O O14 0.276047 0.963227 0.130303
O O15 0.964092 0.298352 0.711235
#
# Coordination Sequence:
#
# PCOD9039624 Si02
#       7
#     2   2   2   2   2   2   2
#     4  10  17  33  55  80 106 136 180 226 276 324
#     4  10  18  36  55  80 114 140 179 230 273 323
#     4  11  18  29  57  88 112 140 173 224 278 323
#     4  10  18  32  53  82 107 138 176 224 279 320
#     4  11  22  36  54  77 108 148 188 224 268 320
#     4   9  17  30  51  83 112 132 170 226 277 323
#     4   9  19  30  50  89 114 135 174 225 276 331
#
# _framework density 25.644821
#
# number of rings (size 3 to 8) (size 9 to 14) (size 15 to 20)
#    0.000    2.000    2.857    4.714    0.000    1.143 
#    0.000    0.714    0.000    4.286    0.000    0.000 
#    0.000    0.000    0.000    0.000    0.000    0.000 
#
# Total GULP energy -78168.661179 kJ/mol
# GULP energy per Si atom -5583.475798 kJ/mol
# Density = 2.558645 g / cm^3
# Si number density = 25.644821 Si / 1000 Ang^3
#
#
#
# Elastic Constant Matrix: (Units=GPa)
#
#
# Indices 1 2 3 4 5 6 
#
# 1 105.8340 30.4579 22.0807 0.9278 25.3154 -0.4130
# 2 30.4579 136.7803 22.5893 -20.1174 26.5346 -17.4969
# 3 22.0807 22.5893 38.3703 -7.9019 19.0835 10.9709
# 4 0.9278 -20.1174 -7.9019 42.9487 -2.1061 11.0102
# 5 25.3154 26.5346 19.0835 -2.1061 39.6030 -2.1406
# 6 -0.4130 -17.4969 10.9709 11.0102 -2.1406 34.8953
#
#
#
# Elastic Compliance Matrix: (Units=1/GPa)
#
#
# Indices 1 2 3 4 5 6 
#
# 1 0.011894 -0.001100 -0.004835 -0.002283 -0.004574 0.001549
# 2 -0.001100 0.010031 -0.004775 0.002245 -0.003294 0.005608
# 3 -0.004835 -0.004775 0.049845 0.012048 -0.018334 -0.023048
# 4 -0.002283 0.002245 0.012048 0.029513 -0.004946 -0.012305
# 5 -0.004574 -0.003294 -0.018334 -0.004946 0.039387 0.008035
# 6 0.001549 0.005608 -0.023048 -0.012305 0.008035 0.043109
#
#
# Mechanical properties :
#
#
# Convention : Reuss Voigt Hill
#
# Bulk Modulus (GPa) = 19.86136 47.91560 33.88848
# Shear Modulus (GPa) = 22.52416 37.21317 29.86866
#
# Velocity S-wave (km/s) = 2.96685 3.81346 3.41648
# Velocity P-wave (km/s) = 4.41564 6.17372 5.36716
#
# Compressibility (1/GPa) = 0.05034901
#
# Stress axis : x y z
#
# Youngs Moduli (GPa) = 84.07345 99.68941 20.06217
#
# Poissons Ratio (x) = 0.10971 0.09701
# Poissons Ratio (y) = 0.09252 0.09579
# Poissons Ratio (z) = 0.40653 0.47600
#
# Static dielectric constant tensor:
#      x y z
#    x 2.046830 0.005810 -0.033470 
#    y 0.005810 2.203240 -0.076870 
#    z -0.033470 -0.076870 2.070670 
# 
# From -- ./inp_files/174285.got.cif
#   From: 2010.05.17/outbox.cif.g08.bks.cpg/sg2_88_cif.got.tgz:174285.got - 2010.06.03 11:33:40.
