data_PCOD9039153
_publ_section_title
;
Structure prediction by ZEFSAII (Michael W. Deem and Ramdas Pophale) SiO2 
 PCOD9039153
Probable space group: P -1
;
_chemical_formula_sum "Si O2"
_cell_formula_units_Z 16
_cell_length_a 17.858127
_cell_length_b 11.328476
_cell_length_c 6.630848
_cell_angle_alpha 54.423888
_cell_angle_beta 50.787077
_cell_angle_gamma 49.099302
_cell_volume 752.639463
_symmetry_space_group_name_H-M "P -1"
_symmetry_group_IT_number 2
_symmetry_cell_setting 'triclinic'
loop_
_space_group_symop_operation_xyz
x,y,z
-x,-y,-z
loop_
_atom_site_type_symbol
_atom_site_label
_atom_site_fract_x
_atom_site_fract_y
_atom_site_fract_z
Si Si1 0.028741 0.640099 0.397799
Si Si2 0.328134 0.559280 0.247452
Si Si3 0.959049 0.797672 0.780959
Si Si4 0.313717 0.812923 0.684665
Si Si5 0.158817 0.835980 0.550338
Si Si6 0.172093 0.171033 0.670717
Si Si7 0.540982 0.617516 0.421035
Si Si8 0.264368 0.410499 0.164520
O O1 0.151084 0.577885 0.174210
O O2 0.000000 0.500000 0.500000
O O3 0.016713 0.671418 0.626782
O O4 0.931307 0.802858 0.314988
O O5 0.235138 0.697788 0.401348
O O6 0.421638 0.455660 0.347898
O O7 0.302714 0.428413 0.304161
O O8 0.341214 0.663914 0.938572
O O9 0.050011 0.812020 0.752226
O O10 0.885042 0.978721 0.639055
O O11 0.881236 0.754405 0.097354
O O12 0.234154 0.813955 0.639587
O O13 0.431538 0.787914 0.434677
O O14 0.251401 0.981912 0.738885
O O15 0.231525 0.264743 0.370658
O O16 0.500000 0.500000 0.500000
O O17 0.644287 0.612566 0.131197
#
# Coordination Sequence:
#
# PCOD9039153 Si02
#       8
#     2   2   2   2   2   2   2   2
#     4  10  23  42  66  97 142 180 220 271 342 419
#     4  12  23  44  70  99 132 178 233 289 337 401
#     4  11  23  40  68 107 136 182 219 284 344 403
#     4  12  25  45  71 102 136 181 231 292 338 401
#     4  11  23  39  69 103 141 173 230 280 341 409
#     4  11  26  43  70 101 143 178 227 279 350 410
#     4  12  26  43  72 100 134 178 235 288 339 405
#     4  11  26  45  66 102 137 184 224 282 345 411
#
# _framework density 21.258520999999998
#
# number of rings (size 3 to 8) (size 9 to 14) (size 15 to 20)
#    0.000    0.750    6.250    0.375    3.500    5.000 
#    0.000    0.625    0.000    0.000    0.000    0.000 
#    0.000    0.000    0.000    0.000    0.000    0.000 
#
# Total GULP energy -89267.099572 kJ/mol
# GULP energy per Si atom -5579.193723 kJ/mol
# Density = 2.121014 g / cm^3
# Si number density = 21.258521 Si / 1000 Ang^3
#
#
#
# Elastic Constant Matrix: (Units=GPa)
#
#
# Indices 1 2 3 4 5 6 
#
# 1 139.8867 38.1765 62.2119 2.7555 9.3369 -30.7786
# 2 38.1765 77.4318 35.6629 22.1105 -0.3937 -19.1691
# 3 62.2119 35.6629 128.1152 14.8650 -12.8188 -10.0674
# 4 2.7555 22.1105 14.8650 26.5703 -6.4280 -0.7500
# 5 9.3369 -0.3937 -12.8188 -6.4280 32.5057 6.6460
# 6 -30.7786 -19.1691 -10.0674 -0.7500 6.6460 30.8899
#
#
#
# Elastic Compliance Matrix: (Units=1/GPa)
#
#
# Indices 1 2 3 4 5 6 
#
# 1 0.013635 -0.001017 -0.006354 0.001217 -0.008813 0.012809
# 2 -0.001017 0.023945 -0.003603 -0.019220 -0.007463 0.013811
# 3 -0.006354 -0.003603 0.012351 -0.001587 0.007610 -0.006218
# 4 0.001217 -0.019220 -0.001587 0.057098 0.012653 -0.012568
# 5 -0.008813 -0.007463 0.007610 0.012653 0.042761 -0.019825
# 6 0.012809 0.013811 -0.006218 -0.012568 -0.019825 0.055640
#
#
# Mechanical properties :
#
#
# Convention : Reuss Voigt Hill
#
# Bulk Modulus (GPa) = 35.73716 68.61515 52.17615
# Shear Modulus (GPa) = 21.12326 31.95200 26.53763
#
# Velocity S-wave (km/s) = 3.15562 3.88109 3.53700
# Velocity P-wave (km/s) = 5.48858 7.24088 6.42475
#
# Compressibility (1/GPa) = 0.02798208
#
# Stress axis : x y z
#
# Youngs Moduli (GPa) = 73.34221 41.76277 80.96527
#
# Poissons Ratio (x) = 0.04247 0.51447
# Poissons Ratio (y) = 0.07459 0.29172
# Poissons Ratio (z) = 0.46603 0.15047
#
# Static dielectric constant tensor:
#      x y z
#    x 1.794180 -0.042890 -0.008300 
#    y -0.042890 1.807450 0.007170 
#    z -0.008300 0.007170 1.820150 
# 
# From -- ./inp_files/109564.got.cif
#   From: 2010.05.17/outbox.cif.g08.bks.cpg/sg2_55_cif.got.tgz:109564.got - 2010.06.03 11:33:40.
