data_PCOD9039431
_publ_section_title
;
Structure prediction by ZEFSAII (Michael W. Deem and Ramdas Pophale) SiO2 
 PCOD9039431
Probable space group: P -1
;
_chemical_formula_sum "Si O2"
_cell_formula_units_Z 16
_cell_length_a 13.532596
_cell_length_b 11.962432
_cell_length_c 13.437331
_cell_angle_alpha 44.112562
_cell_angle_beta 30.084665
_cell_angle_gamma 55.034940
_cell_volume 751.738722
_symmetry_space_group_name_H-M "P -1"
_symmetry_group_IT_number 2
_symmetry_cell_setting 'triclinic'
loop_
_space_group_symop_operation_xyz
x,y,z
-x,-y,-z
loop_
_atom_site_type_symbol
_atom_site_label
_atom_site_fract_x
_atom_site_fract_y
_atom_site_fract_z
Si Si1 0.739688 0.907110 0.890210
Si Si2 0.143681 0.211849 0.562418
Si Si3 0.694718 0.145076 0.963436
Si Si4 0.375951 0.936311 0.498126
Si Si5 0.465146 0.353538 0.350222
Si Si6 0.598651 0.609012 0.934780
Si Si7 0.573016 0.413609 0.589401
Si Si8 0.810430 0.156345 0.492092
O O1 0.961834 0.862421 0.713333
O O2 0.723433 0.018599 0.931066
O O3 0.718470 0.018271 0.739790
O O4 0.589408 0.740899 0.139065
O O5 0.280587 0.309225 0.464341
O O6 0.217482 0.278017 0.346275
O O7 0.911657 0.217791 0.766348
O O8 0.204548 0.031705 0.629164
O O9 0.563058 0.281031 0.955636
O O10 0.567653 0.063076 0.219152
O O11 0.444250 0.804338 0.594945
O O12 0.301183 0.864588 0.502618
O O13 0.397586 0.447685 0.442986
O O14 0.633592 0.481040 0.069140
O O15 0.500000 0.500000 0.000000
O O16 0.500000 0.500000 0.500000
O O17 0.770975 0.330516 0.454250
#
# Coordination Sequence:
#
# PCOD9039431 Si02
#       8
#     2   2   2   2   2   2   2   2
#     4  11  24  39  68  95 117 168 217 256 312 361
#     4  10  23  42  68  93 123 164 218 255 302 374
#     4  11  21  40  69  92 124 163 210 265 301 370
#     4  11  22  42  64  92 129 160 211 260 310 370
#     4  11  23  42  63  92 131 173 195 256 327 366
#     4   9  22  40  63  92 127 161 206 255 311 366
#     4  12  24  42  63  91 136 162 202 259 318 374
#     4  11  23  41  65  95 121 164 218 261 303 369
#
# _framework density 21.283988999999998
#
# number of rings (size 3 to 8) (size 9 to 14) (size 15 to 20)
#    0.000    1.250    3.750    1.500    3.500    3.000 
#    0.000    5.000    0.000    0.000    0.000    0.000 
#    0.000    0.000    0.000    0.000    0.000    0.000 
#
# Total GULP energy -89450.003380 kJ/mol
# GULP energy per Si atom -5590.625211 kJ/mol
# Density = 2.123555 g / cm^3
# Si number density = 21.283989 Si / 1000 Ang^3
#
#
#
# Elastic Constant Matrix: (Units=GPa)
#
#
# Indices 1 2 3 4 5 6 
#
# 1 72.9602 -8.0994 24.1378 -3.9273 12.6696 -7.0945
# 2 -8.0994 46.7275 23.1837 -4.8964 12.5276 -1.8960
# 3 24.1378 23.1837 60.8943 -0.9699 4.8663 -33.2666
# 4 -3.9273 -4.8964 -0.9699 28.2525 -5.7201 3.1483
# 5 12.6696 12.5276 4.8663 -5.7201 26.0914 -5.3777
# 6 -7.0945 -1.8960 -33.2666 3.1483 -5.3777 43.5824
#
#
#
# Elastic Compliance Matrix: (Units=1/GPa)
#
#
# Indices 1 2 3 4 5 6 
#
# 1 0.030073 0.027791 -0.032543 0.005233 -0.025313 -0.022238
# 2 0.027791 0.062094 -0.052196 0.009098 -0.039441 -0.038140
# 3 -0.032543 -0.052196 0.076917 -0.009925 0.035945 0.056295
# 4 0.005233 0.009098 -0.009925 0.038673 0.001581 -0.008927
# 5 -0.025313 -0.039441 0.035945 0.001581 0.069391 0.030049
# 6 -0.022238 -0.038140 0.056295 -0.008927 0.030049 0.064989
#
#
# Mechanical properties :
#
#
# Convention : Reuss Voigt Hill
#
# Bulk Modulus (GPa) = 18.11965 28.78070 23.45017
# Shear Modulus (GPa) = 10.53898 29.00926 19.77412
#
# Velocity S-wave (km/s) = 2.22763 3.69584 3.05136
# Velocity P-wave (km/s) = 3.89207 5.63594 4.84314
#
# Compressibility (1/GPa) = 0.05518871
#
# Stress axis : x y z
#
# Youngs Moduli (GPa) = 33.25275 16.10453 13.00100
#
# Poissons Ratio (x) = -0.44757 0.42310
# Poissons Ratio (y) = -0.92414 0.67860
# Poissons Ratio (z) = 1.08216 0.84059
#
# Static dielectric constant tensor:
#      x y z
#    x 1.771980 0.025020 0.017700 
#    y 0.025020 1.761710 -0.010570 
#    z 0.017700 -0.010570 1.799490 
# 
# From -- ./inp_files/532311.got.cif
#   From: 2010.05.17/outbox.cif.g08.bks.cpg/sg2_267_cif.got.tgz:532311.got - 2010.06.03 11:33:40.
