data_PCOD9039083
_publ_section_title
;
Structure prediction by ZEFSAII (Michael W. Deem and Ramdas Pophale) SiO2 
 PCOD9039083
Probable space group: P -1
;
_chemical_formula_sum "Si O2"
_cell_formula_units_Z 12
_cell_length_a 9.671611
_cell_length_b 13.126431
_cell_length_c 7.843596
_cell_angle_alpha 98.740393
_cell_angle_beta 53.288825
_cell_angle_gamma 57.845644
_cell_volume 487.460912
_symmetry_space_group_name_H-M "P -1"
_symmetry_group_IT_number 2
_symmetry_cell_setting 'triclinic'
loop_
_space_group_symop_operation_xyz
x,y,z
-x,-y,-z
loop_
_atom_site_type_symbol
_atom_site_label
_atom_site_fract_x
_atom_site_fract_y
_atom_site_fract_z
Si Si1 0.232508 0.755225 0.340859
Si Si2 0.197366 0.008030 0.860688
Si Si3 0.565075 0.776036 0.237561
Si Si4 0.504728 0.556866 0.779219
Si Si5 0.898966 0.364617 0.136504
Si Si6 0.413063 0.922651 0.033874
O O1 0.278818 0.613702 0.315664
O O2 0.360078 0.707587 0.045579
O O3 0.649169 0.055189 0.450118
O O4 0.912116 0.935931 0.635794
O O5 0.417326 0.734729 0.330631
O O6 0.035536 0.191896 0.059048
O O7 0.414641 0.890784 0.826331
O O8 0.000000 0.000000 0.000000
O O9 0.588386 0.791265 0.024246
O O10 0.862655 0.663163 0.067354
O O11 0.669881 0.512195 0.477927
O O12 0.256554 0.599848 0.908310
O O13 0.500000 0.000000 0.000000
#
# Coordination Sequence:
#
# PCOD9039083 Si02
#       6
#     2   2   2   2   2   2
#     4  11  23  43  63  95 126 170 215 258 320 377
#     4  12  24  42  67  98 131 164 211 269 325 377
#     4  12  25  42  66 100 129 164 214 268 326 376
#     4  10  23  42  66  84 129 176 212 260 306 382
#     4  11  23  43  63  95 126 170 215 258 320 377
#     4  12  24  42  67  98 131 164 211 269 325 377
#
# _framework density 24.617360000000001
#
# number of rings (size 3 to 8) (size 9 to 14) (size 15 to 20)
#    0.000    0.667    5.000    2.000    4.667    1.333 
#    0.000    0.000    0.000    0.000    0.000    0.000 
#    0.000    0.000    0.000    0.000    0.000    0.000 
#
# Total GULP energy -67104.587310 kJ/mol
# GULP energy per Si atom -5592.048942 kJ/mol
# Density = 2.456133 g / cm^3
# Si number density = 24.617360 Si / 1000 Ang^3
#
#
#
# Elastic Constant Matrix: (Units=GPa)
#
#
# Indices 1 2 3 4 5 6 
#
# 1 140.5995 -10.7777 57.0353 -7.2961 -11.0323 -1.6225
# 2 -10.7777 57.2601 -18.6074 0.4906 7.1260 -4.3077
# 3 57.0353 -18.6074 87.2268 3.7124 9.2771 -0.9629
# 4 -7.2961 0.4906 3.7124 24.0086 -8.0272 4.5799
# 5 -11.0323 7.1260 9.2771 -8.0272 48.0195 -10.2158
# 6 -1.6225 -4.3077 -0.9629 4.5799 -10.2158 34.7396
#
#
#
# Elastic Compliance Matrix: (Units=1/GPa)
#
#
# Indices 1 2 3 4 5 6 
#
# 1 0.011267 -0.001348 -0.008530 0.006504 0.005726 0.000949
# 2 -0.001348 0.019814 0.005768 -0.003565 -0.004605 0.001670
# 3 -0.008530 0.005768 0.019480 -0.008339 -0.008061 -0.000414
# 4 0.006504 -0.003565 -0.008339 0.049398 0.011124 -0.003611
# 5 0.005726 -0.004605 -0.008061 0.011124 0.027539 0.006105
# 6 0.000949 0.001670 -0.000414 -0.003611 0.006105 0.031297
#
#
# Mechanical properties :
#
#
# Convention : Reuss Voigt Hill
#
# Bulk Modulus (GPa) = 23.61755 37.82076 30.71915
# Shear Modulus (GPa) = 27.60446 38.51594 33.06020
#
# Velocity S-wave (km/s) = 3.35228 3.95977 3.66862
# Velocity P-wave (km/s) = 4.95967 6.02521 5.51822
#
# Compressibility (1/GPa) = 0.04234139
#
# Stress axis : x y z
#
# Youngs Moduli (GPa) = 88.75369 50.46893 51.33406
#
# Poissons Ratio (x) = 0.06804 0.43789
# Poissons Ratio (y) = 0.11966 -0.29611
# Poissons Ratio (z) = 0.75709 -0.29112
#
# Static dielectric constant tensor:
#      x y z
#    x 1.897430 0.033310 0.015040 
#    y 0.033310 2.076680 0.010340 
#    z 0.015040 0.010340 1.927190 
# 
# From -- ./inp_files/213240.got.cif
#   From: 2010.05.17/outbox.cif.g08.bks.cpg/sg2_107_cif.got.tgz:213240.got - 2010.06.03 11:33:40.
