data_PCOD9039967
_publ_section_title
;
Structure prediction by ZEFSAII (Michael W. Deem and Ramdas Pophale) SiO2 
 PCOD9039967
Probable space group: P -1
;
_chemical_formula_sum "Si O2"
_cell_formula_units_Z 16
_cell_length_a 5.005479
_cell_length_b 14.390592
_cell_length_c 21.653669
_cell_angle_alpha 156.191484
_cell_angle_beta 102.174569
_cell_angle_gamma 81.383071
_cell_volume 611.796958
_symmetry_space_group_name_H-M "P -1"
_symmetry_group_IT_number 2
_symmetry_cell_setting 'triclinic'
loop_
_space_group_symop_operation_xyz
x,y,z
-x,-y,-z
loop_
_atom_site_type_symbol
_atom_site_label
_atom_site_fract_x
_atom_site_fract_y
_atom_site_fract_z
Si Si1 0.109090 0.075141 0.689526
Si Si2 0.252184 0.670697 0.689967
Si Si3 0.169756 0.237126 0.174316
Si Si4 0.525461 0.924788 0.136379
Si Si5 0.160760 0.498904 0.087674
Si Si6 0.106839 0.584613 0.841687
Si Si7 0.346116 0.141257 0.373022
Si Si8 0.352862 0.169140 0.636867
O O1 0.120639 0.060872 0.606777
O O2 0.067894 0.353816 0.865727
O O3 0.361354 0.936342 0.638753
O O4 0.859221 0.943084 0.634103
O O5 0.968955 0.688313 0.723295
O O6 0.308971 0.408048 0.519435
O O7 0.506460 0.760878 0.801979
O O8 0.294936 0.846756 0.741561
O O9 0.100759 0.400608 0.214684
O O10 0.000000 0.000000 0.000000
O O11 0.310876 0.998941 0.221128
O O12 0.711055 0.742123 0.065506
O O13 0.343368 0.796929 0.994859
O O14 0.426876 0.687982 0.219652
O O15 0.047857 0.451134 0.122510
O O16 0.260781 0.362147 0.704959
O O17 0.500000 0.000000 0.500000
#
# Coordination Sequence:
#
# PCOD9039967 Si02
#       8
#     2   2   2   2   2   2   2   2
#     4  11  25  49  68 109 144 185 251 286 375 416
#     4  12  28  47  74 109 146 190 247 296 367 428
#     4  12  25  45  75 105 146 186 238 308 354 435
#     4  11  26  48  73 104 146 195 250 294 367 423
#     4  10  23  46  71 105 143 188 242 301 353 442
#     4  10  24  42  71 108 143 189 239 292 371 427
#     4  12  28  47  75 105 151 195 239 307 348 438
#     4  10  23  42  73 102 147 187 231 300 360 437
#
# _framework density 26.152470999999998
#
# number of rings (size 3 to 8) (size 9 to 14) (size 15 to 20)
#    0.000    1.000    2.500    2.250    7.000    5.000 
#    0.000    2.500    0.000    0.000    0.000    0.000 
#    0.000    0.000    0.000    0.000    0.000    0.000 
#
# Total GULP energy -89582.872220 kJ/mol
# GULP energy per Si atom -5598.929514 kJ/mol
# Density = 2.609295 g / cm^3
# Si number density = 26.152471 Si / 1000 Ang^3
#
#
#
# Elastic Constant Matrix: (Units=GPa)
#
#
# Indices 1 2 3 4 5 6 
#
# 1 116.6365 29.6847 29.8985 14.5242 -16.4041 15.1617
# 2 29.6847 109.7060 41.0377 29.3598 -6.1023 -0.0491
# 3 29.8985 41.0377 165.5374 17.1886 -33.8696 22.3714
# 4 14.5242 29.3598 17.1886 32.1518 2.3527 -3.2636
# 5 -16.4041 -6.1023 -33.8696 2.3527 36.1752 0.1522
# 6 15.1617 -0.0491 22.3714 -3.2636 0.1522 47.5939
#
#
#
# Elastic Compliance Matrix: (Units=1/GPa)
#
#
# Indices 1 2 3 4 5 6 
#
# 1 0.010673 -0.001612 0.000586 -0.004465 0.005424 -0.004001
# 2 -0.001612 0.012974 -0.001919 -0.010041 0.000311 0.000739
# 3 0.000586 -0.001919 0.009438 -0.004730 0.009107 -0.004978
# 4 -0.004465 -0.010041 -0.004730 0.046331 -0.011189 0.006848
# 5 0.005424 0.000311 0.009107 -0.011189 0.039439 -0.006902
# 6 -0.004001 0.000739 -0.004978 0.006848 -0.006902 0.025118
#
#
# Mechanical properties :
#
#
# Convention : Reuss Voigt Hill
#
# Bulk Modulus (GPa) = 36.77172 65.90243 51.33707
# Shear Modulus (GPa) = 31.46084 42.60144 37.03114
#
# Velocity S-wave (km/s) = 3.47216 4.04042 3.76702
# Velocity P-wave (km/s) = 5.49232 6.85716 6.21234
#
# Compressibility (1/GPa) = 0.02719482
#
# Stress axis : x y z
#
# Youngs Moduli (GPa) = 93.69787 77.07647 105.95354
#
# Poissons Ratio (x) = 0.12426 -0.06209
# Poissons Ratio (y) = 0.15105 0.20331
# Poissons Ratio (z) = -0.05491 0.14790
#
# Static dielectric constant tensor:
#      x y z
#    x 2.068870 -0.076940 0.067370 
#    y -0.076940 2.094110 -0.008950 
#    z 0.067370 -0.008950 2.107200 
# 
# From -- ./inp_files/604787.got.cif
#   From: 2010.05.17/outbox.cif.g08.bks.cpg/sg2_303_cif.got.tgz:604787.got - 2010.06.03 11:33:40.
