data_PCOD9039075
_publ_section_title
;
Structure prediction by ZEFSAII (Michael W. Deem and Ramdas Pophale) SiO2 
 PCOD9039075
Probable space group: P -1
;
_chemical_formula_sum "Si O2"
_cell_formula_units_Z 14
_cell_length_a 7.360427
_cell_length_b 7.031090
_cell_length_c 14.390081
_cell_angle_alpha 68.536748
_cell_angle_beta 94.514554
_cell_angle_gamma 57.071586
_cell_volume 543.750260
_symmetry_space_group_name_H-M "P -1"
_symmetry_group_IT_number 2
_symmetry_cell_setting 'triclinic'
loop_
_space_group_symop_operation_xyz
x,y,z
-x,-y,-z
loop_
_atom_site_type_symbol
_atom_site_label
_atom_site_fract_x
_atom_site_fract_y
_atom_site_fract_z
Si Si1 0.260392 0.680333 0.763947
Si Si2 0.229793 0.448710 0.974762
Si Si3 0.742583 0.536225 0.779709
Si Si4 0.592856 0.984384 0.815869
Si Si5 0.305396 0.306410 0.453685
Si Si6 0.209478 0.502477 0.610397
Si Si7 0.991933 0.001602 0.141353
O O1 0.246476 0.479853 0.859969
O O2 0.513109 0.596895 0.802050
O O3 0.216848 0.680092 0.653563
O O4 0.083097 0.950970 0.761973
O O5 0.425515 0.170160 0.075410
O O6 0.195922 0.709447 0.958823
O O7 0.000000 0.500000 0.000000
O O8 0.734098 0.769922 0.777266
O O9 0.706219 0.555795 0.664873
O O10 0.968367 0.243528 0.858746
O O11 0.356076 0.226857 0.719792
O O12 0.759264 0.054749 0.840973
O O13 0.326173 0.423220 0.527782
O O14 0.057517 0.366029 0.437880
O O15 0.500000 0.000000 0.500000
#
# Coordination Sequence:
#
# PCOD9039075 Si02
#       7
#     2   2   2   2   2   2   2
#     4  10  23  42  66 103 138 174 225 276 335 404
#     4   8  20  41  68 100 137 181 224 265 332 409
#     4  12  24  41  71  97 139 177 223 292 327 395
#     4  11  21  43  71  97 136 183 218 275 338 392
#     4  11  26  45  69 101 130 176 238 274 344 409
#     4  11  24  44  71  96 131 180 225 279 340 401
#     4   9  22  45  62  99 142 171 228 267 331 406
#
# _framework density 25.747111
#
# number of rings (size 3 to 8) (size 9 to 14) (size 15 to 20)
#    0.857    0.857    2.857    0.857    2.000    2.286 
#    0.000    1.429    0.000    0.000    0.000    0.000 
#    0.000    0.000    0.000    0.000    0.000    0.000 
#
# Total GULP energy -78205.577685 kJ/mol
# GULP energy per Si atom -5586.112692 kJ/mol
# Density = 2.568851 g / cm^3
# Si number density = 25.747111 Si / 1000 Ang^3
#
#
#
# Elastic Constant Matrix: (Units=GPa)
#
#
# Indices 1 2 3 4 5 6 
#
# 1 63.0761 9.2580 1.9247 4.2160 -4.8955 -9.0805
# 2 9.2580 135.3376 21.1474 1.7180 4.5948 -5.7725
# 3 1.9247 21.1474 85.7722 30.3811 5.7132 -8.8286
# 4 4.2160 1.7180 30.3811 61.5172 -3.6750 8.5815
# 5 -4.8955 4.5948 5.7132 -3.6750 32.5264 1.6183
# 6 -9.0805 -5.7725 -8.8286 8.5815 1.6183 28.2388
#
#
#
# Elastic Compliance Matrix: (Units=1/GPa)
#
#
# Indices 1 2 3 4 5 6 
#
# 1 0.017224 -0.001147 0.001347 -0.002593 0.001906 0.006404
# 2 -0.001147 0.007829 -0.002087 0.000786 -0.000843 0.000388
# 3 0.001347 -0.002087 0.016703 -0.009691 -0.003949 0.008400
# 4 -0.002593 0.000786 -0.009691 0.022982 0.004342 -0.010936
# 5 0.001906 -0.000843 -0.003949 0.004342 0.032532 -0.003978
# 6 0.006404 0.000388 0.008400 -0.010936 -0.003978 0.043728
#
#
# Mechanical properties :
#
#
# Convention : Reuss Voigt Hill
#
# Bulk Modulus (GPa) = 26.32806 38.76065 32.54435
# Shear Modulus (GPa) = 31.75929 41.24687 36.50308
#
# Velocity S-wave (km/s) = 3.51594 4.00684 3.76939
# Velocity P-wave (km/s) = 5.17014 6.04098 5.62244
#
# Compressibility (1/GPa) = 0.03798229
#
# Stress axis : x y z
#
# Youngs Moduli (GPa) = 58.05720 127.73538 59.86828
#
# Poissons Ratio (x) = 0.14656 -0.08065
# Poissons Ratio (y) = 0.06662 0.12493
# Poissons Ratio (z) = -0.07821 0.26656
#
# Static dielectric constant tensor:
#      x y z
#    x 2.038050 0.000800 0.008930 
#    y 0.000800 2.059020 0.018170 
#    z 0.008930 0.018170 2.078420 
# 
# From -- ./inp_files/490589.got.cif
#   From: 2010.05.17/outbox.cif.g08.bks.cpg/sg2_246_cif.got.tgz:490589.got - 2010.06.03 11:33:40.
