data_PCOD9039112
_publ_section_title
;
Structure prediction by ZEFSAII (Michael W. Deem and Ramdas Pophale) SiO2 
 PCOD9039112
Probable space group: P -1
;
_chemical_formula_sum "Si O2"
_cell_formula_units_Z 16
_cell_length_a 15.415917
_cell_length_b 14.549978
_cell_length_c 13.577946
_cell_angle_alpha 38.835495
_cell_angle_beta 140.772234
_cell_angle_gamma 159.951409
_cell_volume 641.556447
_symmetry_space_group_name_H-M "P -1"
_symmetry_group_IT_number 2
_symmetry_cell_setting 'triclinic'
loop_
_space_group_symop_operation_xyz
x,y,z
-x,-y,-z
loop_
_atom_site_type_symbol
_atom_site_label
_atom_site_fract_x
_atom_site_fract_y
_atom_site_fract_z
Si Si1 0.704608 0.871214 0.512662
Si Si2 0.346744 0.852374 0.788242
Si Si3 0.775172 0.675831 0.087299
Si Si4 0.775677 0.554273 0.408302
Si Si5 0.389378 0.053104 0.899722
Si Si6 0.855950 0.699855 0.758157
Si Si7 0.605331 0.081412 0.633647
Si Si8 0.985290 0.706833 0.069697
O O1 0.481762 0.637600 0.593847
O O2 0.765328 0.779617 0.581602
O O3 0.635635 0.961189 0.320538
O O4 0.976786 0.157208 0.561889
O O5 0.103075 0.527242 0.864132
O O6 0.583069 0.969782 0.941023
O O7 0.368950 0.882123 0.666165
O O8 0.797938 0.617612 0.261083
O O9 0.778746 0.574189 0.080230
O O10 0.500000 0.500000 0.000000
O O11 0.000000 0.000000 0.000000
O O12 0.773745 0.377482 0.554856
O O13 0.099576 0.844153 0.798404
O O14 0.500000 0.000000 0.000000
O O15 0.602103 0.369979 0.805106
O O16 0.959728 0.798499 0.880964
O O17 0.773983 0.099120 0.806339
O O18 0.500000 0.000000 0.500000
#
# Coordination Sequence:
#
# PCOD9039112 Si02
#       8
#     2   2   2   2   2   2   2   2
#     4  11  23  42  66  94 131 171 212 269 331 386
#     4  10  23  42  66  94 130 173 218 268 326 389
#     4  12  27  39  56  85 126 171 221 277 319 368
#     4  11  23  40  58  89 126 174 222 267 319 376
#     4  11  24  45  72 101 130 168 216 265 324 399
#     4  11  23  43  69  98 131 169 212 268 330 390
#     4  11  23  37  63  91 127 172 226 274 312 378
#     4  11  23  40  64  88 126 177 224 268 323 385
#
# _framework density 24.939350000000001
#
# number of rings (size 3 to 8) (size 9 to 14) (size 15 to 20)
#    0.000    1.000    2.500    4.125    7.000    2.000 
#    0.000    1.250    0.000    0.000    0.000    0.000 
#    0.000    0.000    0.000    0.000    0.000    0.000 
#
# Total GULP energy -89382.018645 kJ/mol
# GULP energy per Si atom -5586.376165 kJ/mol
# Density = 2.488259 g / cm^3
# Si number density = 24.939350 Si / 1000 Ang^3
#
#
#
# Elastic Constant Matrix: (Units=GPa)
#
#
# Indices 1 2 3 4 5 6 
#
# 1 78.4616 15.5814 15.0187 -5.0849 16.6779 16.9837
# 2 15.5814 122.4338 31.3212 -15.3063 10.7430 23.8940
# 3 15.0187 31.3212 95.4157 -11.0897 29.8290 -0.0955
# 4 -5.0849 -15.3063 -11.0897 34.2426 -2.1481 3.5394
# 5 16.6779 10.7430 29.8290 -2.1481 42.6948 -2.5758
# 6 16.9837 23.8940 -0.0955 3.5394 -2.5758 39.7315
#
#
#
# Elastic Compliance Matrix: (Units=1/GPa)
#
#
# Indices 1 2 3 4 5 6 
#
# 1 0.015956 0.000504 -0.000332 0.002889 -0.006453 -0.007800
# 2 0.000504 0.010930 -0.002736 0.004752 -0.001237 -0.007299
# 3 -0.000332 -0.002736 0.014634 0.002789 -0.009207 0.000977
# 4 0.002889 0.004752 0.002789 0.033217 -0.003038 -0.007242
# 5 -0.006453 -0.001237 -0.009207 -0.003038 0.032889 0.005883
# 6 -0.007800 -0.007299 0.000977 -0.007242 0.005883 0.033921
#
#
# Mechanical properties :
#
#
# Convention : Reuss Voigt Hill
#
# Bulk Modulus (GPa) = 27.47736 46.68376 37.08056
# Shear Modulus (GPa) = 31.48499 38.95977 35.22238
#
# Velocity S-wave (km/s) = 3.55697 3.95673 3.76216
# Velocity P-wave (km/s) = 5.28308 6.29554 5.81140
#
# Compressibility (1/GPa) = 0.03639359
#
# Stress axis : x y z
#
# Youngs Moduli (GPa) = 62.67320 91.48795 68.33361
#
# Poissons Ratio (x) = -0.04609 0.02266
# Poissons Ratio (y) = -0.03158 0.18693
# Poissons Ratio (z) = 0.02078 0.25028
#
# Static dielectric constant tensor:
#      x y z
#    x 2.164020 -0.053270 -0.052120 
#    y -0.053270 1.988160 -0.020180 
#    z -0.052120 -0.020180 2.132240 
# 
# From -- ./inp_files/52098.got.cif
#   From: 2010.05.17/outbox.cif.g08.bks.cpg/sg2_27_cif.got.tgz:52098.got - 2010.06.03 11:33:40.
