data_PCOD9039488
_publ_section_title
;
Structure prediction by ZEFSAII (Michael W. Deem and Ramdas Pophale) SiO2 
 PCOD9039488
Probable space group: P -1
;
_chemical_formula_sum "Si O2"
_cell_formula_units_Z 14
_cell_length_a 18.221746
_cell_length_b 7.445844
_cell_length_c 10.070912
_cell_angle_alpha 45.686835
_cell_angle_beta 37.360105
_cell_angle_gamma 44.599156
_cell_volume 553.260429
_symmetry_space_group_name_H-M "P -1"
_symmetry_group_IT_number 2
_symmetry_cell_setting 'triclinic'
loop_
_space_group_symop_operation_xyz
x,y,z
-x,-y,-z
loop_
_atom_site_type_symbol
_atom_site_label
_atom_site_fract_x
_atom_site_fract_y
_atom_site_fract_z
Si Si1 0.142855 0.813929 0.448782
Si Si2 0.687484 0.519588 0.991285
Si Si3 0.043063 0.731226 0.163147
Si Si4 0.125471 0.530599 0.864987
Si Si5 0.565454 0.224735 0.462269
Si Si6 0.332582 0.101348 0.919174
Si Si7 0.223573 0.252555 0.479555
O O1 0.141158 0.776725 0.631508
O O2 0.181179 0.503145 0.510728
O O3 0.000000 0.000000 0.500000
O O4 0.254884 0.913192 0.178248
O O5 0.838248 0.315798 0.884742
O O6 0.674449 0.701108 0.789971
O O7 0.594758 0.349796 0.219423
O O8 0.667528 0.717298 0.043515
O O9 0.911469 0.713243 0.416560
O O10 0.097257 0.536445 0.060496
O O11 0.000000 0.000000 0.000000
O O12 0.255097 0.271392 0.815512
O O13 0.000000 0.500000 0.000000
O O14 0.500000 0.500000 0.500000
O O15 0.479656 0.039865 0.689389
O O16 0.707435 0.042055 0.406849
#
# Coordination Sequence:
#
# PCOD9039488 Si02
#       7
#     2   2   2   2   2   2   2
#     4  12  25  41  67  97 134 172 214 267 330 396
#     4  10  23  42  68  98 131 167 220 276 325 385
#     4  11  22  38  67 100 128 166 215 271 328 381
#     4  11  22  43  65  90 135 173 209 267 333 381
#     4  10  24  46  65  94 133 173 223 270 325 388
#     4  10  24  42  66  97 125 175 222 262 327 395
#     4  12  25  41  67  99 135 171 218 272 330 386
#
# _framework density 25.304542000000001
#
# number of rings (size 3 to 8) (size 9 to 14) (size 15 to 20)
#    0.000    1.143    4.286    1.286    4.000    5.143 
#    0.000    1.429    0.000    0.000    0.000    0.000 
#    0.000    0.000    0.000    0.000    0.000    0.000 
#
# Total GULP energy -78073.037680 kJ/mol
# GULP energy per Si atom -5576.645549 kJ/mol
# Density = 2.524695 g / cm^3
# Si number density = 25.304542 Si / 1000 Ang^3
#
#
#
# Elastic Constant Matrix: (Units=GPa)
#
#
# Indices 1 2 3 4 5 6 
#
# 1 52.7858 9.8087 17.3351 -0.1887 -2.1479 -5.3538
# 2 9.8087 78.2798 2.8568 -11.3286 -8.3901 1.0221
# 3 17.3351 2.8568 214.6624 -18.8817 -8.7336 -13.9686
# 4 -0.1887 -11.3286 -18.8817 28.6383 -10.6629 3.5751
# 5 -2.1479 -8.3901 -8.7336 -10.6629 39.2866 -4.0043
# 6 -5.3538 1.0221 -13.9686 3.5751 -4.0043 34.8213
#
#
#
# Elastic Compliance Matrix: (Units=1/GPa)
#
#
# Indices 1 2 3 4 5 6 
#
# 1 0.020292 -0.002923 -0.001658 -0.002573 -0.000299 0.002770
# 2 -0.002923 0.014968 0.000979 0.008704 0.005540 -0.000753
# 3 -0.001658 0.000979 0.005426 0.004780 0.002798 0.001724
# 4 -0.002573 0.008704 0.004780 0.047489 0.015484 -0.001829
# 5 -0.000299 0.005540 0.002798 0.015484 0.031748 0.002975
# 6 0.002770 -0.000753 0.001724 -0.001829 0.002975 0.030387
#
#
# Mechanical properties :
#
#
# Convention : Reuss Voigt Hill
#
# Bulk Modulus (GPa) = 29.86656 45.08103 37.47380
# Shear Modulus (GPa) = 29.64272 41.59773 35.62022
#
# Velocity S-wave (km/s) = 3.42634 4.05888 3.75595
# Velocity P-wave (km/s) = 5.24229 6.31032 5.80093
#
# Compressibility (1/GPa) = 0.03348227
#
# Stress axis : x y z
#
# Youngs Moduli (GPa) = 49.28126 66.80724 184.30483
#
# Poissons Ratio (x) = 0.19526 0.30557
# Poissons Ratio (y) = 0.14403 -0.18041
# Poissons Ratio (z) = 0.08171 -0.06539
#
# Static dielectric constant tensor:
#      x y z
#    x 1.978270 -0.116310 -0.046720 
#    y -0.116310 1.650420 -0.158210 
#    z -0.046720 -0.158210 1.985630 
# 
# From -- ./inp_files/469106.got.cif
#   From: 2010.05.17/outbox.cif.g08.bks.cpg/sg2_235_cif.got.tgz:469106.got - 2010.06.03 11:33:40.
