data_PCOD9039297
_publ_section_title
;
Structure prediction by ZEFSAII (Michael W. Deem and Ramdas Pophale) SiO2 
 PCOD9039297
Probable space group: P -1
;
_chemical_formula_sum "Si O2"
_cell_formula_units_Z 14
_cell_length_a 5.542707
_cell_length_b 15.120686
_cell_length_c 14.810748
_cell_angle_alpha 32.736358
_cell_angle_beta 80.221588
_cell_angle_gamma 65.717421
_cell_volume 571.497234
_symmetry_space_group_name_H-M "P -1"
_symmetry_group_IT_number 2
_symmetry_cell_setting 'triclinic'
loop_
_space_group_symop_operation_xyz
x,y,z
-x,-y,-z
loop_
_atom_site_type_symbol
_atom_site_label
_atom_site_fract_x
_atom_site_fract_y
_atom_site_fract_z
Si Si1 0.310637 0.615723 0.615011
Si Si2 0.901640 0.284828 0.920830
Si Si3 0.059537 0.480187 0.881573
Si Si4 0.829336 0.702185 0.284217
Si Si5 0.309360 0.877356 0.544268
Si Si6 0.175303 0.848034 0.245509
Si Si7 0.362948 0.230279 0.217686
O O1 0.598316 0.417150 0.779786
O O2 0.069581 0.592821 0.698273
O O3 0.336287 0.764869 0.549547
O O4 0.238159 0.697326 0.450495
O O5 0.914544 0.366314 0.948332
O O6 0.110925 0.308395 0.817157
O O7 0.009156 0.062995 0.107424
O O8 0.946883 0.638261 0.831719
O O9 0.352293 0.315103 0.048245
O O10 0.491767 0.795549 0.239447
O O11 0.000000 0.500000 0.500000
O O12 0.971724 0.821674 0.210951
O O13 0.467398 0.744867 0.733349
O O14 0.431231 0.016646 0.395141
O O15 0.000000 0.000000 0.500000
#
# Coordination Sequence:
#
# PCOD9039297 Si02
#       7
#     2   2   2   2   2   2   2
#     4  12  26  44  72 104 144 190 244 303 363 433
#     4  12  27  47  73 107 146 185 247 296 367 441
#     4  11  24  43  68 101 138 187 241 303 357 431
#     4  12  26  52  81 107 151 193 239 304 373 437
#     4  11  22  43  65  99 138 188 238 296 361 428
#     4  12  29  49  78 112 147 195 240 304 370 441
#     4  10  23  42  67  95 140 185 242 298 362 426
#
# _framework density 24.497057000000002
#
# number of rings (size 3 to 8) (size 9 to 14) (size 15 to 20)
#    0.000    0.571    4.286    3.000    4.000    2.857 
#    0.000    0.000    0.000    0.000    0.000    0.000 
#    0.000    0.000    0.000    0.000    0.000    0.000 
#
# Total GULP energy -78230.263724 kJ/mol
# GULP energy per Si atom -5587.875980 kJ/mol
# Density = 2.444130 g / cm^3
# Si number density = 24.497057 Si / 1000 Ang^3
#
#
#
# Elastic Constant Matrix: (Units=GPa)
#
#
# Indices 1 2 3 4 5 6 
#
# 1 59.3649 24.6708 11.0556 -11.0394 -6.9943 16.6528
# 2 24.6708 80.4129 23.6249 -17.0624 -5.4564 23.7229
# 3 11.0556 23.6249 91.8372 -6.6489 9.7562 2.1642
# 4 -11.0394 -17.0624 -6.6489 51.9996 4.6962 -0.1929
# 5 -6.9943 -5.4564 9.7562 4.6962 32.5277 -0.9640
# 6 16.6528 23.7229 2.1642 -0.1929 -0.9640 44.2605
#
#
#
# Elastic Compliance Matrix: (Units=1/GPa)
#
#
# Indices 1 2 3 4 5 6 
#
# 1 0.021243 -0.003364 -0.001767 0.002801 0.003951 -0.006005
# 2 -0.003364 0.018210 -0.004044 0.004474 0.002655 -0.008220
# 3 -0.001767 -0.004044 0.012632 0.000358 -0.004836 0.002111
# 4 0.002801 0.004474 0.000358 0.021504 -0.001960 -0.003418
# 5 0.003951 0.002655 -0.004836 -0.001960 0.033714 -0.001947
# 6 -0.006005 -0.008220 0.002111 -0.003418 -0.001947 0.029098
#
#
# Mechanical properties :
#
#
# Convention : Reuss Voigt Hill
#
# Bulk Modulus (GPa) = 29.64368 38.92416 34.28392
# Shear Modulus (GPa) = 30.12118 37.24180 33.68149
#
# Velocity S-wave (km/s) = 3.51035 3.90328 3.71201
# Velocity P-wave (km/s) = 5.34390 6.01979 5.69189
#
# Compressibility (1/GPa) = 0.03373400
#
# Stress axis : x y z
#
# Youngs Moduli (GPa) = 47.07432 54.91375 79.16530
#
# Poissons Ratio (x) = 0.18475 0.13991
# Poissons Ratio (y) = 0.15837 0.32014
# Poissons Ratio (z) = 0.08319 0.22207
#
# Static dielectric constant tensor:
#      x y z
#    x 1.980960 0.041830 -0.083720 
#    y 0.041830 1.864690 0.101730 
#    z -0.083720 0.101730 1.887050 
# 
# From -- ./inp_files/39095.got.cif
#   From: 2010.05.17/outbox.cif.g08.bks.cpg/sg2_20_cif.got.tgz:39095.got - 2010.06.03 11:33:40.
