data_PCOD9039625
_publ_section_title
;
Structure prediction by ZEFSAII (Michael W. Deem and Ramdas Pophale) SiO2 
 PCOD9039625
Probable space group: P -1
;
_chemical_formula_sum "Si O2"
_cell_formula_units_Z 16
_cell_length_a 28.973773
_cell_length_b 23.242116
_cell_length_c 18.437958
_cell_angle_alpha 160.279788
_cell_angle_beta 159.730257
_cell_angle_gamma 10.525811
_cell_volume 749.293056
_symmetry_space_group_name_H-M "P -1"
_symmetry_group_IT_number 2
_symmetry_cell_setting 'triclinic'
loop_
_space_group_symop_operation_xyz
x,y,z
-x,-y,-z
loop_
_atom_site_type_symbol
_atom_site_label
_atom_site_fract_x
_atom_site_fract_y
_atom_site_fract_z
Si Si1 0.454886 0.246039 0.198308
Si Si2 0.901546 0.778833 0.000491
Si Si3 0.000720 0.878622 0.069611
Si Si4 0.774445 0.219031 0.984854
Si Si5 0.628487 0.035984 0.753441
Si Si6 0.625007 0.496140 0.351315
Si Si7 0.455780 0.562320 0.682837
Si Si8 0.996822 0.387481 0.791905
O O1 0.423446 0.425365 0.426318
O O2 0.718010 0.006276 0.260811
O O3 0.182371 0.534683 0.097670
O O4 0.500000 0.000000 0.000000
O O5 0.949260 0.554367 0.848896
O O6 0.702684 0.962306 0.860293
O O7 0.788420 0.044516 0.203957
O O8 0.300704 0.595765 0.173858
O O9 0.856313 0.135232 0.226727
O O10 0.883448 0.078284 0.058453
O O11 0.896655 0.799062 0.828853
O O12 0.600499 0.249349 0.738573
O O13 0.578561 0.592206 0.131895
O O14 0.000000 0.000000 0.000000
O O15 0.500000 0.000000 0.500000
O O16 0.506796 0.536231 0.295354
O O17 0.761521 0.516483 0.601961
O O18 0.000000 0.500000 0.000000
#
# Coordination Sequence:
#
# PCOD9039625 Si02
#       8
#     2   2   2   2   2   2   2   2
#     4  10  23  42  69  97 133 180 226 277 342 406
#     4  11  24  44  66 102 143 175 229 290 346 402
#     4  11  23  43  71  98 135 184 228 270 349 409
#     4  11  22  43  68  99 131 180 234 273 339 416
#     4  11  25  44  67 101 140 176 229 287 343 399
#     4  11  21  41  69  96 135 176 230 274 338 409
#     4  12  22  45  71 103 139 175 227 290 339 413
#     4  11  25  45  66 102 138 180 234 279 343 417
#
# _framework density 21.353459999999998
#
# number of rings (size 3 to 8) (size 9 to 14) (size 15 to 20)
#    0.000    1.000    5.000    3.375    3.500    1.000 
#    4.500    3.125    0.000    0.000    0.000    0.000 
#    0.000    0.000    0.000    0.000    0.000    0.000 
#
# Total GULP energy -89337.534947 kJ/mol
# GULP energy per Si atom -5583.595934 kJ/mol
# Density = 2.130486 g / cm^3
# Si number density = 21.353460 Si / 1000 Ang^3
#
#
#
# Elastic Constant Matrix: (Units=GPa)
#
#
# Indices 1 2 3 4 5 6 
#
# 1 70.5909 7.4263 25.1386 -5.9191 2.7142 -14.9774
# 2 7.4263 87.8173 42.5460 -12.7744 4.7754 -15.1131
# 3 25.1386 42.5460 147.7673 -25.4580 3.5481 -9.2752
# 4 -5.9191 -12.7744 -25.4580 25.0732 -8.6651 -2.8971
# 5 2.7142 4.7754 3.5481 -8.6651 33.5451 -5.9682
# 6 -14.9774 -15.1131 -9.2752 -2.8971 -5.9682 29.0530
#
#
#
# Elastic Compliance Matrix: (Units=1/GPa)
#
#
# Indices 1 2 3 4 5 6 
#
# 1 0.017132 0.001837 -0.002078 0.004531 0.001501 0.009884
# 2 0.001837 0.015071 -0.003015 0.006493 0.001255 0.008729
# 3 -0.002078 -0.003015 0.009519 0.008559 0.002101 0.001684
# 4 0.004531 0.006493 0.008559 0.060795 0.016699 0.017938
# 5 0.001501 0.001255 0.002101 0.016699 0.035571 0.011070
# 6 0.009884 0.008729 0.001684 0.017938 0.011070 0.048657
#
#
# Mechanical properties :
#
#
# Convention : Reuss Voigt Hill
#
# Bulk Modulus (GPa) = 28.40246 50.71083 39.55664
# Shear Modulus (GPa) = 24.39066 32.93858 28.66462
#
# Velocity S-wave (km/s) = 3.38336 3.93178 3.66784
# Velocity P-wave (km/s) = 5.34723 6.66421 6.04171
#
# Compressibility (1/GPa) = 0.03520822
#
# Stress axis : x y z
#
# Youngs Moduli (GPa) = 58.36895 66.35049 105.05287
#
# Poissons Ratio (x) = -0.12186 0.21835
# Poissons Ratio (y) = -0.10720 0.31679
# Poissons Ratio (z) = 0.12132 0.20008
#
# Static dielectric constant tensor:
#      x y z
#    x 1.789720 -0.003510 0.028430 
#    y -0.003510 1.782970 -0.007610 
#    z 0.028430 -0.007610 1.797520 
# 
# From -- ./inp_files/580212.got.cif
#   From: 2010.05.17/outbox.cif.g08.bks.cpg/sg2_291_cif.got.tgz:580212.got - 2010.06.03 11:33:40.
