data_PCOD9039543
_publ_section_title
;
Structure prediction by ZEFSAII (Michael W. Deem and Ramdas Pophale) SiO2 
 PCOD9039543
Probable space group: P -1
;
_chemical_formula_sum "Si O2"
_cell_formula_units_Z 16
_cell_length_a 5.921708
_cell_length_b 9.541816
_cell_length_c 19.551780
_cell_angle_alpha 122.549907
_cell_angle_beta 119.204384
_cell_angle_gamma 98.223331
_cell_volume 678.222725
_symmetry_space_group_name_H-M "P -1"
_symmetry_group_IT_number 2
_symmetry_cell_setting 'triclinic'
loop_
_space_group_symop_operation_xyz
x,y,z
-x,-y,-z
loop_
_atom_site_type_symbol
_atom_site_label
_atom_site_fract_x
_atom_site_fract_y
_atom_site_fract_z
Si Si1 0.359936 0.820846 0.125977
Si Si2 0.653863 0.378041 0.490203
Si Si3 0.672297 0.568335 0.942859
Si Si4 0.740322 0.833045 0.369051
Si Si5 0.687212 0.268572 0.310471
Si Si6 0.665656 0.595993 0.784280
Si Si7 0.300747 0.950421 0.388910
Si Si8 0.676431 0.214055 0.047240
O O1 0.429537 0.652524 0.108055
O O2 0.615976 0.046331 0.244509
O O3 0.314696 0.835819 0.043085
O O4 0.001113 0.716833 0.069418
O O5 0.500000 0.500000 0.500000
O O6 0.678411 0.324956 0.402099
O O7 0.987281 0.537153 0.615123
O O8 0.425005 0.167715 0.436024
O O9 0.688187 0.581219 0.865745
O O10 0.458398 0.649938 0.944656
O O11 0.600518 0.625300 0.332923
O O12 0.443478 0.858122 0.333278
O O13 0.942498 0.843029 0.334740
O O14 0.000000 0.000000 0.500000
O O15 0.422835 0.258221 0.221283
O O16 0.006357 0.662441 0.830789
O O17 0.500000 0.000000 0.500000
O O18 0.500000 0.000000 0.000000
#
# Coordination Sequence:
#
# PCOD9039543 Si02
#       8
#     2   2   2   2   2   2   2   2
#     4  10  23  45  69 101 140 186 230 296 364 436
#     4  11  28  44  66 100 139 189 244 303 364 440
#     4  10  23  43  70 104 141 177 239 294 359 441
#     4  10  23  42  69 101 137 188 240 302 356 432
#     4  11  25  46  68  97 144 187 241 297 368 441
#     4  11  25  42  70 100 138 188 240 294 368 434
#     4  10  23  43  71  95 138 182 244 298 365 423
#     4  11  23  43  71 106 142 181 234 297 367 439
#
# _framework density 23.591066999999999
#
# number of rings (size 3 to 8) (size 9 to 14) (size 15 to 20)
#    0.000    1.500    0.000    3.375   10.500    5.000 
#    0.000    0.000    0.000    0.000    0.000    0.000 
#    0.000    0.000    0.000    0.000    0.000    0.000 
#
# Total GULP energy -89186.136163 kJ/mol
# GULP energy per Si atom -5574.133510 kJ/mol
# Density = 2.353737 g / cm^3
# Si number density = 23.591067 Si / 1000 Ang^3
#
#
#
# Elastic Constant Matrix: (Units=GPa)
#
#
# Indices 1 2 3 4 5 6 
#
# 1 98.6461 45.3912 27.9646 19.7709 23.8670 -22.4604
# 2 45.3912 153.0606 34.5731 15.1265 18.6931 -19.8910
# 3 27.9646 34.5731 92.3876 15.5871 15.5804 -9.5367
# 4 19.7709 15.1265 15.5871 39.0520 0.0814 -7.5918
# 5 23.8670 18.6931 15.5804 0.0814 32.7517 -3.4828
# 6 -22.4604 -19.8910 -9.5367 -7.5918 -3.4828 40.1212
#
#
#
# Elastic Compliance Matrix: (Units=1/GPa)
#
#
# Indices 1 2 3 4 5 6 
#
# 1 0.016167 -0.002085 -0.000916 -0.005852 -0.009518 0.005866
# 2 -0.002085 0.008163 -0.001677 -0.001024 -0.002116 0.002104
# 3 -0.000916 -0.001677 0.013253 -0.004042 -0.004602 0.000642
# 4 -0.005852 -0.001024 -0.004042 0.030895 0.006875 0.001699
# 5 -0.009518 -0.002116 -0.004602 0.006875 0.040567 -0.002649
# 6 0.005866 0.002104 0.000642 0.001699 -0.002649 0.029496
#
#
# Mechanical properties :
#
#
# Convention : Reuss Voigt Hill
#
# Bulk Modulus (GPa) = 35.42464 62.21690 48.82077
# Shear Modulus (GPa) = 31.78519 38.12933 34.95726
#
# Velocity S-wave (km/s) = 3.67460 4.02464 3.85359
# Velocity P-wave (km/s) = 5.74911 6.93017 6.36708
#
# Compressibility (1/GPa) = 0.02822894
#
# Stress axis : x y z
#
# Youngs Moduli (GPa) = 61.85314 122.49701 75.45449
#
# Poissons Ratio (x) = 0.25537 0.06909
# Poissons Ratio (y) = 0.12894 0.12655
# Poissons Ratio (z) = 0.05663 0.20544
#
# Static dielectric constant tensor:
#      x y z
#    x 2.075480 0.011330 0.021180 
#    y 0.011330 1.939180 0.114580 
#    z 0.021180 0.114580 2.017340 
# 
# From -- ./inp_files/604035.got.cif
#   From: 2010.05.17/outbox.cif.g08.bks.cpg/sg2_303_cif.got.tgz:604035.got - 2010.06.03 11:33:40.
