data_PCOD9039931
_publ_section_title
;
Structure prediction by ZEFSAII (Michael W. Deem and Ramdas Pophale) SiO2 
 PCOD9039931
Probable space group: P -1
;
_chemical_formula_sum "Si O2"
_cell_formula_units_Z 15
_cell_length_a 5.129151
_cell_length_b 12.513318
_cell_length_c 9.356071
_cell_angle_alpha 115.818931
_cell_angle_beta 91.441268
_cell_angle_gamma 95.734292
_cell_volume 536.265159
_symmetry_space_group_name_H-M "P -1"
_symmetry_group_IT_number 2
_symmetry_cell_setting 'triclinic'
loop_
_space_group_symop_operation_xyz
x,y,z
-x,-y,-z
loop_
_atom_site_type_symbol
_atom_site_label
_atom_site_fract_x
_atom_site_fract_y
_atom_site_fract_z
Si Si1 0.005164 0.628773 0.405115
Si Si2 0.276672 0.169275 0.537701
Si Si3 0.167240 0.314788 0.132268
Si Si4 0.714199 0.294551 0.829976
Si Si5 0.258632 0.047816 0.943822
Si Si6 0.694982 0.375165 0.327581
Si Si7 0.903653 0.059833 0.707902
Si Si8 0.000000 0.500000 0.000000
O O1 0.834886 0.733023 0.501982
O O2 0.843281 0.504874 0.367727
O O3 0.062497 0.633628 0.236681
O O4 0.263457 0.646784 0.516062
O O5 0.488137 0.234890 0.687346
O O6 0.021632 0.118397 0.598127
O O7 0.322189 0.050181 0.383852
O O8 0.397250 0.371429 0.274005
O O9 0.888446 0.293461 0.200755
O O10 0.277842 0.191208 0.022496
O O11 0.137172 0.401737 0.049364
O O12 0.708529 0.413933 0.987402
O O13 0.798158 0.177490 0.841445
O O14 0.149431 0.013980 0.764311
O O15 0.500000 0.000000 0.000000
O O16 0.000000 0.000000 0.000000
#
# Coordination Sequence:
#
# PCOD9039931 Si02
#       8
#     2   2   2   2   2   2   2   1
#     4  10  24  41  67 104 143 187 242 301 366 441
#     4  10  23  42  72  96 141 187 251 304 366 426
#     4  12  27  48  75 109 143 202 241 307 372 443
#     4  11  22  44  69 106 138 195 237 315 369 440
#     4  12  29  49  75 108 152 198 247 306 374 453
#     4  11  26  45  71 106 148 187 245 300 374 445
#     4  10  24  45  65 105 136 193 251 305 359 441
#     4  12  24  46  74 108 152 186 258 298 376 444
#
# _framework density 27.971233999999999
#
# number of rings (size 3 to 8) (size 9 to 14) (size 15 to 20)
#    0.000    1.067    2.667    2.000    7.467    2.667 
#    0.000    0.000    0.000    0.000    0.000    0.000 
#    0.000    0.000    0.000    0.000    0.000    0.000 
#
# Total GULP energy -83735.298445 kJ/mol
# GULP energy per Si atom -5582.353230 kJ/mol
# Density = 2.790757 g / cm^3
# Si number density = 27.971234 Si / 1000 Ang^3
#
#
#
# Elastic Constant Matrix: (Units=GPa)
#
#
# Indices 1 2 3 4 5 6 
#
# 1 136.0491 53.0271 42.4614 -9.8974 24.0223 -22.8435
# 2 53.0271 138.7510 59.7730 3.3906 35.0904 -45.6222
# 3 42.4614 59.7730 117.4928 -17.6862 37.5482 -16.4726
# 4 -9.8974 3.3906 -17.6862 72.0854 3.0932 9.1111
# 5 24.0223 35.0904 37.5482 3.0932 56.0572 -12.6122
# 6 -22.8435 -45.6222 -16.4726 9.1111 -12.6122 37.3457
#
#
#
# Elastic Compliance Matrix: (Units=1/GPa)
#
#
# Indices 1 2 3 4 5 6 
#
# 1 0.009190 -0.001861 -0.001553 0.000768 -0.001319 0.002030
# 2 -0.001861 0.016369 -0.005367 -0.004409 -0.001795 0.016960
# 3 -0.001553 -0.005367 0.013901 0.004319 -0.006570 -0.004647
# 4 0.000768 -0.004409 0.004319 0.016404 -0.003188 -0.008090
# 5 -0.001319 -0.001795 -0.006570 -0.003188 0.024840 0.003269
# 6 0.002030 0.016960 -0.004647 -0.008090 0.003269 0.049765
#
#
# Mechanical properties :
#
#
# Convention : Reuss Voigt Hill
#
# Bulk Modulus (GPa) = 45.66599 78.09066 61.87832
# Shear Modulus (GPa) = 32.18957 48.89977 40.54467
#
# Velocity S-wave (km/s) = 3.39604 4.18570 3.81138
# Velocity P-wave (km/s) = 5.63373 7.16512 6.44507
#
# Compressibility (1/GPa) = 0.02189813
#
# Stress axis : x y z
#
# Youngs Moduli (GPa) = 108.81564 61.09202 71.93737
#
# Poissons Ratio (x) = 0.11369 0.11169
# Poissons Ratio (y) = 0.20250 0.38609
# Poissons Ratio (z) = 0.16895 0.32789
#
# Static dielectric constant tensor:
#      x y z
#    x 2.179520 0.232870 0.312820 
#    y 0.232870 2.921490 -0.378220 
#    z 0.312820 -0.378220 0.945910 
# 
# From -- ./inp_files/70786.got.cif
#   From: 2010.05.17/outbox.cif.g08.bks.cpg/sg2_36_cif.got.tgz:70786.got - 2010.06.03 11:33:40.
