data_PCOD9039155
_publ_section_title
;
Structure prediction by ZEFSAII (Michael W. Deem and Ramdas Pophale) SiO2 
 PCOD9039155
Probable space group: P -1
;
_chemical_formula_sum "Si O2"
_cell_formula_units_Z 16
_cell_length_a 9.332188
_cell_length_b 10.937209
_cell_length_c 12.226052
_cell_angle_alpha 51.120136
_cell_angle_beta 130.085193
_cell_angle_gamma 95.177937
_cell_volume 631.603766
_symmetry_space_group_name_H-M "P -1"
_symmetry_group_IT_number 2
_symmetry_cell_setting 'triclinic'
loop_
_space_group_symop_operation_xyz
x,y,z
-x,-y,-z
loop_
_atom_site_type_symbol
_atom_site_label
_atom_site_fract_x
_atom_site_fract_y
_atom_site_fract_z
Si Si1 0.019440 0.474010 0.268664
Si Si2 0.372551 0.392836 0.669031
Si Si3 0.284951 0.645347 0.882508
Si Si4 0.771411 0.875577 0.980114
Si Si5 0.053922 0.801119 0.367113
Si Si6 0.636710 0.076509 0.581820
Si Si7 0.699287 0.500822 0.781845
Si Si8 0.636120 0.058480 0.152533
O O1 0.220801 0.405520 0.488575
O O2 0.086864 0.531389 0.156685
O O3 0.928987 0.340147 0.283584
O O4 0.825072 0.667201 0.113046
O O5 0.575352 0.409372 0.715765
O O6 0.480285 0.213146 0.898591
O O7 0.214843 0.579150 0.560264
O O8 0.284026 0.565811 0.047683
O O9 0.284905 0.831772 0.794403
O O10 0.500000 0.500000 0.000000
O O11 0.773840 0.948719 0.821675
O O12 0.948802 0.864955 0.157834
O O13 0.522072 0.991403 0.834921
O O14 0.195042 0.890213 0.422606
O O15 0.840501 0.890631 0.286618
O O16 0.462526 0.279998 0.424531
O O17 0.500000 0.000000 0.500000
#
# Coordination Sequence:
#
# PCOD9039155 Si02
#       8
#     2   2   2   2   2   2   2   2
#     4  11  22  40  71 100 131 174 227 271 343 396
#     4   9  23  44  70 102 134 170 230 287 322 401
#     4  11  23  43  67  99 136 177 223 280 337 405
#     4  11  24  44  66 100 135 176 225 278 335 400
#     4  10  24  45  71  97 134 182 224 276 343 392
#     4  11  25  43  65  97 139 172 222 286 330 400
#     4  10  23  42  66  98 130 175 226 271 337 404
#     4  11  24  45  71  96 138 181 224 277 340 407
#
# _framework density 25.332336999999999
#
# number of rings (size 3 to 8) (size 9 to 14) (size 15 to 20)
#    0.000    1.500    1.250    2.250    7.000    2.000 
#    4.500    0.625    0.000    0.000    0.000    0.000 
#    0.000    0.000    0.000    0.000    0.000    0.000 
#
# Total GULP energy -89665.802860 kJ/mol
# GULP energy per Si atom -5604.112679 kJ/mol
# Density = 2.527468 g / cm^3
# Si number density = 25.332337 Si / 1000 Ang^3
#
#
#
# Elastic Constant Matrix: (Units=GPa)
#
#
# Indices 1 2 3 4 5 6 
#
# 1 114.4460 28.0861 26.2662 4.3735 20.2118 5.0727
# 2 28.0861 83.1221 29.2975 24.5049 4.9542 22.4493
# 3 26.2662 29.2975 97.2156 13.5024 -6.0638 3.3272
# 4 4.3735 24.5049 13.5024 44.2339 5.9695 10.8341
# 5 20.2118 4.9542 -6.0638 5.9695 41.2122 3.9722
# 6 5.0727 22.4493 3.3272 10.8341 3.9722 41.0146
#
#
#
# Elastic Compliance Matrix: (Units=1/GPa)
#
#
# Indices 1 2 3 4 5 6 
#
# 1 0.011069 -0.003248 -0.002695 0.002160 -0.005807 0.000619
# 2 -0.003248 0.018424 -0.003392 -0.007074 0.000636 -0.007600
# 3 -0.002695 -0.003392 0.012581 -0.002571 0.003811 0.001480
# 4 0.002160 -0.007074 -0.002571 0.028496 -0.004398 -0.003288
# 5 -0.005807 0.000636 0.003811 -0.004398 0.028381 -0.001526
# 6 0.000619 -0.007600 0.001480 -0.003288 -0.001526 0.029361
#
#
# Mechanical properties :
#
#
# Convention : Reuss Voigt Hill
#
# Bulk Modulus (GPa) = 42.72990 51.34260 47.03625
# Shear Modulus (GPa) = 32.30291 39.36772 35.83531
#
# Velocity S-wave (km/s) = 3.57482 3.94642 3.76521
# Velocity P-wave (km/s) = 5.82610 6.40915 6.12457
#
# Compressibility (1/GPa) = 0.02340282
#
# Stress axis : x y z
#
# Youngs Moduli (GPa) = 90.34233 54.27723 79.48387
#
# Poissons Ratio (x) = 0.17629 0.21423
# Poissons Ratio (y) = 0.29343 0.26965
# Poissons Ratio (z) = 0.24349 0.18413
#
# Static dielectric constant tensor:
#      x y z
#    x 2.050130 -0.038270 0.007420 
#    y -0.038270 2.017090 0.022370 
#    z 0.007420 0.022370 2.001480 
# 
# From -- ./inp_files/392383.got.cif
#   From: 2010.05.17/outbox.cif.g08.bks.cpg/sg2_197_cif.got.tgz:392383.got - 2010.06.03 11:33:40.
