data_PCOD9039597
_publ_section_title
;
Structure prediction by ZEFSAII (Michael W. Deem and Ramdas Pophale) SiO2 
 PCOD9039597
Probable space group: P -1
;
_chemical_formula_sum "Si O2"
_cell_formula_units_Z 10
_cell_length_a 7.087738
_cell_length_b 7.213605
_cell_length_c 9.623775
_cell_angle_alpha 93.183352
_cell_angle_beta 95.927980
_cell_angle_gamma 119.700054
_cell_volume 421.866211
_symmetry_space_group_name_H-M "P -1"
_symmetry_group_IT_number 2
_symmetry_cell_setting 'triclinic'
loop_
_space_group_symop_operation_xyz
x,y,z
-x,-y,-z
loop_
_atom_site_type_symbol
_atom_site_label
_atom_site_fract_x
_atom_site_fract_y
_atom_site_fract_z
Si Si1 0.536102 0.064167 0.166386
Si Si2 0.752419 0.895941 0.356721
Si Si3 0.877055 0.887295 0.840484
Si Si4 0.993375 0.305505 0.578142
Si Si5 0.013251 0.459782 0.161091
O O1 0.345283 0.110222 0.193629
O O2 0.774639 0.278369 0.193139
O O3 0.819098 0.078898 0.485959
O O4 0.500000 0.000000 0.000000
O O5 0.776858 0.698621 0.407289
O O6 0.554466 0.888324 0.254703
O O7 0.949910 0.991252 0.263000
O O8 0.000000 0.000000 0.000000
O O9 0.932299 0.341136 0.729430
O O10 0.000000 0.500000 0.500000
O O11 0.165069 0.353933 0.177829
O O12 0.000000 0.500000 0.000000
#
# Coordination Sequence:
#
# PCOD9039597 Si02
#       5
#     2   2   2   2   2
#     4  11  22  40  67 100 133 174 226 268 333 398
#     4  10  23  42  69  93 135 178 217 278 330 392
#     4  11  20  40  65  96 134 174 216 273 332 383
#     4  11  21  45  70  93 134 179 218 273 339 387
#     4  11  24  41  67 100 133 172 223 278 327 395
#
# _framework density 23.704198000000002
#
# number of rings (size 3 to 8) (size 9 to 14) (size 15 to 20)
#    0.000    1.200    8.000    1.200    0.000    0.800 
#    0.000    8.000    0.000    0.000    0.000    0.000 
#    0.000    0.000    0.000    0.000    0.000    0.000 
#
# Total GULP energy -55913.321586 kJ/mol
# GULP energy per Si atom -5591.332159 kJ/mol
# Density = 2.365025 g / cm^3
# Si number density = 23.704198 Si / 1000 Ang^3
#
#
#
# Elastic Constant Matrix: (Units=GPa)
#
#
# Indices 1 2 3 4 5 6 
#
# 1 211.1941 61.5938 44.1276 -5.5946 28.6201 -49.1100
# 2 61.5938 96.4807 37.2992 2.4721 2.0215 -45.4359
# 3 44.1276 37.2992 139.4212 26.3093 4.8167 -31.6046
# 4 -5.5946 2.4721 26.3093 42.7137 -19.4364 -2.7865
# 5 28.6201 2.0215 4.8167 -19.4364 49.3610 -11.2152
# 6 -49.1100 -45.4359 -31.6046 -2.7865 -11.2152 56.9209
#
#
#
# Elastic Compliance Matrix: (Units=1/GPa)
#
#
# Indices 1 2 3 4 5 6 
#
# 1 0.006705 -0.002684 -0.000761 0.000322 -0.002975 0.002649
# 2 -0.002684 0.018566 -0.001995 0.002880 0.004969 0.012516
# 3 -0.000761 -0.001995 0.009939 -0.007199 -0.002741 0.002376
# 4 0.000322 0.002880 -0.007199 0.034647 0.014764 0.003185
# 5 -0.002975 0.004969 -0.002741 0.014764 0.029310 0.006375
# 6 0.002649 0.012516 0.002376 0.003185 0.006375 0.032576
#
#
# Mechanical properties :
#
#
# Convention : Reuss Voigt Hill
#
# Bulk Modulus (GPa) = 41.10579 81.45968 61.28274
# Shear Modulus (GPa) = 33.17099 50.07083 41.62091
#
# Velocity S-wave (km/s) = 3.74488 4.60098 4.19483
# Velocity P-wave (km/s) = 6.00646 7.91613 7.02647
#
# Compressibility (1/GPa) = 0.02432747
#
# Stress axis : x y z
#
# Youngs Moduli (GPa) = 149.15354 53.86099 100.61285
#
# Poissons Ratio (x) = 0.14459 0.07661
# Poissons Ratio (y) = 0.40040 0.20076
# Poissons Ratio (z) = 0.11356 0.10747
#
# Static dielectric constant tensor:
#      x y z
#    x 1.512190 -0.273340 0.365990 
#    y -0.273340 1.832770 0.148180 
#    z 0.365990 0.148180 1.753890 
# 
# From -- ./inp_files/129346.got.cif
#   From: 2010.05.17/outbox.cif.g08.bks.cpg/sg2_65_cif.got.tgz:129346.got - 2010.06.03 11:33:40.
