data_PCOD9039329
_publ_section_title
;
Structure prediction by ZEFSAII (Michael W. Deem and Ramdas Pophale) SiO2 
 PCOD9039329
Probable space group: P -1
;
_chemical_formula_sum "Si O2"
_cell_formula_units_Z 16
_cell_length_a 10.060425
_cell_length_b 7.813178
_cell_length_c 14.648648
_cell_angle_alpha 57.357435
_cell_angle_beta 65.841712
_cell_angle_gamma 109.262212
_cell_volume 616.941078
_symmetry_space_group_name_H-M "P -1"
_symmetry_group_IT_number 2
_symmetry_cell_setting 'triclinic'
loop_
_space_group_symop_operation_xyz
x,y,z
-x,-y,-z
loop_
_atom_site_type_symbol
_atom_site_label
_atom_site_fract_x
_atom_site_fract_y
_atom_site_fract_z
Si Si1 0.266427 0.196512 0.626599
Si Si2 0.338020 0.308083 0.283178
Si Si3 0.094721 0.892293 0.956128
Si Si4 0.679303 0.436421 0.936360
Si Si5 0.886664 0.197047 0.386011
Si Si6 0.711938 0.335576 0.526159
Si Si7 0.676712 0.322749 0.183281
Si Si8 0.547109 0.159239 0.813838
O O1 0.500000 0.500000 0.500000
O O2 0.185489 0.341448 0.585108
O O3 0.148649 0.001881 0.804886
O O4 0.251592 0.044043 0.585301
O O5 0.346947 0.364985 0.156156
O O6 0.533737 0.367213 0.243909
O O7 0.351554 0.542100 0.256528
O O8 0.146240 0.983807 0.465512
O O9 0.311181 0.012965 0.898547
O O10 0.898997 0.541354 0.106712
O O11 0.000000 0.000000 0.000000
O O12 0.889738 0.575864 0.787528
O O13 0.704217 0.413595 0.043078
O O14 0.493773 0.099954 0.054988
O O15 0.823831 0.345561 0.406034
O O16 0.466295 0.021371 0.664981
O O17 0.696374 0.249648 0.660200
#
# Coordination Sequence:
#
# PCOD9039329 Si02
#       8
#     2   2   2   2   2   2   2   2
#     4  12  24  44  65  96 136 178 217 271 335 393
#     4  11  21  44  69  92 135 180 215 270 337 388
#     4  12  24  42  69  99 135 173 221 276 328 400
#     4  11  24  41  65  99 133 172 226 276 320 395
#     4  11  24  43  67  97 131 174 224 272 331 390
#     4  10  24  42  64  93 136 171 220 266 324 404
#     4  10  23  42  67  98 132 174 221 271 333 390
#     4  11  23  43  63  98 134 173 223 269 331 390
#
# _framework density 25.934405999999999
#
# number of rings (size 3 to 8) (size 9 to 14) (size 15 to 20)
#    0.000    1.000    5.000    1.125    3.500    3.500 
#    0.000    0.625    0.000    0.000    0.000    0.000 
#    0.000    0.000    0.000    0.000    0.000    0.000 
#
# Total GULP energy -89299.650821 kJ/mol
# GULP energy per Si atom -5581.228176 kJ/mol
# Density = 2.587538 g / cm^3
# Si number density = 25.934406 Si / 1000 Ang^3
#
#
#
# Elastic Constant Matrix: (Units=GPa)
#
#
# Indices 1 2 3 4 5 6 
#
# 1 61.1627 0.5265 8.7258 14.3072 4.3917 0.4668
# 2 0.5265 92.9586 -6.0858 20.2457 -6.6876 -13.2068
# 3 8.7258 -6.0858 99.9476 14.9924 6.4913 -3.7237
# 4 14.3072 20.2457 14.9924 40.5016 -9.3306 -11.2098
# 5 4.3917 -6.6876 6.4913 -9.3306 44.5086 -2.2506
# 6 0.4668 -13.2068 -3.7237 -11.2098 -2.2506 27.0640
#
#
#
# Elastic Compliance Matrix: (Units=1/GPa)
#
#
# Indices 1 2 3 4 5 6 
#
# 1 0.018777 0.001032 -0.000118 -0.009055 -0.003776 -0.003901
# 2 0.001032 0.012812 0.001739 -0.006216 0.000466 0.003938
# 3 -0.000118 0.001739 0.011114 -0.005559 -0.002520 -0.000132
# 4 -0.009055 -0.006216 -0.005559 0.038944 0.009606 0.013288
# 5 -0.003776 0.000466 -0.002520 0.009606 0.025598 0.006053
# 6 -0.003901 0.003938 -0.000132 0.013288 0.006053 0.044927
#
#
# Mechanical properties :
#
#
# Convention : Reuss Voigt Hill
#
# Bulk Modulus (GPa) = 20.82987 28.93353 24.88170
# Shear Modulus (GPa) = 30.69945 39.14166 34.92055
#
# Velocity S-wave (km/s) = 3.44428 3.88913 3.67344
# Velocity P-wave (km/s) = 4.88534 5.59891 5.25425
#
# Compressibility (1/GPa) = 0.04800799
#
# Stress axis : x y z
#
# Youngs Moduli (GPa) = 53.25740 78.05100 89.97675
#
# Poissons Ratio (x) = -0.08056 0.01065
# Poissons Ratio (y) = -0.05497 -0.15645
# Poissons Ratio (z) = 0.00630 -0.13572
#
# Static dielectric constant tensor:
#      x y z
#    x 2.041490 0.064430 0.005790 
#    y 0.064430 2.070010 -0.002170 
#    z 0.005790 -0.002170 2.001610 
# 
# From -- ./inp_files/272159.got.cif
#   From: 2010.05.17/outbox.cif.g08.bks.cpg/sg2_137_cif.got.tgz:272159.got - 2010.06.03 11:33:40.
