data_PCOD9039371
_publ_section_title
;
Structure prediction by ZEFSAII (Michael W. Deem and Ramdas Pophale) SiO2 
 PCOD9039371
Probable space group: P -1
;
_chemical_formula_sum "Si O2"
_cell_formula_units_Z 16
_cell_length_a 24.767404
_cell_length_b 10.179952
_cell_length_c 5.153672
_cell_angle_alpha 88.566784
_cell_angle_beta 98.719002
_cell_angle_gamma 36.622034
_cell_volume 742.094807
_symmetry_space_group_name_H-M "P -1"
_symmetry_group_IT_number 2
_symmetry_cell_setting 'triclinic'
loop_
_space_group_symop_operation_xyz
x,y,z
-x,-y,-z
loop_
_atom_site_type_symbol
_atom_site_label
_atom_site_fract_x
_atom_site_fract_y
_atom_site_fract_z
Si Si1 0.365173 0.519641 0.501429
Si Si2 0.020234 0.372211 0.769801
Si Si3 0.824943 0.661159 0.618168
Si Si4 0.775478 0.019676 0.882298
Si Si5 0.388588 0.705201 0.856460
Si Si6 0.427815 0.853340 0.486056
Si Si7 0.718244 0.770612 0.021305
Si Si8 0.599474 0.827127 0.225458
O O1 0.272331 0.758740 0.288845
O O2 0.372154 0.587105 0.768086
O O3 0.460103 0.382692 0.433471
O O4 0.375767 0.346005 0.572579
O O5 0.938251 0.424001 0.699540
O O6 0.000000 0.500000 0.500000
O O7 0.194535 0.151066 0.299097
O O8 0.000000 0.500000 0.000000
O O9 0.780772 0.659024 0.814234
O O10 0.776759 0.719274 0.305689
O O11 0.618337 0.032356 0.836710
O O12 0.868987 0.875992 0.116315
O O13 0.694130 0.117311 0.001119
O O14 0.381549 0.821922 0.604544
O O15 0.500000 0.500000 0.000000
O O16 0.409530 0.023473 0.618793
O O17 0.683030 0.697093 0.091674
O O18 0.500000 0.000000 0.000000
#
# Coordination Sequence:
#
# PCOD9039371 Si02
#       8
#     2   2   2   2   2   2   2   2
#     4  12  27  40  63 100 144 189 223 286 345 413
#     4  10  23  42  68 101 138 177 229 291 353 414
#     4  11  24  44  70 105 134 177 237 295 346 405
#     4  11  26  42  69  99 147 182 223 288 361 411
#     4  12  26  41  64 104 144 180 225 279 352 416
#     4  12  25  42  68  98 141 191 234 279 334 416
#     4  12  25  41  72  98 133 179 237 287 333 400
#     4  12  26  44  66  97 142 193 242 276 332 417
#
# _framework density 21.560587999999999
#
# number of rings (size 3 to 8) (size 9 to 14) (size 15 to 20)
#    0.000    0.500    3.750    4.500    8.750    0.000 
#    0.000    0.000    0.000    1.500    0.000    0.000 
#    0.000    0.000    0.000    0.000    0.000    0.000 
#
# Total GULP energy -89409.441568 kJ/mol
# GULP energy per Si atom -5588.090098 kJ/mol
# Density = 2.151151 g / cm^3
# Si number density = 21.560588 Si / 1000 Ang^3
#
#
#
# Elastic Constant Matrix: (Units=GPa)
#
#
# Indices 1 2 3 4 5 6 
#
# 1 124.8239 41.9838 47.0206 -18.7000 9.3154 -34.9686
# 2 41.9838 65.2147 23.5253 -12.9446 9.5529 -24.8350
# 3 47.0206 23.5253 133.0223 -11.9272 10.0028 -23.1274
# 4 -18.7000 -12.9446 -11.9272 35.5132 -7.5876 17.0690
# 5 9.3154 9.5529 10.0028 -7.5876 41.4704 -6.6860
# 6 -34.9686 -24.8350 -23.1274 17.0690 -6.6860 42.6312
#
#
#
# Elastic Compliance Matrix: (Units=1/GPa)
#
#
# Indices 1 2 3 4 5 6 
#
# 1 0.012217 -0.004649 -0.002430 0.001295 0.000033 0.005482
# 2 -0.004649 0.022142 -0.000612 0.001082 -0.002431 0.007939
# 3 -0.002430 -0.000612 0.008978 0.000188 -0.001077 0.002277
# 4 0.001295 0.001082 0.000188 0.035907 0.004058 -0.011945
# 5 0.000033 -0.002431 -0.001077 0.004058 0.025739 0.000439
# 6 0.005482 0.007939 0.002277 -0.011945 0.000439 0.038665
#
#
# Mechanical properties :
#
#
# Convention : Reuss Voigt Hill
#
# Bulk Modulus (GPa) = 35.77160 60.90225 48.33692
# Shear Modulus (GPa) = 29.70018 37.95838 33.82928
#
# Velocity S-wave (km/s) = 3.71552 4.20044 3.96540
# Velocity P-wave (km/s) = 5.91896 7.19953 6.59042
#
# Compressibility (1/GPa) = 0.02795514
#
# Stress axis : x y z
#
# Youngs Moduli (GPa) = 81.85011 45.16316 111.37811
#
# Poissons Ratio (x) = 0.20997 0.27062
# Poissons Ratio (y) = 0.38053 0.06821
# Poissons Ratio (z) = 0.19887 0.02766
#
# Static dielectric constant tensor:
#      x y z
#    x 1.808840 -0.030700 0.000380 
#    y -0.030700 1.846000 0.042080 
#    z 0.000380 0.042080 1.905770 
# 
# From -- ./inp_files/115564.got.cif
#   From: 2010.05.17/outbox.cif.g08.bks.cpg/sg2_58_cif.got.tgz:115564.got - 2010.06.03 11:33:40.
