data_PCOD9039379
_publ_section_title
;
Structure prediction by ZEFSAII (Michael W. Deem and Ramdas Pophale) SiO2 
 PCOD9039379
Probable space group: P -1
;
_chemical_formula_sum "Si O2"
_cell_formula_units_Z 14
_cell_length_a 19.420178
_cell_length_b 11.355440
_cell_length_c 7.625262
_cell_angle_alpha 57.105267
_cell_angle_beta 101.278490
_cell_angle_gamma 148.589384
_cell_volume 581.815896
_symmetry_space_group_name_H-M "P -1"
_symmetry_group_IT_number 2
_symmetry_cell_setting 'triclinic'
loop_
_space_group_symop_operation_xyz
x,y,z
-x,-y,-z
loop_
_atom_site_type_symbol
_atom_site_label
_atom_site_fract_x
_atom_site_fract_y
_atom_site_fract_z
Si Si1 0.662038 0.884353 0.724190
Si Si2 0.199947 0.824110 0.062063
Si Si3 0.661728 0.197217 0.888797
Si Si4 0.570459 0.284417 0.310410
Si Si5 0.181782 0.294081 0.230042
Si Si6 0.853344 0.070764 0.362315
Si Si7 0.861865 0.731173 0.303809
O O1 0.584234 0.891684 0.623025
O O2 0.778962 0.105062 0.778087
O O3 0.748219 0.967002 0.536539
O O4 0.500000 0.500000 0.000000
O O5 0.353591 0.997189 0.952749
O O6 0.040572 0.442758 0.227245
O O7 0.181724 0.927125 0.847682
O O8 0.769791 0.463643 0.879170
O O9 0.752841 0.398288 0.585692
O O10 0.500000 0.000000 0.000000
O O11 0.706989 0.549406 0.319850
O O12 0.500000 0.000000 0.500000
O O13 0.685685 0.507678 0.015292
O O14 0.189068 0.169898 0.456234
O O15 0.994899 0.974325 0.327936
O O16 0.000000 0.000000 0.000000
#
# Coordination Sequence:
#
# PCOD9039379 Si02
#       7
#     2   2   2   2   2   2   2
#     4  12  26  48  74 105 147 192 241 300 363 437
#     4  11  27  50  71 107 146 192 246 299 360 440
#     4  12  25  44  74 107 146 186 240 312 364 425
#     4  11  24  44  69 109 140 185 244 300 368 426
#     4  11  23  46  70 106 144 185 243 296 363 446
#     4  11  26  49  74 104 146 196 242 293 371 436
#     4  10  23  42  68 101 141 187 237 295 357 436
#
# _framework density 24.062595999999999
#
# number of rings (size 3 to 8) (size 9 to 14) (size 15 to 20)
#    0.000    0.857    2.857    3.429    4.000    1.714 
#    2.571    0.000    0.000    0.000    0.000    0.000 
#    0.000    0.000    0.000    0.000    0.000    0.000 
#
# Total GULP energy -78081.660578 kJ/mol
# GULP energy per Si atom -5577.261470 kJ/mol
# Density = 2.400783 g / cm^3
# Si number density = 24.062596 Si / 1000 Ang^3
#
#
#
# Elastic Constant Matrix: (Units=GPa)
#
#
# Indices 1 2 3 4 5 6 
#
# 1 120.6768 14.3858 21.4974 9.1044 -4.4375 20.7699
# 2 14.3858 121.7245 7.4218 10.5423 -2.6104 24.0734
# 3 21.4974 7.4218 68.4767 3.4263 3.8190 21.2208
# 4 9.1044 10.5423 3.4263 36.9048 6.9332 1.8954
# 5 -4.4375 -2.6104 3.8190 6.9332 37.7749 -0.5251
# 6 20.7699 24.0734 21.2208 1.8954 -0.5251 27.8004
#
#
#
# Elastic Compliance Matrix: (Units=1/GPa)
#
#
# Indices 1 2 3 4 5 6 
#
# 1 0.009820 0.000491 -0.000997 -0.002429 0.001640 -0.006805
# 2 0.000491 0.010445 0.002170 -0.002927 0.000947 -0.010850
# 3 -0.000997 0.002170 0.019892 -0.001005 -0.002020 -0.016287
# 4 -0.002429 -0.002927 -0.001005 0.029556 -0.005769 0.002992
# 5 0.001640 0.000947 -0.002020 -0.005769 0.028000 0.000420
# 6 -0.006805 -0.010850 -0.016287 0.002992 0.000420 0.062687
#
#
# Mechanical properties :
#
#
# Convention : Reuss Voigt Hill
#
# Bulk Modulus (GPa) = 22.99672 44.16535 33.58104
# Shear Modulus (GPa) = 29.14339 38.33422 33.73880
#
# Velocity S-wave (km/s) = 3.48393 3.99570 3.74856
# Velocity P-wave (km/s) = 5.07558 6.29934 5.72028
#
# Compressibility (1/GPa) = 0.04348446
#
# Stress axis : x y z
#
# Youngs Moduli (GPa) = 101.82906 95.74368 50.27200
#
# Poissons Ratio (x) = -0.04706 0.05014
# Poissons Ratio (y) = -0.05005 -0.10908
# Poissons Ratio (z) = 0.10157 -0.20775
#
# Static dielectric constant tensor:
#      x y z
#    x 1.909630 0.029840 -0.102180 
#    y 0.029840 2.136350 0.149060 
#    z -0.102180 0.149060 2.046760 
# 
# From -- ./inp_files/242977.got.cif
#   From: 2010.05.17/outbox.cif.g08.bks.cpg/sg2_122_cif.got.tgz:242977.got - 2010.06.03 11:33:40.
