data_PCOD9039718
_publ_section_title
;
Structure prediction by ZEFSAII (Michael W. Deem and Ramdas Pophale) SiO2 
 PCOD9039718
Probable space group: P -1
;
_chemical_formula_sum "Si O2"
_cell_formula_units_Z 16
_cell_length_a 5.078679
_cell_length_b 13.504456
_cell_length_c 14.522868
_cell_angle_alpha 133.149331
_cell_angle_beta 67.965604
_cell_angle_gamma 106.460858
_cell_volume 673.083519
_symmetry_space_group_name_H-M "P -1"
_symmetry_group_IT_number 2
_symmetry_cell_setting 'triclinic'
loop_
_space_group_symop_operation_xyz
x,y,z
-x,-y,-z
loop_
_atom_site_type_symbol
_atom_site_label
_atom_site_fract_x
_atom_site_fract_y
_atom_site_fract_z
Si Si1 0.695104 0.109663 0.713287
Si Si2 0.257534 0.360794 0.591173
Si Si3 0.433839 0.613813 0.005094
Si Si4 0.079207 0.628677 0.878308
Si Si5 0.789519 0.079803 0.284678
Si Si6 0.100015 0.640876 0.532818
Si Si7 0.190120 0.935873 0.015053
Si Si8 0.139372 0.890177 0.493662
O O1 0.702980 0.258853 0.846658
O O2 0.615968 0.117083 0.619542
O O3 0.491752 0.015788 0.744885
O O4 0.982205 0.031246 0.613062
O O5 0.119558 0.501026 0.725777
O O6 0.595112 0.379546 0.569695
O O7 0.093678 0.231633 0.577888
O O8 0.170061 0.330351 0.477913
O O9 0.500000 0.500000 0.000000
O O10 0.229824 0.583680 0.925524
O O11 0.747214 0.653304 0.951722
O O12 0.203512 0.773160 0.917144
O O13 0.834804 0.227842 0.326866
O O14 0.769969 0.125922 0.423136
O O15 0.043708 0.988797 0.161544
O O16 0.000000 0.500000 0.500000
O O17 0.500000 0.000000 0.000000
O O18 0.000000 0.000000 0.000000
#
# Coordination Sequence:
#
# PCOD9039718 Si02
#       8
#     2   2   2   2   2   2   2   2
#     4  11  22  43  71 101 141 182 235 289 362 428
#     4  11  24  44  67 100 139 180 237 286 356 427
#     4  12  26  46  72 107 143 192 235 290 360 435
#     4  12  26  48  71 100 150 188 237 299 353 425
#     4  11  24  45  70  99 144 175 241 292 356 423
#     4  11  25  42  69  99 133 184 232 302 353 413
#     4  12  29  46  75 105 140 194 246 298 359 420
#     4  10  23  42  70 105 135 185 227 294 360 427
#
# _framework density 23.771194000000001
#
# number of rings (size 3 to 8) (size 9 to 14) (size 15 to 20)
#    0.000    0.750    2.500    4.125    5.250    1.000 
#    2.250    0.000    0.000    0.000    0.000    0.000 
#    0.000    0.000    0.000    0.000    0.000    0.000 
#
# Total GULP energy -89334.976065 kJ/mol
# GULP energy per Si atom -5583.436004 kJ/mol
# Density = 2.371709 g / cm^3
# Si number density = 23.771194 Si / 1000 Ang^3
#
#
#
# Elastic Constant Matrix: (Units=GPa)
#
#
# Indices 1 2 3 4 5 6 
#
# 1 93.9628 16.4515 10.0393 -5.0629 -6.8170 13.7171
# 2 16.4515 120.0866 35.0121 35.2498 -13.4651 8.0691
# 3 10.0393 35.0121 81.7782 22.8029 -17.5504 8.7135
# 4 -5.0629 35.2498 22.8029 43.8679 -6.1952 -8.8367
# 5 -6.8170 -13.4651 -17.5504 -6.1952 31.9460 -4.1995
# 6 13.7171 8.0691 8.7135 -8.8367 -4.1995 37.8105
#
#
#
# Elastic Compliance Matrix: (Units=1/GPa)
#
#
# Indices 1 2 3 4 5 6 
#
# 1 0.011735 -0.001871 -0.000847 0.002935 0.001449 -0.002816
# 2 -0.001871 0.012363 -0.001587 -0.009859 0.001538 -0.003727
# 3 -0.000847 -0.001587 0.016975 -0.007610 0.006431 -0.004330
# 4 0.002935 -0.009859 -0.007610 0.037522 0.001102 0.011685
# 5 0.001449 0.001538 0.006431 0.001102 0.036263 0.001949
# 6 -0.002816 -0.003727 -0.004330 0.011685 0.001949 0.032210
#
#
# Mechanical properties :
#
#
# Convention : Reuss Voigt Hill
#
# Bulk Modulus (GPa) = 30.80375 46.53703 38.67039
# Shear Modulus (GPa) = 30.03014 38.34655 34.18835
#
# Velocity S-wave (km/s) = 3.55815 4.02076 3.79651
# Velocity P-wave (km/s) = 5.46508 6.41677 5.95995
#
# Compressibility (1/GPa) = 0.03246358
#
# Stress axis : x y z
#
# Youngs Moduli (GPa) = 85.21594 80.88546 58.90903
#
# Poissons Ratio (x) = 0.15130 0.04990
# Poissons Ratio (y) = 0.15940 0.09350
# Poissons Ratio (z) = 0.07219 0.12839
#
# Static dielectric constant tensor:
#      x y z
#    x 1.982970 -0.081800 0.119150 
#    y -0.081800 2.176010 -0.029990 
#    z 0.119150 -0.029990 1.927460 
# 
# From -- ./inp_files/484436.got.cif
#   From: 2010.05.17/outbox.cif.g08.bks.cpg/sg2_243_cif.got.tgz:484436.got - 2010.06.03 11:33:40.
