data_PCOD9039706
_publ_section_title
;
Structure prediction by ZEFSAII (Michael W. Deem and Ramdas Pophale) SiO2 
 PCOD9039706
Probable space group: P -1
;
_chemical_formula_sum "Si O2"
_cell_formula_units_Z 16
_cell_length_a 9.071328
_cell_length_b 16.686213
_cell_length_c 12.215034
_cell_angle_alpha 114.840535
_cell_angle_beta 74.816990
_cell_angle_gamma 47.489447
_cell_volume 715.208492
_symmetry_space_group_name_H-M "P -1"
_symmetry_group_IT_number 2
_symmetry_cell_setting 'triclinic'
loop_
_space_group_symop_operation_xyz
x,y,z
-x,-y,-z
loop_
_atom_site_type_symbol
_atom_site_label
_atom_site_fract_x
_atom_site_fract_y
_atom_site_fract_z
Si Si1 0.570232 0.172796 0.250802
Si Si2 0.752703 0.694493 0.226185
Si Si3 0.389689 0.726905 0.892031
Si Si4 0.460295 0.002301 0.881783
Si Si5 0.573799 0.269385 0.520438
Si Si6 0.255262 0.570840 0.169421
Si Si7 0.154402 0.070555 0.398860
Si Si8 0.356119 0.572986 0.692692
O O1 0.499569 0.244280 0.182242
O O2 0.479277 0.292277 0.427493
O O3 0.404583 0.162386 0.281965
O O4 0.974963 0.950357 0.081609
O O5 0.599277 0.716709 0.367612
O O6 0.961875 0.670504 0.216223
O O7 0.436095 0.888492 0.323904
O O8 0.000000 0.500000 0.000000
O O9 0.526346 0.622005 0.922676
O O10 0.518321 0.576616 0.711789
O O11 0.643619 0.982200 0.765574
O O12 0.047348 0.210780 0.078340
O O13 0.500000 0.000000 0.000000
O O14 0.441757 0.436983 0.654801
O O15 0.959935 0.088770 0.387620
O O16 0.078122 0.736162 0.378839
O O17 0.500000 0.500000 0.000000
O O18 0.500000 0.500000 0.500000
#
# Coordination Sequence:
#
# PCOD9039706 Si02
#       8
#     2   2   2   2   2   2   2   2
#     4  10  24  41  72 107 141 182 233 303 354 430
#     4  12  29  47  69 108 141 187 252 307 356 432
#     4  10  23  42  70 103 142 179 239 285 368 428
#     4  11  26  43  71 107 147 192 238 297 371 435
#     4  12  24  45  74 102 141 191 240 303 361 427
#     4  12  28  48  77 102 143 199 245 298 370 439
#     4  12  27  48  72 102 147 195 246 298 370 431
#     4  11  21  43  71 104 143 188 232 294 366 439
#
# _framework density 22.371098
#
# number of rings (size 3 to 8) (size 9 to 14) (size 15 to 20)
#    0.000    0.750    2.500    3.750   10.500    1.000 
#    0.000    1.875    0.000    0.000    0.000    0.000 
#    0.000    0.000    0.000    0.000    0.000    0.000 
#
# Total GULP energy -89214.143423 kJ/mol
# GULP energy per Si atom -5575.883964 kJ/mol
# Density = 2.232018 g / cm^3
# Si number density = 22.371098 Si / 1000 Ang^3
#
#
#
# Elastic Constant Matrix: (Units=GPa)
#
#
# Indices 1 2 3 4 5 6 
#
# 1 112.7688 14.1797 16.6258 -13.2123 -12.8339 6.8600
# 2 14.1797 123.6036 12.5019 2.0463 -20.9709 8.9121
# 3 16.6258 12.5019 63.0692 -10.5613 -14.1555 7.8554
# 4 -13.2123 2.0463 -10.5613 36.1135 12.8100 -2.0371
# 5 -12.8339 -20.9709 -14.1555 12.8100 35.0432 -9.6711
# 6 6.8600 8.9121 7.8554 -2.0371 -9.6711 27.6831
#
#
#
# Elastic Compliance Matrix: (Units=1/GPa)
#
#
# Indices 1 2 3 4 5 6 
#
# 1 0.009703 -0.000710 -0.001562 0.002635 0.001228 -0.001110
# 2 -0.000710 0.009374 -0.000763 -0.003184 0.005994 -0.000766
# 3 -0.001562 -0.000763 0.018281 0.003078 0.004467 -0.002768
# 4 0.002635 -0.003184 0.003078 0.034160 -0.012869 -0.002484
# 5 0.001228 0.005994 0.004467 -0.012869 0.041893 0.010187
# 6 -0.001110 -0.000766 -0.002768 -0.002484 0.010187 0.040806
#
#
# Mechanical properties :
#
#
# Convention : Reuss Voigt Hill
#
# Bulk Modulus (GPa) = 31.96223 42.89517 37.42870
# Shear Modulus (GPa) = 29.28811 36.84357 33.06584
#
# Velocity S-wave (km/s) = 3.62220 4.06264 3.84873
# Velocity P-wave (km/s) = 5.64022 6.42049 6.04296
#
# Compressibility (1/GPa) = 0.03128693
#
# Stress axis : x y z
#
# Youngs Moduli (GPa) = 103.05738 106.67952 54.70059
#
# Poissons Ratio (x) = 0.07579 0.08544
# Poissons Ratio (y) = 0.07322 0.04176
# Poissons Ratio (z) = 0.16097 0.08144
#
# Static dielectric constant tensor:
#      x y z
#    x 2.092990 -0.404300 0.062500 
#    y -0.404300 2.262590 -0.024770 
#    z 0.062500 -0.024770 1.870220 
# 
# From -- ./inp_files/399274.got.cif
#   From: 2010.05.17/outbox.cif.g08.bks.cpg/sg2_200_cif.got.tgz:399274.got - 2010.06.03 11:33:40.
