data_PCOD9039258
_publ_section_title
;
Structure prediction by ZEFSAII (Michael W. Deem and Ramdas Pophale) SiO2 
 PCOD9039258
Probable space group: P -1
;
_chemical_formula_sum "Si O2"
_cell_formula_units_Z 16
_cell_length_a 8.787102
_cell_length_b 24.245590
_cell_length_c 5.210522
_cell_angle_alpha 57.472583
_cell_angle_beta 118.956319
_cell_angle_gamma 131.155972
_cell_volume 689.703840
_symmetry_space_group_name_H-M "P -1"
_symmetry_group_IT_number 2
_symmetry_cell_setting 'triclinic'
loop_
_space_group_symop_operation_xyz
x,y,z
-x,-y,-z
loop_
_atom_site_type_symbol
_atom_site_label
_atom_site_fract_x
_atom_site_fract_y
_atom_site_fract_z
Si Si1 0.050715 0.086972 0.358597
Si Si2 0.282566 0.226432 0.863579
Si Si3 0.491988 0.175359 0.789919
Si Si4 0.982094 0.565876 0.965334
Si Si5 0.369291 0.680790 0.735992
Si Si6 0.544235 0.620478 0.669574
Si Si7 0.737534 0.543363 0.338010
Si Si8 0.386732 0.948882 0.781524
O O1 0.268091 0.129683 0.580275
O O2 0.851692 0.077946 0.352417
O O3 0.090063 0.143043 0.004322
O O4 0.000000 0.000000 0.500000
O O5 0.438307 0.203558 0.933037
O O6 0.294169 0.292351 0.523648
O O7 0.396206 0.276684 0.080907
O O8 0.650292 0.252390 0.570963
O O9 0.580165 0.121762 0.022087
O O10 0.841039 0.575273 0.617745
O O11 0.211761 0.639862 0.938658
O O12 0.893309 0.552886 0.210539
O O13 0.000000 0.500000 0.000000
O O14 0.364000 0.624670 0.655090
O O15 0.430041 0.549490 0.550857
O O16 0.638705 0.588764 0.028419
O O17 0.500000 0.000000 0.500000
O O18 0.500000 0.000000 0.000000
#
# Coordination Sequence:
#
# PCOD9039258 Si02
#       8
#     2   2   2   2   2   2   2   2
#     4  11  23  44  74 102 138 183 232 285 350 418
#     4  10  23  43  70  95 138 185 226 281 355 411
#     4  10  24  45  67 102 138 184 228 285 349 409
#     4  12  24  42  66 100 134 180 231 283 345 402
#     4  10  23  42  67  92 139 178 223 280 346 407
#     4  10  23  43  65  96 135 179 227 287 347 403
#     4  11  26  40  70 100 133 179 235 289 336 415
#     4  12  27  45  74 106 138 176 228 287 343 417
#
# _framework density 23.198361999999999
#
# number of rings (size 3 to 8) (size 9 to 14) (size 15 to 20)
#    0.000    1.250    2.500    1.875    8.750    3.000 
#    4.500    0.000    0.000    0.000    0.000    0.000 
#    0.000    0.000    0.000    0.000    0.000    0.000 
#
# Total GULP energy -89377.163267 kJ/mol
# GULP energy per Si atom -5586.072704 kJ/mol
# Density = 2.314556 g / cm^3
# Si number density = 23.198362 Si / 1000 Ang^3
#
#
#
# Elastic Constant Matrix: (Units=GPa)
#
#
# Indices 1 2 3 4 5 6 
#
# 1 123.3676 35.0915 55.2596 -37.9225 -3.1570 10.3625
# 2 35.0915 82.0977 30.2130 -26.9730 4.1403 -4.7425
# 3 55.2596 30.2130 111.0944 -30.6862 7.4553 -4.5659
# 4 -37.9225 -26.9730 -30.6862 52.8701 -2.5071 -1.4569
# 5 -3.1570 4.1403 7.4553 -2.5071 52.3579 -8.7458
# 6 10.3625 -4.7425 -4.5659 -1.4569 -8.7458 34.1865
#
#
#
# Elastic Compliance Matrix: (Units=1/GPa)
#
#
# Indices 1 2 3 4 5 6 
#
# 1 0.012829 -0.002386 -0.004524 0.005295 0.001141 -0.004306
# 2 -0.002386 0.015730 -0.001411 0.005552 -0.000447 0.002839
# 3 -0.004524 -0.001411 0.012796 0.003471 -0.001369 0.002682
# 4 0.005295 0.005552 0.003471 0.027630 0.000881 0.001032
# 5 0.001141 -0.000447 -0.001369 0.000881 0.020212 0.004618
# 6 -0.004306 0.002839 0.002682 0.001032 0.004618 0.032534
#
#
# Mechanical properties :
#
#
# Convention : Reuss Voigt Hill
#
# Bulk Modulus (GPa) = 40.46110 61.96532 51.21321
# Shear Modulus (GPa) = 34.10401 40.94926 37.52663
#
# Velocity S-wave (km/s) = 3.83835 4.20596 4.02635
# Velocity P-wave (km/s) = 6.09288 7.09619 6.61359
#
# Compressibility (1/GPa) = 0.02471510
#
# Stress axis : x y z
#
# Youngs Moduli (GPa) = 77.94719 63.57173 78.14831
#
# Poissons Ratio (x) = 0.15165 0.35351
# Poissons Ratio (y) = 0.18595 0.11028
# Poissons Ratio (z) = 0.35260 0.08971
#
# Static dielectric constant tensor:
#      x y z
#    x 1.882690 0.009140 -0.010300 
#    y 0.009140 1.959960 0.020010 
#    z -0.010300 0.020010 1.918170 
# 
# From -- ./inp_files/45544.got.cif
#   From: 2010.05.17/outbox.cif.g08.bks.cpg/sg2_23_cif.got.tgz:45544.got - 2010.06.03 11:33:40.
