data_PCOD9039839
_publ_section_title
;
Structure prediction by ZEFSAII (Michael W. Deem and Ramdas Pophale) SiO2 
 PCOD9039839
Probable space group: P -1
;
_chemical_formula_sum "Si O2"
_cell_formula_units_Z 16
_cell_length_a 8.594516
_cell_length_b 16.656918
_cell_length_c 5.062767
_cell_angle_alpha 58.578672
_cell_angle_beta 87.001687
_cell_angle_gamma 74.532014
_cell_volume 592.767010
_symmetry_space_group_name_H-M "P -1"
_symmetry_group_IT_number 2
_symmetry_cell_setting 'triclinic'
loop_
_space_group_symop_operation_xyz
x,y,z
-x,-y,-z
loop_
_atom_site_type_symbol
_atom_site_label
_atom_site_fract_x
_atom_site_fract_y
_atom_site_fract_z
Si Si1 0.753663 0.884192 0.412957
Si Si2 0.653698 0.796690 0.054718
Si Si3 0.106370 0.784612 0.794996
Si Si4 0.392562 0.740569 0.508140
Si Si5 0.793343 0.387313 0.570781
Si Si6 0.106603 0.954208 0.821863
Si Si7 0.620535 0.558781 0.006596
Si Si8 0.112972 0.410137 0.471897
O O1 0.730033 0.855444 0.164537
O O2 0.744649 0.998139 0.256067
O O3 0.931437 0.822927 0.612883
O O4 0.636782 0.849426 0.684978
O O5 0.490773 0.789041 0.220330
O O6 0.773808 0.685252 0.225297
O O7 0.244267 0.808843 0.562752
O O8 0.118669 0.841277 0.968987
O O9 0.160077 0.669376 0.060422
O O10 0.319756 0.666947 0.474439
O O11 0.516226 0.671337 0.825931
O O12 0.964577 0.372960 0.431116
O O13 0.691156 0.501575 0.366832
O O14 0.000000 0.000000 0.500000
O O15 0.000000 0.000000 0.000000
O O16 0.774348 0.558020 0.808039
O O17 0.500000 0.500000 0.000000
O O18 0.000000 0.500000 0.500000
#
# Coordination Sequence:
#
# PCOD9039839 Si02
#       8
#     2   2   2   2   2   2   2   2
#     4  11  23  46  74 103 139 182 236 291 351 417
#     4  11  25  46  71 101 143 187 231 287 356 416
#     4  11  24  41  73 103 133 183 235 291 348 424
#     4  10  25  44  66  97 142 189 232 284 351 420
#     4  11  23  41  69  95 138 179 243 279 344 407
#     4  10  23  42  71 108 140 175 230 296 354 408
#     4   9  22  43  60  91 139 179 226 281 344 405
#     4  11  24  41  65 102 132 182 237 293 335 406
#
# _framework density 26.992055000000001
#
# number of rings (size 3 to 8) (size 9 to 14) (size 15 to 20)
#    0.000    1.500    1.250    2.625    8.750    3.500 
#    2.250    1.250    0.000    0.000    0.000    0.000 
#    0.000    0.000    0.000    0.000    0.000    0.000 
#
# Total GULP energy -89641.014763 kJ/mol
# GULP energy per Si atom -5602.563423 kJ/mol
# Density = 2.693062 g / cm^3
# Si number density = 26.992055 Si / 1000 Ang^3
#
#
#
# Elastic Constant Matrix: (Units=GPa)
#
#
# Indices 1 2 3 4 5 6 
#
# 1 131.0708 7.6430 18.0382 -1.4025 -31.1249 -2.6876
# 2 7.6430 85.3156 17.4122 7.0175 -7.0058 10.3137
# 3 18.0382 17.4122 98.4938 -5.8864 -5.6203 -12.2883
# 4 -1.4025 7.0175 -5.8864 46.8318 -2.0730 -2.3869
# 5 -31.1249 -7.0058 -5.6203 -2.0730 59.0444 0.0408
# 6 -2.6876 10.3137 -12.2883 -2.3869 0.0408 44.2188
#
#
#
# Elastic Compliance Matrix: (Units=1/GPa)
#
#
# Indices 1 2 3 4 5 6 
#
# 1 0.008911 -0.000222 -0.001280 0.000354 0.004561 0.000253
# 2 -0.000222 0.013102 -0.002861 -0.002486 0.001081 -0.004000
# 3 -0.001280 -0.002861 0.011510 0.002043 0.000151 0.003898
# 4 0.000354 -0.002486 0.002043 0.022151 0.000862 0.002364
# 5 0.004561 0.001081 0.000151 0.000862 0.019514 0.000096
# 6 0.000253 -0.004000 0.003898 0.002364 0.000096 0.024774
#
#
# Mechanical properties :
#
#
# Convention : Reuss Voigt Hill
#
# Bulk Modulus (GPa) = 40.32900 44.56303 42.44602
# Shear Modulus (GPa) = 42.75205 48.13813 45.44509
#
# Velocity S-wave (km/s) = 3.98411 4.22764 4.10768
# Velocity P-wave (km/s) = 6.01146 6.35422 6.18521
#
# Compressibility (1/GPa) = 0.02479605
#
# Stress axis : x y z
#
# Youngs Moduli (GPa) = 112.22526 76.32547 86.87970
#
# Poissons Ratio (x) = 0.01696 0.11118
# Poissons Ratio (y) = 0.02494 0.24860
# Poissons Ratio (z) = 0.14361 0.21840
#
# Static dielectric constant tensor:
#      x y z
#    x 2.200290 0.103680 -0.056840 
#    y 0.103680 2.203190 -0.125310 
#    z -0.056840 -0.125310 2.170380 
# 
# From -- ./inp_files/43266.got.cif
#   From: 2010.05.17/outbox.cif.g08.bks.cpg/sg2_22_cif.got.tgz:43266.got - 2010.06.03 11:33:40.
