data_PCOD9039268
_publ_section_title
;
Structure prediction by ZEFSAII (Michael W. Deem and Ramdas Pophale) SiO2 
 PCOD9039268
Probable space group: P -1
;
_chemical_formula_sum "Si O2"
_cell_formula_units_Z 14
_cell_length_a 18.024006
_cell_length_b 9.793076
_cell_length_c 21.622574
_cell_angle_alpha 144.361207
_cell_angle_beta 162.520771
_cell_angle_gamma 35.041593
_cell_volume 646.936185
_symmetry_space_group_name_H-M "P -1"
_symmetry_group_IT_number 2
_symmetry_cell_setting 'triclinic'
loop_
_space_group_symop_operation_xyz
x,y,z
-x,-y,-z
loop_
_atom_site_type_symbol
_atom_site_label
_atom_site_fract_x
_atom_site_fract_y
_atom_site_fract_z
Si Si1 0.897008 0.680160 0.639184
Si Si2 0.971067 0.184505 0.855672
Si Si3 0.184247 0.947509 0.567165
Si Si4 0.429872 0.337099 0.939068
Si Si5 0.778581 0.561087 0.749740
Si Si6 0.631093 0.620970 0.523057
Si Si7 0.850117 0.361174 0.375364
O O1 0.718676 0.751998 0.582563
O O2 0.773112 0.540698 0.438304
O O3 0.147210 0.482131 0.786643
O O4 0.987601 0.901868 0.762881
O O5 0.972506 0.314999 0.838441
O O6 0.675178 0.298798 0.683699
O O7 0.165192 0.253589 0.085270
O O8 0.415069 0.074054 0.808280
O O9 0.026887 0.108705 0.446509
O O10 0.283164 0.666845 0.527954
O O11 0.000000 0.000000 0.500000
O O12 0.500000 0.500000 0.000000
O O13 0.613692 0.320087 0.135786
O O14 0.500000 0.500000 0.500000
O O15 0.785709 0.658824 0.721960
O O16 0.000000 0.500000 0.500000
#
# Coordination Sequence:
#
# PCOD9039268 Si02
#       7
#     2   2   2   2   2   2   2
#     4  11  24  42  64  96 132 164 219 268 316 393
#     4  10  23  42  67  94 125 173 213 258 325 387
#     4  11  23  44  64  97 135 163 218 277 318 389
#     4  11  23  40  66  95 128 172 220 261 326 381
#     4   9  22  42  62  92 127 164 217 259 318 379
#     4  11  23  42  64  95 133 165 210 270 324 382
#     4  11  23  43  65  96 128 173 216 266 328 377
#
# _framework density 21.640466
#
# number of rings (size 3 to 8) (size 9 to 14) (size 15 to 20)
#    0.000    1.429    5.714    0.429    2.000    9.143 
#    0.000    0.000    0.000    0.000    0.000    0.000 
#    0.000    0.000    0.000    0.000    0.000    0.000 
#
# Total GULP energy -78164.885916 kJ/mol
# GULP energy per Si atom -5583.206137 kJ/mol
# Density = 2.159121 g / cm^3
# Si number density = 21.640466 Si / 1000 Ang^3
#
#
#
# Elastic Constant Matrix: (Units=GPa)
#
#
# Indices 1 2 3 4 5 6 
#
# 1 70.8992 -9.8990 22.9531 -17.7872 -12.2192 9.3635
# 2 -9.8990 94.7901 24.7329 4.1745 -15.0344 -1.4063
# 3 22.9531 24.7329 144.3236 -4.5046 -48.8611 3.8280
# 4 -17.7872 4.1745 -4.5046 28.5552 4.8316 1.5188
# 5 -12.2192 -15.0344 -48.8611 4.8316 41.6897 -0.0115
# 6 9.3635 -1.4063 3.8280 1.5188 -0.0115 28.5186
#
#
#
# Elastic Compliance Matrix: (Units=1/GPa)
#
#
# Indices 1 2 3 4 5 6 
#
# 1 0.019243 0.002393 -0.001966 0.011183 0.002901 -0.006531
# 2 0.002393 0.011735 -0.001183 -0.001032 0.003667 0.000008
# 3 -0.001966 -0.001183 0.011837 -0.001339 0.013025 -0.000925
# 4 0.011183 -0.001032 -0.001339 0.042850 -0.003632 -0.005826
# 5 0.002901 0.003667 0.013025 -0.003632 0.041845 -0.002310
# 6 -0.006531 0.000008 -0.000925 -0.005826 -0.002310 0.037643
#
#
# Mechanical properties :
#
#
# Convention : Reuss Voigt Hill
#
# Bulk Modulus (GPa) = 24.21056 42.84300 33.52678
# Shear Modulus (GPa) = 27.71122 37.90110 32.80616
#
# Velocity S-wave (km/s) = 3.58233 4.18951 3.89776
# Velocity P-wave (km/s) = 5.32191 6.57596 5.98189
#
# Compressibility (1/GPa) = 0.04130429
#
# Stress axis : x y z
#
# Youngs Moduli (GPa) = 51.96603 85.21256 84.48387
#
# Poissons Ratio (x) = -0.20394 0.16611
# Poissons Ratio (y) = -0.12437 0.09992
# Poissons Ratio (z) = 0.10217 0.10078
#
# Static dielectric constant tensor:
#      x y z
#    x 1.873860 -0.000970 0.028410 
#    y -0.000970 1.791440 0.025700 
#    z 0.028410 0.025700 1.792200 
# 
# From -- ./inp_files/188050.got.cif
#   From: 2010.05.17/outbox.cif.g08.bks.cpg/sg2_95_cif.got.tgz:188050.got - 2010.06.03 11:33:40.
