data_PCOD9039567
_publ_section_title
;
Structure prediction by ZEFSAII (Michael W. Deem and Ramdas Pophale) SiO2 
 PCOD9039567
Probable space group: P -1
;
_chemical_formula_sum "Si O2"
_cell_formula_units_Z 12
_cell_length_a 7.035731
_cell_length_b 17.663223
_cell_length_c 5.174983
_cell_angle_alpha 120.764224
_cell_angle_beta 96.469046
_cell_angle_gamma 96.868357
_cell_volume 537.137966
_symmetry_space_group_name_H-M "P -1"
_symmetry_group_IT_number 2
_symmetry_cell_setting 'triclinic'
loop_
_space_group_symop_operation_xyz
x,y,z
-x,-y,-z
loop_
_atom_site_type_symbol
_atom_site_label
_atom_site_fract_x
_atom_site_fract_y
_atom_site_fract_z
Si Si1 0.132968 0.998545 0.266638
Si Si2 0.042278 0.798237 0.906569
Si Si3 0.127722 0.503812 0.774490
Si Si4 0.454335 0.435382 0.630964
Si Si5 0.636284 0.316487 0.102611
Si Si6 0.234819 0.197906 0.632064
O O1 0.180181 0.899791 0.095061
O O2 0.000000 0.000000 0.500000
O O3 0.275908 0.095978 0.452180
O O4 0.000000 0.000000 0.000000
O O5 0.194913 0.734168 0.869779
O O6 0.898228 0.787971 0.613829
O O7 0.900247 0.793546 0.124989
O O8 0.223068 0.415931 0.602247
O O9 0.268363 0.601496 0.928972
O O10 0.000000 0.500000 0.500000
O O11 0.000000 0.500000 0.000000
O O12 0.500000 0.500000 0.500000
O O13 0.555645 0.356379 0.421470
O O14 0.500000 0.500000 0.000000
O O15 0.444206 0.262863 0.829881
#
# Coordination Sequence:
#
# PCOD9039567 Si02
#       6
#     2   2   2   2   2   2
#     4   8  16  37  64  97 141 183 219 269 343 406
#     4  10  23  42  69 104 142 183 227 280 344 413
#     4  11  25  46  69  93 128 180 224 281 356 411
#     4  10  23  45  65  92 130 168 219 283 343 410
#     4  11  26  46  72 104 137 181 240 289 345 414
#     4  10  23  42  69 103 144 182 225 288 337 408
#
# _framework density 22.340627000000001
#
# number of rings (size 3 to 8) (size 9 to 14) (size 15 to 20)
#    0.000    2.000    0.000    2.000    2.333   10.000 
#    0.000    0.000    0.000   12.000    0.000    0.000 
#    0.000    0.000    0.000    0.000    0.000    1.500 
#
# Total GULP energy -66846.910111 kJ/mol
# GULP energy per Si atom -5570.575843 kJ/mol
# Density = 2.228978 g / cm^3
# Si number density = 22.340627 Si / 1000 Ang^3
#
#
#
# Elastic Constant Matrix: (Units=GPa)
#
#
# Indices 1 2 3 4 5 6 
#
# 1 139.5105 76.1938 69.6163 17.2276 11.5352 9.0963
# 2 76.1938 147.0939 74.1372 15.1226 -2.1277 1.9031
# 3 69.6163 74.1372 154.4129 -27.3887 13.2644 5.3255
# 4 17.2276 15.1226 -27.3887 45.7383 -4.9316 6.6848
# 5 11.5352 -2.1277 13.2644 -4.9316 43.9335 1.0142
# 6 9.0963 1.9031 5.3255 6.6848 1.0142 42.4414
#
#
#
# Elastic Compliance Matrix: (Units=1/GPa)
#
#
# Indices 1 2 3 4 5 6 
#
# 1 0.012624 -0.003311 -0.005061 -0.006869 -0.002700 -0.000776
# 2 -0.003311 0.011970 -0.005599 -0.006062 0.002418 0.001772
# 3 -0.005061 -0.005599 0.013833 0.012191 -0.001698 -0.002279
# 4 -0.006869 -0.006062 0.012191 0.034729 0.001850 -0.005300
# 5 -0.002700 0.002418 -0.001698 0.001850 0.024312 -0.000189
# 6 -0.000776 0.001772 -0.002279 -0.005300 -0.000189 0.024774
#
#
# Mechanical properties :
#
#
# Convention : Reuss Voigt Hill
#
# Bulk Modulus (GPa) = 95.37143 97.87911 96.62527
# Shear Modulus (GPa) = 32.53537 41.16064 36.84800
#
# Velocity S-wave (km/s) = 3.82033 4.29699 4.06565
# Velocity P-wave (km/s) = 7.88938 8.27805 8.08605
#
# Compressibility (1/GPa) = 0.01048532
#
# Stress axis : x y z
#
# Youngs Moduli (GPa) = 79.21529 83.53959 72.29193
#
# Poissons Ratio (x) = 0.27659 0.36590
# Poissons Ratio (y) = 0.26228 0.40473
# Poissons Ratio (z) = 0.40094 0.46770
#
# Static dielectric constant tensor:
#      x y z
#    x 2.131520 -0.012710 0.126790 
#    y -0.012710 1.899860 0.052870 
#    z 0.126790 0.052870 1.923640 
# 
# From -- ./inp_files/49897.got.cif
#   From: 2010.05.17/outbox.cif.g08.bks.cpg/sg2_25_cif.got.tgz:49897.got - 2010.06.03 11:33:40.
