data_PCOD9039770
_publ_section_title
;
Structure prediction by ZEFSAII (Michael W. Deem and Ramdas Pophale) SiO2 
 PCOD9039770
Probable space group: P -1
;
_chemical_formula_sum "Si O2"
_cell_formula_units_Z 15
_cell_length_a 22.332491
_cell_length_b 7.980742
_cell_length_c 13.893862
_cell_angle_alpha 139.434817
_cell_angle_beta 156.297974
_cell_angle_gamma 43.567587
_cell_volume 643.348224
_symmetry_space_group_name_H-M "P -1"
_symmetry_group_IT_number 2
_symmetry_cell_setting 'triclinic'
loop_
_space_group_symop_operation_xyz
x,y,z
-x,-y,-z
loop_
_atom_site_type_symbol
_atom_site_label
_atom_site_fract_x
_atom_site_fract_y
_atom_site_fract_z
Si Si1 0.381285 0.272904 0.316915
Si Si2 0.351764 0.462587 0.567534
Si Si3 0.181700 0.374439 0.548185
Si Si4 0.798076 0.169729 0.074076
Si Si5 0.500000 0.500000 0.000000
Si Si6 0.090675 0.626544 0.994386
Si Si7 0.905469 0.134571 0.695624
Si Si8 0.292952 0.891847 0.289194
O O1 0.401878 0.430707 0.515025
O O2 0.542419 0.219465 0.480548
O O3 0.237178 0.414087 0.112573
O O4 0.332814 0.991080 0.149501
O O5 0.470554 0.517846 0.846777
O O6 0.218268 0.694526 0.473529
O O7 0.300150 0.181170 0.389506
O O8 0.171997 0.604870 0.712240
O O9 0.337520 0.381821 0.724329
O O10 0.045193 0.431619 0.296992
O O11 0.161593 0.111834 0.462403
O O12 0.751906 0.261995 0.938788
O O13 0.947975 0.971705 0.194090
O O14 0.053943 0.685466 0.076880
O O15 0.162186 0.874602 0.164596
#
# Coordination Sequence:
#
# PCOD9039770 Si02
#       8
#     2   2   2   2   1   2   2   2
#     4  10  23  42  71 100 135 181 228 275 341 401
#     4  10  24  44  69 100 135 182 226 276 342 405
#     4  12  26  46  67 103 137 179 226 283 341 396
#     4  11  24  43  68  96 140 184 221 280 339 402
#     4  12  26  44  70  94 138 172 224 286 336 398
#     4  11  25  42  72 102 136 177 233 279 331 402
#     4  11  25  45  71  99 137 182 227 277 338 411
#     4  11  21  44  71 100 137 179 230 278 333 403
#
# _framework density 23.315522000000001
#
# number of rings (size 3 to 8) (size 9 to 14) (size 15 to 20)
#    0.000    1.067    1.333    5.200    5.600    3.733 
#    2.400    1.333    0.000    0.000    0.000    0.000 
#    0.000    0.000    0.000    0.000    0.000    0.000 
#
# Total GULP energy -83752.777116 kJ/mol
# GULP energy per Si atom -5583.518474 kJ/mol
# Density = 2.326246 g / cm^3
# Si number density = 23.315522 Si / 1000 Ang^3
#
#
#
# Elastic Constant Matrix: (Units=GPa)
#
#
# Indices 1 2 3 4 5 6 
#
# 1 68.7549 20.5460 54.6932 0.0345 6.0613 -4.4588
# 2 20.5460 91.1724 47.5729 -19.1420 -7.3048 -9.8828
# 3 54.6932 47.5729 171.6209 -16.0216 -8.3897 -7.4164
# 4 0.0345 -19.1420 -16.0216 33.3055 -7.3332 -3.5723
# 5 6.0613 -7.3048 -8.3897 -7.3332 58.2756 -3.4575
# 6 -4.4588 -9.8828 -7.4164 -3.5723 -3.4575 29.3479
#
#
#
# Elastic Compliance Matrix: (Units=1/GPa)
#
#
# Indices 1 2 3 4 5 6 
#
# 1 0.021094 -0.002927 -0.006709 -0.005958 -0.004319 -0.000710
# 2 -0.002927 0.015594 -0.002095 0.009348 0.003479 0.005825
# 3 -0.006709 -0.002095 0.009070 0.003811 0.002298 0.001302
# 4 -0.005958 0.009348 0.003811 0.039942 0.007900 0.008999
# 5 -0.004319 0.003479 0.002298 0.007900 0.019629 0.004370
# 6 -0.000710 0.005825 0.001302 0.008999 0.004370 0.037867
#
#
# Mechanical properties :
#
#
# Convention : Reuss Voigt Hill
#
# Bulk Modulus (GPa) = 44.85239 64.13026 54.49133
# Shear Modulus (GPa) = 28.72071 38.10156 33.41113
#
# Velocity S-wave (km/s) = 3.51355 4.04687 3.78960
# Velocity P-wave (km/s) = 5.97820 7.02861 6.52458
#
# Compressibility (1/GPa) = 0.02229536
#
# Stress axis : x y z
#
# Youngs Moduli (GPa) = 47.40783 64.12684 110.25262
#
# Poissons Ratio (x) = 0.18769 0.73968
# Poissons Ratio (y) = 0.13876 0.23102
# Poissons Ratio (z) = 0.31806 0.13437
#
# Static dielectric constant tensor:
#      x y z
#    x 1.909610 0.027050 0.002100 
#    y 0.027050 1.927510 -0.009260 
#    z 0.002100 -0.009260 1.838560 
# 
# From -- ./inp_files/302486.got.cif
#   From: 2010.05.17/outbox.cif.g08.bks.cpg/sg2_152_cif.got.tgz:302486.got - 2010.06.03 11:33:40.
