data_PCOD9039586
_publ_section_title
;
Structure prediction by ZEFSAII (Michael W. Deem and Ramdas Pophale) SiO2 
 PCOD9039586
Probable space group: P -1
;
_chemical_formula_sum "Si O2"
_cell_formula_units_Z 16
_cell_length_a 8.181618
_cell_length_b 5.284685
_cell_length_c 16.111340
_cell_angle_alpha 83.838890
_cell_angle_beta 58.898656
_cell_angle_gamma 78.371707
_cell_volume 584.229688
_symmetry_space_group_name_H-M "P -1"
_symmetry_group_IT_number 2
_symmetry_cell_setting 'triclinic'
loop_
_space_group_symop_operation_xyz
x,y,z
-x,-y,-z
loop_
_atom_site_type_symbol
_atom_site_label
_atom_site_fract_x
_atom_site_fract_y
_atom_site_fract_z
Si Si1 0.762970 0.210711 0.861809
Si Si2 0.264312 0.640215 0.865397
Si Si3 0.814416 0.686266 0.949844
Si Si4 0.476658 0.989721 0.198232
Si Si5 0.738070 0.076290 0.500751
Si Si6 0.413741 0.402081 0.674589
Si Si7 0.105417 0.253213 0.659069
Si Si8 0.863105 0.709724 0.623889
O O1 0.767964 0.464848 0.906355
O O2 0.972573 0.148480 0.764888
O O3 0.720852 0.965449 0.932421
O O4 0.609746 0.220179 0.827073
O O5 0.364386 0.847576 0.881031
O O6 0.388867 0.605083 0.748611
O O7 0.041103 0.708866 0.894557
O O8 0.244834 0.405683 0.941360
O O9 0.279815 0.187025 0.267446
O O10 0.571667 0.848008 0.260677
O O11 0.723354 0.955806 0.417967
O O12 0.750107 0.828119 0.567414
O O13 0.595025 0.317554 0.568875
O O14 0.948246 0.156383 0.434123
O O15 0.221053 0.448503 0.668799
O O16 0.954298 0.410568 0.626420
#
# Coordination Sequence:
#
# PCOD9039586 Si02
#       8
#     2   2   2   2   2   2   2   2
#     4  12  26  48  80 112 150 202 257 314 382 459
#     4  11  27  47  77 107 155 197 255 320 385 452
#     4  11  28  51  79 111 151 206 258 317 387 460
#     4  11  26  45  75 108 156 194 257 311 392 443
#     4  10  23  43  69 108 150 196 255 308 383 451
#     4  11  26  44  69 110 148 200 251 320 376 456
#     4  12  23  43  75 104 154 197 259 307 382 454
#     4  10  23  42  69 108 146 205 243 312 373 461
#
# _framework density 27.386489000000001
#
# number of rings (size 3 to 8) (size 9 to 14) (size 15 to 20)
#    0.000    1.000    2.500    2.250    5.250    5.500 
#    0.000    0.000    0.000    0.000    0.000    0.000 
#    0.000    0.000    0.000    0.000    0.000    0.000 
#
# Total GULP energy -89493.839894 kJ/mol
# GULP energy per Si atom -5593.364993 kJ/mol
# Density = 2.732416 g / cm^3
# Si number density = 27.386489 Si / 1000 Ang^3
#
#
#
# Elastic Constant Matrix: (Units=GPa)
#
#
# Indices 1 2 3 4 5 6 
#
# 1 112.9721 37.8318 60.3001 6.0956 -13.0176 15.6901
# 2 37.8318 76.5828 59.6805 -11.4698 -14.0905 11.0094
# 3 60.3001 59.6805 116.0894 18.1448 0.6890 9.8241
# 4 6.0956 -11.4698 18.1448 49.5684 -0.7897 3.4392
# 5 -13.0176 -14.0905 0.6890 -0.7897 41.2592 -2.9378
# 6 15.6901 11.0094 9.8241 3.4392 -2.9378 42.9904
#
#
#
# Elastic Compliance Matrix: (Units=1/GPa)
#
#
# Indices 1 2 3 4 5 6 
#
# 1 0.013380 0.000362 -0.007101 0.001325 0.004264 -0.003168
# 2 0.000362 0.032780 -0.019070 0.015023 0.011589 -0.004579
# 3 -0.007101 -0.019070 0.023930 -0.012611 -0.009224 0.002385
# 4 0.001325 0.015023 -0.012611 0.028430 0.006068 -0.003309
# 5 0.004264 0.011589 -0.009224 0.006068 0.029748 -0.000869
# 6 -0.003168 -0.004579 0.002385 -0.003309 -0.000869 0.025250
#
#
# Mechanical properties :
#
#
# Convention : Reuss Voigt Hill
#
# Bulk Modulus (GPa) = 54.12954 69.02992 61.57973
# Shear Modulus (GPa) = 23.66377 36.61907 30.14142
#
# Velocity S-wave (km/s) = 2.94269 3.66063 3.32112
# Velocity P-wave (km/s) = 5.59945 6.56716 6.10252
#
# Compressibility (1/GPa) = 0.01847420
#
# Stress axis : x y z
#
# Youngs Moduli (GPa) = 74.73668 30.50610 41.78889
#
# Poissons Ratio (x) = -0.01104 0.29672
# Poissons Ratio (y) = -0.02705 0.79689
# Poissons Ratio (z) = 0.53067 0.58174
#
# Static dielectric constant tensor:
#      x y z
#    x 2.113140 -0.009760 0.016530 
#    y -0.009760 2.176020 0.083590 
#    z 0.016530 0.083590 2.119720 
# 
# From -- ./inp_files/553410.got.cif
#   From: 2010.05.17/outbox.cif.g08.bks.cpg/sg2_277_cif.got.tgz:553410.got - 2010.06.03 11:33:40.
