data_PCOD9039539
_publ_section_title
;
Structure prediction by ZEFSAII (Michael W. Deem and Ramdas Pophale) SiO2 
 PCOD9039539
Probable space group: P -1
;
_chemical_formula_sum "Si O2"
_cell_formula_units_Z 14
_cell_length_a 9.265454
_cell_length_b 10.756446
_cell_length_c 16.197949
_cell_angle_alpha 46.358164
_cell_angle_beta 99.765031
_cell_angle_gamma 135.706558
_cell_volume 625.580378
_symmetry_space_group_name_H-M "P -1"
_symmetry_group_IT_number 2
_symmetry_cell_setting 'triclinic'
loop_
_space_group_symop_operation_xyz
x,y,z
-x,-y,-z
loop_
_atom_site_type_symbol
_atom_site_label
_atom_site_fract_x
_atom_site_fract_y
_atom_site_fract_z
Si Si1 0.355484 0.655444 0.606431
Si Si2 0.041116 0.642477 0.621658
Si Si3 0.607429 0.181621 0.650538
Si Si4 0.689682 0.670388 0.140263
Si Si5 0.864161 0.179288 0.129537
Si Si6 0.560260 0.249964 0.861535
Si Si7 0.403100 0.589128 0.917207
O O1 0.332338 0.711088 0.487255
O O2 0.327482 0.427270 0.725121
O O3 0.112517 0.510576 0.698629
O O4 0.656217 0.988484 0.516675
O O5 0.855733 0.481183 0.596373
O O6 0.864509 0.548086 0.721175
O O7 0.331346 0.014142 0.721368
O O8 0.550003 0.921961 0.785028
O O9 0.515585 0.672706 0.119158
O O10 0.603255 0.448695 0.164467
O O11 0.000000 0.000000 0.000000
O O12 0.646416 0.938059 0.147563
O O13 0.000000 0.500000 0.000000
O O14 0.119716 0.322632 0.060459
O O15 0.500000 0.000000 0.000000
O O16 0.500000 0.500000 0.000000
#
# Coordination Sequence:
#
# PCOD9039539 Si02
#       7
#     2   2   2   2   2   2   2
#     4  11  24  44  70  97 140 183 230 287 343 414
#     4  10  23  42  69 101 135 184 231 274 345 412
#     4  10  23  44  71  99 139 185 229 276 342 412
#     4  12  26  44  68 100 133 175 232 290 349 406
#     4   9  21  40  64  97 132 176 224 271 342 402
#     4  11  24  40  69  96 133 181 225 286 344 409
#     4  11  24  40  67 106 139 178 226 285 341 399
#
# _framework density 22.379218000000002
#
# number of rings (size 3 to 8) (size 9 to 14) (size 15 to 20)
#    0.000    1.429    1.429    3.000   12.000    0.571 
#    0.000    4.286    0.000    0.000    0.000    3.000 
#    0.000    0.000    0.000    0.000    0.000    0.000 
#
# Total GULP energy -78013.575088 kJ/mol
# GULP energy per Si atom -5572.398221 kJ/mol
# Density = 2.232828 g / cm^3
# Si number density = 22.379218 Si / 1000 Ang^3
#
#
#
# Elastic Constant Matrix: (Units=GPa)
#
#
# Indices 1 2 3 4 5 6 
#
# 1 183.1901 26.7256 51.3828 3.0872 -33.6411 17.3205
# 2 26.7256 76.0550 33.0385 -8.1501 -7.2872 7.2508
# 3 51.3828 33.0385 86.8086 7.7254 -6.3138 19.2942
# 4 3.0872 -8.1501 7.7254 26.3990 11.3086 1.6281
# 5 -33.6411 -7.2872 -6.3138 11.3086 41.6016 -2.5250
# 6 17.3205 7.2508 19.2942 1.6281 -2.5250 32.6622
#
#
#
# Elastic Compliance Matrix: (Units=1/GPa)
#
#
# Indices 1 2 3 4 5 6 
#
# 1 0.007868 -0.000904 -0.003279 -0.002900 0.006410 -0.001395
# 2 -0.000904 0.017141 -0.006791 0.007733 -0.000847 0.000235
# 3 -0.003279 -0.006791 0.018267 -0.006758 0.000332 -0.007182
# 4 -0.002900 0.007733 -0.006758 0.049157 -0.015367 0.000175
# 5 0.006410 -0.000847 0.000332 -0.015367 0.033297 -0.000068
# 6 -0.001395 0.000235 -0.007182 0.000175 -0.000068 0.035532
#
#
# Mechanical properties :
#
#
# Convention : Reuss Voigt Hill
#
# Bulk Modulus (GPa) = 46.88474 63.14973 55.01724
# Shear Modulus (GPa) = 26.27177 35.79301 31.03239
#
# Velocity S-wave (km/s) = 3.42999 4.00357 3.72783
# Velocity P-wave (km/s) = 6.05657 7.04633 6.57011
#
# Compressibility (1/GPa) = 0.02132890
#
# Stress axis : x y z
#
# Youngs Moduli (GPa) = 127.09144 58.33942 54.74454
#
# Poissons Ratio (x) = 0.05274 0.17951
# Poissons Ratio (y) = 0.11490 0.37174
# Poissons Ratio (z) = 0.41673 0.39616
#
# Static dielectric constant tensor:
#      x y z
#    x 1.933900 -0.054080 0.016830 
#    y -0.054080 1.894440 0.023770 
#    z 0.016830 0.023770 1.872890 
# 
# From -- ./inp_files/559684.got.cif
#   From: 2010.05.17/outbox.cif.g08.bks.cpg/sg2_280_cif.got.tgz:559684.got - 2010.06.03 11:33:40.
