data_PCOD9039316
_publ_section_title
;
Structure prediction by ZEFSAII (Michael W. Deem and Ramdas Pophale) SiO2 
 PCOD9039316
Probable space group: P -1
;
_chemical_formula_sum "Si O2"
_cell_formula_units_Z 14
_cell_length_a 9.746887
_cell_length_b 11.429131
_cell_length_c 12.219780
_cell_angle_alpha 36.507165
_cell_angle_beta 66.420628
_cell_angle_gamma 91.957833
_cell_volume 562.553026
_symmetry_space_group_name_H-M "P -1"
_symmetry_group_IT_number 2
_symmetry_cell_setting 'triclinic'
loop_
_space_group_symop_operation_xyz
x,y,z
-x,-y,-z
loop_
_atom_site_type_symbol
_atom_site_label
_atom_site_fract_x
_atom_site_fract_y
_atom_site_fract_z
Si Si1 0.266698 0.316212 0.710651
Si Si2 0.298690 0.576579 0.305850
Si Si3 0.996856 0.650931 0.620026
Si Si4 0.447285 0.978946 0.257512
Si Si5 0.079003 0.872214 0.923355
Si Si6 0.642882 0.440608 0.020942
Si Si7 0.477580 0.311753 0.398884
O O1 0.500000 0.500000 0.500000
O O2 0.236256 0.488179 0.516999
O O3 0.137408 0.215027 0.937946
O O4 0.178634 0.063810 0.853864
O O5 0.103368 0.392234 0.432576
O O6 0.443754 0.515572 0.276710
O O7 0.416654 0.867840 0.007848
O O8 0.953903 0.385614 0.860160
O O9 0.229671 0.874620 0.384743
O O10 0.865556 0.658285 0.744113
O O11 0.450126 0.762385 0.468118
O O12 0.552037 0.192807 0.159723
O O13 0.247633 0.051567 0.644773
O O14 0.619112 0.383483 0.199550
O O15 0.500000 0.500000 0.000000
#
# Coordination Sequence:
#
# PCOD9039316 Si02
#       7
#     2   2   2   2   2   2   2
#     4  10  24  44  71 101 128 172 224 273 335 399
#     4  10  23  45  65  96 136 169 216 282 327 385
#     4  11  24  43  65 100 134 175 221 269 330 393
#     4  11  24  41  66 100 132 177 225 263 332 392
#     4  10  23  42  67  97 133 168 220 272 330 388
#     4  11  22  45  63  98 140 174 223 274 320 386
#     4  11  21  45  69  90 142 176 214 283 324 383
#
# _framework density 24.886544000000001
#
# number of rings (size 3 to 8) (size 9 to 14) (size 15 to 20)
#    0.000    1.429    5.714    0.429    4.000    5.143 
#    0.000    1.429    0.000    0.000    0.000    0.000 
#    0.000    0.000    0.000    0.000    0.000    0.000 
#
# Total GULP energy -78236.976582 kJ/mol
# GULP energy per Si atom -5588.355470 kJ/mol
# Density = 2.482990 g / cm^3
# Si number density = 24.886544 Si / 1000 Ang^3
#
#
#
# Elastic Constant Matrix: (Units=GPa)
#
#
# Indices 1 2 3 4 5 6 
#
# 1 115.8663 -4.1519 31.8851 11.4817 -21.8885 2.7539
# 2 -4.1519 43.5026 -3.3776 11.8790 -3.2329 -1.5000
# 3 31.8851 -3.3776 102.7097 13.6193 -16.2478 11.0511
# 4 11.4817 11.8790 13.6193 46.7203 -5.4060 5.0984
# 5 -21.8885 -3.2329 -16.2478 -5.4060 61.9031 5.4078
# 6 2.7539 -1.5000 11.0511 5.0984 5.4078 31.9992
#
#
#
# Elastic Compliance Matrix: (Units=1/GPa)
#
#
# Indices 1 2 3 4 5 6 
#
# 1 0.010059 0.001478 -0.002361 -0.001808 0.002872 -0.000178
# 2 0.001478 0.025367 0.001403 -0.007215 0.001456 0.001481
# 3 -0.002361 0.001403 0.011628 -0.002478 0.002402 -0.003758
# 4 -0.001808 -0.007215 -0.002478 0.024872 0.000805 -0.003426
# 5 0.002872 0.001456 0.002402 0.000805 0.018316 -0.004232
# 6 -0.000178 0.001481 -0.003758 -0.003426 -0.004232 0.033894
#
#
# Mechanical properties :
#
#
# Convention : Reuss Voigt Hill
#
# Bulk Modulus (GPa) = 20.79270 34.53221 27.66246
# Shear Modulus (GPa) = 35.93802 43.97272 39.95537
#
# Velocity S-wave (km/s) = 3.80422 4.20804 4.01122
# Velocity P-wave (km/s) = 5.26016 6.12504 5.70900
#
# Compressibility (1/GPa) = 0.04809379
#
# Stress axis : x y z
#
# Youngs Moduli (GPa) = 99.41101 39.42205 85.99741
#
# Poissons Ratio (x) = -0.05825 0.20304
# Poissons Ratio (y) = -0.14690 -0.12067
# Poissons Ratio (z) = 0.23470 -0.05532
#
# Static dielectric constant tensor:
#      x y z
#    x 2.020790 0.028060 0.014270 
#    y 0.028060 2.065510 0.019340 
#    z 0.014270 0.019340 2.024630 
# 
# From -- ./inp_files/504956.got.cif
#   From: 2010.05.17/outbox.cif.g08.bks.cpg/sg2_253_cif.got.tgz:504956.got - 2010.06.03 11:33:40.
