data_PCOD9039595
_publ_section_title
;
Structure prediction by ZEFSAII (Michael W. Deem and Ramdas Pophale) SiO2 
 PCOD9039595
Probable space group: P -1
;
_chemical_formula_sum "Si O2"
_cell_formula_units_Z 16
_cell_length_a 8.918484
_cell_length_b 18.290123
_cell_length_c 5.351528
_cell_angle_alpha 94.397678
_cell_angle_beta 97.976967
_cell_angle_gamma 129.869394
_cell_volume 647.560255
_symmetry_space_group_name_H-M "P -1"
_symmetry_group_IT_number 2
_symmetry_cell_setting 'triclinic'
loop_
_space_group_symop_operation_xyz
x,y,z
-x,-y,-z
loop_
_atom_site_type_symbol
_atom_site_label
_atom_site_fract_x
_atom_site_fract_y
_atom_site_fract_z
Si Si1 0.235309 0.095143 0.636253
Si Si2 0.169798 0.615325 0.127578
Si Si3 0.198350 0.867563 0.928649
Si Si4 0.075981 0.321847 0.839517
Si Si5 0.551706 0.580030 0.727836
Si Si6 0.822532 0.768811 0.535562
Si Si7 0.415167 0.079806 0.180354
Si Si8 0.764144 0.411132 0.362917
O O1 0.247553 0.187711 0.645107
O O2 0.365008 0.104202 0.434855
O O3 0.318203 0.091112 0.919856
O O4 0.000000 0.000000 0.500000
O O5 0.310674 0.633307 0.388178
O O6 0.057652 0.649851 0.215050
O O7 0.263185 0.655731 0.884242
O O8 0.000000 0.500000 0.000000
O O9 0.352378 0.865858 0.809508
O O10 0.037636 0.860040 0.722394
O O11 0.062035 0.773779 0.045718
O O12 0.316867 0.966963 0.136016
O O13 0.128700 0.291952 0.604221
O O14 0.290156 0.403908 0.041473
O O15 0.500000 0.500000 0.500000
O O16 0.667878 0.690724 0.687009
O O17 0.341862 0.549359 0.749202
O O18 0.000000 0.500000 0.500000
#
# Coordination Sequence:
#
# PCOD9039595 Si02
#       8
#     2   2   2   2   2   2   2   2
#     4  12  25  46  74 108 150 193 236 295 361 424
#     4  10  23  42  69  93 131 178 228 286 348 410
#     4  10  25  46  70 109 142 188 237 294 359 428
#     4  11  26  45  71 100 146 186 239 302 362 425
#     4  11  26  45  70 100 140 190 242 297 362 427
#     4  11  27  44  71 103 147 187 239 297 362 434
#     4  11  26  45  79 106 146 193 240 289 358 434
#     4  10  23  43  67  96 127 172 234 287 348 412
#
# _framework density 24.708124000000002
#
# number of rings (size 3 to 8) (size 9 to 14) (size 15 to 20)
#    0.000    1.250    1.250    2.625   14.000    3.500 
#    0.000    0.000    0.000    0.000    0.000    0.000 
#    0.000    0.000    0.000    0.000    0.000    0.000 
#
# Total GULP energy -89479.184865 kJ/mol
# GULP energy per Si atom -5592.449054 kJ/mol
# Density = 2.465189 g / cm^3
# Si number density = 24.708124 Si / 1000 Ang^3
#
#
#
# Elastic Constant Matrix: (Units=GPa)
#
#
# Indices 1 2 3 4 5 6 
#
# 1 103.4500 20.7339 11.2873 -10.0838 12.9526 -8.3700
# 2 20.7339 67.8790 6.2645 -8.7494 20.4987 -7.3479
# 3 11.2873 6.2645 99.4929 -16.1967 -4.8602 0.5959
# 4 -10.0838 -8.7494 -16.1967 28.4603 -6.8003 1.5318
# 5 12.9526 20.4987 -4.8602 -6.8003 42.1997 6.5879
# 6 -8.3700 -7.3479 0.5959 1.5318 6.5879 46.8836
#
#
#
# Elastic Compliance Matrix: (Units=1/GPa)
#
#
# Indices 1 2 3 4 5 6 
#
# 1 0.010824 -0.002029 -0.000900 0.002020 -0.002411 0.001899
# 2 -0.002029 0.018818 -0.001064 0.002134 -0.008887 0.003780
# 3 -0.000900 -0.001064 0.011495 0.006769 0.003391 -0.001171
# 4 0.002020 0.002134 0.006769 0.041912 0.006130 -0.001622
# 5 -0.002411 -0.008887 0.003391 0.006130 0.031138 -0.006442
# 6 0.001899 0.003780 -0.001171 -0.001622 -0.006442 0.023234
#
#
# Mechanical properties :
#
#
# Convention : Reuss Voigt Hill
#
# Bulk Modulus (GPa) = 30.16639 38.59929 34.38284
# Shear Modulus (GPa) = 31.95760 39.01113 35.48436
#
# Velocity S-wave (km/s) = 3.60029 3.97782 3.79376
# Velocity P-wave (km/s) = 5.43309 6.06246 5.75638
#
# Compressibility (1/GPa) = 0.03314948
#
# Stress axis : x y z
#
# Youngs Moduli (GPa) = 92.38845 53.14068 86.99710
#
# Poissons Ratio (x) = 0.10782 0.07834
# Poissons Ratio (y) = 0.18746 0.09257
# Poissons Ratio (z) = 0.08319 0.05655
#
# Static dielectric constant tensor:
#      x y z
#    x 1.996410 0.097200 -0.010970 
#    y 0.097200 2.074360 -0.074780 
#    z -0.010970 -0.074780 1.978340 
# 
# From -- ./inp_files/48285.got.cif
#   From: 2010.05.17/outbox.cif.g08.bks.cpg/sg2_25_cif.got.tgz:48285.got - 2010.06.03 11:33:40.
