data_PCOD9039854
_publ_section_title
;
Structure prediction by ZEFSAII (Michael W. Deem and Ramdas Pophale) SiO2 
 PCOD9039854
Probable space group: P -1
;
_chemical_formula_sum "Si O2"
_cell_formula_units_Z 14
_cell_length_a 12.813480
_cell_length_b 19.761093
_cell_length_c 6.843692
_cell_angle_alpha 40.062091
_cell_angle_beta 46.749262
_cell_angle_gamma 35.866572
_cell_volume 643.689816
_symmetry_space_group_name_H-M "P -1"
_symmetry_group_IT_number 2
_symmetry_cell_setting 'triclinic'
loop_
_space_group_symop_operation_xyz
x,y,z
-x,-y,-z
loop_
_atom_site_type_symbol
_atom_site_label
_atom_site_fract_x
_atom_site_fract_y
_atom_site_fract_z
Si Si1 0.199162 0.336259 0.622998
Si Si2 0.309792 0.616359 0.881844
Si Si3 0.881856 0.947819 0.224580
Si Si4 0.885462 0.453811 0.472284
Si Si5 0.206138 0.904729 0.373105
Si Si6 0.561866 0.079962 0.645351
Si Si7 0.924826 0.347269 0.240733
O O1 0.254377 0.404498 0.553097
O O2 0.372332 0.219929 0.541427
O O3 0.061257 0.418298 0.439554
O O4 0.089837 0.306063 0.974632
O O5 0.272711 0.755791 0.579184
O O6 0.252068 0.585199 0.820339
O O7 0.500000 0.500000 0.000000
O O8 0.162197 0.639315 0.175285
O O9 0.707135 0.004409 0.456487
O O10 0.797207 0.011566 0.983890
O O11 0.014765 0.790400 0.437369
O O12 0.000000 0.000000 0.000000
O O13 0.897156 0.437449 0.261688
O O14 0.335360 0.893033 0.394449
O O15 0.000000 0.000000 0.500000
O O16 0.500000 0.000000 0.000000
#
# Coordination Sequence:
#
# PCOD9039854 Si02
#       7
#     2   2   2   2   2   2   2
#     4  10  23  45  64 103 142 185 233 300 365 419
#     4  11  24  43  66 103 141 187 243 299 361 430
#     4  12  24  44  73 110 142 189 239 291 371 436
#     4  10  23  42  71  94 141 192 239 293 361 432
#     4  12  25  44  73 103 147 191 236 298 366 433
#     4  12  26  44  71 106 148 183 239 303 354 435
#     4  11  22  42  73 101 138 188 246 293 365 436
#
# _framework density 21.749606
#
# number of rings (size 3 to 8) (size 9 to 14) (size 15 to 20)
#    0.000    0.857    4.286    2.143    4.000    2.286 
#    0.000    5.714    0.000    0.000    0.000    0.000 
#    0.000    0.000    0.000    0.000    0.000    0.000 
#
# Total GULP energy -78048.139227 kJ/mol
# GULP energy per Si atom -5574.867088 kJ/mol
# Density = 2.170010 g / cm^3
# Si number density = 21.749606 Si / 1000 Ang^3
#
#
#
# Elastic Constant Matrix: (Units=GPa)
#
#
# Indices 1 2 3 4 5 6 
#
# 1 104.5770 43.0012 31.7545 3.9032 14.9358 3.9890
# 2 43.0012 101.7798 32.8279 2.5032 12.5286 -5.2312
# 3 31.7545 32.8279 119.6292 2.8178 9.6695 5.5581
# 4 3.9032 2.5032 2.8178 38.0620 0.2544 4.3505
# 5 14.9358 12.5286 9.6695 0.2544 45.4397 1.9105
# 6 3.9890 -5.2312 5.5581 4.3505 1.9105 30.3600
#
#
#
# Elastic Compliance Matrix: (Units=1/GPa)
#
#
# Indices 1 2 3 4 5 6 
#
# 1 0.012357 -0.004435 -0.001771 -0.000620 -0.002382 -0.001825
# 2 -0.004435 0.012863 -0.002358 -0.000597 -0.001728 0.003425
# 3 -0.001771 -0.002358 0.009626 -0.000158 -0.000737 -0.001867
# 4 -0.000620 -0.000597 -0.000158 0.026826 0.000414 -0.003863
# 5 -0.002382 -0.001728 -0.000737 0.000414 0.023479 -0.001387
# 6 -0.001825 0.003425 -0.001867 -0.003863 -0.001387 0.034750
#
#
# Mechanical properties :
#
#
# Convention : Reuss Voigt Hill
#
# Bulk Modulus (GPa) = 56.43958 60.12815 58.28387
# Shear Modulus (GPa) = 34.98100 37.33250 36.15675
#
# Velocity S-wave (km/s) = 4.01478 4.14752 4.08169
# Velocity P-wave (km/s) = 6.89183 7.11629 7.00496
#
# Compressibility (1/GPa) = 0.01771806
#
# Stress axis : x y z
#
# Youngs Moduli (GPa) = 80.92896 77.74453 103.88148
#
# Poissons Ratio (x) = 0.34477 0.18399
# Poissons Ratio (y) = 0.35889 0.24495
# Poissons Ratio (z) = 0.14333 0.18332
#
# Static dielectric constant tensor:
#      x y z
#    x 1.827820 -0.045210 -0.018010 
#    y -0.045210 2.092550 -0.101490 
#    z -0.018010 -0.101490 1.826340 
# 
# From -- ./inp_files/81077.got.cif
#   From: 2010.05.17/outbox.cif.g08.bks.cpg/sg2_41_cif.got.tgz:81077.got - 2010.06.03 11:33:40.
