data_PCOD9039529
_publ_section_title
;
Structure prediction by ZEFSAII (Michael W. Deem and Ramdas Pophale) SiO2 
 PCOD9039529
Probable space group: P -1
;
_chemical_formula_sum "Si O2"
_cell_formula_units_Z 14
_cell_length_a 17.184415
_cell_length_b 5.354872
_cell_length_c 9.268459
_cell_angle_alpha 55.861484
_cell_angle_beta 51.760796
_cell_angle_gamma 83.123964
_cell_volume 519.353250
_symmetry_space_group_name_H-M "P -1"
_symmetry_group_IT_number 2
_symmetry_cell_setting 'triclinic'
loop_
_space_group_symop_operation_xyz
x,y,z
-x,-y,-z
loop_
_atom_site_type_symbol
_atom_site_label
_atom_site_fract_x
_atom_site_fract_y
_atom_site_fract_z
Si Si1 0.919781 0.808946 0.777371
Si Si2 0.070093 0.032289 0.769518
Si Si3 0.188073 0.703567 0.310714
Si Si4 0.336394 0.828446 0.354040
Si Si5 0.746304 0.146285 0.252203
Si Si6 0.389815 0.942006 0.829084
Si Si7 0.488168 0.419795 0.823025
O O1 0.851935 0.039644 0.805446
O O2 0.831112 0.459826 0.976512
O O3 0.000000 0.000000 0.500000
O O4 0.996361 0.776067 0.826220
O O5 0.095809 0.366742 0.545815
O O6 0.181112 0.029210 0.700577
O O7 0.000000 0.000000 0.000000
O O8 0.233084 0.807899 0.386819
O O9 0.290492 0.698053 0.110047
O O10 0.308953 0.763064 0.574046
O O11 0.394576 0.592339 0.302518
O O12 0.421544 0.178753 0.103517
O O13 0.662214 0.976772 0.280925
O O14 0.464577 0.746005 0.760822
O O15 0.441145 0.237061 0.784529
#
# Coordination Sequence:
#
# PCOD9039529 Si02
#       7
#     2   2   2   2   2   2   2
#     4  12  24  43  66  95 138 185 229 281 349 417
#     4  12  24  39  63  97 134 177 233 292 343 405
#     4  11  23  43  69  97 137 186 232 282 348 422
#     4  10  23  42  69 100 137 179 232 286 345 411
#     4  12  24  41  67 101 139 179 232 292 344 408
#     4  11  24  44  70 100 141 184 230 280 351 419
#     4  10  24  46  70 101 140 187 228 282 351 425
#
# _framework density 26.956605
#
# number of rings (size 3 to 8) (size 9 to 14) (size 15 to 20)
#    0.000    0.857    0.000    7.714    0.000    8.571 
#    0.000    0.000    0.000    0.000    0.000    0.000 
#    0.000    0.000    0.000    0.000    0.000    0.000 
#
# Total GULP energy -78531.074000 kJ/mol
# GULP energy per Si atom -5609.362429 kJ/mol
# Density = 2.689525 g / cm^3
# Si number density = 26.956605 Si / 1000 Ang^3
#
#
#
# Elastic Constant Matrix: (Units=GPa)
#
#
# Indices 1 2 3 4 5 6 
#
# 1 195.3211 47.6536 23.1033 10.6216 16.2547 15.1154
# 2 47.6536 84.0455 20.6036 4.5766 6.1130 -2.0452
# 3 23.1033 20.6036 130.4949 8.6303 1.5561 9.6892
# 4 10.6216 4.5766 8.6303 53.5926 -3.1699 8.4697
# 5 16.2547 6.1130 1.5561 -3.1699 50.3473 2.6131
# 6 15.1154 -2.0452 9.6892 8.4697 2.6131 43.2891
#
#
#
# Elastic Compliance Matrix: (Units=1/GPa)
#
#
# Indices 1 2 3 4 5 6 
#
# 1 0.006315 -0.003392 -0.000367 -0.000669 -0.001551 -0.002059
# 2 -0.003392 0.014417 -0.001802 -0.000702 -0.000771 0.002453
# 3 -0.000367 -0.001802 0.008187 -0.000827 0.000117 -0.001635
# 4 -0.000669 -0.000702 -0.000827 0.019652 0.001749 -0.003565
# 5 -0.001551 -0.000771 0.000117 0.001749 0.020620 -0.001108
# 6 -0.002059 0.002453 -0.001635 -0.003565 -0.001108 0.025066
#
#
# Mechanical properties :
#
#
# Convention : Reuss Voigt Hill
#
# Bulk Modulus (GPa) = 56.18610 65.84251 61.01431
# Shear Modulus (GPa) = 44.91851 50.67920 47.79885
#
# Velocity S-wave (km/s) = 4.08649 4.34063 4.21548
# Velocity P-wave (km/s) = 6.56920 7.04272 6.81007
#
# Compressibility (1/GPa) = 0.01779800
#
# Stress axis : x y z
#
# Youngs Moduli (GPa) = 158.34106 69.36132 122.13993
#
# Poissons Ratio (x) = 0.23525 0.04482
# Poissons Ratio (y) = 0.53705 0.22014
# Poissons Ratio (z) = 0.05811 0.12501
#
# Static dielectric constant tensor:
#      x y z
#    x 2.034610 0.063460 0.018830 
#    y 0.063460 2.132990 0.000110 
#    z 0.018830 0.000110 2.063930 
# 
# From -- ./inp_files/55243.got.cif
#   From: 2010.05.17/outbox.cif.g08.bks.cpg/sg2_28_cif.got.tgz:55243.got - 2010.06.03 11:33:40.
