data_PCOD9039759
_publ_section_title
;
Structure prediction by ZEFSAII (Michael W. Deem and Ramdas Pophale) SiO2 
 PCOD9039759
Probable space group: P -1
;
_chemical_formula_sum "Si O2"
_cell_formula_units_Z 16
_cell_length_a 10.826820
_cell_length_b 12.911877
_cell_length_c 13.073794
_cell_angle_alpha 132.251228
_cell_angle_beta 31.961097
_cell_angle_gamma 113.991641
_cell_volume 650.490699
_symmetry_space_group_name_H-M "P -1"
_symmetry_group_IT_number 2
_symmetry_cell_setting 'triclinic'
loop_
_space_group_symop_operation_xyz
x,y,z
-x,-y,-z
loop_
_atom_site_type_symbol
_atom_site_label
_atom_site_fract_x
_atom_site_fract_y
_atom_site_fract_z
Si Si1 0.816583 0.712102 0.000587
Si Si2 0.250829 0.796810 0.458466
Si Si3 0.868535 0.620196 0.263532
Si Si4 0.003764 0.600874 0.391773
Si Si5 0.497947 0.875879 0.002414
Si Si6 0.217655 0.048578 0.964960
Si Si7 0.992317 0.111393 0.722570
Si Si8 0.709933 0.271322 0.228134
O O1 0.899615 0.578681 0.767494
O O2 0.754245 0.880608 0.113474
O O3 0.071510 0.672345 0.860581
O O4 0.543890 0.728691 0.244144
O O5 0.187605 0.673050 0.356628
O O6 0.059355 0.850731 0.724051
O O7 0.163769 0.948145 0.546742
O O8 0.588274 0.623409 0.480220
O O9 0.003890 0.598141 0.265455
O O10 0.860218 0.784743 0.342053
O O11 0.000000 0.500000 0.000000
O O12 0.718173 0.711058 0.704315
O O13 0.589390 0.925028 0.074388
O O14 0.210094 0.890341 0.221548
O O15 0.500000 0.000000 0.000000
O O16 0.255155 0.874945 0.823477
O O17 0.784459 0.203892 0.018009
#
# Coordination Sequence:
#
# PCOD9039759 Si02
#       8
#     2   2   2   2   2   2   2   2
#     4  12  26  41  65  94 143 187 207 258 337 398
#     4  10  24  44  66 102 127 172 224 273 322 391
#     4  12  27  42  66 103 131 173 224 272 333 393
#     4  11  24  44  66  96 142 165 221 282 318 396
#     4  11  19  43  72 100 128 166 222 286 328 374
#     4  10  23  42  70  98 131 174 223 271 323 395
#     4  11  23  42  75  96 128 174 219 283 335 370
#     4  11  24  46  66  97 137 171 224 276 319 397
#
# _framework density 24.596816
#
# number of rings (size 3 to 8) (size 9 to 14) (size 15 to 20)
#    0.000    1.000    5.000    2.250    3.500    7.500 
#    0.000    0.000    0.000    0.000    0.000    0.000 
#    0.000    0.000    0.000    0.000    0.000    0.000 
#
# Total GULP energy -89564.213332 kJ/mol
# GULP energy per Si atom -5597.763333 kJ/mol
# Density = 2.454083 g / cm^3
# Si number density = 24.596816 Si / 1000 Ang^3
#
#
#
# Elastic Constant Matrix: (Units=GPa)
#
#
# Indices 1 2 3 4 5 6 
#
# 1 99.1505 24.7723 35.0820 -18.5671 -13.8759 37.2849
# 2 24.7723 85.9713 24.7558 -6.9889 -15.9164 27.3901
# 3 35.0820 24.7558 140.5171 -21.5984 -23.5945 27.9535
# 4 -18.5671 -6.9889 -21.5984 39.7724 10.0847 -8.1706
# 5 -13.8759 -15.9164 -23.5945 10.0847 34.5954 -11.7326
# 6 37.2849 27.3901 27.9535 -8.1706 -11.7326 43.4558
#
#
#
# Elastic Compliance Matrix: (Units=1/GPa)
#
#
# Indices 1 2 3 4 5 6 
#
# 1 0.015793 -0.000043 -0.000795 0.004348 0.000407 -0.012085
# 2 -0.000043 0.015079 -0.000393 -0.000270 0.003950 -0.008199
# 3 -0.000795 -0.000393 0.009128 0.002872 0.003738 -0.003393
# 4 0.004348 -0.000270 0.002872 0.029827 -0.005557 -0.001300
# 5 0.000407 0.003950 0.003738 -0.005557 0.036241 0.003496
# 6 -0.012085 -0.008199 -0.003393 -0.001300 0.003496 0.041430
#
#
# Mechanical properties :
#
#
# Convention : Reuss Voigt Hill
#
# Bulk Modulus (GPa) = 26.63895 54.98435 40.81165
# Shear Modulus (GPa) = 30.77428 39.63331 35.20379
#
# Velocity S-wave (km/s) = 3.54100 4.01848 3.78727
# Velocity P-wave (km/s) = 5.25090 6.62825 5.97937
#
# Compressibility (1/GPa) = 0.03753901
#
# Stress axis : x y z
#
# Youngs Moduli (GPa) = 63.31859 66.31832 109.54861
#
# Poissons Ratio (x) = 0.00285 0.08706
# Poissons Ratio (y) = 0.00272 0.04305
# Poissons Ratio (z) = 0.05032 0.02606
#
# Static dielectric constant tensor:
#      x y z
#    x 1.994470 0.014720 -0.038310 
#    y 0.014720 1.973530 0.031190 
#    z -0.038310 0.031190 1.944800 
# 
# From -- ./inp_files/405222.got.cif
#   From: 2010.05.17/outbox.cif.g08.bks.cpg/sg2_203_cif.got.tgz:405222.got - 2010.06.03 11:33:40.
