data_PCOD9039088
_publ_section_title
;
Structure prediction by ZEFSAII (Michael W. Deem and Ramdas Pophale) SiO2 
 PCOD9039088
Probable space group: P -1
;
_chemical_formula_sum "Si O2"
_cell_formula_units_Z 14
_cell_length_a 9.310268
_cell_length_b 9.767235
_cell_length_c 11.724546
_cell_angle_alpha 53.906561
_cell_angle_beta 119.573216
_cell_angle_gamma 133.944953
_cell_volume 613.698645
_symmetry_space_group_name_H-M "P -1"
_symmetry_group_IT_number 2
_symmetry_cell_setting 'triclinic'
loop_
_space_group_symop_operation_xyz
x,y,z
-x,-y,-z
loop_
_atom_site_type_symbol
_atom_site_label
_atom_site_fract_x
_atom_site_fract_y
_atom_site_fract_z
Si Si1 0.957913 0.580001 0.061786
Si Si2 0.598889 0.604866 0.868553
Si Si3 0.347431 0.790552 0.704232
Si Si4 0.336118 0.366267 0.345572
Si Si5 0.759274 0.162679 0.755633
Si Si6 0.243120 0.477304 0.473449
Si Si7 0.878518 0.085204 0.617144
O O1 0.818468 0.383519 0.189169
O O2 0.148873 0.758148 0.122777
O O3 0.828199 0.674940 0.942996
O O4 0.000000 0.500000 0.000000
O O5 0.477742 0.710197 0.742702
O O6 0.563087 0.481904 0.797368
O O7 0.500000 0.500000 0.000000
O O8 0.251090 0.851268 0.537905
O O9 0.519056 0.995058 0.740195
O O10 0.220474 0.417234 0.361262
O O11 0.521624 0.392960 0.471174
O O12 0.191698 0.135051 0.353805
O O13 0.821725 0.369496 0.610966
O O14 0.845791 0.072943 0.746818
O O15 0.108199 0.267440 0.592150
#
# Coordination Sequence:
#
# PCOD9039088 Si02
#       7
#     2   2   2   2   2   2   2
#     4  11  26  46  67  94 137 179 221 268 324 400
#     4  10  23  42  66  90 133 175 215 271 319 383
#     4  11  23  43  69  99 132 168 221 279 330 384
#     4  11  23  44  63  98 139 168 219 277 335 389
#     4  12  23  40  71  98 127 175 220 271 334 394
#     4  11  24  38  68 100 133 174 214 273 348 387
#     4  12  23  40  72  99 132 166 224 282 329 393
#
# _framework density 22.812501999999999
#
# number of rings (size 3 to 8) (size 9 to 14) (size 15 to 20)
#    0.000    0.857    4.286    3.000    4.000    1.143 
#    0.000    0.000    0.000    0.000    0.000    0.000 
#    0.000    0.000    0.000    0.000    0.000    0.000 
#
# Total GULP energy -77991.847103 kJ/mol
# GULP energy per Si atom -5570.846222 kJ/mol
# Density = 2.276058 g / cm^3
# Si number density = 22.812502 Si / 1000 Ang^3
#
#
#
# Elastic Constant Matrix: (Units=GPa)
#
#
# Indices 1 2 3 4 5 6 
#
# 1 77.9158 28.9588 5.2376 -0.3495 -1.7427 -6.4677
# 2 28.9588 119.7145 10.7428 14.1532 4.0766 -1.3572
# 3 5.2376 10.7428 70.6539 0.7630 9.1477 -10.3446
# 4 -0.3495 14.1532 0.7630 28.2283 0.1142 -5.8127
# 5 -1.7427 4.0766 9.1477 0.1142 41.3876 5.2110
# 6 -6.4677 -1.3572 -10.3446 -5.8127 5.2110 31.5728
#
#
#
# Elastic Compliance Matrix: (Units=1/GPa)
#
#
# Indices 1 2 3 4 5 6 
#
# 1 0.014552 -0.003817 -0.000142 0.002749 0.000613 0.003175
# 2 -0.003817 0.010037 -0.001350 -0.005387 -0.000624 -0.001682
# 3 -0.000142 -0.001350 0.015771 0.001509 -0.004123 0.006038
# 4 0.002749 -0.005387 0.001509 0.039832 -0.000842 0.008298
# 5 0.000613 -0.000624 -0.004123 -0.000842 0.025878 -0.005678
# 6 0.003175 -0.001682 0.006038 0.008298 -0.005678 0.036694
#
#
# Mechanical properties :
#
#
# Convention : Reuss Voigt Hill
#
# Bulk Modulus (GPa) = 33.62481 39.79583 36.71032
# Shear Modulus (GPa) = 30.61899 35.12742 32.87321
#
# Velocity S-wave (km/s) = 3.66758 3.92833 3.80019
# Velocity P-wave (km/s) = 5.71896 6.16914 5.94831
#
# Compressibility (1/GPa) = 0.02973995
#
# Stress axis : x y z
#
# Youngs Moduli (GPa) = 68.71747 99.63302 63.40746
#
# Poissons Ratio (x) = 0.38033 0.00903
# Poissons Ratio (y) = 0.26232 0.08562
# Poissons Ratio (z) = 0.00979 0.13454
#
# Static dielectric constant tensor:
#      x y z
#    x 1.848870 0.010480 0.004840 
#    y 0.010480 1.822690 0.008450 
#    z 0.004840 0.008450 1.935150 
# 
# From -- ./inp_files/175806.got.cif
#   From: 2010.05.17/outbox.cif.g08.bks.cpg/sg2_88_cif.got.tgz:175806.got - 2010.06.03 11:33:40.
