data_PCOD9039047
_publ_section_title
;
Structure prediction by ZEFSAII (Michael W. Deem and Ramdas Pophale) SiO2 
 PCOD9039047
Probable space group: P -1
;
_chemical_formula_sum "Si O2"
_cell_formula_units_Z 14
_cell_length_a 7.385674
_cell_length_b 8.210448
_cell_length_c 13.394214
_cell_angle_alpha 99.245979
_cell_angle_beta 46.844995
_cell_angle_gamma 94.548482
_cell_volume 584.293710
_symmetry_space_group_name_H-M "P -1"
_symmetry_group_IT_number 2
_symmetry_cell_setting 'triclinic'
loop_
_space_group_symop_operation_xyz
x,y,z
-x,-y,-z
loop_
_atom_site_type_symbol
_atom_site_label
_atom_site_fract_x
_atom_site_fract_y
_atom_site_fract_z
Si Si1 0.665017 0.069197 0.598337
Si Si2 0.782339 0.602339 0.034672
Si Si3 0.423074 0.227100 0.244908
Si Si4 0.265064 0.568570 0.308960
Si Si5 0.973511 0.667856 0.748377
Si Si6 0.046084 0.860066 0.049317
Si Si7 0.830175 0.007966 0.327486
O O1 0.746829 0.250041 0.621451
O O2 0.860477 0.999479 0.433878
O O3 0.614679 0.928178 0.684957
O O4 0.416237 0.079611 0.624870
O O5 0.496495 0.559986 0.142242
O O6 0.798446 0.762763 0.112819
O O7 0.884320 0.632022 0.889238
O O8 0.000000 0.500000 0.000000
O O9 0.349092 0.412074 0.333411
O O10 0.236949 0.223657 0.221131
O O11 0.696927 0.224303 0.093454
O O12 0.028148 0.501838 0.331613
O O13 0.192192 0.796297 0.676045
O O14 0.043961 0.922025 0.169131
O O15 0.000000 0.000000 0.000000
#
# Coordination Sequence:
#
# PCOD9039047 Si02
#       7
#     2   2   2   2   2   2   2
#     4  11  23  47  70  93 138 186 221 278 331 406
#     4  12  20  39  66  99 137 170 222 283 339 395
#     4  10  23  43  70  97 140 173 222 283 341 394
#     4  10  23  42  65  99 136 175 223 278 339 402
#     4  10  24  42  64 102 137 172 227 277 345 402
#     4  12  20  40  70  95 132 175 223 281 332 391
#     4  11  24  41  69  99 133 180 233 270 334 407
#
# _framework density 23.960553999999998
#
# number of rings (size 3 to 8) (size 9 to 14) (size 15 to 20)
#    0.857    0.286    5.714    0.429    0.000    1.714 
#    2.571    4.286    0.000    0.000    0.000    0.000 
#    0.000    0.000    0.000    0.000    0.000    0.000 
#
# Total GULP energy -77966.385915 kJ/mol
# GULP energy per Si atom -5569.027565 kJ/mol
# Density = 2.390602 g / cm^3
# Si number density = 23.960554 Si / 1000 Ang^3
#
#
#
# Elastic Constant Matrix: (Units=GPa)
#
#
# Indices 1 2 3 4 5 6 
#
# 1 51.4181 24.3704 23.2311 7.3197 8.2283 11.7772
# 2 24.3704 141.6117 48.4884 13.5506 21.8701 28.9861
# 3 23.2311 48.4884 147.0800 6.3470 24.9382 2.7204
# 4 7.3197 13.5506 6.3470 30.2205 9.5286 7.2463
# 5 8.2283 21.8701 24.9382 9.5286 25.9503 -7.4476
# 6 11.7772 28.9861 2.7204 7.2463 -7.4476 48.4586
#
#
#
# Elastic Compliance Matrix: (Units=1/GPa)
#
#
# Indices 1 2 3 4 5 6 
#
# 1 0.023324 -0.001188 -0.002248 -0.001741 -0.005134 -0.005361
# 2 -0.001188 0.010815 -0.001636 0.000646 -0.009602 -0.007661
# 3 -0.002248 -0.001636 0.008834 0.001752 -0.007135 -0.000330
# 4 -0.001741 0.000646 0.001752 0.041193 -0.019445 -0.009210
# 5 -0.005134 -0.009602 -0.007135 -0.019445 0.068218 0.020784
# 6 -0.005361 -0.007661 -0.000330 -0.009210 0.020784 0.031112
#
#
# Mechanical properties :
#
#
# Convention : Reuss Voigt Hill
#
# Bulk Modulus (GPa) = 30.45936 59.14329 44.80132
# Shear Modulus (GPa) = 24.44005 37.19389 30.81697
#
# Velocity S-wave (km/s) = 3.19723 3.94419 3.59019
# Velocity P-wave (km/s) = 5.13513 6.74384 5.99370
#
# Compressibility (1/GPa) = 0.03283063
#
# Stress axis : x y z
#
# Youngs Moduli (GPa) = 42.87414 92.46093 113.20189
#
# Poissons Ratio (x) = 0.10980 0.25445
# Poissons Ratio (y) = 0.05091 0.18521
# Poissons Ratio (z) = 0.09637 0.15127
#
# Static dielectric constant tensor:
#      x y z
#    x 1.996920 0.030940 -0.101580 
#    y 0.030940 2.055550 0.052590 
#    z -0.101580 0.052590 1.992390 
# 
# From -- ./inp_files/382508.got.cif
#   From: 2010.05.17/outbox.cif.g08.bks.cpg/sg2_192_cif.got.tgz:382508.got - 2010.06.03 11:33:40.
