data_PCOD9039910
_publ_section_title
;
Structure prediction by ZEFSAII (Michael W. Deem and Ramdas Pophale) SiO2 
 PCOD9039910
Probable space group: P -1
;
_chemical_formula_sum "Si O2"
_cell_formula_units_Z 14
_cell_length_a 11.496757
_cell_length_b 14.474418
_cell_length_c 5.931581
_cell_angle_alpha 120.761194
_cell_angle_beta 83.518093
_cell_angle_gamma 133.464308
_cell_volume 568.649231
_symmetry_space_group_name_H-M "P -1"
_symmetry_group_IT_number 2
_symmetry_cell_setting 'triclinic'
loop_
_space_group_symop_operation_xyz
x,y,z
-x,-y,-z
loop_
_atom_site_type_symbol
_atom_site_label
_atom_site_fract_x
_atom_site_fract_y
_atom_site_fract_z
Si Si1 0.908308 0.757245 0.659174
Si Si2 0.324811 0.477112 0.238633
Si Si3 0.180819 0.601852 0.460541
Si Si4 0.717111 0.760117 0.355988
Si Si5 0.183358 0.957815 0.220488
Si Si6 0.207532 0.827191 0.431660
Si Si7 0.483282 0.103624 0.015413
O O1 0.730732 0.581294 0.563490
O O2 0.850003 0.814874 0.589651
O O3 0.041799 0.770633 0.516766
O O4 0.011604 0.855358 0.985470
O O5 0.208683 0.501791 0.228534
O O6 0.523701 0.637909 0.345662
O O7 0.290165 0.343688 0.944045
O O8 0.209817 0.709713 0.390259
O O9 0.332250 0.717032 0.761005
O O10 0.000000 0.500000 0.500000
O O11 0.782958 0.921551 0.464166
O O12 0.185519 0.842979 0.195867
O O13 0.339232 0.068155 0.146452
O O14 0.387948 0.010080 0.687179
O O15 0.500000 0.000000 0.000000
#
# Coordination Sequence:
#
# PCOD9039910 Si02
#       7
#     2   2   2   2   2   2   2
#     4  11  23  44  69  98 139 180 231 284 337 402
#     4  11  24  45  69 102 142 177 231 281 341 419
#     4  11  21  45  75 101 138 180 225 282 345 409
#     4  11  25  45  68 103 138 185 231 275 344 409
#     4  11  23  44  71 101 137 179 232 284 338 405
#     4  10  23  42  72 105 133 175 229 288 342 401
#     4   9  21  41  66  97 136 175 226 276 340 401
#
# _framework density 24.619745000000002
#
# number of rings (size 3 to 8) (size 9 to 14) (size 15 to 20)
#    0.000    1.429    2.857    1.714    0.000    6.857 
#    5.143    5.714    0.000    0.000    0.000    0.000 
#    0.000    0.000    0.000    0.000    0.000    0.000 
#
# Total GULP energy -78260.690981 kJ/mol
# GULP energy per Si atom -5590.049356 kJ/mol
# Density = 2.456371 g / cm^3
# Si number density = 24.619745 Si / 1000 Ang^3
#
#
#
# Elastic Constant Matrix: (Units=GPa)
#
#
# Indices 1 2 3 4 5 6 
#
# 1 111.0961 18.7032 3.2634 2.6770 -6.1015 12.4538
# 2 18.7032 62.6104 -10.1996 0.8635 -4.1326 19.7378
# 3 3.2634 -10.1996 31.9005 7.1084 -0.0699 9.6067
# 4 2.6770 0.8635 7.1084 19.5410 -6.1376 5.9319
# 5 -6.1015 -4.1326 -0.0699 -6.1376 44.7247 2.5919
# 6 12.4538 19.7378 9.6067 5.9319 2.5919 67.1988
#
#
#
# Elastic Compliance Matrix: (Units=1/GPa)
#
#
# Indices 1 2 3 4 5 6 
#
# 1 0.009676 -0.002850 -0.001666 -0.000019 0.001095 -0.000758
# 2 -0.002850 0.020598 0.009208 -0.001257 0.001750 -0.006795
# 3 -0.001666 0.009208 0.039341 -0.012603 -0.000646 -0.006883
# 4 -0.000019 -0.001257 -0.012603 0.059425 0.008213 -0.003388
# 5 0.001095 0.001750 -0.000646 0.008213 0.023928 -0.002273
# 6 -0.000758 -0.006795 -0.006883 -0.003388 -0.002273 0.018388
#
#
# Mechanical properties :
#
#
# Convention : Reuss Voigt Hill
#
# Bulk Modulus (GPa) = 12.65854 25.46010 19.05932
# Shear Modulus (GPa) = 26.55246 39.21556 32.88401
#
# Velocity S-wave (km/s) = 3.28762 3.99538 3.65866
# Velocity P-wave (km/s) = 4.42312 5.62565 5.06023
#
# Compressibility (1/GPa) = 0.07899805
#
# Stress axis : x y z
#
# Youngs Moduli (GPa) = 103.35266 48.54832 25.41846
#
# Poissons Ratio (x) = 0.13837 0.04235
# Poissons Ratio (y) = 0.29456 -0.23404
# Poissons Ratio (z) = 0.17219 -0.44701
#
# Static dielectric constant tensor:
#      x y z
#    x 1.944570 0.007250 -0.025370 
#    y 0.007250 1.978500 0.006910 
#    z -0.025370 0.006910 2.040380 
# 
# From -- ./inp_files/78644.got.cif
#   From: 2010.05.17/outbox.cif.g08.bks.cpg/sg2_40_cif.got.tgz:78644.got - 2010.06.03 11:33:40.
