data_PCOD9039405
_publ_section_title
;
Structure prediction by ZEFSAII (Michael W. Deem and Ramdas Pophale) SiO2 
 PCOD9039405
Probable space group: P -1
;
_chemical_formula_sum "Si O2"
_cell_formula_units_Z 16
_cell_length_a 11.845698
_cell_length_b 10.759973
_cell_length_c 6.077706
_cell_angle_alpha 94.671149
_cell_angle_beta 93.375112
_cell_angle_gamma 116.621606
_cell_volume 686.270307
_symmetry_space_group_name_H-M "P -1"
_symmetry_group_IT_number 2
_symmetry_cell_setting 'triclinic'
loop_
_space_group_symop_operation_xyz
x,y,z
-x,-y,-z
loop_
_atom_site_type_symbol
_atom_site_label
_atom_site_fract_x
_atom_site_fract_y
_atom_site_fract_z
Si Si1 0.691668 0.411237 0.896782
Si Si2 0.920646 0.558689 0.637485
Si Si3 0.082356 0.838853 0.921942
Si Si4 0.226204 0.341779 0.709027
Si Si5 0.542763 0.188410 0.173054
Si Si6 0.009207 0.053154 0.754364
Si Si7 0.350339 0.003968 0.752998
Si Si8 0.444094 0.287263 0.554014
O O1 0.804947 0.442573 0.745331
O O2 0.563077 0.369573 0.739888
O O3 0.727801 0.545007 0.074957
O O4 0.658435 0.281757 0.038483
O O5 0.862379 0.627198 0.465896
O O6 0.000000 0.500000 0.500000
O O7 0.010717 0.676724 0.837023
O O8 0.207050 0.914215 0.802348
O O9 0.993450 0.912011 0.854957
O O10 0.092696 0.889579 0.183396
O O11 0.146201 0.190375 0.789684
O O12 0.342914 0.344765 0.584355
O O13 0.591018 0.100445 0.319129
O O14 0.498641 0.285650 0.319698
O O15 0.428555 0.085529 0.991233
O O16 0.000000 0.000000 0.500000
O O17 0.374692 0.124202 0.598156
#
# Coordination Sequence:
#
# PCOD9039405 Si02
#       8
#     2   2   2   2   2   2   2   2
#     4  11  26  47  67 101 138 182 232 288 340 417
#     4  12  29  47  70 102 143 191 234 282 347 422
#     4  11  24  42  71 100 139 176 232 288 342 411
#     4  12  25  45  69 101 139 182 236 285 352 409
#     4  10  24  45  68 102 137 181 226 281 354 408
#     4  11  23  43  66 103 132 178 227 286 346 406
#     4  10  23  42  68 104 136 174 225 291 343 412
#     4  11  24  44  75 100 134 179 234 290 346 409
#
# _framework density 23.314429000000001
#
# number of rings (size 3 to 8) (size 9 to 14) (size 15 to 20)
#    0.000    1.000    3.750    1.500    5.250    5.500 
#    0.000    0.000    0.000    0.000    0.000    0.000 
#    0.000    0.000    0.000    0.000    0.000    0.000 
#
# Total GULP energy -89483.103290 kJ/mol
# GULP energy per Si atom -5592.693956 kJ/mol
# Density = 2.326136 g / cm^3
# Si number density = 23.314429 Si / 1000 Ang^3
#
#
#
# Elastic Constant Matrix: (Units=GPa)
#
#
# Indices 1 2 3 4 5 6 
#
# 1 106.3138 38.4832 35.1861 -4.0369 -36.9131 -2.2034
# 2 38.4832 92.2900 19.5179 -0.1901 -6.0767 17.0806
# 3 35.1861 19.5179 58.4167 0.6084 -31.2349 -0.5307
# 4 -4.0369 -0.1901 0.6084 41.3637 0.8251 -8.0462
# 5 -36.9131 -6.0767 -31.2349 0.8251 36.6754 -0.3373
# 6 -2.2034 17.0806 -0.5307 -8.0462 -0.3373 38.1809
#
#
#
# Elastic Compliance Matrix: (Units=1/GPa)
#
#
# Indices 1 2 3 4 5 6 
#
# 1 0.018263 -0.007644 0.001329 0.002366 0.018241 0.005152
# 2 -0.007644 0.016244 -0.006554 -0.001980 -0.010616 -0.008310
# 3 0.001329 -0.006554 0.034336 -0.000277 0.029534 0.003689
# 4 0.002366 -0.001980 -0.000277 0.025627 0.001300 0.006430
# 5 0.018241 -0.010616 0.029534 0.001300 0.069056 0.007096
# 6 0.005152 -0.008310 0.003689 0.006430 0.007096 0.031675
#
#
# Mechanical properties :
#
#
# Convention : Reuss Voigt Hill
#
# Bulk Modulus (GPa) = 23.19950 49.26612 36.23281
# Shear Modulus (GPa) = 21.24879 34.16622 27.70751
#
# Velocity S-wave (km/s) = 3.02222 3.83228 3.45110
# Velocity P-wave (km/s) = 4.70645 6.38427 5.60846
#
# Compressibility (1/GPa) = 0.04310437
#
# Stress axis : x y z
#
# Youngs Moduli (GPa) = 54.75443 61.56153 29.12405
#
# Poissons Ratio (x) = 0.47058 -0.03871
# Poissons Ratio (y) = 0.41855 0.19089
# Poissons Ratio (z) = -0.07277 0.40349
#
# Static dielectric constant tensor:
#      x y z
#    x 1.655790 -0.243690 1.498540 
#    y -0.243690 1.651270 1.515750 
#    z 1.498540 1.515750 -8.113680 
# 
# From -- ./inp_files/71180.got.cif
#   From: 2010.05.17/outbox.cif.g08.bks.cpg/sg2_36_cif.got.tgz:71180.got - 2010.06.03 11:33:40.
