data_PCOD9039575
_publ_section_title
;
Structure prediction by ZEFSAII (Michael W. Deem and Ramdas Pophale) SiO2 
 PCOD9039575
Probable space group: P -1
;
_chemical_formula_sum "Si O2"
_cell_formula_units_Z 16
_cell_length_a 7.781656
_cell_length_b 16.081138
_cell_length_c 5.094565
_cell_angle_alpha 90.412600
_cell_angle_beta 67.646619
_cell_angle_gamma 93.746588
_cell_volume 588.249182
_symmetry_space_group_name_H-M "P -1"
_symmetry_group_IT_number 2
_symmetry_cell_setting 'triclinic'
loop_
_space_group_symop_operation_xyz
x,y,z
-x,-y,-z
loop_
_atom_site_type_symbol
_atom_site_label
_atom_site_fract_x
_atom_site_fract_y
_atom_site_fract_z
Si Si1 0.880752 0.341472 0.881004
Si Si2 0.839733 0.879297 0.929638
Si Si3 0.236101 0.305518 0.913044
Si Si4 0.548681 0.270849 0.369472
Si Si5 0.809016 0.021389 0.321240
Si Si6 0.620955 0.569274 0.772853
Si Si7 0.147691 0.553196 0.593109
Si Si8 0.513505 0.911752 0.786161
O O1 0.754226 0.271909 0.116646
O O2 0.878847 0.416941 0.096054
O O3 0.815508 0.367938 0.629300
O O4 0.095618 0.318460 0.753028
O O5 0.625334 0.895294 0.986698
O O6 0.017561 0.920995 0.668221
O O7 0.844391 0.780899 0.919341
O O8 0.874827 0.933642 0.173270
O O9 0.447369 0.291862 0.703288
O O10 0.232662 0.383643 0.110698
O O11 0.485837 0.352492 0.256029
O O12 0.464571 0.177318 0.368138
O O13 0.697012 0.067744 0.157470
O O14 0.645339 0.991045 0.612566
O O15 0.696971 0.514076 0.494825
O O16 0.500000 0.500000 0.000000
O O17 0.000000 0.500000 0.500000
#
# Coordination Sequence:
#
# PCOD9039575 Si02
#       8
#     2   2   2   2   2   2   2   2
#     4  12  28  46  73 105 146 191 253 308 373 444
#     4  11  22  43  70 102 141 186 239 298 370 448
#     4  12  26  45  71 104 144 191 239 311 365 440
#     4  12  26  45  70 106 145 187 247 307 369 443
#     4  10  23  42  69 105 137 184 241 289 377 452
#     4  12  25  44  71  97 140 193 241 297 371 433
#     4  12  25  46  71 102 138 195 249 308 369 443
#     4  11  22  43  70 101 143 187 233 306 365 445
#
# _framework density 27.199361
#
# number of rings (size 3 to 8) (size 9 to 14) (size 15 to 20)
#    0.000    0.500    5.000    3.375    1.750    1.000 
#    0.000    0.000    2.750    0.000    0.000    0.000 
#    0.000    0.000    0.000    0.000    0.000    0.000 
#
# Total GULP energy -89247.375616 kJ/mol
# GULP energy per Si atom -5577.960976 kJ/mol
# Density = 2.713745 g / cm^3
# Si number density = 27.199361 Si / 1000 Ang^3
#
#
#
# Elastic Constant Matrix: (Units=GPa)
#
#
# Indices 1 2 3 4 5 6 
#
# 1 112.7524 29.4535 7.2314 -13.0045 -6.0786 -1.8228
# 2 29.4535 157.6390 32.0315 -11.9942 2.9469 5.4921
# 3 7.2314 32.0315 72.3748 -11.0399 2.1093 7.6759
# 4 -13.0045 -11.9942 -11.0399 43.6984 5.6629 -12.2557
# 5 -6.0786 2.9469 2.1093 5.6629 33.6724 -7.7546
# 6 -1.8228 5.4921 7.6759 -12.2557 -7.7546 33.7199
#
#
#
# Elastic Compliance Matrix: (Units=1/GPa)
#
#
# Indices 1 2 3 4 5 6 
#
# 1 0.009791 -0.001714 -0.000094 0.002810 0.001982 0.002307
# 2 -0.001714 0.007344 -0.002871 0.000746 -0.001036 -0.000603
# 3 -0.000094 -0.002871 0.015834 0.002695 -0.001804 -0.002577
# 4 0.002810 0.000746 0.002695 0.027383 -0.002296 0.008841
# 5 0.001982 -0.001036 -0.001804 -0.002296 0.032323 0.007286
# 6 0.002307 -0.000603 -0.002577 0.008841 0.007286 0.035355
#
#
# Mechanical properties :
#
#
# Convention : Reuss Voigt Hill
#
# Bulk Modulus (GPa) = 42.35173 53.35543 47.85358
# Shear Modulus (GPa) = 34.42130 40.48812 37.45471
#
# Velocity S-wave (km/s) = 3.56127 3.86238 3.71488
# Velocity P-wave (km/s) = 5.70218 6.28885 6.00269
#
# Compressibility (1/GPa) = 0.02361178
#
# Stress axis : x y z
#
# Youngs Moduli (GPa) = 102.13538 136.15811 63.15461
#
# Poissons Ratio (x) = 0.23337 0.00591
# Poissons Ratio (y) = 0.17506 0.18134
# Poissons Ratio (z) = 0.00955 0.39096
#
# Static dielectric constant tensor:
#      x y z
#    x 2.372980 -0.006650 -0.095060 
#    y -0.006650 2.118160 -0.082070 
#    z -0.095060 -0.082070 2.245080 
# 
# From -- ./inp_files/38515.got.cif
#   From: 2010.05.17/outbox.cif.g08.bks.cpg/sg2_20_cif.got.tgz:38515.got - 2010.06.03 11:33:40.
