data_PCOD9039167
_publ_section_title
;
Structure prediction by ZEFSAII (Michael W. Deem and Ramdas Pophale) SiO2 
 PCOD9039167
Probable space group: P -1
;
_chemical_formula_sum "Si O2"
_cell_formula_units_Z 16
_cell_length_a 12.323781
_cell_length_b 12.828043
_cell_length_c 14.092612
_cell_angle_alpha 132.704717
_cell_angle_beta 32.724614
_cell_angle_gamma 110.411980
_cell_volume 734.272256
_symmetry_space_group_name_H-M "P -1"
_symmetry_group_IT_number 2
_symmetry_cell_setting 'triclinic'
loop_
_space_group_symop_operation_xyz
x,y,z
-x,-y,-z
loop_
_atom_site_type_symbol
_atom_site_label
_atom_site_fract_x
_atom_site_fract_y
_atom_site_fract_z
Si Si1 0.470543 0.400071 0.631475
Si Si2 0.885902 0.128517 0.521130
Si Si3 0.039684 0.673539 0.822047
Si Si4 0.564003 0.857321 0.156880
Si Si5 0.334025 0.154245 0.647088
Si Si6 0.891847 0.252942 0.800919
Si Si7 0.708788 0.664774 0.467072
Si Si8 0.358315 0.032580 0.025420
O O1 0.758216 0.299340 0.347679
O O2 0.394247 0.296084 0.687316
O O3 0.360058 0.409062 0.615187
O O4 0.350095 0.589056 0.877864
O O5 0.620073 0.198085 0.721106
O O6 0.863179 0.223966 0.694109
O O7 0.009818 0.928102 0.333280
O O8 0.074783 0.129960 0.314402
O O9 0.177684 0.472721 0.617055
O O10 0.816667 0.747176 0.958657
O O11 0.929029 0.760406 0.060276
O O12 0.420410 0.052047 0.422214
O O13 0.592895 0.868635 0.029909
O O14 0.500000 0.000000 0.500000
O O15 0.085382 0.304120 0.695039
O O16 0.472909 0.843083 0.783325
O O17 0.500000 0.000000 0.000000
#
# Coordination Sequence:
#
# PCOD9039167 Si02
#       8
#     2   2   2   2   2   2   2   2
#     4  12  24  43  73 102 137 181 230 284 347 404
#     4  11  23  42  70  99 137 180 228 279 341 400
#     4  11  27  43  66 102 142 180 226 280 347 409
#     4  11  25  45  66 101 139 183 223 281 340 414
#     4  10  23  42  66  98 139 175 218 282 341 404
#     4  11  22  43  70 102 136 174 230 287 337 403
#     4  12  23  44  69 102 136 177 229 290 338 398
#     4  12  23  43  73 100 132 178 235 278 332 407
#
# _framework density 21.790282000000001
#
# number of rings (size 3 to 8) (size 9 to 14) (size 15 to 20)
#    0.000    0.750    5.000    2.250    3.500    4.000 
#    0.000    3.125    0.000    0.000    0.000    0.000 
#    0.000    0.000    0.000    0.000    0.000    0.000 
#
# Total GULP energy -89443.451366 kJ/mol
# GULP energy per Si atom -5590.215710 kJ/mol
# Density = 2.174069 g / cm^3
# Si number density = 21.790282 Si / 1000 Ang^3
#
#
#
# Elastic Constant Matrix: (Units=GPa)
#
#
# Indices 1 2 3 4 5 6 
#
# 1 83.5056 19.5453 60.4684 -12.9885 -17.6158 -15.8080
# 2 19.5453 37.5020 37.2495 -13.4729 0.4312 -3.5239
# 3 60.4684 37.2495 134.2792 -20.9595 4.1604 20.0037
# 4 -12.9885 -13.4729 -20.9595 33.8438 -8.6838 -14.0434
# 5 -17.6158 0.4312 4.1604 -8.6838 25.9548 -14.9958
# 6 -15.8080 -3.5239 20.0037 -14.0434 -14.9958 15.3868
#
#
#
# Elastic Compliance Matrix: (Units=1/GPa)
#
#
# Indices 1 2 3 4 5 6 
#
# 1 0.005928 -0.010114 0.001450 -0.011092 -0.010320 -0.018291
# 2 -0.010114 0.034541 -0.003087 0.000837 -0.012214 -0.009606
# 3 0.001450 -0.003087 0.007390 0.011276 0.010233 0.011439
# 4 -0.011092 0.000837 0.011276 0.021790 -0.012614 -0.018269
# 5 -0.010320 -0.012214 0.010233 -0.012614 0.008667 -0.029769
# 6 -0.018291 -0.009606 0.011439 -0.018269 -0.029769 -0.016560
#
#
# Mechanical properties :
#
#
# Convention : Reuss Voigt Hill
#
# Bulk Modulus (GPa) = 41.05832 54.42368 47.74100
# Shear Modulus (GPa) = 53.54566 24.23865 38.89215
#
# Velocity S-wave (km/s) = 4.96251 3.33883 4.22932
# Velocity P-wave (km/s) = 7.19158 6.31617 6.76804
#
# Compressibility (1/GPa) = 0.02435560
#
# Stress axis : x y z
#
# Youngs Moduli (GPa) = 168.68950 28.95075 135.32459
#
# Poissons Ratio (x) = 0.29282 -0.19617
# Poissons Ratio (y) = 1.70617 0.41776
# Poissons Ratio (z) = -0.24453 0.08937
#
# Static dielectric constant tensor:
#      x y z
#    x 1.816560 0.002660 0.016420 
#    y 0.002660 1.804520 -0.017200 
#    z 0.016420 -0.017200 1.824080 
# 
# From -- ./inp_files/522465.got.cif
#   From: 2010.05.17/outbox.cif.g08.bks.cpg/sg2_262_cif.got.tgz:522465.got - 2010.06.03 11:33:40.
