data_PCOD9039514
_publ_section_title
;
Structure prediction by ZEFSAII (Michael W. Deem and Ramdas Pophale) SiO2 
 PCOD9039514
Probable space group: P -1
;
_chemical_formula_sum "Si O2"
_cell_formula_units_Z 16
_cell_length_a 10.639386
_cell_length_b 8.560650
_cell_length_c 18.293514
_cell_angle_alpha 105.627224
_cell_angle_beta 140.491634
_cell_angle_gamma 103.735773
_cell_volume 701.174110
_symmetry_space_group_name_H-M "P -1"
_symmetry_group_IT_number 2
_symmetry_cell_setting 'triclinic'
loop_
_space_group_symop_operation_xyz
x,y,z
-x,-y,-z
loop_
_atom_site_type_symbol
_atom_site_label
_atom_site_fract_x
_atom_site_fract_y
_atom_site_fract_z
Si Si1 0.160323 0.394900 0.364300
Si Si2 0.970907 0.927911 0.614799
Si Si3 0.586215 0.191773 0.118812
Si Si4 0.951431 0.169304 0.084540
Si Si5 0.408679 0.209453 0.289764
Si Si6 0.583929 0.471651 0.762419
Si Si7 0.862028 0.254458 0.441680
Si Si8 0.342239 0.416707 0.791807
O O1 0.114209 0.199655 0.362211
O O2 0.090154 0.332014 0.240210
O O3 0.458181 0.650308 0.555946
O O4 0.925756 0.371787 0.293735
O O5 0.671504 0.789060 0.420167
O O6 0.132138 0.886199 0.633191
O O7 0.192540 0.206868 0.754006
O O8 0.526110 0.339749 0.087207
O O9 0.500000 0.000000 0.000000
O O10 0.387484 0.041413 0.081171
O O11 0.071913 0.054856 0.121267
O O12 0.097429 0.353495 0.106646
O O13 0.500013 0.401666 0.294953
O O14 0.557333 0.131286 0.324010
O O15 0.554774 0.457978 0.834325
O O16 0.000000 0.500000 0.500000
O O17 0.079664 0.316758 0.608562
#
# Coordination Sequence:
#
# PCOD9039514 Si02
#       8
#     2   2   2   2   2   2   2   2
#     4  10  17  33  55  78 100 138 180 213 249 307
#     4  10  20  29  53  83 107 139 163 216 268 314
#     4  10  21  35  55  77 102 139 182 218 247 306
#     4   9  19  32  51  82 104 129 178 226 255 292
#     4   9  16  27  53  81  98 124 167 228 252 284
#     4   8  17  30  51  81 102 130 165 221 258 293
#     4  11  14  29  52  81 103 124 180 218 249 297
#     4  11  19  33  51  78 113 136 171 209 269 316
#
# _framework density 22.818868999999999
#
# number of rings (size 3 to 8) (size 9 to 14) (size 15 to 20)
#    0.750    1.500    5.000    1.875    0.000    0.500 
#    0.000    2.500    0.000   14.250    0.000    0.000 
#    0.000    0.000    0.000    0.000    0.000    0.000 
#
# Total GULP energy -89136.651927 kJ/mol
# GULP energy per Si atom -5571.040745 kJ/mol
# Density = 2.276693 g / cm^3
# Si number density = 22.818869 Si / 1000 Ang^3
#
#
#
# Elastic Constant Matrix: (Units=GPa)
#
#
# Indices 1 2 3 4 5 6 
#
# 1 94.7570 17.3812 34.1526 12.8532 12.0441 10.2494
# 2 17.3812 42.3093 4.5630 24.0595 -8.3738 6.0044
# 3 34.1526 4.5630 55.6220 9.2564 8.7239 -0.5619
# 4 12.8532 24.0595 9.2564 31.3338 0.9882 -1.4072
# 5 12.0441 -8.3738 8.7239 0.9882 57.1887 0.0759
# 6 10.2494 6.0044 -0.5619 -1.4072 0.0759 14.7253
#
#
#
# Elastic Compliance Matrix: (Units=1/GPa)
#
#
# Indices 1 2 3 4 5 6 
#
# 1 0.016144 -0.004064 -0.009079 -0.001189 -0.002576 -0.010027
# 2 -0.004064 0.053906 0.003430 -0.042057 0.008983 -0.023087
# 3 -0.009079 0.003430 0.024494 -0.005869 -0.001228 0.005301
# 4 -0.001189 -0.042057 -0.005869 0.067715 -0.006215 0.024256
# 5 -0.002576 0.008983 -0.001228 -0.006215 0.019642 -0.002612
# 6 -0.010027 -0.023087 0.005301 0.024256 -0.002612 0.086837
#
#
# Mechanical properties :
#
#
# Convention : Reuss Voigt Hill
#
# Bulk Modulus (GPa) = 13.31225 33.87578 23.59401
# Shear Modulus (GPa) = 15.96409 29.75566 22.85988
#
# Velocity S-wave (km/s) = 2.64787 3.61500 3.16855
# Velocity P-wave (km/s) = 3.89805 5.68349 4.87324
#
# Compressibility (1/GPa) = 0.07511881
#
# Stress axis : x y z
#
# Youngs Moduli (GPa) = 61.94170 18.55098 40.82579
#
# Poissons Ratio (x) = 0.07539 0.37065
# Poissons Ratio (y) = 0.25172 -0.14003
# Poissons Ratio (z) = 0.56235 -0.06363
#
# Static dielectric constant tensor:
#      x y z
#    x 1.918000 -0.011760 -0.007000 
#    y -0.011760 1.832680 0.007720 
#    z -0.007000 0.007720 1.982680 
# 
# From -- ./inp_files/593638.got.cif
#   From: 2010.05.17/outbox.cif.g08.bks.cpg/sg2_297_cif.got.tgz:593638.got - 2010.06.03 11:33:40.
