data_PCOD9039183
_publ_section_title
;
Structure prediction by ZEFSAII (Michael W. Deem and Ramdas Pophale) SiO2 
 PCOD9039183
Probable space group: P -1
;
_chemical_formula_sum "Si O2"
_cell_formula_units_Z 16
_cell_length_a 14.337249
_cell_length_b 9.632113
_cell_length_c 9.133499
_cell_angle_alpha 105.026856
_cell_angle_beta 37.109260
_cell_angle_gamma 96.927733
_cell_volume 726.900144
_symmetry_space_group_name_H-M "P -1"
_symmetry_group_IT_number 2
_symmetry_cell_setting 'triclinic'
loop_
_space_group_symop_operation_xyz
x,y,z
-x,-y,-z
loop_
_atom_site_type_symbol
_atom_site_label
_atom_site_fract_x
_atom_site_fract_y
_atom_site_fract_z
Si Si1 0.887795 0.587638 0.494971
Si Si2 0.169814 0.949661 0.349032
Si Si3 0.579996 0.212403 0.475333
Si Si4 0.980791 0.266166 0.369572
Si Si5 0.583618 0.562404 0.046415
Si Si6 0.748542 0.902151 0.208042
Si Si7 0.255240 0.208587 0.498940
Si Si8 0.402716 0.708879 0.840040
O O1 0.001571 0.672835 0.470529
O O2 0.853841 0.655425 0.397990
O O3 0.939058 0.415512 0.374933
O O4 0.735432 0.612586 0.798116
O O5 0.145095 0.841716 0.484487
O O6 0.246154 0.082591 0.355541
O O7 0.283755 0.852663 0.069314
O O8 0.000000 0.000000 0.500000
O O9 0.537114 0.311480 0.695874
O O10 0.418792 0.149684 0.625515
O O11 0.608071 0.307894 0.325209
O O12 0.715311 0.076646 0.289411
O O13 0.131215 0.171414 0.083378
O O14 0.627610 0.434365 0.074726
O O15 0.500000 0.500000 0.000000
O O16 0.797677 0.846286 0.293744
O O17 0.426339 0.254638 0.318003
#
# Coordination Sequence:
#
# PCOD9039183 Si02
#       8
#     2   2   2   2   2   2   2   2
#     4  11  23  42  66  98 135 179 222 277 332 413
#     4  12  24  41  68 100 136 180 227 273 341 409
#     4  10  23  42  66  99 136 178 224 279 344 396
#     4  11  23  43  68  93 137 182 223 269 345 408
#     4  12  23  40  69 101 132 173 227 282 332 397
#     4  10  23  43  67  97 136 179 222 284 337 400
#     4  11  25  42  68 101 136 175 230 283 334 394
#     4  11  24  43  68 100 136 179 225 282 335 399
#
# _framework density 22.011275000000001
#
# number of rings (size 3 to 8) (size 9 to 14) (size 15 to 20)
#    0.000    1.000    5.000    1.500    1.750    2.000 
#    0.000    1.250    0.000    0.000    0.000    0.000 
#    0.000    0.000    0.000    0.000    0.000    0.000 
#
# Total GULP energy -89462.232201 kJ/mol
# GULP energy per Si atom -5591.389513 kJ/mol
# Density = 2.196118 g / cm^3
# Si number density = 22.011275 Si / 1000 Ang^3
#
#
#
# Elastic Constant Matrix: (Units=GPa)
#
#
# Indices 1 2 3 4 5 6 
#
# 1 67.5621 32.5956 11.2047 7.4156 13.1750 -22.6958
# 2 32.5956 106.7573 10.7154 15.6962 9.0341 -24.1851
# 3 11.2047 10.7154 57.1788 24.0164 9.9879 -12.2788
# 4 7.4156 15.6962 24.0164 43.3832 0.9564 -2.6680
# 5 13.1750 9.0341 9.9879 0.9564 23.9032 -0.4757
# 6 -22.6958 -24.1851 -12.2788 -2.6680 -0.4757 33.9197
#
#
#
# Elastic Compliance Matrix: (Units=1/GPa)
#
#
# Indices 1 2 3 4 5 6 
#
# 1 0.023165 -0.002590 0.002532 -0.003281 -0.012435 0.014137
# 2 -0.002590 0.012774 0.002665 -0.005078 -0.004154 0.007882
# 3 0.002532 0.002665 0.028158 -0.015932 -0.013285 0.012348
# 4 -0.003281 -0.005078 -0.015932 0.033530 0.008868 -0.008822
# 5 -0.012435 -0.004154 -0.013285 0.008868 0.055164 -0.014620
# 6 0.014137 0.007882 0.012348 -0.008822 -0.014620 0.048132
#
#
# Mechanical properties :
#
#
# Convention : Reuss Voigt Hill
#
# Bulk Modulus (GPa) = 14.42786 37.83659 26.13223
# Shear Modulus (GPa) = 22.85066 32.04005 27.44535
#
# Velocity S-wave (km/s) = 3.22550 3.81940 3.53495
# Velocity P-wave (km/s) = 4.52115 6.05618 5.34407
#
# Compressibility (1/GPa) = 0.06931034
#
# Stress axis : x y z
#
# Youngs Moduli (GPa) = 43.16925 78.28388 35.51440
#
# Poissons Ratio (x) = 0.20272 -0.08992
# Poissons Ratio (y) = 0.11179 -0.09463
# Poissons Ratio (z) = -0.10930 -0.20860
#
# Static dielectric constant tensor:
#      x y z
#    x 1.874450 0.025260 -0.054410 
#    y 0.025260 1.858160 -0.035620 
#    z -0.054410 -0.035620 1.812780 
# 
# From -- ./inp_files/209262.got.cif
#   From: 2010.05.17/outbox.cif.g08.bks.cpg/sg2_105_cif.got.tgz:209262.got - 2010.06.03 11:33:40.
