data_PCOD9039076
_publ_section_title
;
Structure prediction by ZEFSAII (Michael W. Deem and Ramdas Pophale) SiO2 
 PCOD9039076
Probable space group: P -1
;
_chemical_formula_sum "Si O2"
_cell_formula_units_Z 14
_cell_length_a 9.062998
_cell_length_b 15.492475
_cell_length_c 11.524567
_cell_angle_alpha 127.742308
_cell_angle_beta 27.626039
_cell_angle_gamma 120.988953
_cell_volume 591.675682
_symmetry_space_group_name_H-M "P -1"
_symmetry_group_IT_number 2
_symmetry_cell_setting 'triclinic'
loop_
_space_group_symop_operation_xyz
x,y,z
-x,-y,-z
loop_
_atom_site_type_symbol
_atom_site_label
_atom_site_fract_x
_atom_site_fract_y
_atom_site_fract_z
Si Si1 0.950003 0.779302 0.698640
Si Si2 0.351366 0.225681 0.686291
Si Si3 0.038350 0.950042 0.608377
Si Si4 0.919287 0.166854 0.757392
Si Si5 0.616215 0.640331 0.646686
Si Si6 0.322046 0.424229 0.713367
Si Si7 0.240594 0.092500 0.865949
O O1 0.304964 0.783690 0.502654
O O2 0.859266 0.890780 0.784328
O O3 0.888944 0.683906 0.574489
O O4 0.749039 0.799238 0.970584
O O5 0.313429 0.352590 0.777254
O O6 0.150466 0.155889 0.859719
O O7 0.269439 0.177799 0.578151
O O8 0.071973 0.864531 0.408038
O O9 0.397636 0.961775 0.418358
O O10 0.841156 0.056662 0.786963
O O11 0.688781 0.273674 0.038005
O O12 0.581084 0.514357 0.602333
O O13 0.657367 0.638992 0.477397
O O14 0.000000 0.500000 0.000000
O O15 0.000000 0.000000 0.000000
#
# Coordination Sequence:
#
# PCOD9039076 Si02
#       7
#     2   2   2   2   2   2   2
#     4  11  24  43  65 101 141 181 224 279 340 412
#     4  11  25  42  70  98 137 180 225 287 345 394
#     4  10  23  42  66 103 140 181 223 280 338 406
#     4  11  21  43  68 100 135 178 230 273 343 402
#     4  11  25  44  74  99 135 179 234 285 341 403
#     4  11  25  48  73 101 133 175 235 297 342 396
#     4  11  23  43  67 100 145 185 228 272 337 418
#
# _framework density 23.66161
#
# number of rings (size 3 to 8) (size 9 to 14) (size 15 to 20)
#    0.000    1.143    2.857    2.571    2.000    3.429 
#    7.714    1.429    0.000    0.000    0.000    0.000 
#    0.000    0.000    0.000    0.000    0.000    0.000 
#
# Total GULP energy -77996.424115 kJ/mol
# GULP energy per Si atom -5571.173151 kJ/mol
# Density = 2.360776 g / cm^3
# Si number density = 23.661610 Si / 1000 Ang^3
#
#
#
# Elastic Constant Matrix: (Units=GPa)
#
#
# Indices 1 2 3 4 5 6 
#
# 1 160.9184 61.3809 35.7760 5.6399 7.8934 10.8957
# 2 61.3809 128.1943 15.0065 7.4386 2.3413 -17.8778
# 3 35.7760 15.0065 52.0074 19.8437 7.2749 -1.4758
# 4 5.6399 7.4386 19.8437 29.8837 8.5117 -3.5404
# 5 7.8934 2.3413 7.2749 8.5117 41.9463 1.5273
# 6 10.8957 -17.8778 -1.4758 -3.5404 1.5273 61.6873
#
#
#
# Elastic Compliance Matrix: (Units=1/GPa)
#
#
# Indices 1 2 3 4 5 6 
#
# 1 0.009446 -0.004344 -0.006559 0.003608 -0.001026 -0.002852
# 2 -0.004344 0.010409 0.000786 -0.001961 0.000364 0.003681
# 3 -0.006559 0.000786 0.030949 -0.019302 -0.000298 0.001026
# 4 0.003608 -0.001961 -0.019302 0.048250 -0.007059 0.001277
# 5 -0.001026 0.000364 -0.000298 -0.007059 0.025524 -0.000758
# 6 -0.002852 0.003681 0.001026 0.001277 -0.000758 0.017898
#
#
# Mechanical properties :
#
#
# Convention : Reuss Voigt Hill
#
# Bulk Modulus (GPa) = 32.71025 62.82744 47.76884
# Shear Modulus (GPa) = 28.91866 41.96723 35.44294
#
# Velocity S-wave (km/s) = 3.49976 4.21603 3.87448
# Velocity P-wave (km/s) = 5.49411 7.09296 6.34410
#
# Compressibility (1/GPa) = 0.03057146
#
# Stress axis : x y z
#
# Youngs Moduli (GPa) = 105.86163 96.07217 32.31142
#
# Poissons Ratio (x) = 0.41729 0.21193
# Poissons Ratio (y) = 0.45981 -0.02540
# Poissons Ratio (z) = 0.69434 -0.07553
#
# Static dielectric constant tensor:
#      x y z
#    x 1.913240 0.045370 0.017600 
#    y 0.045370 2.055440 -0.061960 
#    z 0.017600 -0.061960 1.966960 
# 
# From -- ./inp_files/39926.got.cif
#   From: 2010.05.17/outbox.cif.g08.bks.cpg/sg2_20_cif.got.tgz:39926.got - 2010.06.03 11:33:40.
