data_PCOD9039242
_publ_section_title
;
Structure prediction by ZEFSAII (Michael W. Deem and Ramdas Pophale) SiO2 
 PCOD9039242
Probable space group: P -1
;
_chemical_formula_sum "Si O2"
_cell_formula_units_Z 16
_cell_length_a 11.811173
_cell_length_b 12.071949
_cell_length_c 5.126174
_cell_angle_alpha 120.037977
_cell_angle_beta 68.610606
_cell_angle_gamma 104.236674
_cell_volume 587.339486
_symmetry_space_group_name_H-M "P -1"
_symmetry_group_IT_number 2
_symmetry_cell_setting 'triclinic'
loop_
_space_group_symop_operation_xyz
x,y,z
-x,-y,-z
loop_
_atom_site_type_symbol
_atom_site_label
_atom_site_fract_x
_atom_site_fract_y
_atom_site_fract_z
Si Si1 0.745298 0.119026 0.380378
Si Si2 0.398675 0.384687 0.934666
Si Si3 0.625615 0.859564 0.962398
Si Si4 0.575978 0.258082 0.297066
Si Si5 0.989240 0.407172 0.639895
Si Si6 0.252462 0.547034 0.968637
Si Si7 0.919334 0.120180 0.743641
Si Si8 0.154076 0.267429 0.540654
O O1 0.652254 0.217643 0.438543
O O2 0.812280 0.116533 0.605414
O O3 0.852011 0.121841 0.077120
O O4 0.664440 0.982960 0.249120
O O5 0.451524 0.317703 0.558471
O O6 0.288066 0.472833 0.111516
O O7 0.500000 0.500000 0.000000
O O8 0.382264 0.270766 0.014225
O O9 0.489720 0.860051 0.952790
O O10 0.747801 0.836286 0.660173
O O11 0.652439 0.362455 0.174350
O O12 0.000000 0.500000 0.500000
O O13 0.077199 0.294121 0.377642
O O14 0.848314 0.361945 0.744694
O O15 0.000000 0.500000 0.000000
O O16 0.215153 0.412577 0.693162
O O17 0.029935 0.233568 0.769733
O O18 0.000000 0.000000 0.500000
#
# Coordination Sequence:
#
# PCOD9039242 Si02
#       8
#     2   2   2   2   2   2   2   2
#     4  12  31  51  83 113 158 210 263 328 389 462
#     4  12  25  42  76 109 155 203 261 317 391 466
#     4  12  26  47  77 111 155 210 261 319 390 474
#     4  12  27  50  72 117 161 203 264 322 391 472
#     4  10  23  42  67 106 144 187 245 303 377 454
#     4  11  23  46  73 111 155 199 254 325 395 467
#     4  12  28  53  78 114 153 201 268 324 389 467
#     4  11  24  44  78 106 148 199 250 322 394 459
#
# _framework density 27.241485000000001
#
# number of rings (size 3 to 8) (size 9 to 14) (size 15 to 20)
#    0.000    0.500    3.750    3.375    5.250    6.500 
#    0.000    0.000    0.000    0.000    0.000    0.000 
#    0.000    0.000    0.000    0.000    0.000    0.000 
#
# Total GULP energy -89124.763614 kJ/mol
# GULP energy per Si atom -5570.297726 kJ/mol
# Density = 2.717948 g / cm^3
# Si number density = 27.241485 Si / 1000 Ang^3
#
#
#
# Elastic Constant Matrix: (Units=GPa)
#
#
# Indices 1 2 3 4 5 6 
#
# 1 131.4277 32.5806 25.1051 0.4339 4.6869 -3.4740
# 2 32.5806 144.9214 6.2386 5.2023 18.7577 5.8927
# 3 25.1051 6.2386 56.1800 -4.3000 16.0655 8.8109
# 4 0.4339 5.2023 -4.3000 35.8967 -8.7694 -10.4667
# 5 4.6869 18.7577 16.0655 -8.7694 47.8283 2.7812
# 6 -3.4740 5.8927 8.8109 -10.4667 2.7812 48.8133
#
#
#
# Elastic Compliance Matrix: (Units=1/GPa)
#
#
# Indices 1 2 3 4 5 6 
#
# 1 0.008964 -0.002097 -0.004408 0.000515 0.001420 0.001716
# 2 -0.002097 0.007942 0.001169 -0.002345 -0.003638 -0.001615
# 3 -0.004408 0.001169 0.022370 -0.000456 -0.007382 -0.004170
# 4 0.000515 -0.002345 -0.000456 0.031702 0.006438 0.006833
# 5 0.001420 -0.003638 -0.007382 0.006438 0.025752 0.001786
# 6 0.001716 -0.001615 -0.004170 0.006833 0.001786 0.022919
#
#
# Mechanical properties :
#
#
# Convention : Reuss Voigt Hill
#
# Bulk Modulus (GPa) = 34.96102 51.15308 43.05705
# Shear Modulus (GPa) = 35.75091 44.41465 40.08278
#
# Velocity S-wave (km/s) = 3.62659 4.04221 3.84003
# Velocity P-wave (km/s) = 5.51343 6.37215 5.95828
#
# Compressibility (1/GPa) = 0.02860329
#
# Stress axis : x y z
#
# Youngs Moduli (GPa) = 111.55925 125.90906 44.70251
#
# Poissons Ratio (x) = 0.26409 0.19707
# Poissons Ratio (y) = 0.23399 -0.05228
# Poissons Ratio (z) = 0.49181 -0.14725
#
# Static dielectric constant tensor:
#      x y z
#    x 2.260810 0.109520 0.139570 
#    y 0.109520 2.238370 0.099490 
#    z 0.139570 0.099490 2.228840 
# 
# From -- ./inp_files/71700.got.cif
#   From: 2010.05.17/outbox.cif.g08.bks.cpg/sg2_36_cif.got.tgz:71700.got - 2010.06.03 11:33:40.
