data_PCOD9039212
_publ_section_title
;
Structure prediction by ZEFSAII (Michael W. Deem and Ramdas Pophale) SiO2 
 PCOD9039212
Probable space group: P -1
;
_chemical_formula_sum "Si O2"
_cell_formula_units_Z 16
_cell_length_a 11.769879
_cell_length_b 13.049127
_cell_length_c 5.130222
_cell_angle_alpha 94.090550
_cell_angle_beta 65.949480
_cell_angle_gamma 86.067783
_cell_volume 713.561310
_symmetry_space_group_name_H-M "P -1"
_symmetry_group_IT_number 2
_symmetry_cell_setting 'triclinic'
loop_
_space_group_symop_operation_xyz
x,y,z
-x,-y,-z
loop_
_atom_site_type_symbol
_atom_site_label
_atom_site_fract_x
_atom_site_fract_y
_atom_site_fract_z
Si Si1 0.067796 0.716583 0.548019
Si Si2 0.977694 0.620607 0.098300
Si Si3 0.311742 0.329711 0.743635
Si Si4 0.344644 0.987493 0.943317
Si Si5 0.340526 0.765080 0.162878
Si Si6 0.054372 0.053302 0.209485
Si Si7 0.509211 0.855265 0.360522
Si Si8 0.444363 0.399504 0.150766
O O1 0.204651 0.732067 0.317411
O O2 0.002475 0.652289 0.377636
O O3 0.991622 0.827258 0.688731
O O4 0.072959 0.666661 0.818728
O O5 0.836941 0.662332 0.150934
O O6 0.000000 0.500000 0.000000
O O7 0.375610 0.211526 0.615942
O O8 0.364290 0.404976 0.492262
O O9 0.355448 0.359753 0.998255
O O10 0.414739 0.937190 0.615831
O O11 0.426993 0.084199 0.924470
O O12 0.333788 0.884877 0.104825
O O13 0.203415 0.035619 0.049208
O O14 0.417941 0.770038 0.357228
O O15 0.436015 0.683294 0.908385
O O16 0.000000 0.000000 0.500000
O O17 0.000000 0.000000 0.000000
O O18 0.500000 0.500000 0.000000
#
# Coordination Sequence:
#
# PCOD9039212 Si02
#       8
#     2   2   2   2   2   2   2   2
#     4  12  27  47  74 104 144 191 234 303 350 425
#     4  12  29  49  75 103 139 189 247 296 363 417
#     4  11  24  47  68  99 143 176 236 289 351 429
#     4  11  22  42  68 100 140 184 232 281 347 422
#     4  11  24  42  69 101 140 176 242 278 357 416
#     4  12  25  44  69 105 148 188 235 284 349 426
#     4  10  23  42  67 101 140 183 225 289 349 419
#     4  11  25  42  73 102 135 180 228 299 359 413
#
# _framework density 22.422737999999999
#
# number of rings (size 3 to 8) (size 9 to 14) (size 15 to 20)
#    0.000    0.750    2.500    4.125    5.250    1.000 
#    2.250    0.000    0.000    0.000    0.000    0.000 
#    0.000    0.000    0.000    0.000    0.000    0.000 
#
# Total GULP energy -89310.438862 kJ/mol
# GULP energy per Si atom -5581.902429 kJ/mol
# Density = 2.237170 g / cm^3
# Si number density = 22.422738 Si / 1000 Ang^3
#
#
#
# Elastic Constant Matrix: (Units=GPa)
#
#
# Indices 1 2 3 4 5 6 
#
# 1 87.2706 -4.0765 27.2189 18.1956 -34.6849 -5.3156
# 2 -4.0765 73.9186 13.4849 0.1657 -3.1432 -0.1614
# 3 27.2189 13.4849 90.9746 -2.8998 0.4106 -3.5280
# 4 18.1956 0.1657 -2.8998 45.2323 -0.0124 0.8859
# 5 -34.6849 -3.1432 0.4106 -0.0124 40.9131 1.2426
# 6 -5.3156 -0.1614 -3.5280 0.8859 1.2426 24.1361
#
#
#
# Elastic Compliance Matrix: (Units=1/GPa)
#
#
# Indices 1 2 3 4 5 6 
#
# 1 0.025478 0.003919 -0.008507 -0.010875 0.021872 0.003667
# 2 0.003919 0.014559 -0.003398 -0.001853 0.004466 0.000302
# 3 -0.008507 -0.003398 0.014230 0.004337 -0.007627 0.000417
# 4 -0.010875 -0.001853 0.004337 0.026809 -0.009328 -0.002277
# 5 0.021872 0.004466 -0.007627 -0.009328 0.043345 0.001843
# 6 0.003667 0.000302 0.000417 -0.002277 0.001843 0.042291
#
#
# Mechanical properties :
#
#
# Convention : Reuss Voigt Hill
#
# Bulk Modulus (GPa) = 26.11261 36.15761 31.13511
# Shear Modulus (GPa) = 25.58206 36.42539 31.00373
#
# Velocity S-wave (km/s) = 3.38138 4.03486 3.72249
# Velocity P-wave (km/s) = 5.18805 6.15364 5.69136
#
# Compressibility (1/GPa) = 0.03829568
#
# Stress axis : x y z
#
# Youngs Moduli (GPa) = 39.24919 68.68514 70.27484
#
# Poissons Ratio (x) = -0.26921 0.59783
# Poissons Ratio (y) = -0.15383 0.23881
# Poissons Ratio (z) = 0.33389 0.23341
#
# Static dielectric constant tensor:
#      x y z
#    x 1.809120 -0.018320 0.055590 
#    y -0.018320 1.838820 0.011400 
#    z 0.055590 0.011400 1.837130 
# 
# From -- ./inp_files/70262.got.cif
#   From: 2010.05.17/outbox.cif.g08.bks.cpg/sg2_36_cif.got.tgz:70262.got - 2010.06.03 11:33:40.
