data_PCOD9039895
_publ_section_title
;
Structure prediction by ZEFSAII (Michael W. Deem and Ramdas Pophale) SiO2 
 PCOD9039895
Probable space group: P -1
;
_chemical_formula_sum "Si O2"
_cell_formula_units_Z 16
_cell_length_a 13.809775
_cell_length_b 5.535222
_cell_length_c 8.986161
_cell_angle_alpha 106.342490
_cell_angle_beta 103.750223
_cell_angle_gamma 94.877586
_cell_volume 631.700029
_symmetry_space_group_name_H-M "P -1"
_symmetry_group_IT_number 2
_symmetry_cell_setting 'triclinic'
loop_
_space_group_symop_operation_xyz
x,y,z
-x,-y,-z
loop_
_atom_site_type_symbol
_atom_site_label
_atom_site_fract_x
_atom_site_fract_y
_atom_site_fract_z
Si Si1 0.734000 0.580693 0.527533
Si Si2 0.966762 0.303340 0.719402
Si Si3 0.852949 0.913527 0.391467
Si Si4 0.657499 0.613854 0.803686
Si Si5 0.535594 0.774908 0.383278
Si Si6 0.305512 0.804898 0.015726
Si Si7 0.344560 0.926741 0.739648
Si Si8 0.071519 0.791594 0.968772
O O1 0.824587 0.696794 0.471584
O O2 0.746422 0.619977 0.714404
O O3 0.643461 0.732585 0.476569
O O4 0.687004 0.288308 0.432919
O O5 0.060959 0.153403 0.697711
O O6 0.015980 0.598056 0.790166
O O7 0.890141 0.174613 0.543051
O O8 0.922863 0.286613 0.867570
O O9 0.751814 0.928127 0.265465
O O10 0.549580 0.470158 0.680862
O O11 0.680970 0.428189 0.912842
O O12 0.646548 0.905224 0.876306
O O13 0.500000 0.000000 0.500000
O O14 0.559002 0.876579 0.241331
O O15 0.350067 0.769084 0.863476
O O16 0.187229 0.828706 0.968547
O O17 0.000000 0.000000 0.000000
#
# Coordination Sequence:
#
# PCOD9039895 Si02
#       8
#     2   2   2   2   2   2   2   2
#     4  11  24  44  77 103 145 191 245 301 367 433
#     4  10  23  42  72 101 142 185 245 299 366 435
#     4  10  23  44  70 110 139 188 247 304 362 435
#     4  12  28  47  76 108 148 194 248 298 365 448
#     4  11  24  47  75 108 144 190 245 304 364 433
#     4  12  30  47  73 109 153 192 243 302 373 434
#     4  11  26  44  75 101 151 188 241 302 370 426
#     4  11  25  44  71  99 149 192 239 299 374 430
#
# _framework density 25.328476999999999
#
# number of rings (size 3 to 8) (size 9 to 14) (size 15 to 20)
#    0.000    1.000    1.250    3.375   14.000    2.000 
#    0.000    3.125    0.000    0.000    0.000    0.000 
#    0.000    0.000    0.000    0.000    0.000    0.000 
#
# Total GULP energy -89510.304687 kJ/mol
# GULP energy per Si atom -5594.394043 kJ/mol
# Density = 2.527083 g / cm^3
# Si number density = 25.328477 Si / 1000 Ang^3
#
#
#
# Elastic Constant Matrix: (Units=GPa)
#
#
# Indices 1 2 3 4 5 6 
#
# 1 74.5229 17.6741 13.3522 -7.5402 -12.4916 22.2084
# 2 17.6741 96.2489 25.9636 -1.4529 5.6471 7.0002
# 3 13.3522 25.9636 60.8223 1.7740 -15.7417 11.5734
# 4 -7.5402 -1.4529 1.7740 65.2728 13.9787 -1.9547
# 5 -12.4916 5.6471 -15.7417 13.9787 33.8040 -1.8072
# 6 22.2084 7.0002 11.5734 -1.9547 -1.8072 35.3400
#
#
#
# Elastic Compliance Matrix: (Units=1/GPa)
#
#
# Indices 1 2 3 4 5 6 
#
# 1 0.018523 -0.003416 0.001416 0.000101 0.007443 -0.011041
# 2 -0.003416 0.013317 -0.007227 0.001750 -0.007491 0.001589
# 3 0.001416 -0.007227 0.024356 -0.003935 0.014330 -0.006919
# 4 0.000101 0.001750 -0.003935 0.017500 -0.009251 0.001374
# 5 0.007443 -0.007491 0.014330 -0.009251 0.043753 -0.006161
# 6 -0.011041 0.001589 -0.006919 0.001374 -0.006161 0.036947
#
#
# Mechanical properties :
#
#
# Convention : Reuss Voigt Hill
#
# Bulk Modulus (GPa) = 26.49511 38.39709 32.44610
# Shear Modulus (GPa) = 26.96427 38.52364 32.74395
#
# Velocity S-wave (km/s) = 3.26633 3.90418 3.59941
# Velocity P-wave (km/s) = 4.97077 5.95954 5.48747
#
# Compressibility (1/GPa) = 0.03774281
#
# Stress axis : x y z
#
# Youngs Moduli (GPa) = 53.98629 75.09315 41.05808
#
# Poissons Ratio (x) = 0.25648 -0.05814
# Poissons Ratio (y) = 0.18439 0.29673
# Poissons Ratio (z) = -0.07645 0.54270
#
# Static dielectric constant tensor:
#      x y z
#    x 2.007590 0.001490 0.044490 
#    y 0.001490 2.061130 -0.052170 
#    z 0.044490 -0.052170 2.043270 
# 
# From -- ./inp_files/141507.got.cif
#   From: 2010.05.17/outbox.cif.g08.bks.cpg/sg2_71_cif.got.tgz:141507.got - 2010.06.03 11:33:40.
