data_PCOD9039132
_publ_section_title
;
Structure prediction by ZEFSAII (Michael W. Deem and Ramdas Pophale) SiO2 
 PCOD9039132
Probable space group: P -1
;
_chemical_formula_sum "Si O2"
_cell_formula_units_Z 16
_cell_length_a 8.304457
_cell_length_b 13.634602
_cell_length_c 9.253021
_cell_angle_alpha 57.552921
_cell_angle_beta 121.533621
_cell_angle_gamma 90.508776
_cell_volume 697.742395
_symmetry_space_group_name_H-M "P -1"
_symmetry_group_IT_number 2
_symmetry_cell_setting 'triclinic'
loop_
_space_group_symop_operation_xyz
x,y,z
-x,-y,-z
loop_
_atom_site_type_symbol
_atom_site_label
_atom_site_fract_x
_atom_site_fract_y
_atom_site_fract_z
Si Si1 0.826081 0.460801 0.380176
Si Si2 0.499915 0.256129 0.499278
Si Si3 0.605977 0.893524 0.020774
Si Si4 0.840475 0.577917 0.986701
Si Si5 0.970173 0.211182 0.077331
Si Si6 0.063546 0.822980 0.242605
Si Si7 0.355338 0.043188 0.537238
Si Si8 0.504398 0.333555 0.765480
O O1 0.823798 0.498582 0.180692
O O2 0.885225 0.315942 0.558897
O O3 0.621669 0.539142 0.311460
O O4 0.000000 0.500000 0.500000
O O5 0.725973 0.162656 0.631018
O O6 0.378789 0.163601 0.530708
O O7 0.503815 0.328544 0.593307
O O8 0.379553 0.354752 0.243257
O O9 0.609027 0.759621 0.173968
O O10 0.830286 0.896524 0.113466
O O11 0.500000 0.000000 0.000000
O O12 0.459759 0.929346 0.784232
O O13 0.000000 0.500000 0.000000
O O14 0.921539 0.688627 0.977303
O O15 0.120273 0.097872 0.333886
O O16 0.943955 0.164881 0.943371
O O17 0.739533 0.280402 0.969095
O O18 0.500000 0.000000 0.500000
#
# Coordination Sequence:
#
# PCOD9039132 Si02
#       8
#     2   2   2   2   2   2   2   2
#     4  12  23  42  69  95 134 177 212 270 323 389
#     4  10  25  43  64  99 130 169 219 270 324 391
#     4  12  24  42  67  97 128 172 220 274 325 382
#     4  11  24  42  63  94 134 173 212 263 326 383
#     4  10  23  42  66  96 127 173 217 265 324 389
#     4  11  24  43  69  96 130 175 222 262 329 391
#     4  11  23  44  68  91 132 173 217 272 329 382
#     4  11  24  43  68  99 131 170 225 263 326 391
#
# _framework density 22.931099
#
# number of rings (size 3 to 8) (size 9 to 14) (size 15 to 20)
#    0.000    1.000    5.000    0.750    3.500    3.500 
#    2.250    0.000    0.000    0.000    0.000    0.000 
#    0.000    0.000    0.000    0.000    0.000    0.000 
#
# Total GULP energy -89389.216756 kJ/mol
# GULP energy per Si atom -5586.826047 kJ/mol
# Density = 2.287891 g / cm^3
# Si number density = 22.931099 Si / 1000 Ang^3
#
#
#
# Elastic Constant Matrix: (Units=GPa)
#
#
# Indices 1 2 3 4 5 6 
#
# 1 94.5929 11.9233 57.9510 3.5636 30.3095 -22.3473
# 2 11.9233 38.4991 20.4022 -1.3592 3.5990 -11.7430
# 3 57.9510 20.4022 155.9028 12.7188 20.2153 -17.5924
# 4 3.5636 -1.3592 12.7188 27.6600 0.8173 8.3384
# 5 30.3095 3.5990 20.2153 0.8173 57.4329 -10.6754
# 6 -22.3473 -11.7430 -17.5924 8.3384 -10.6754 40.0773
#
#
#
# Elastic Compliance Matrix: (Units=1/GPa)
#
#
# Indices 1 2 3 4 5 6 
#
# 1 0.016896 -0.000449 -0.004613 -0.001701 -0.006128 0.005987
# 2 -0.000449 0.029906 -0.003097 0.000757 0.000781 0.007203
# 3 -0.004613 -0.003097 0.009046 -0.004093 -0.000261 0.001273
# 4 -0.001701 0.000757 -0.004093 0.041714 -0.000405 -0.011311
# 5 -0.006128 0.000781 -0.000261 -0.000405 0.021143 0.002414
# 6 0.005987 0.007203 0.001273 -0.011311 0.002414 0.033956
#
#
# Mechanical properties :
#
#
# Convention : Reuss Voigt Hill
#
# Bulk Modulus (GPa) = 25.29758 52.17197 38.73477
# Shear Modulus (GPa) = 27.44932 38.28194 32.86563
#
# Velocity S-wave (km/s) = 3.46357 4.09030 3.78991
# Velocity P-wave (km/s) = 5.20106 6.71628 6.00664
#
# Compressibility (1/GPa) = 0.03952948
#
# Stress axis : x y z
#
# Youngs Moduli (GPa) = 59.18511 33.43839 110.55155
#
# Poissons Ratio (x) = 0.01503 0.50995
# Poissons Ratio (y) = 0.02660 0.34235
# Poissons Ratio (z) = 0.27301 0.10355
#
# Static dielectric constant tensor:
#      x y z
#    x 1.873760 0.001110 -0.016020 
#    y 0.001110 1.874510 -0.066690 
#    z -0.016020 -0.066690 1.743440 
# 
# From -- ./inp_files/177433.got.cif
#   From: 2010.05.17/outbox.cif.g08.bks.cpg/sg2_89_cif.got.tgz:177433.got - 2010.06.03 11:33:40.
