data_PCOD9039262
_publ_section_title
;
Structure prediction by ZEFSAII (Michael W. Deem and Ramdas Pophale) SiO2 
 PCOD9039262
Probable space group: P -1
;
_chemical_formula_sum "Si O2"
_cell_formula_units_Z 12
_cell_length_a 9.537193
_cell_length_b 6.985941
_cell_length_c 18.740149
_cell_angle_alpha 132.088014
_cell_angle_beta 150.770790
_cell_angle_gamma 49.571137
_cell_volume 445.443474
_symmetry_space_group_name_H-M "P -1"
_symmetry_group_IT_number 2
_symmetry_cell_setting 'triclinic'
loop_
_space_group_symop_operation_xyz
x,y,z
-x,-y,-z
loop_
_atom_site_type_symbol
_atom_site_label
_atom_site_fract_x
_atom_site_fract_y
_atom_site_fract_z
Si Si1 0.290897 0.099855 0.035257
Si Si2 0.131354 0.216580 0.760466
Si Si3 0.397806 0.427216 0.730375
Si Si4 0.255579 0.879902 0.302542
Si Si5 0.462527 0.898415 0.714234
Si Si6 0.816470 0.542180 0.582519
O O1 0.431850 0.333354 0.120859
O O2 0.272588 0.168900 0.128994
O O3 0.534652 0.833819 0.074859
O O4 0.993852 0.090616 0.862401
O O5 0.920713 0.181153 0.721968
O O6 0.997144 0.467443 0.717371
O O7 0.183157 0.983236 0.665177
O O8 0.483972 0.335659 0.665412
O O9 0.065734 0.522047 0.627905
O O10 0.487578 0.163892 0.750877
O O11 0.347486 0.162377 0.416921
O O12 0.387999 0.672010 0.574626
#
# Coordination Sequence:
#
# PCOD9039262 Si02
#       6
#     2   2   2   2   2   2
#     4  10  23  42  67  93 129 166 211 256 323 374
#     4   9  21  40  67  89 126 168 205 259 312 370
#     4  11  23  41  67  93 129 166 212 261 311 377
#     4  12  25  40  67 100 124 165 212 266 315 369
#     4   9  23  43  67  90 126 177 205 255 321 374
#     4  11  23  46  65  91 131 167 214 256 316 378
#
# _framework density 26.939443000000001
#
# number of rings (size 3 to 8) (size 9 to 14) (size 15 to 20)
#    1.000    0.667    1.667    3.000    0.000    8.667 
#    0.000    5.833    0.000    0.000    0.000    0.000 
#    0.000    0.000    0.000    0.000    0.000    0.000 
#
# Total GULP energy -67226.695223 kJ/mol
# GULP energy per Si atom -5602.224602 kJ/mol
# Density = 2.687813 g / cm^3
# Si number density = 26.939443 Si / 1000 Ang^3
#
#
#
# Elastic Constant Matrix: (Units=GPa)
#
#
# Indices 1 2 3 4 5 6 
#
# 1 138.5151 31.2371 26.3869 -13.8877 6.8254 -4.1030
# 2 31.2371 110.6926 23.2984 -11.2506 -1.2460 12.3893
# 3 26.3869 23.2984 102.8238 -24.0514 -2.9629 9.4828
# 4 -13.8877 -11.2506 -24.0514 31.3966 -7.2163 6.4007
# 5 6.8254 -1.2460 -2.9629 -7.2163 22.1677 -8.8467
# 6 -4.1030 12.3893 9.4828 6.4007 -8.8467 43.4055
#
#
#
# Elastic Compliance Matrix: (Units=1/GPa)
#
#
# Indices 1 2 3 4 5 6 
#
# 1 0.008215 -0.002036 -0.001581 0.000983 -0.002083 0.001134
# 2 -0.002036 0.010470 -0.000798 0.003096 0.000800 -0.003300
# 3 -0.001581 -0.000798 0.013328 0.010954 0.004369 -0.003558
# 4 0.000983 0.003096 0.010954 0.046378 0.013534 -0.007265
# 5 -0.002083 0.000800 0.004369 0.013534 0.053817 0.007593
# 6 0.001134 -0.003300 -0.003558 -0.007265 0.007593 0.027484
#
#
# Mechanical properties :
#
#
# Convention : Reuss Voigt Hill
#
# Bulk Modulus (GPa) = 43.13724 57.09737 50.11730
# Shear Modulus (GPa) = 28.36888 37.46792 32.91840
#
# Velocity S-wave (km/s) = 3.24861 3.73342 3.49942
# Velocity P-wave (km/s) = 5.48805 6.31072 5.91371
#
# Compressibility (1/GPa) = 0.02318183
#
# Stress axis : x y z
#
# Youngs Moduli (GPa) = 121.73581 95.51510 75.02729
#
# Poissons Ratio (x) = 0.19444 0.11865
# Poissons Ratio (y) = 0.24782 0.05989
# Poissons Ratio (z) = 0.19252 0.07624
#
# Static dielectric constant tensor:
#      x y z
#    x 2.150810 0.012740 -0.082570 
#    y 0.012740 2.094460 -0.031310 
#    z -0.082570 -0.031310 2.089650 
# 
# From -- ./inp_files/586942.got.cif
#   From: 2010.05.17/outbox.cif.g08.bks.cpg/sg2_294_cif.got.tgz:586942.got - 2010.06.03 11:33:40.
