data_PCOD9039326
_publ_section_title
;
Structure prediction by ZEFSAII (Michael W. Deem and Ramdas Pophale) SiO2 
 PCOD9039326
Probable space group: P -1
;
_chemical_formula_sum "Si O2"
_cell_formula_units_Z 13
_cell_length_a 11.965032
_cell_length_b 13.483384
_cell_length_c 7.961939
_cell_angle_alpha 93.577099
_cell_angle_beta 118.919373
_cell_angle_gamma 35.418433
_cell_volume 492.993136
_symmetry_space_group_name_H-M "P -1"
_symmetry_group_IT_number 2
_symmetry_cell_setting 'triclinic'
loop_
_space_group_symop_operation_xyz
x,y,z
-x,-y,-z
loop_
_atom_site_type_symbol
_atom_site_label
_atom_site_fract_x
_atom_site_fract_y
_atom_site_fract_z
Si Si1 0.500000 0.500000 0.500000
Si Si2 0.905069 0.524768 0.151440
Si Si3 0.978811 0.779981 0.892605
Si Si4 0.691837 0.257255 0.860741
Si Si5 0.603622 0.804303 0.295642
Si Si6 0.902371 0.994332 0.283702
Si Si7 0.359388 0.987759 0.669911
O O1 0.444567 0.427798 0.561516
O O2 0.801529 0.243300 0.616802
O O3 0.739299 0.648244 0.225315
O O4 0.925319 0.399556 0.081699
O O5 0.220907 0.339762 0.420728
O O6 0.704640 0.726957 0.901942
O O7 0.736429 0.966838 0.879901
O O8 0.812163 0.922205 0.613591
O O9 0.259512 0.655094 0.107569
O O10 0.678804 0.215442 0.027118
O O11 0.000000 0.000000 0.000000
O O12 0.669322 0.874309 0.312410
O O13 0.771171 0.989497 0.277702
O O14 0.000000 0.000000 0.500000
#
# Coordination Sequence:
#
# PCOD9039326 Si02
#       7
#     1   2   2   2   2   2   2
#     4  10  26  46  68  96 130 182 224 274 340 388
#     4  10  23  42  67  98 129 179 222 273 339 385
#     4  11  24  44  69 100 136 173 227 278 330 402
#     4  10  24  45  67 101 135 176 226 276 332 404
#     4  10  24  45  65 100 136 173 226 277 330 398
#     4  11  24  46  67 100 138 173 224 277 335 407
#     4  11  23  43  70  99 136 176 221 279 333 399
#
# _framework density 26.369537999999999
#
# number of rings (size 3 to 8) (size 9 to 14) (size 15 to 20)
#    0.000    1.538    1.538    2.308    6.462    5.538 
#   11.077    0.000    0.000    0.000    0.000    0.000 
#    0.000    0.000    0.000    0.000    0.000    0.000 
#
# Total GULP energy -72497.988789 kJ/mol
# GULP energy per Si atom -5576.768368 kJ/mol
# Density = 2.630952 g / cm^3
# Si number density = 26.369538 Si / 1000 Ang^3
#
#
#
# Elastic Constant Matrix: (Units=GPa)
#
#
# Indices 1 2 3 4 5 6 
#
# 1 150.9785 37.6740 30.3236 3.6518 -9.6132 -0.2838
# 2 37.6740 123.8388 33.8651 -14.7213 -2.7441 -3.3368
# 3 30.3236 33.8651 83.8031 -18.9088 -28.5313 1.1594
# 4 3.6518 -14.7213 -18.9088 39.4567 6.3999 -9.7890
# 5 -9.6132 -2.7441 -28.5313 6.3999 65.1594 5.1510
# 6 -0.2838 -3.3368 1.1594 -9.7890 5.1510 25.0525
#
#
#
# Elastic Compliance Matrix: (Units=1/GPa)
#
#
# Indices 1 2 3 4 5 6 
#
# 1 0.007739 -0.002060 -0.002523 -0.003088 0.000360 -0.001350
# 2 -0.002060 0.010040 -0.003207 0.003504 -0.001884 0.003219
# 3 -0.002523 -0.003207 0.017889 0.006493 0.006698 -0.000124
# 4 -0.003088 0.003504 0.006493 0.033750 -0.001863 0.013702
# 5 0.000360 -0.001884 0.006698 -0.001863 0.018844 -0.005159
# 6 -0.001350 0.003219 -0.000124 0.013702 -0.005159 0.046750
#
#
# Mechanical properties :
#
#
# Convention : Reuss Voigt Hill
#
# Bulk Modulus (GPa) = 49.78281 62.48287 56.13284
# Shear Modulus (GPa) = 31.78845 43.05092 37.41968
#
# Velocity S-wave (km/s) = 3.47580 4.04493 3.77111
# Velocity P-wave (km/s) = 5.91845 6.74995 6.34783
#
# Compressibility (1/GPa) = 0.02008726
#
# Stress axis : x y z
#
# Youngs Moduli (GPa) = 129.20989 99.59935 55.90063
#
# Poissons Ratio (x) = 0.20516 0.14106
# Poissons Ratio (y) = 0.26615 0.17929
# Poissons Ratio (z) = 0.32605 0.31945
#
# Static dielectric constant tensor:
#      x y z
#    x 2.205860 -0.012150 -0.086910 
#    y -0.012150 2.042240 -0.193430 
#    z -0.086910 -0.193430 2.091050 
# 
# From -- ./inp_files/262536.got.cif
#   From: 2010.05.17/outbox.cif.g08.bks.cpg/sg2_132_cif.got.tgz:262536.got - 2010.06.03 11:33:40.
