data_PCOD9039920
_publ_section_title
;
Structure prediction by ZEFSAII (Michael W. Deem and Ramdas Pophale) SiO2 
 PCOD9039920
Probable space group: P -1
;
_chemical_formula_sum "Si O2"
_cell_formula_units_Z 15
_cell_length_a 21.464457
_cell_length_b 7.861764
_cell_length_c 9.019692
_cell_angle_alpha 129.217580
_cell_angle_beta 147.279460
_cell_angle_gamma 44.561268
_cell_volume 575.124709
_symmetry_space_group_name_H-M "P -1"
_symmetry_group_IT_number 2
_symmetry_cell_setting 'triclinic'
loop_
_space_group_symop_operation_xyz
x,y,z
-x,-y,-z
loop_
_atom_site_type_symbol
_atom_site_label
_atom_site_fract_x
_atom_site_fract_y
_atom_site_fract_z
Si Si1 0.987873 0.165806 0.710525
Si Si2 0.500000 0.500000 0.000000
Si Si3 0.710326 0.267062 0.158746
Si Si4 0.092242 0.432450 0.861597
Si Si5 0.294632 0.632277 0.410835
Si Si6 0.169468 0.184083 0.578141
Si Si7 0.630900 0.802235 0.224484
Si Si8 0.253568 0.898401 0.198024
O O1 0.837365 0.262923 0.484588
O O2 0.032947 0.360041 0.843487
O O3 0.000000 0.000000 0.500000
O O4 0.097493 0.014171 0.963602
O O5 0.613535 0.212360 0.034502
O O6 0.583951 0.505216 0.322444
O O7 0.616766 0.567746 0.135134
O O8 0.726581 0.164422 0.970668
O O9 0.152788 0.219525 0.741810
O O10 0.974168 0.653593 0.673478
O O11 0.201088 0.506398 0.164962
O O12 0.318721 0.662209 0.301535
O O13 0.219805 0.916173 0.464922
O O14 0.261256 0.288980 0.740165
O O15 0.687993 0.920218 0.527391
O O16 0.500000 0.000000 0.000000
#
# Coordination Sequence:
#
# PCOD9039920 Si02
#       8
#     2   1   2   2   2   2   2   2
#     4  10  24  44  73 108 143 182 233 295 359 423
#     4  12  30  46  70 104 142 192 238 300 344 408
#     4  11  24  48  70  98 148 181 230 294 350 421
#     4  11  23  43  76 109 140 189 229 293 370 414
#     4  11  26  47  70 109 144 186 240 289 353 424
#     4  10  23  42  72 109 144 177 238 300 349 421
#     4  11  23  43  68 100 137 190 242 279 340 425
#     4  10  25  46  74 104 137 191 231 287 366 416
#
# _framework density 26.081299999999999
#
# number of rings (size 3 to 8) (size 9 to 14) (size 15 to 20)
#    0.000    1.333    1.333    2.800   11.200    5.867 
#    0.000    1.333    0.000    0.000    0.000    0.000 
#    0.000    0.000    0.000    0.000    0.000    0.000 
#
# Total GULP energy -83809.514209 kJ/mol
# GULP energy per Si atom -5587.300947 kJ/mol
# Density = 2.602194 g / cm^3
# Si number density = 26.081300 Si / 1000 Ang^3
#
#
#
# Elastic Constant Matrix: (Units=GPa)
#
#
# Indices 1 2 3 4 5 6 
#
# 1 119.6615 -6.3185 48.0758 8.0984 -5.7101 -10.3236
# 2 -6.3185 30.0426 29.4622 1.4642 11.9351 -1.5977
# 3 48.0758 29.4622 211.0641 -21.0454 10.9954 -8.6057
# 4 8.0984 1.4642 -21.0454 54.1617 -4.0928 8.1111
# 5 -5.7101 11.9351 10.9954 -4.0928 61.4892 -4.9650
# 6 -10.3236 -1.5977 -8.6057 8.1111 -4.9650 48.6171
#
#
#
# Elastic Compliance Matrix: (Units=1/GPa)
#
#
# Indices 1 2 3 4 5 6 
#
# 1 0.010506 0.005710 -0.003454 -0.003395 0.000454 0.002420
# 2 0.005710 0.045320 -0.007777 -0.005876 -0.007140 0.001577
# 3 -0.003454 -0.007777 0.006936 0.003482 0.000154 -0.000326
# 4 -0.003395 -0.005876 0.003482 0.021135 0.001311 -0.003690
# 5 0.000454 -0.007140 0.000154 0.001311 0.017872 0.001495
# 6 0.002420 0.001577 -0.000326 -0.003690 0.001495 0.021845
#
#
# Mechanical properties :
#
#
# Convention : Reuss Voigt Hill
#
# Bulk Modulus (GPa) = 19.33393 55.91190 37.62292
# Shear Modulus (GPa) = 32.91761 52.15684 42.53723
#
# Velocity S-wave (km/s) = 3.55648 4.47674 4.04288
# Velocity P-wave (km/s) = 4.92887 6.94303 6.02078
#
# Compressibility (1/GPa) = 0.05172254
#
# Stress axis : x y z
#
# Youngs Moduli (GPa) = 95.18100 22.06526 144.17513
#
# Poissons Ratio (x) = -0.12600 0.49795
# Poissons Ratio (y) = -0.54352 1.12119
# Poissons Ratio (z) = 0.32873 0.17159
#
# Static dielectric constant tensor:
#      x y z
#    x 2.964270 -0.065110 0.243310 
#    y -0.065110 2.245570 -0.085800 
#    z 0.243310 -0.085800 2.048330 
# 
# From -- ./inp_files/352457.got.cif
#   From: 2010.05.17/outbox.cif.g08.bks.cpg/sg2_177_cif.got.tgz:352457.got - 2010.06.03 11:33:40.
