data_PCOD9039383
_publ_section_title
;
Structure prediction by ZEFSAII (Michael W. Deem and Ramdas Pophale) SiO2 
 PCOD9039383
Probable space group: P -1
;
_chemical_formula_sum "Si O2"
_cell_formula_units_Z 16
_cell_length_a 21.248067
_cell_length_b 17.718223
_cell_length_c 9.099483
_cell_angle_alpha 38.776937
_cell_angle_beta 142.336201
_cell_angle_gamma 161.362883
_cell_volume 661.266684
_symmetry_space_group_name_H-M "P -1"
_symmetry_group_IT_number 2
_symmetry_cell_setting 'triclinic'
loop_
_space_group_symop_operation_xyz
x,y,z
-x,-y,-z
loop_
_atom_site_type_symbol
_atom_site_label
_atom_site_fract_x
_atom_site_fract_y
_atom_site_fract_z
Si Si1 0.712534 0.181440 0.542965
Si Si2 0.272354 0.248571 0.522847
Si Si3 0.430848 0.374195 0.911319
Si Si4 0.731661 0.331842 0.076507
Si Si5 0.277824 0.905725 0.797286
Si Si6 0.921140 0.213082 0.112618
Si Si7 0.218083 0.961268 0.324018
Si Si8 0.125054 0.216160 0.013265
O O1 0.797675 0.376169 0.301618
O O2 0.500000 0.000000 0.500000
O O3 0.702542 0.078085 0.547246
O O4 0.832956 0.229850 0.817125
O O5 0.500000 0.500000 0.500000
O O6 0.302293 0.320219 0.637819
O O7 0.202196 0.037425 0.729928
O O8 0.131084 0.168588 0.261770
O O9 0.500000 0.500000 0.000000
O O10 0.288343 0.126354 0.083504
O O11 0.640800 0.539906 0.975402
O O12 0.766772 0.257792 0.135371
O O13 0.852727 0.565302 0.873721
O O14 0.487838 0.101966 0.975664
O O15 0.098978 0.756890 0.805041
O O16 0.310867 0.047998 0.526861
O O17 0.987064 0.768752 0.220571
O O18 0.000000 0.000000 0.000000
#
# Coordination Sequence:
#
# PCOD9039383 Si02
#       8
#     2   2   2   2   2   2   2   2
#     4  11  23  47  71 100 145 184 237 309 366 438
#     4  10  25  46  70 107 148 191 248 302 366 446
#     4  11  23  46  70  99 146 193 241 302 369 429
#     4  10  23  44  68 102 142 186 241 304 364 446
#     4  10  23  42  68 101 145 183 238 301 371 438
#     4  12  22  44  72 103 138 190 249 296 372 440
#     4  11  24  45  67 105 140 189 238 294 369 435
#     4  11  23  45  72 101 146 189 241 306 358 440
#
# _framework density 24.195988
#
# number of rings (size 3 to 8) (size 9 to 14) (size 15 to 20)
#    0.000    1.250    3.750    1.500    1.750    2.500 
#   11.250    0.000    0.000    0.000    0.000    0.000 
#    0.000    0.000    0.000    0.000    0.000    0.000 
#
# Total GULP energy -89230.227137 kJ/mol
# GULP energy per Si atom -5576.889196 kJ/mol
# Density = 2.414092 g / cm^3
# Si number density = 24.195988 Si / 1000 Ang^3
#
#
#
# Elastic Constant Matrix: (Units=GPa)
#
#
# Indices 1 2 3 4 5 6 
#
# 1 108.1760 23.3906 43.9872 -0.0270 -20.0624 11.1017
# 2 23.3906 80.0206 23.9851 -13.4661 -1.3098 12.9179
# 3 43.9872 23.9851 123.1596 8.3058 -34.5280 -4.4627
# 4 -0.0270 -13.4661 8.3058 38.3563 4.2766 -12.6371
# 5 -20.0624 -1.3098 -34.5280 4.2766 47.0368 1.8294
# 6 11.1017 12.9179 -4.4627 -12.6371 1.8294 41.6409
#
#
#
# Elastic Compliance Matrix: (Units=1/GPa)
#
#
# Indices 1 2 3 4 5 6 
#
# 1 0.011852 -0.002257 -0.002933 -0.001617 0.003118 -0.003402
# 2 -0.002257 0.015648 -0.003777 0.005827 -0.003723 -0.002725
# 3 -0.002933 -0.003777 0.012560 -0.004438 0.008205 0.001593
# 4 -0.001617 0.005827 -0.004438 0.032620 -0.007076 0.008358
# 5 0.003118 -0.003723 0.008205 -0.007076 0.029240 -0.002229
# 6 -0.003402 -0.002725 0.001593 0.008358 -0.002229 0.028572
#
#
# Mechanical properties :
#
#
# Convention : Reuss Voigt Hill
#
# Bulk Modulus (GPa) = 45.19661 54.89801 50.04731
# Shear Modulus (GPa) = 32.09195 40.07301 36.08248
#
# Velocity S-wave (km/s) = 3.64584 4.07404 3.86587
# Velocity P-wave (km/s) = 6.03678 6.69840 6.37618
#
# Compressibility (1/GPa) = 0.02212555
#
# Stress axis : x y z
#
# Youngs Moduli (GPa) = 84.37308 63.90467 79.61718
#
# Poissons Ratio (x) = 0.14424 0.23355
# Poissons Ratio (y) = 0.19044 0.30071
# Poissons Ratio (z) = 0.24750 0.24136
#
# Static dielectric constant tensor:
#      x y z
#    x 1.886500 0.013470 -0.015580 
#    y 0.013470 1.903140 0.020990 
#    z -0.015580 0.020990 1.913490 
# 
# From -- ./inp_files/348838.got.cif
#   From: 2010.05.17/outbox.cif.g08.bks.cpg/sg2_175_cif.got.tgz:348838.got - 2010.06.03 11:33:40.
