data_PCOD9039972
_publ_section_title
;
Structure prediction by ZEFSAII (Michael W. Deem and Ramdas Pophale) SiO2 
 PCOD9039972
Probable space group: P -1
;
_chemical_formula_sum "Si O2"
_cell_formula_units_Z 16
_cell_length_a 5.310940
_cell_length_b 14.262153
_cell_length_c 9.619916
_cell_angle_alpha 116.115374
_cell_angle_beta 103.918991
_cell_angle_gamma 102.376471
_cell_volume 590.644905
_symmetry_space_group_name_H-M "P -1"
_symmetry_group_IT_number 2
_symmetry_cell_setting 'triclinic'
loop_
_space_group_symop_operation_xyz
x,y,z
-x,-y,-z
loop_
_atom_site_type_symbol
_atom_site_label
_atom_site_fract_x
_atom_site_fract_y
_atom_site_fract_z
Si Si1 0.582405 0.131334 0.617808
Si Si2 0.985757 0.887813 0.506653
Si Si3 0.309356 0.839344 0.753987
Si Si4 0.072184 0.585752 0.435009
Si Si5 0.858301 0.822373 0.901306
Si Si6 0.755119 0.612403 0.141044
Si Si7 0.489000 0.231494 0.929439
Si Si8 0.925224 0.607288 0.851349
O O1 0.340349 0.162501 0.530797
O O2 0.598917 0.155362 0.798331
O O3 0.881785 0.182880 0.620214
O O4 0.500000 0.000000 0.500000
O O5 0.191427 0.906312 0.674600
O O6 0.000000 0.000000 0.500000
O O7 0.639217 0.865976 0.823201
O O8 0.196651 0.709757 0.599742
O O9 0.156886 0.857185 0.887795
O O10 0.853181 0.596743 0.298263
O O11 0.000000 0.500000 0.500000
O O12 0.210663 0.518359 0.306716
O O13 0.776462 0.686403 0.815192
O O14 0.774875 0.840625 0.059758
O O15 0.617142 0.703167 0.154696
O O16 0.500000 0.500000 0.000000
O O17 0.938728 0.617578 0.027968
O O18 0.747079 0.326659 0.102016
#
# Coordination Sequence:
#
# PCOD9039972 Si02
#       8
#     2   2   2   2   2   2   2   2
#     4  10  23  42  73 105 130 172 229 297 363 422
#     4  10  23  45  71 103 136 171 231 301 366 421
#     4  12  25  42  70 103 141 190 237 298 361 418
#     4  12  24  42  63 101 147 190 246 293 350 414
#     4  11  24  44  64 102 142 192 238 282 360 438
#     4  11  25  40  66  97 143 198 249 293 351 431
#     4  11  23  43  71  95 145 188 241 290 362 427
#     4  11  24  44  62 100 146 199 239 293 352 433
#
# _framework density 27.089032
#
# number of rings (size 3 to 8) (size 9 to 14) (size 15 to 20)
#    0.000    1.000    3.750    1.875    7.000    1.500 
#    0.000    0.000    0.000   18.000    0.000    0.000 
#    0.000    0.000    0.000    0.000    0.000    0.000 
#
# Total GULP energy -89209.704959 kJ/mol
# GULP energy per Si atom -5575.606560 kJ/mol
# Density = 2.702738 g / cm^3
# Si number density = 27.089032 Si / 1000 Ang^3
#
#
#
# Elastic Constant Matrix: (Units=GPa)
#
#
# Indices 1 2 3 4 5 6 
#
# 1 154.1749 9.2076 2.4177 -5.8278 -12.8666 -29.3722
# 2 9.2076 102.8024 33.1739 -21.5228 4.9274 -23.2589
# 3 2.4177 33.1739 101.7294 -11.8381 -23.1569 -7.5839
# 4 -5.8278 -21.5228 -11.8381 52.6211 -11.4801 7.9390
# 5 -12.8666 4.9274 -23.1569 -11.4801 48.0249 -5.3795
# 6 -29.3722 -23.2589 -7.5839 7.9390 -5.3795 37.6499
#
#
#
# Elastic Compliance Matrix: (Units=1/GPa)
#
#
# Indices 1 2 3 4 5 6 
#
# 1 0.008176 0.000603 0.001140 0.001132 0.003764 0.007280
# 2 0.000603 0.013216 -0.003752 0.003260 -0.001442 0.006986
# 3 0.001140 -0.003752 0.013353 0.003089 0.008065 0.001762
# 4 0.001132 0.003260 0.003089 0.022696 0.006851 -0.000288
# 5 0.003764 -0.001442 0.008065 0.006851 0.028206 0.006256
# 6 0.007280 0.006986 0.001762 -0.000288 0.006256 0.037865
#
#
# Mechanical properties :
#
#
# Convention : Reuss Voigt Hill
#
# Bulk Modulus (GPa) = 32.54303 49.81168 41.17735
# Shear Modulus (GPa) = 36.29150 48.58634 42.43892
#
# Velocity S-wave (km/s) = 3.66418 4.23966 3.96238
# Velocity P-wave (km/s) = 5.47184 6.51110 6.01396
#
# Compressibility (1/GPa) = 0.03072855
#
# Stress axis : x y z
#
# Youngs Moduli (GPa) = 122.30729 75.66368 74.88809
#
# Poissons Ratio (x) = -0.04565 -0.08539
# Poissons Ratio (y) = -0.07380 0.28100
# Poissons Ratio (z) = -0.13946 0.28391
#
# Static dielectric constant tensor:
#      x y z
#    x 2.120720 -0.000990 0.061140 
#    y -0.000990 2.169450 0.126730 
#    z 0.061140 0.126730 2.306780 
# 
# From -- ./inp_files/135752.got.cif
#   From: 2010.05.17/outbox.cif.g08.bks.cpg/sg2_68_cif.got.tgz:135752.got - 2010.06.03 11:33:40.
