data_PCOD9039771
_publ_section_title
;
Structure prediction by ZEFSAII (Michael W. Deem and Ramdas Pophale) SiO2 
 PCOD9039771
Probable space group: P -1
;
_chemical_formula_sum "Si O2"
_cell_formula_units_Z 14
_cell_length_a 10.778903
_cell_length_b 6.760366
_cell_length_c 11.108135
_cell_angle_alpha 56.898162
_cell_angle_beta 110.824072
_cell_angle_gamma 107.943442
_cell_volume 627.031604
_symmetry_space_group_name_H-M "P -1"
_symmetry_group_IT_number 2
_symmetry_cell_setting 'triclinic'
loop_
_space_group_symop_operation_xyz
x,y,z
-x,-y,-z
loop_
_atom_site_type_symbol
_atom_site_label
_atom_site_fract_x
_atom_site_fract_y
_atom_site_fract_z
Si Si1 0.979748 0.671615 0.749407
Si Si2 0.457706 0.399544 0.887607
Si Si3 0.142404 0.503899 0.478817
Si Si4 0.685111 0.124578 0.005660
Si Si5 0.231547 0.020485 0.669941
Si Si6 0.369536 0.843416 0.561610
Si Si7 0.005871 0.791580 0.977493
O O1 0.880671 0.552702 0.652179
O O2 0.087833 0.861164 0.658099
O O3 0.942347 0.796474 0.819979
O O4 0.051449 0.454787 0.896695
O O5 0.405124 0.612659 0.724711
O O6 0.360539 0.148251 0.960512
O O7 0.500000 0.500000 0.000000
O O8 0.579470 0.305184 0.886520
O O9 0.249980 0.735103 0.466058
O O10 0.000000 0.500000 0.500000
O O11 0.205862 0.275578 0.622510
O O12 0.691603 0.100677 0.160244
O O13 0.835151 0.211438 0.985657
O O14 0.309031 0.018025 0.574641
O O15 0.500000 0.000000 0.500000
O O16 0.000000 0.000000 0.000000
#
# Coordination Sequence:
#
# PCOD9039771 Si02
#       7
#     2   2   2   2   2   2   2
#     4  10  24  41  67 108 139 186 233 292 365 438
#     4  11  23  44  72  97 136 195 247 289 365 431
#     4  12  26  45  74 103 146 194 238 297 371 442
#     4  10  23  42  71 100 135 188 240 298 357 434
#     4  11  23  45  72 102 141 185 247 291 363 447
#     4  12  28  46  73 109 146 194 246 308 362 436
#     4  10  24  41  70 105 144 176 237 309 360 425
#
# _framework density 22.327423
#
# number of rings (size 3 to 8) (size 9 to 14) (size 15 to 20)
#    0.000    1.143    4.286    0.429    6.000    4.000 
#    0.000    0.000    0.000    0.000    0.000    0.000 
#    0.000    0.000    0.000    0.000    0.000    0.000 
#
# Total GULP energy -78169.572315 kJ/mol
# GULP energy per Si atom -5583.540880 kJ/mol
# Density = 2.227660 g / cm^3
# Si number density = 22.327423 Si / 1000 Ang^3
#
#
#
# Elastic Constant Matrix: (Units=GPa)
#
#
# Indices 1 2 3 4 5 6 
#
# 1 83.7859 59.5929 25.0483 -4.9433 -10.4667 1.5917
# 2 59.5929 156.6329 29.4376 11.9899 -3.2676 4.5733
# 3 25.0483 29.4376 64.1767 12.7320 2.6868 -4.2893
# 4 -4.9433 11.9899 12.7320 45.2323 -2.2721 5.6120
# 5 -10.4667 -3.2676 2.6868 -2.2721 28.4827 -2.7228
# 6 1.5917 4.5733 -4.2893 5.6120 -2.7228 42.2510
#
#
#
# Elastic Compliance Matrix: (Units=1/GPa)
#
#
# Indices 1 2 3 4 5 6 
#
# 1 0.019902 -0.006673 -0.006326 0.006229 0.007545 -0.001011
# 2 -0.006673 0.009331 -0.001072 -0.002907 -0.001568 -0.000582
# 3 -0.006326 -0.001072 0.020269 -0.006717 -0.004608 0.003007
# 4 0.006229 -0.002907 -0.006717 0.026138 0.004311 -0.003796
# 5 0.007545 -0.001568 -0.004608 0.004311 0.038608 0.001333
# 6 -0.001011 -0.000582 0.003007 -0.003796 0.001333 0.024665
#
#
# Mechanical properties :
#
#
# Convention : Reuss Voigt Hill
#
# Bulk Modulus (GPa) = 46.81611 59.19479 53.00545
# Shear Modulus (GPa) = 28.70674 35.89433 32.30054
#
# Velocity S-wave (km/s) = 3.58958 4.01388 3.80765
# Velocity P-wave (km/s) = 6.18010 6.93191 6.56677
#
# Compressibility (1/GPa) = 0.02136017
#
# Stress axis : x y z
#
# Youngs Moduli (GPa) = 50.24712 107.16400 49.33527
#
# Poissons Ratio (x) = 0.71508 0.31210
# Poissons Ratio (y) = 0.33529 0.05291
# Poissons Ratio (z) = 0.31787 0.11492
#
# Static dielectric constant tensor:
#      x y z
#    x 1.845350 0.011820 0.042990 
#    y 0.011820 1.858080 0.019520 
#    z 0.042990 0.019520 1.870720 
# 
# From -- ./inp_files/408997.got.cif
#   From: 2010.05.17/outbox.cif.g08.bks.cpg/sg2_205_cif.got.tgz:408997.got - 2010.06.03 11:33:40.
