data_PCOD9039149
_publ_section_title
;
Structure prediction by ZEFSAII (Michael W. Deem and Ramdas Pophale) SiO2 
 PCOD9039149
Probable space group: P -1
;
_chemical_formula_sum "Si O2"
_cell_formula_units_Z 16
_cell_length_a 27.187547
_cell_length_b 8.238791
_cell_length_c 14.638283
_cell_angle_alpha 130.824584
_cell_angle_beta 160.506038
_cell_angle_gamma 40.676716
_cell_volume 684.383775
_symmetry_space_group_name_H-M "P -1"
_symmetry_group_IT_number 2
_symmetry_cell_setting 'triclinic'
loop_
_space_group_symop_operation_xyz
x,y,z
-x,-y,-z
loop_
_atom_site_type_symbol
_atom_site_label
_atom_site_fract_x
_atom_site_fract_y
_atom_site_fract_z
Si Si1 0.899574 0.915536 0.176195
Si Si2 0.421451 0.609401 0.632800
Si Si3 0.837231 0.746606 0.358302
Si Si4 0.134642 0.193538 0.128625
Si Si5 0.772583 0.415965 0.255238
Si Si6 0.945460 0.944980 0.766955
Si Si7 0.728074 0.624843 0.827903
Si Si8 0.525371 0.838634 0.736911
O O1 0.104977 0.699661 0.483741
O O2 0.854900 0.181302 0.239157
O O3 0.853878 0.923882 0.994035
O O4 0.779006 0.830474 0.981605
O O5 0.376003 0.403513 0.448019
O O6 0.499302 0.667276 0.701060
O O7 0.240708 0.875211 0.442422
O O8 0.566338 0.518194 0.932838
O O9 0.789489 0.636551 0.321440
O O10 0.898631 0.919274 0.571200
O O11 0.000000 0.500000 0.500000
O O12 0.665507 0.887208 0.045206
O O13 0.331290 0.090574 0.468610
O O14 0.000000 0.500000 0.000000
O O15 0.048048 0.085046 0.001004
O O16 0.085638 0.654347 0.939421
O O17 0.615350 0.684472 0.744453
#
# Coordination Sequence:
#
# PCOD9039149 Si02
#       8
#     2   2   2   2   2   2   2   2
#     4  11  24  43  68  97 141 174 220 276 341 395
#     4  11  25  41  70 101 135 171 232 280 330 396
#     4  11  21  43  71 101 131 171 234 277 324 398
#     4  12  28  44  65  99 143 178 216 278 344 394
#     4  10  23  42  66  97 133 177 219 276 339 390
#     4  12  25  44  70  99 134 181 223 273 337 395
#     4  12  23  43  71 100 132 176 227 272 331 404
#     4  11  25  42  72 101 134 175 231 277 331 397
#
# _framework density 23.378695
#
# number of rings (size 3 to 8) (size 9 to 14) (size 15 to 20)
#    0.000    0.750    3.750    3.000    3.500    7.000 
#    0.000    1.250    0.000    0.000    0.000    0.000 
#    0.000    0.000    0.000    0.000    0.000    0.000 
#
# Total GULP energy -89602.839674 kJ/mol
# GULP energy per Si atom -5600.177480 kJ/mol
# Density = 2.332548 g / cm^3
# Si number density = 23.378695 Si / 1000 Ang^3
#
#
#
# Elastic Constant Matrix: (Units=GPa)
#
#
# Indices 1 2 3 4 5 6 
#
# 1 43.8284 -0.0281 26.1002 -4.8907 8.2800 -7.8202
# 2 -0.0281 62.9994 28.6793 0.1699 2.1478 -1.9922
# 3 26.1002 28.6793 203.0282 -15.3238 -15.1367 -4.7516
# 4 -4.8907 0.1699 -15.3238 37.4347 -0.0727 -2.2179
# 5 8.2800 2.1478 -15.1367 -0.0727 33.7824 -4.4287
# 6 -7.8202 -1.9922 -4.7516 -2.2179 -4.4287 24.0839
#
#
#
# Elastic Compliance Matrix: (Units=1/GPa)
#
#
# Indices 1 2 3 4 5 6 
#
# 1 0.028450 0.002450 -0.004253 0.002384 -0.008067 0.007337
# 2 0.002450 0.017392 -0.003039 -0.000949 -0.002938 0.001007
# 3 -0.004253 -0.003039 0.006387 0.002116 0.004179 0.000591
# 4 0.002384 -0.000949 0.002116 0.028127 0.000994 0.003886
# 5 -0.008067 -0.002938 0.004179 0.000994 0.034209 0.004344
# 6 0.007337 0.001007 0.000591 0.003886 0.004344 0.045261
#
#
# Mechanical properties :
#
#
# Convention : Reuss Voigt Hill
#
# Bulk Modulus (GPa) = 23.50522 46.59544 35.05033
# Shear Modulus (GPa) = 27.21949 36.06718 31.64334
#
# Velocity S-wave (km/s) = 3.41587 3.93203 3.68300
# Velocity P-wave (km/s) = 5.06295 6.37091 5.75421
#
# Compressibility (1/GPa) = 0.04254373
#
# Stress axis : x y z
#
# Youngs Moduli (GPa) = 35.14947 57.49726 156.57963
#
# Poissons Ratio (x) = -0.14084 0.66597
# Poissons Ratio (y) = -0.08610 0.47581
# Poissons Ratio (z) = 0.14950 0.17472
#
# Static dielectric constant tensor:
#      x y z
#    x 1.902790 0.006820 -0.027560 
#    y 0.006820 1.842500 0.010200 
#    z -0.027560 0.010200 1.899730 
# 
# From -- ./inp_files/308435.got.cif
#   From: 2010.05.17/outbox.cif.g08.bks.cpg/sg2_155_cif.got.tgz:308435.got - 2010.06.03 11:33:40.
