data_PCOD9039254
_publ_section_title
;
Structure prediction by ZEFSAII (Michael W. Deem and Ramdas Pophale) SiO2 
 PCOD9039254
Probable space group: P -1
;
_chemical_formula_sum "Si O2"
_cell_formula_units_Z 14
_cell_length_a 15.893657
_cell_length_b 25.244314
_cell_length_c 4.806649
_cell_angle_alpha 119.028030
_cell_angle_beta 117.699282
_cell_angle_gamma 20.253936
_cell_volume 583.467562
_symmetry_space_group_name_H-M "P -1"
_symmetry_group_IT_number 2
_symmetry_cell_setting 'triclinic'
loop_
_space_group_symop_operation_xyz
x,y,z
-x,-y,-z
loop_
_atom_site_type_symbol
_atom_site_label
_atom_site_fract_x
_atom_site_fract_y
_atom_site_fract_z
Si Si1 0.764301 0.460647 0.542050
Si Si2 0.566506 0.336549 0.971760
Si Si3 0.690871 0.711650 0.850172
Si Si4 0.000000 0.000000 0.000000
Si Si5 0.087257 0.762428 0.716288
Si Si6 0.154384 0.038065 0.627765
Si Si7 0.000000 0.000000 0.500000
Si Si8 0.045561 0.395216 0.510367
O O1 0.640981 0.563363 0.883120
O O2 0.856032 0.340968 0.468471
O O3 0.973038 0.375016 0.487382
O O4 0.550912 0.580859 0.292593
O O5 0.685254 0.328630 0.250308
O O6 0.793701 0.156683 0.835687
O O7 0.853195 0.663072 0.792218
O O8 0.807485 0.577642 0.626450
O O9 0.419823 0.877280 0.749151
O O10 0.748649 0.693308 0.210012
O O11 0.194429 0.907574 0.813672
O O12 0.868845 0.911808 0.564161
O O13 0.017898 0.825050 0.076144
O O14 0.041286 0.036459 0.409386
#
# Coordination Sequence:
#
# PCOD9039254 Si02
#       8
#     2   2   2   1   2   2   1   2
#     4  12  26  43  67  89 133 180 210 257 316 376
#     4  12  24  41  64  98 133 170 206 262 324 375
#     4  10  23  42  67  92 124 162 205 280 324 363
#     4  12  24  38  64  98 132 158 220 258 310 394
#     4  12  25  43  61  98 133 170 218 253 306 405
#     4  12  24  42  69  95 132 167 210 265 328 363
#     4  12  22  42  60 102 132 160 202 274 312 398
#     4  10  23  44  63  94 124 160 223 260 318 385
#
# _framework density 23.994479999999999
#
# number of rings (size 3 to 8) (size 9 to 14) (size 15 to 20)
#    0.000    0.571    2.857    5.143    4.000    0.000 
#    0.000    4.286    0.000    0.000    0.000    0.000 
#    0.000    0.000    0.000    0.000    0.000    0.000 
#
# Total GULP energy -78223.687383 kJ/mol
# GULP energy per Si atom -5587.406242 kJ/mol
# Density = 2.393987 g / cm^3
# Si number density = 23.994480 Si / 1000 Ang^3
#
#
#
# Elastic Constant Matrix: (Units=GPa)
#
#
# Indices 1 2 3 4 5 6 
#
# 1 109.6289 28.6317 17.6656 12.0559 -6.8446 25.0606
# 2 28.6317 105.0746 25.1961 -11.0048 16.3723 23.5065
# 3 17.6656 25.1961 119.8332 -10.2505 -38.9064 15.3884
# 4 12.0559 -11.0048 -10.2505 40.7958 7.4737 -4.7532
# 5 -6.8446 16.3723 -38.9064 7.4737 47.1948 -0.5463
# 6 25.0606 23.5065 15.3884 -4.7532 -0.5463 39.3326
#
#
#
# Elastic Compliance Matrix: (Units=1/GPa)
#
#
# Indices 1 2 3 4 5 6 
#
# 1 0.012366 -0.003299 0.000643 -0.005971 0.004335 -0.006820
# 2 -0.003299 0.014800 -0.005107 0.005144 -0.010686 -0.004272
# 3 0.000643 -0.005107 0.013986 -0.000846 0.013497 -0.002744
# 4 -0.005971 0.005144 -0.000846 0.029435 -0.007957 0.004508
# 5 0.004335 -0.010686 0.013497 -0.007957 0.037887 -0.002091
# 6 -0.006820 -0.004272 -0.002744 0.004508 -0.002091 0.033912
#
#
# Mechanical properties :
#
#
# Convention : Reuss Voigt Hill
#
# Bulk Modulus (GPa) = 39.02081 53.05818 46.03950
# Shear Modulus (GPa) = 30.03848 43.00084 36.51966
#
# Velocity S-wave (km/s) = 3.54205 4.23793 3.90552
# Velocity P-wave (km/s) = 5.74681 6.79024 6.29020
#
# Compressibility (1/GPa) = 0.02562735
#
# Stress axis : x y z
#
# Youngs Moduli (GPa) = 80.86669 67.56741 71.50082
#
# Poissons Ratio (x) = 0.22289 -0.04597
# Poissons Ratio (y) = 0.26676 0.36512
# Poissons Ratio (z) = -0.05199 0.34503
#
# Static dielectric constant tensor:
#      x y z
#    x 1.982910 0.007290 -0.051320 
#    y 0.007290 1.894580 -0.005470 
#    z -0.051320 -0.005470 2.025400 
# 
# From -- ./inp_files/100947.got.cif
#   From: 2010.05.17/outbox.cif.g08.bks.cpg/sg2_51_cif.got.tgz:100947.got - 2010.06.03 11:33:40.
