data_PCOD9039566
_publ_section_title
;
Structure prediction by ZEFSAII (Michael W. Deem and Ramdas Pophale) SiO2 
 PCOD9039566
Probable space group: P -1
;
_chemical_formula_sum "Si O2"
_cell_formula_units_Z 14
_cell_length_a 17.209984
_cell_length_b 10.040260
_cell_length_c 10.431937
_cell_angle_alpha 71.281101
_cell_angle_beta 153.512582
_cell_angle_gamma 124.527214
_cell_volume 570.808771
_symmetry_space_group_name_H-M "P -1"
_symmetry_group_IT_number 2
_symmetry_cell_setting 'triclinic'
loop_
_space_group_symop_operation_xyz
x,y,z
-x,-y,-z
loop_
_atom_site_type_symbol
_atom_site_label
_atom_site_fract_x
_atom_site_fract_y
_atom_site_fract_z
Si Si1 0.284492 0.783202 0.709947
Si Si2 0.473443 0.615272 0.171429
Si Si3 0.107727 0.129125 0.463032
Si Si4 0.651975 0.261719 0.813490
Si Si5 0.866000 0.412237 0.690898
Si Si6 0.417669 0.258019 0.217632
Si Si7 0.869029 0.153850 0.302766
O O1 0.099001 0.730783 0.561421
O O2 0.199570 0.755929 0.446722
O O3 0.349498 0.655256 0.874718
O O4 0.500000 0.000000 0.000000
O O5 0.447350 0.689645 0.239968
O O6 0.395286 0.414732 0.146324
O O7 0.203744 0.036801 0.692326
O O8 0.090624 0.237649 0.514437
O O9 0.839004 0.945583 0.101507
O O10 0.261686 0.253588 0.531814
O O11 0.527811 0.237562 0.508411
O O12 0.659857 0.107734 0.924617
O O13 0.928204 0.423429 0.148003
O O14 0.614345 0.342751 0.372221
O O15 0.000000 0.500000 0.000000
#
# Coordination Sequence:
#
# PCOD9039566 Si02
#       7
#     2   2   2   2   2   2   2
#     4  11  22  42  71 107 141 194 246 301 364 437
#     4  11  25  42  73 109 145 187 246 311 365 435
#     4  11  24  44  70 111 146 183 247 315 367 432
#     4  10  24  45  69 102 147 195 243 296 367 449
#     4  10  24  45  71 104 147 196 243 301 365 447
#     4  11  25  45  71 104 145 200 240 301 376 441
#     4  10  23  42  69 103 143 186 243 304 361 430
#
# _framework density 24.526603000000001
#
# number of rings (size 3 to 8) (size 9 to 14) (size 15 to 20)
#    0.000    1.429    1.429    2.143    6.000    2.857 
#    0.000    7.143    0.000    0.000    0.000    0.000 
#    0.000    0.000    0.000    0.000    0.000    0.000 
#
# Total GULP energy -78060.462760 kJ/mol
# GULP energy per Si atom -5575.747340 kJ/mol
# Density = 2.447078 g / cm^3
# Si number density = 24.526603 Si / 1000 Ang^3
#
#
#
# Elastic Constant Matrix: (Units=GPa)
#
#
# Indices 1 2 3 4 5 6 
#
# 1 188.7114 41.7995 47.3787 -6.0360 20.8244 -2.6581
# 2 41.7995 89.4776 59.7755 2.8427 -2.7061 -9.3152
# 3 47.3787 59.7755 129.6268 1.3934 -1.8311 -4.3294
# 4 -6.0360 2.8427 1.3934 40.1475 3.6241 15.6508
# 5 20.8244 -2.7061 -1.8311 3.6241 41.2499 1.8003
# 6 -2.6581 -9.3152 -4.3294 15.6508 1.8003 42.5837
#
#
#
# Elastic Compliance Matrix: (Units=1/GPa)
#
#
# Indices 1 2 3 4 5 6 
#
# 1 0.006646 -0.002412 -0.001415 0.001859 -0.003705 -0.000783
# 2 -0.002412 0.017583 -0.007027 -0.003134 0.002158 0.004042
# 3 -0.001415 -0.007027 0.011467 0.000010 0.000783 -0.000496
# 4 0.001859 -0.003134 0.000010 0.030201 -0.003294 -0.011529
# 5 -0.003705 0.002158 0.000783 -0.003294 0.026561 0.000408
# 6 -0.000783 0.004042 -0.000496 -0.011529 0.000408 0.028488
#
#
# Mechanical properties :
#
#
# Convention : Reuss Voigt Hill
#
# Bulk Modulus (GPa) = 71.49787 78.41369 74.95578
# Shear Modulus (GPa) = 33.94038 42.05369 37.99703
#
# Velocity S-wave (km/s) = 3.72401 4.14528 3.94028
# Velocity P-wave (km/s) = 6.90691 7.41292 7.16439
#
# Compressibility (1/GPa) = 0.01398643
#
# Stress axis : x y z
#
# Youngs Moduli (GPa) = 150.46713 56.87330 87.20826
#
# Poissons Ratio (x) = 0.13716 0.12344
# Poissons Ratio (y) = 0.36288 0.61285
# Poissons Ratio (z) = 0.21298 0.39968
#
# Static dielectric constant tensor:
#      x y z
#    x 2.027080 0.038210 -0.017890 
#    y 0.038210 2.030570 0.036580 
#    z -0.017890 0.036580 2.021120 
# 
# From -- ./inp_files/470994.got.cif
#   From: 2010.05.17/outbox.cif.g08.bks.cpg/sg2_236_cif.got.tgz:470994.got - 2010.06.03 11:33:40.
