data_PCOD9039409
_publ_section_title
;
Structure prediction by ZEFSAII (Michael W. Deem and Ramdas Pophale) SiO2 
 PCOD9039409
Probable space group: P -1
;
_chemical_formula_sum "Si O2"
_cell_formula_units_Z 14
_cell_length_a 17.240394
_cell_length_b 9.336897
_cell_length_c 6.947139
_cell_angle_alpha 48.600590
_cell_angle_beta 75.091375
_cell_angle_gamma 50.304897
_cell_volume 618.488920
_symmetry_space_group_name_H-M "P -1"
_symmetry_group_IT_number 2
_symmetry_cell_setting 'triclinic'
loop_
_space_group_symop_operation_xyz
x,y,z
-x,-y,-z
loop_
_atom_site_type_symbol
_atom_site_label
_atom_site_fract_x
_atom_site_fract_y
_atom_site_fract_z
Si Si1 0.082108 0.310290 0.277670
Si Si2 0.660485 0.634423 0.256626
Si Si3 0.096092 0.989486 0.883864
Si Si4 0.457168 0.724980 0.178015
Si Si5 0.219156 0.443332 0.130429
Si Si6 0.407994 0.021373 0.635840
Si Si7 0.231518 0.921710 0.208831
O O1 0.121806 0.450633 0.208234
O O2 0.055751 0.199281 0.559673
O O3 0.172843 0.069836 0.308425
O O4 0.000000 0.500000 0.000000
O O5 0.549790 0.737973 0.142805
O O6 0.630555 0.814048 0.292721
O O7 0.719620 0.362459 0.547992
O O8 0.737533 0.597877 0.076838
O O9 0.184764 0.704238 0.999231
O O10 0.151196 0.027618 0.985931
O O11 0.000000 0.000000 0.000000
O O12 0.500000 0.500000 0.500000
O O13 0.332283 0.904405 0.143044
O O14 0.447881 0.754824 0.923618
O O15 0.311115 0.188362 0.407510
O O16 0.500000 0.000000 0.500000
#
# Coordination Sequence:
#
# PCOD9039409 Si02
#       7
#     2   2   2   2   2   2   2
#     4  12  29  47  75 110 141 193 250 306 374 436
#     4  11  23  45  71 107 147 198 236 292 366 430
#     4  12  28  50  76 107 145 190 248 312 373 432
#     4  10  23  42  68 104 148 190 233 294 352 432
#     4  12  26  47  78 106 150 195 244 300 370 436
#     4  12  24  41  71 108 144 192 245 288 356 437
#     4  11  24  47  72 103 151 189 244 303 359 433
#
# _framework density 22.635815000000001
#
# number of rings (size 3 to 8) (size 9 to 14) (size 15 to 20)
#    0.000    0.571    4.286    3.000    4.000    4.571 
#    0.000    2.143    0.000    0.000    0.000    0.000 
#    0.000    0.000    0.000    0.000    0.000    0.000 
#
# Total GULP energy -78062.846233 kJ/mol
# GULP energy per Si atom -5575.917588 kJ/mol
# Density = 2.258429 g / cm^3
# Si number density = 22.635815 Si / 1000 Ang^3
#
#
#
# Elastic Constant Matrix: (Units=GPa)
#
#
# Indices 1 2 3 4 5 6 
#
# 1 52.4869 -3.3063 17.5197 -1.1247 -6.8623 -27.3767
# 2 -3.3063 72.8767 10.4251 9.9652 -17.7701 3.4508
# 3 17.5197 10.4251 169.2523 -8.6606 -16.9443 -19.2716
# 4 -1.1247 9.9652 -8.6606 36.8713 -10.0207 -5.1813
# 5 -6.8623 -17.7701 -16.9443 -10.0207 46.5313 0.3561
# 6 -27.3767 3.4508 -19.2716 -5.1813 0.3561 32.7629
#
#
#
# Elastic Compliance Matrix: (Units=1/GPa)
#
#
# Indices 1 2 3 4 5 6 
#
# 1 0.036823 0.000766 0.000977 0.007737 0.007497 0.032405
# 2 0.000766 0.015688 -0.000960 -0.003375 0.005044 -0.002165
# 3 0.000977 -0.000960 0.006984 0.003536 0.003040 0.005552
# 4 0.007737 -0.003375 0.003536 0.033308 0.008205 0.014079
# 5 0.007497 0.005044 0.003040 0.008205 0.027332 0.008522
# 6 0.032405 -0.002165 0.005552 0.014079 0.008522 0.063228
#
#
# Mechanical properties :
#
#
# Convention : Reuss Voigt Hill
#
# Bulk Modulus (GPa) = 16.37666 38.21032 27.29349
# Shear Modulus (GPa) = 24.73429 41.23160 32.98295
#
# Velocity S-wave (km/s) = 3.30920 4.27256 3.82136
# Velocity P-wave (km/s) = 4.67457 6.42314 5.61731
#
# Compressibility (1/GPa) = 0.06106251
#
# Stress axis : x y z
#
# Youngs Moduli (GPa) = 27.15713 63.74317 143.19090
#
# Poissons Ratio (x) = -0.04886 -0.13996
# Poissons Ratio (y) = -0.02082 0.13745
# Poissons Ratio (z) = -0.02654 0.06119
#
# Static dielectric constant tensor:
#      x y z
#    x 1.752970 1.729380 -1.546470 
#    y 1.729380 -30.971450 29.481720 
#    z -1.546470 29.481720 -24.678660 
# 
# From -- ./inp_files/106257.got.cif
#   From: 2010.05.17/outbox.cif.g08.bks.cpg/sg2_54_cif.got.tgz:106257.got - 2010.06.03 11:33:40.
