data_PCOD9039727
_publ_section_title
;
Structure prediction by ZEFSAII (Michael W. Deem and Ramdas Pophale) SiO2 
 PCOD9039727
Probable space group: P -1
;
_chemical_formula_sum "Si O2"
_cell_formula_units_Z 16
_cell_length_a 11.733069
_cell_length_b 8.482643
_cell_length_c 9.016514
_cell_angle_alpha 94.656174
_cell_angle_beta 131.274957
_cell_angle_gamma 97.089720
_cell_volume 653.180544
_symmetry_space_group_name_H-M "P -1"
_symmetry_group_IT_number 2
_symmetry_cell_setting 'triclinic'
loop_
_space_group_symop_operation_xyz
x,y,z
-x,-y,-z
loop_
_atom_site_type_symbol
_atom_site_label
_atom_site_fract_x
_atom_site_fract_y
_atom_site_fract_z
Si Si1 0.664436 0.184095 0.492159
Si Si2 0.988932 0.602966 0.141993
Si Si3 0.827346 0.894703 0.991779
Si Si4 0.546374 0.839793 0.967834
Si Si5 0.324617 0.355698 0.693232
Si Si6 0.840455 0.411789 0.278200
Si Si7 0.981312 0.124253 0.361744
Si Si8 0.397065 0.171892 0.486612
O O1 0.837069 0.301863 0.647161
O O2 0.567402 0.223293 0.272702
O O3 0.568373 0.199421 0.561899
O O4 0.648137 0.988035 0.458519
O O5 0.877360 0.481134 0.150210
O O6 0.000000 0.500000 0.000000
O O7 0.906353 0.745853 0.045872
O O8 0.714086 0.879750 0.035007
O O9 0.723996 0.883896 0.756483
O O10 0.956381 0.052281 0.167658
O O11 0.570149 0.725274 0.114694
O O12 0.500000 0.000000 0.000000
O O13 0.293571 0.515961 0.757122
O O14 0.387434 0.334394 0.580211
O O15 0.148465 0.248114 0.520220
O O16 0.846051 0.223046 0.279557
O O17 0.000000 0.500000 0.500000
O O18 0.000000 0.000000 0.500000
#
# Coordination Sequence:
#
# PCOD9039727 Si02
#       8
#     2   2   2   2   2   2   2   2
#     4  10  24  45  69 105 152 193 254 295 366 436
#     4  12  27  47  73 107 148 199 242 307 376 439
#     4  11  24  42  72 105 143 186 255 299 369 433
#     4  11  21  40  70 105 144 196 238 307 357 438
#     4  11  21  41  71 105 153 184 246 298 375 439
#     4  10  24  43  70 107 149 179 245 311 366 436
#     4  11  22  42  76 110 139 185 246 314 366 430
#     4  10  23  42  70 110 145 197 243 306 359 444
#
# _framework density 24.495525000000001
#
# number of rings (size 3 to 8) (size 9 to 14) (size 15 to 20)
#    0.000    1.250    3.750    1.500    5.250    3.000 
#    0.000    3.750    2.750    7.500    0.000    0.000 
#    0.000    0.000    0.000    0.000    0.000    0.000 
#
# Total GULP energy -89468.115480 kJ/mol
# GULP energy per Si atom -5591.757217 kJ/mol
# Density = 2.443977 g / cm^3
# Si number density = 24.495525 Si / 1000 Ang^3
#
#
#
# Elastic Constant Matrix: (Units=GPa)
#
#
# Indices 1 2 3 4 5 6 
#
# 1 104.8988 59.0731 19.5301 18.7902 -9.5016 -27.4611
# 2 59.0731 134.8408 44.4970 -4.4565 -6.4910 -41.8051
# 3 19.5301 44.4970 114.6206 -7.9314 -2.7974 -7.8693
# 4 18.7902 -4.4565 -7.9314 26.3080 -1.8491 3.4534
# 5 -9.5016 -6.4910 -2.7974 -1.8491 42.7245 6.7302
# 6 -27.4611 -41.8051 -7.8693 3.4534 6.7302 56.7378
#
#
#
# Elastic Compliance Matrix: (Units=1/GPa)
#
#
# Indices 1 2 3 4 5 6 
#
# 1 0.016918 -0.006124 -0.001144 -0.013910 0.001496 0.004187
# 2 -0.006124 0.013228 -0.003352 0.004786 -0.000320 0.006064
# 3 -0.001144 -0.003352 0.010354 0.003639 0.000364 -0.001852
# 4 -0.013910 0.004786 0.003639 0.050699 0.000996 -0.005906
# 5 0.001496 -0.000320 0.000364 0.000996 0.024132 -0.002385
# 6 0.004187 0.006064 -0.001852 -0.005906 -0.002385 0.024505
#
#
# Mechanical properties :
#
#
# Convention : Reuss Voigt Hill
#
# Bulk Modulus (GPa) = 51.92016 66.72895 59.32456
# Shear Modulus (GPa) = 29.85137 40.57139 35.21138
#
# Velocity S-wave (km/s) = 3.49470 4.07415 3.79550
# Velocity P-wave (km/s) = 6.12582 7.03079 6.59385
#
# Compressibility (1/GPa) = 0.01926034
#
# Stress axis : x y z
#
# Youngs Moduli (GPa) = 59.10983 75.59649 96.57888
#
# Poissons Ratio (x) = 0.46294 0.11047
# Poissons Ratio (y) = 0.36198 0.32375
# Poissons Ratio (z) = 0.06761 0.25341
#
# Static dielectric constant tensor:
#      x y z
#    x 1.748630 -0.292080 0.351540 
#    y -0.292080 1.649900 0.456300 
#    z 0.351540 0.456300 1.396090 
# 
# From -- ./inp_files/244803.got.cif
#   From: 2010.05.17/outbox.cif.g08.bks.cpg/sg2_123_cif.got.tgz:244803.got - 2010.06.03 11:33:40.
