data_PCOD9039267
_publ_section_title
;
Structure prediction by ZEFSAII (Michael W. Deem and Ramdas Pophale) SiO2 
 PCOD9039267
Probable space group: P -1
;
_chemical_formula_sum "Si O2"
_cell_formula_units_Z 12
_cell_length_a 12.910939
_cell_length_b 8.110490
_cell_length_c 9.961085
_cell_angle_alpha 58.307140
_cell_angle_beta 35.063398
_cell_angle_gamma 59.734097
_cell_volume 503.989382
_symmetry_space_group_name_H-M "P -1"
_symmetry_group_IT_number 2
_symmetry_cell_setting 'triclinic'
loop_
_space_group_symop_operation_xyz
x,y,z
-x,-y,-z
loop_
_atom_site_type_symbol
_atom_site_label
_atom_site_fract_x
_atom_site_fract_y
_atom_site_fract_z
Si Si1 0.426573 0.074598 0.188111
Si Si2 0.590347 0.286269 0.128898
Si Si3 0.247894 0.913975 0.693110
Si Si4 0.283658 0.487645 0.752153
Si Si5 0.173443 0.386807 0.193134
Si Si6 0.819984 0.645223 0.371257
O O1 0.577849 0.194043 0.036767
O O2 0.230207 0.200366 0.305346
O O3 0.386452 0.941370 0.412510
O O4 0.500000 0.000000 0.000000
O O5 0.658654 0.136542 0.240429
O O6 0.380402 0.361249 0.354785
O O7 0.714053 0.452645 0.934206
O O8 0.184950 0.708520 0.802738
O O9 0.137484 0.133150 0.738863
O O10 0.500000 0.500000 0.500000
O O11 0.202966 0.408146 0.737695
O O12 0.251390 0.356498 0.971296
O O13 0.966554 0.483957 0.354971
#
# Coordination Sequence:
#
# PCOD9039267 Si02
#       6
#     2   2   2   2   2   2
#     4  11  23  39  66  97 131 163 215 266 321 380
#     4  10  23  43  68  89 128 176 210 259 322 377
#     4  10  23  42  67  94 123 180 211 255 325 376
#     4  11  21  40  68  94 130 170 215 260 318 381
#     4  11  24  40  64 100 122 172 213 263 326 368
#     4  11  22  41  68  91 135 162 219 265 310 386
#
# _framework density 23.810025
#
# number of rings (size 3 to 8) (size 9 to 14) (size 15 to 20)
#    0.000    1.333    3.333    4.000    2.333    5.333 
#    3.000    0.833    0.000    0.000    0.000    0.000 
#    0.000    0.000    0.000    0.000    0.000    0.000 
#
# Total GULP energy -67079.201846 kJ/mol
# GULP energy per Si atom -5589.933487 kJ/mol
# Density = 2.375583 g / cm^3
# Si number density = 23.810025 Si / 1000 Ang^3
#
#
#
# Elastic Constant Matrix: (Units=GPa)
#
#
# Indices 1 2 3 4 5 6 
#
# 1 153.8623 54.2148 34.5694 11.6275 28.6851 19.3443
# 2 54.2148 95.3490 20.6698 14.9046 15.6756 -2.3250
# 3 34.5694 20.6698 44.3663 14.8140 10.8951 0.7167
# 4 11.6275 14.9046 14.8140 32.9987 1.4367 6.4560
# 5 28.6851 15.6756 10.8951 1.4367 45.7558 15.0990
# 6 19.3443 -2.3250 0.7167 6.4560 15.0990 56.7962
#
#
#
# Elastic Compliance Matrix: (Units=1/GPa)
#
#
# Indices 1 2 3 4 5 6 
#
# 1 0.010052 -0.004419 -0.005690 0.001716 -0.002474 -0.003070
# 2 -0.004419 0.014591 -0.000954 -0.005159 -0.002993 0.003496
# 3 -0.005690 -0.000954 0.032884 -0.012947 -0.004938 0.004268
# 4 0.001716 -0.005159 -0.012947 0.038869 0.004626 -0.006280
# 5 -0.002474 -0.002993 -0.004938 0.004626 0.027818 -0.007139
# 6 -0.003070 0.003496 0.004268 -0.006280 -0.007139 0.021353
#
#
# Mechanical properties :
#
#
# Convention : Reuss Voigt Hill
#
# Bulk Modulus (GPa) = 28.24627 56.94284 42.59456
# Shear Modulus (GPa) = 27.85631 39.38506 33.62068
#
# Velocity S-wave (km/s) = 3.42415 4.07152 3.76179
# Velocity P-wave (km/s) = 5.24614 6.78752 6.06599
#
# Compressibility (1/GPa) = 0.03540290
#
# Stress axis : x y z
#
# Youngs Moduli (GPa) = 99.48125 68.53701 30.40978
#
# Poissons Ratio (x) = 0.30284 0.17303
# Poissons Ratio (y) = 0.43956 0.02900
# Poissons Ratio (z) = 0.56603 0.06536
#
# Static dielectric constant tensor:
#      x y z
#    x 1.845840 0.008540 -0.005430 
#    y 0.008540 2.030690 0.018000 
#    z -0.005430 0.018000 1.963070 
# 
# From -- ./inp_files/147094.got.cif
#   From: 2010.05.17/outbox.cif.g08.bks.cpg/sg2_74_cif.got.tgz:147094.got - 2010.06.03 11:33:40.
