data_PCOD9039021
_publ_section_title
;
Structure prediction by ZEFSAII (Michael W. Deem and Ramdas Pophale) SiO2 
 PCOD9039021
Probable space group: P -1
;
_chemical_formula_sum "Si O2"
_cell_formula_units_Z 14
_cell_length_a 15.354433
_cell_length_b 12.280773
_cell_length_c 19.390405
_cell_angle_alpha 157.088557
_cell_angle_beta 26.051080
_cell_angle_gamma 152.065654
_cell_volume 590.704250
_symmetry_space_group_name_H-M "P -1"
_symmetry_group_IT_number 2
_symmetry_cell_setting 'triclinic'
loop_
_space_group_symop_operation_xyz
x,y,z
-x,-y,-z
loop_
_atom_site_type_symbol
_atom_site_label
_atom_site_fract_x
_atom_site_fract_y
_atom_site_fract_z
Si Si1 0.209682 0.801377 0.410764
Si Si2 0.213159 0.786278 0.249704
Si Si3 0.225163 0.410619 0.373468
Si Si4 0.292351 0.260074 0.743378
Si Si5 0.008187 0.867546 0.992145
Si Si6 0.743970 0.118083 0.877132
Si Si7 0.370908 0.349951 0.086074
O O1 0.213980 0.937486 0.410913
O O2 0.382296 0.634620 0.197232
O O3 0.986600 0.536500 0.421630
O O4 0.243322 0.027970 0.581280
O O5 0.224457 0.952474 0.266569
O O6 0.420269 0.685439 0.050341
O O7 0.023356 0.479246 0.198928
O O8 0.453866 0.608093 0.352772
O O9 0.246238 0.407347 0.275208
O O10 0.170562 0.073770 0.244238
O O11 0.178890 0.129240 0.819741
O O12 0.201020 0.529497 0.949873
O O13 0.225812 0.050072 0.979437
O O14 0.000000 0.000000 0.000000
O O15 0.500000 0.000000 0.000000
#
# Coordination Sequence:
#
# PCOD9039021 Si02
#       7
#     2   2   2   2   2   2   2
#     4  12  26  38  63 103 132 161 214 265 328 375
#     4  11  24  44  65  95 131 170 214 265 313 382
#     4  11  23  43  68  92 132 168 215 267 309 381
#     4  10  23  42  65  97 123 174 209 264 322 367
#     4  11  22  39  64  95 124 170 218 248 315 388
#     4   9  19  45  70  86 124 176 220 254 312 381
#     4  12  23  41  67  93 131 176 204 260 325 385
#
# _framework density 23.700524000000001
#
# number of rings (size 3 to 8) (size 9 to 14) (size 15 to 20)
#    0.000    1.143    7.143    0.857    0.000    4.000 
#    0.000    2.857    0.000    0.000    0.000    0.000 
#    0.000    0.000    0.000    0.000    0.000    0.000 
#
# Total GULP energy -78240.741632 kJ/mol
# GULP energy per Si atom -5588.624402 kJ/mol
# Density = 2.364658 g / cm^3
# Si number density = 23.700524 Si / 1000 Ang^3
#
#
#
# Elastic Constant Matrix: (Units=GPa)
#
#
# Indices 1 2 3 4 5 6 
#
# 1 109.4450 45.5480 22.3149 15.9857 17.4960 6.9348
# 2 45.5480 108.9106 21.6890 1.1778 10.7518 6.1926
# 3 22.3149 21.6890 75.1450 -0.4136 20.5025 10.2084
# 4 15.9857 1.1778 -0.4136 30.2180 1.9488 -0.8390
# 5 17.4960 10.7518 20.5025 1.9488 53.4222 -1.7252
# 6 6.9348 6.1926 10.2084 -0.8390 -1.7252 50.5770
#
#
#
# Elastic Compliance Matrix: (Units=1/GPa)
#
#
# Indices 1 2 3 4 5 6 
#
# 1 0.012821 -0.004656 -0.001703 -0.006498 -0.002405 -0.001034
# 2 -0.004656 0.011511 -0.001830 0.001990 -0.000174 -0.000374
# 3 -0.001703 -0.001830 0.016244 0.001463 -0.005458 -0.002983
# 4 -0.006498 0.001990 0.001463 0.036508 -0.000135 0.000953
# 5 -0.002405 -0.000174 -0.005458 -0.000135 0.021712 0.002191
# 6 -0.001034 -0.000374 -0.002983 0.000953 0.002191 0.020652
#
#
# Mechanical properties :
#
#
# Convention : Reuss Voigt Hill
#
# Bulk Modulus (GPa) = 41.32723 52.51160 46.91942
# Shear Modulus (GPa) = 34.74838 40.44001 37.59420
#
# Velocity S-wave (km/s) = 3.83318 4.13521 3.98706
# Velocity P-wave (km/s) = 6.08820 6.70853 6.40588
#
# Compressibility (1/GPa) = 0.02419712
#
# Stress axis : x y z
#
# Youngs Moduli (GPa) = 77.99655 86.87597 61.56169
#
# Poissons Ratio (x) = 0.40453 0.10481
# Poissons Ratio (y) = 0.36319 0.11267
# Poissons Ratio (z) = 0.13279 0.15901
#
# Static dielectric constant tensor:
#      x y z
#    x 1.894500 -0.007950 -0.068080 
#    y -0.007950 1.915660 -0.054080 
#    z -0.068080 -0.054080 2.049160 
# 
# From -- ./inp_files/333299.got.cif
#   From: 2010.05.17/outbox.cif.g08.bks.cpg/sg2_167_cif.got.tgz:333299.got - 2010.06.03 11:33:40.
