data_PCOD9039536
_publ_section_title
;
Structure prediction by ZEFSAII (Michael W. Deem and Ramdas Pophale) SiO2 
 PCOD9039536
Probable space group: P -1
;
_chemical_formula_sum "Si O2"
_cell_formula_units_Z 16
_cell_length_a 6.212164
_cell_length_b 14.123490
_cell_length_c 11.270246
_cell_angle_alpha 89.908959
_cell_angle_beta 60.155869
_cell_angle_gamma 82.890406
_cell_volume 849.022031
_symmetry_space_group_name_H-M "P -1"
_symmetry_group_IT_number 2
_symmetry_cell_setting 'triclinic'
loop_
_space_group_symop_operation_xyz
x,y,z
-x,-y,-z
loop_
_atom_site_type_symbol
_atom_site_label
_atom_site_fract_x
_atom_site_fract_y
_atom_site_fract_z
Si Si1 0.619799 0.454364 0.588467
Si Si2 0.183122 0.872438 0.484974
Si Si3 0.805945 0.635758 0.595866
Si Si4 0.003207 0.855983 0.267580
Si Si5 0.573081 0.986491 0.278998
Si Si6 0.530310 0.893937 0.045269
Si Si7 0.279460 0.167168 0.246896
Si Si8 0.351556 0.291561 0.624251
O O1 0.500000 0.500000 0.500000
O O2 0.668677 0.542796 0.657610
O O3 0.440448 0.377480 0.675596
O O4 0.895687 0.398384 0.483865
O O5 0.060285 0.850905 0.392397
O O6 0.331509 0.961779 0.418324
O O7 0.404317 0.787577 0.455484
O O8 0.969920 0.874174 0.641519
O O9 0.732314 0.726929 0.698567
O O10 0.734035 0.668567 0.481469
O O11 0.819154 0.953634 0.287955
O O12 0.864962 0.766319 0.271079
O O13 0.263237 0.857668 0.129704
O O14 0.505058 0.092852 0.244985
O O15 0.610528 0.912382 0.157458
O O16 0.697540 0.833725 0.901419
O O17 0.500000 0.000000 0.000000
#
# Coordination Sequence:
#
# PCOD9039536 Si02
#       8
#     2   2   2   2   2   2   2   2
#     4   9  18  32  52  78 112 136 164 214 276 325
#     4  10  19  34  52  80 107 136 180 223 265 304
#     4  10  19  33  51  83 109 135 171 218 271 318
#     4  10  19  36  54  75 105 145 189 212 256 318
#     4   9  21  36  52  73 106 150 181 214 262 309
#     4   9  21  38  50  71 107 148 184 215 258 311
#     4  11  19  35  52  78 110 137 179 226 259 309
#     4  10  17  33  55  78 107 137 176 215 268 317
#
# _framework density 18.845210999999999
#
# number of rings (size 3 to 8) (size 9 to 14) (size 15 to 20)
#    0.000    2.250    2.500    0.375    0.000    2.500 
#    9.000    0.000    0.000    0.750    0.000   22.750 
#    0.000    0.000    0.000    0.000    0.000    0.000 
#
# Total GULP energy -89207.991824 kJ/mol
# GULP energy per Si atom -5575.499489 kJ/mol
# Density = 1.880232 g / cm^3
# Si number density = 18.845211 Si / 1000 Ang^3
#
#
#
# Elastic Constant Matrix: (Units=GPa)
#
#
# Indices 1 2 3 4 5 6 
#
# 1 94.5367 38.3988 38.7769 2.9035 -5.6677 -7.5835
# 2 38.3988 97.7317 33.5940 14.6031 -0.0317 12.4597
# 3 38.7769 33.5940 115.1188 -4.0992 4.6185 13.8789
# 4 2.9035 14.6031 -4.0992 27.3498 7.0550 -2.2147
# 5 -5.6677 -0.0317 4.6185 7.0550 14.7916 4.5988
# 6 -7.5835 12.4597 13.8789 -2.2147 4.5988 38.2183
#
#
#
# Elastic Compliance Matrix: (Units=1/GPa)
#
#
# Indices 1 2 3 4 5 6 
#
# 1 0.015360 -0.005052 -0.004640 -0.000696 0.005906 0.005629
# 2 -0.005052 0.015438 -0.002626 -0.010086 0.005703 -0.006353
# 3 -0.004640 -0.002626 0.011871 0.005209 -0.006969 -0.003235
# 4 -0.000696 -0.010086 0.005209 0.050774 -0.028505 0.007630
# 5 0.005906 0.005703 -0.006969 -0.028505 0.088920 -0.010508
# 6 0.005629 -0.006353 -0.003235 0.007630 -0.010508 0.032235
#
#
# Mechanical properties :
#
#
# Convention : Reuss Voigt Hill
#
# Bulk Modulus (GPa) = 55.44921 58.76962 57.10941
# Shear Modulus (GPa) = 20.38787 29.17977 24.78382
#
# Velocity S-wave (km/s) = 3.29273 3.93923 3.63040
# Velocity P-wave (km/s) = 6.62899 7.20716 6.92411
#
# Compressibility (1/GPa) = 0.01803452
#
# Stress axis : x y z
#
# Youngs Moduli (GPa) = 65.10415 64.77469 84.23887
#
# Poissons Ratio (x) = 0.32722 0.39088
# Poissons Ratio (y) = 0.32888 0.22118
# Poissons Ratio (z) = 0.30209 0.17007
#
# Static dielectric constant tensor:
#      x y z
#    x 1.697350 0.028540 0.008040 
#    y 0.028540 1.708410 0.005630 
#    z 0.008040 0.005630 1.644430 
# 
# From -- ./inp_files/54939.got.cif
#   From: 2010.05.17/outbox.cif.g08.bks.cpg/sg2_28_cif.got.tgz:54939.got - 2010.06.03 11:33:40.
