data_PCOD9039768
_publ_section_title
;
Structure prediction by ZEFSAII (Michael W. Deem and Ramdas Pophale) SiO2 
 PCOD9039768
Probable space group: P -1
;
_chemical_formula_sum "Si O2"
_cell_formula_units_Z 15
_cell_length_a 8.821885
_cell_length_b 8.212602
_cell_length_c 22.745003
_cell_angle_alpha 45.282223
_cell_angle_beta 38.887007
_cell_angle_gamma 36.526080
_cell_volume 602.130358
_symmetry_space_group_name_H-M "P -1"
_symmetry_group_IT_number 2
_symmetry_cell_setting 'triclinic'
loop_
_space_group_symop_operation_xyz
x,y,z
-x,-y,-z
loop_
_atom_site_type_symbol
_atom_site_label
_atom_site_fract_x
_atom_site_fract_y
_atom_site_fract_z
Si Si1 0.000000 0.500000 0.000000
Si Si2 0.824043 0.044734 0.983033
Si Si3 0.503129 0.038330 0.294276
Si Si4 0.663624 0.606002 0.575296
Si Si5 0.217041 0.930886 0.309009
Si Si6 0.197661 0.676682 0.191873
Si Si7 0.353846 0.915858 0.486941
Si Si8 0.781952 0.878489 0.858294
O O1 0.003325 0.233222 0.039122
O O2 0.962912 0.626970 0.912391
O O3 0.513181 0.094852 0.075857
O O4 0.755137 0.302481 0.897067
O O5 0.000000 0.000000 0.000000
O O6 0.447677 0.957987 0.267734
O O7 0.345473 0.370856 0.252048
O O8 0.353714 0.951562 0.409135
O O9 0.842954 0.862450 0.255761
O O10 0.567613 0.629758 0.530528
O O11 0.000000 0.500000 0.500000
O O12 0.522860 0.901783 0.574255
O O13 0.631387 0.388739 0.674397
O O14 0.078562 0.123659 0.244827
O O15 0.957045 0.992670 0.415502
O O16 0.317330 0.838269 0.147785
#
# Coordination Sequence:
#
# PCOD9039768 Si02
#       8
#     1   2   2   2   2   2   2   2
#     4  10  24  44  74 104 146 188 250 300 396 432
#     4  11  26  48  77 106 148 198 251 323 380 461
#     4  12  28  45  72 109 150 197 244 309 374 446
#     4   9  21  40  66  97 134 185 246 294 365 431
#     4  11  25  43  69 104 143 190 249 305 371 448
#     4  11  28  47  73 108 147 195 250 304 379 450
#     4  10  23  42  70  99 145 192 242 306 366 445
#     4  11  26  46  75 104 144 197 248 312 375 459
#
# _framework density 24.911549000000001
#
# number of rings (size 3 to 8) (size 9 to 14) (size 15 to 20)
#    0.000    1.333    0.000    3.600   20.533    2.133 
#    0.000    0.000    0.000    0.000    0.000    0.000 
#    0.000    0.000    0.000    0.000    0.000    0.000 
#
# Total GULP energy -83658.403395 kJ/mol
# GULP energy per Si atom -5577.226893 kJ/mol
# Density = 2.485485 g / cm^3
# Si number density = 24.911549 Si / 1000 Ang^3
#
#
#
# Elastic Constant Matrix: (Units=GPa)
#
#
# Indices 1 2 3 4 5 6 
#
# 1 138.3164 29.5842 57.9239 -6.2197 21.8060 -14.2470
# 2 29.5842 69.1643 27.9300 -21.1162 -3.9311 -23.1223
# 3 57.9239 27.9300 124.7588 -6.5691 25.9803 -17.3422
# 4 -6.2197 -21.1162 -6.5691 31.0422 -7.8326 4.5940
# 5 21.8060 -3.9311 25.9803 -7.8326 42.7224 -1.0786
# 6 -14.2470 -23.1223 -17.3422 4.5940 -1.0786 32.0005
#
#
#
# Elastic Compliance Matrix: (Units=1/GPa)
#
#
# Indices 1 2 3 4 5 6 
#
# 1 0.009850 -0.003908 -0.002965 -0.002348 -0.004011 0.000156
# 2 -0.003908 0.028924 -0.003880 0.018614 0.010801 0.014749
# 3 -0.002965 -0.003880 0.011802 -0.002727 -0.006459 0.002447
# 4 -0.002348 0.018614 -0.002727 0.046465 0.013207 0.004701
# 5 -0.004011 0.010801 -0.006459 0.013207 0.032841 0.001729
# 6 0.000156 0.014749 0.002447 0.004701 0.001729 0.042685
#
#
# Mechanical properties :
#
#
# Convention : Reuss Voigt Hill
#
# Bulk Modulus (GPa) = 34.39910 62.56843 48.48377
# Shear Modulus (GPa) = 24.53816 35.60645 30.07230
#
# Velocity S-wave (km/s) = 3.14189 3.78473 3.47819
# Velocity P-wave (km/s) = 5.19620 6.65355 5.96951
#
# Compressibility (1/GPa) = 0.02907053
#
# Stress axis : x y z
#
# Youngs Moduli (GPa) = 101.51973 34.57311 84.73031
#
# Poissons Ratio (x) = 0.13513 0.25123
# Poissons Ratio (y) = 0.39678 0.32872
# Poissons Ratio (z) = 0.30101 0.13413
#
# Static dielectric constant tensor:
#      x y z
#    x 2.046750 -0.062960 -0.001750 
#    y -0.062960 2.158140 0.045880 
#    z -0.001750 0.045880 1.961910 
# 
# From -- ./inp_files/606603.got.cif
#   From: 2010.05.17/outbox.cif.g08.bks.cpg/sg2_304_cif.got.tgz:606603.got - 2010.06.03 11:33:40.
