data_PCOD9039087
_publ_section_title
;
Structure prediction by ZEFSAII (Michael W. Deem and Ramdas Pophale) SiO2 
 PCOD9039087
Probable space group: P -1
;
_chemical_formula_sum "Si O2"
_cell_formula_units_Z 12
_cell_length_a 14.027931
_cell_length_b 10.381229
_cell_length_c 11.771197
_cell_angle_alpha 74.059957
_cell_angle_beta 127.033463
_cell_angle_gamma 149.915948
_cell_volume 540.325205
_symmetry_space_group_name_H-M "P -1"
_symmetry_group_IT_number 2
_symmetry_cell_setting 'triclinic'
loop_
_space_group_symop_operation_xyz
x,y,z
-x,-y,-z
loop_
_atom_site_type_symbol
_atom_site_label
_atom_site_fract_x
_atom_site_fract_y
_atom_site_fract_z
Si Si1 0.202220 0.900118 0.105365
Si Si2 0.199314 0.328077 0.266700
Si Si3 0.161002 0.803010 0.534011
Si Si4 0.142745 0.069136 0.481537
Si Si5 0.509972 0.848235 0.528532
Si Si6 0.357520 0.836620 0.060297
O O1 0.344414 0.962464 0.089172
O O2 0.426398 0.154152 0.305599
O O3 0.030126 0.849999 0.944584
O O4 0.964275 0.554853 0.073909
O O5 0.077866 0.082995 0.315587
O O6 0.503701 0.592363 0.361468
O O7 0.268442 0.521143 0.360297
O O8 0.000000 0.500000 0.500000
O O9 0.021802 0.795837 0.477148
O O10 0.218253 0.890842 0.422753
O O11 0.452125 0.070310 0.749567
O O12 0.000000 0.000000 0.500000
O O13 0.500000 0.000000 0.500000
O O14 0.500000 0.000000 0.000000
#
# Coordination Sequence:
#
# PCOD9039087 Si02
#       6
#     2   2   2   2   2   2
#     4  11  21  39  66  96 131 171 213 274 332 383
#     4  10  23  43  63  94 133 170 223 265 325 399
#     4  11  23  41  64  98 129 166 224 273 323 392
#     4  10  23  42  66  90 130 181 215 267 332 388
#     4  11  20  38  65  97 129 164 214 268 327 386
#     4  11  22  37  60  97 134 166 215 271 330 387
#
# _framework density 22.208846999999999
#
# number of rings (size 3 to 8) (size 9 to 14) (size 15 to 20)
#    0.000    1.333    5.000    2.000    4.667    0.000 
#    0.000    7.500    0.000    6.000    0.000    0.000 
#    0.000    0.000    0.000    0.000    0.000    0.000 
#
# Total GULP energy -66970.161055 kJ/mol
# GULP energy per Si atom -5580.846755 kJ/mol
# Density = 2.215830 g / cm^3
# Si number density = 22.208847 Si / 1000 Ang^3
#
#
#
# Elastic Constant Matrix: (Units=GPa)
#
#
# Indices 1 2 3 4 5 6 
#
# 1 151.1995 36.8106 45.6459 -10.2341 16.4081 16.4563
# 2 36.8106 85.6503 32.0466 -9.3243 7.0672 15.8391
# 3 45.6459 32.0466 134.1828 -32.3766 5.3554 11.1254
# 4 -10.2341 -9.3243 -32.3766 26.1551 -11.9071 -4.7069
# 5 16.4081 7.0672 5.3554 -11.9071 27.3615 -12.7045
# 6 16.4563 15.8391 11.1254 -4.7069 -12.7045 50.1233
#
#
#
# Elastic Compliance Matrix: (Units=1/GPa)
#
#
# Indices 1 2 3 4 5 6 
#
# 1 0.009175 -0.001694 -0.003517 -0.006472 -0.009365 -0.004678
# 2 -0.001694 0.014612 -0.002866 -0.002485 -0.005641 -0.005088
# 3 -0.003517 -0.002866 0.013315 0.019437 0.010351 0.003554
# 4 -0.006472 -0.002485 0.019437 0.082469 0.044827 0.017703
# 5 -0.009365 -0.005641 0.010351 0.044827 0.072815 0.025225
# 6 -0.004678 -0.005088 0.003554 0.017703 0.025225 0.030362
#
#
# Mechanical properties :
#
#
# Convention : Reuss Voigt Hill
#
# Bulk Modulus (GPa) = 47.73616 66.67097 57.20357
# Shear Modulus (GPa) = 20.33475 37.82994 29.08234
#
# Velocity S-wave (km/s) = 3.02920 4.13167 3.62262
# Velocity P-wave (km/s) = 5.81168 7.26953 6.58110
#
# Compressibility (1/GPa) = 0.02094848
#
# Stress axis : x y z
#
# Youngs Moduli (GPa) = 108.98910 68.43809 75.10129
#
# Poissons Ratio (x) = 0.11596 0.26410
# Poissons Ratio (y) = 0.18467 0.21524
# Poissons Ratio (z) = 0.38327 0.19614
#
# Static dielectric constant tensor:
#      x y z
#    x 1.863920 -0.052050 -0.042790 
#    y -0.052050 1.904950 0.072860 
#    z -0.042790 0.072860 1.850010 
# 
# From -- ./inp_files/450024.got.cif
#   From: 2010.05.17/outbox.cif.g08.bks.cpg/sg2_226_cif.got.tgz:450024.got - 2010.06.03 11:33:40.
