data_PCOD9039830
_publ_section_title
;
Structure prediction by ZEFSAII (Michael W. Deem and Ramdas Pophale) SiO2 
 PCOD9039830
Probable space group: P -1
;
_chemical_formula_sum "Si O2"
_cell_formula_units_Z 14
_cell_length_a 7.084806
_cell_length_b 14.407832
_cell_length_c 23.598757
_cell_angle_alpha 19.780209
_cell_angle_beta 51.541648
_cell_angle_gamma 62.244134
_cell_volume 569.704583
_symmetry_space_group_name_H-M "P -1"
_symmetry_group_IT_number 2
_symmetry_cell_setting 'triclinic'
loop_
_space_group_symop_operation_xyz
x,y,z
-x,-y,-z
loop_
_atom_site_type_symbol
_atom_site_label
_atom_site_fract_x
_atom_site_fract_y
_atom_site_fract_z
Si Si1 0.016364 0.061339 0.393389
Si Si2 0.940000 0.277829 0.015017
Si Si3 0.108631 0.853961 0.297117
Si Si4 0.343093 0.863678 0.363287
Si Si5 0.736021 0.545467 0.294974
Si Si6 0.689860 0.158660 0.956751
Si Si7 0.546517 0.582868 0.680808
O O1 0.728426 0.835587 0.547325
O O2 0.073907 0.398463 0.166593
O O3 0.000000 0.000000 0.500000
O O4 0.255285 0.000827 0.355427
O O5 0.964369 0.059761 0.185532
O O6 0.230985 0.393782 0.864758
O O7 0.644713 0.053363 0.175523
O O8 0.136813 0.843297 0.365158
O O9 0.000000 0.500000 0.500000
O O10 0.412042 0.040177 0.109561
O O11 0.315623 0.546712 0.576578
O O12 0.496650 0.314610 0.432164
O O13 0.731961 0.866875 0.101851
O O14 0.045313 0.611084 0.190006
O O15 0.670064 0.342282 0.800313
#
# Coordination Sequence:
#
# PCOD9039830 Si02
#       7
#     2   2   2   2   2   2   2
#     4  12  28  51  75 104 145 189 248 304 350 426
#     4  11  27  47  75 105 144 195 237 295 367 415
#     4  11  27  48  72 109 150 188 238 293 366 433
#     4  12  27  47  74 107 150 182 244 298 357 430
#     4  11  23  42  74 108 144 193 237 293 367 419
#     4  10  23  42  71 105 150 185 242 293 356 433
#     4  11  24  47  72 104 143 189 246 295 357 428
#
# _framework density 24.57414
#
# number of rings (size 3 to 8) (size 9 to 14) (size 15 to 20)
#    0.000    0.857    1.429    3.857    8.000    7.429 
#    0.000    0.000    0.000    0.000    0.000    0.000 
#    0.000    0.000    0.000    0.000    0.000    0.000 
#
# Total GULP energy -78133.745593 kJ/mol
# GULP energy per Si atom -5580.981828 kJ/mol
# Density = 2.451821 g / cm^3
# Si number density = 24.574140 Si / 1000 Ang^3
#
#
#
# Elastic Constant Matrix: (Units=GPa)
#
#
# Indices 1 2 3 4 5 6 
#
# 1 200.0343 22.8269 60.1452 -12.1095 10.1096 17.3614
# 2 22.8269 36.7895 22.9742 1.7629 0.3055 8.9421
# 3 60.1452 22.9742 139.4086 3.7571 11.9663 1.3809
# 4 -12.1095 1.7629 3.7571 39.1041 -11.9460 -1.9966
# 5 10.1096 0.3055 11.9663 -11.9460 46.7337 4.6249
# 6 17.3614 8.9421 1.3809 -1.9966 4.6249 42.7011
#
#
#
# Elastic Compliance Matrix: (Units=1/GPa)
#
#
# Indices 1 2 3 4 5 6 
#
# 1 0.006251 -0.002006 -0.002407 0.002165 0.000023 -0.001945
# 2 -0.002006 0.032845 -0.004586 -0.001480 0.001625 -0.006159
# 3 -0.002407 -0.004586 0.009223 -0.002105 -0.002529 0.001816
# 4 0.002165 -0.001480 -0.002105 0.028785 0.007434 0.000038
# 5 0.000023 0.001625 -0.002529 0.007434 0.024181 -0.002539
# 6 -0.001945 -0.006159 0.001816 0.000038 -0.002539 0.025717
#
#
# Mechanical properties :
#
#
# Convention : Reuss Voigt Hill
#
# Bulk Modulus (GPa) = 32.98149 65.34722 49.16436
# Shear Modulus (GPa) = 32.23575 43.72683 37.98129
#
# Velocity S-wave (km/s) = 3.62577 4.22285 3.93565
# Velocity P-wave (km/s) = 5.56585 7.10114 6.37985
#
# Compressibility (1/GPa) = 0.03032004
#
# Stress axis : x y z
#
# Youngs Moduli (GPa) = 159.98638 30.44628 108.42293
#
# Poissons Ratio (x) = 0.06109 0.26099
# Poissons Ratio (y) = 0.32100 0.49719
# Poissons Ratio (z) = 0.38510 0.13962
#
# Static dielectric constant tensor:
#      x y z
#    x 2.020610 0.048810 0.024280 
#    y 0.048810 2.022000 0.001370 
#    z 0.024280 0.001370 2.006040 
# 
# From -- ./inp_files/604597.got.cif
#   From: 2010.05.17/outbox.cif.g08.bks.cpg/sg2_303_cif.got.tgz:604597.got - 2010.06.03 11:33:40.
