data_PCOD9039563
_publ_section_title
;
Structure prediction by ZEFSAII (Michael W. Deem and Ramdas Pophale) SiO2 
 PCOD9039563
Probable space group: P -1
;
_chemical_formula_sum "Si O2"
_cell_formula_units_Z 14
_cell_length_a 5.263856
_cell_length_b 7.984305
_cell_length_c 15.194302
_cell_angle_alpha 107.231870
_cell_angle_beta 72.611772
_cell_angle_gamma 116.330752
_cell_volume 536.084663
_symmetry_space_group_name_H-M "P -1"
_symmetry_group_IT_number 2
_symmetry_cell_setting 'triclinic'
loop_
_space_group_symop_operation_xyz
x,y,z
-x,-y,-z
loop_
_atom_site_type_symbol
_atom_site_label
_atom_site_fract_x
_atom_site_fract_y
_atom_site_fract_z
Si Si1 0.925743 0.521769 0.791783
Si Si2 0.196151 0.110538 0.079054
Si Si3 0.500441 0.625199 0.652525
Si Si4 0.699018 0.378508 0.968447
Si Si5 0.957683 0.995877 0.729176
Si Si6 0.359933 0.821339 0.339246
Si Si7 0.312058 0.670362 0.495679
O O1 0.881873 0.709747 0.855819
O O2 0.789267 0.365331 0.857637
O O3 0.754102 0.404964 0.707557
O O4 0.262454 0.583329 0.746606
O O5 0.141863 0.995449 0.158034
O O6 0.519353 0.201201 0.020327
O O7 0.000000 0.000000 0.000000
O O8 0.804248 0.775258 0.679888
O O9 0.412547 0.724719 0.593264
O O10 0.480911 0.427137 0.582057
O O11 0.500000 0.500000 0.000000
O O12 0.000000 0.500000 0.000000
O O13 0.834104 0.100489 0.687148
O O14 0.303021 0.080351 0.703906
O O15 0.308094 0.824620 0.449449
O O16 0.000000 0.500000 0.500000
#
# Coordination Sequence:
#
# PCOD9039563 Si02
#       7
#     2   2   2   2   2   2   2
#     4  11  23  48  76 105 146 203 253 305 378 455
#     4  11  25  49  78 112 154 198 257 323 381 450
#     4  11  25  47  79 110 156 200 255 314 380 455
#     4  10  23  42  69 103 137 187 246 301 362 437
#     4  12  28  47  73 115 153 199 249 316 387 444
#     4  12  27  46  73 110 155 197 253 312 377 461
#     4  11  25  48  78 112 150 201 258 306 379 460
#
# _framework density 26.115276999999999
#
# number of rings (size 3 to 8) (size 9 to 14) (size 15 to 20)
#    0.000    0.857    1.429    4.286    4.000    8.000 
#    0.000    6.429    0.000    0.000    0.000    0.000 
#    0.000    0.000    0.000    0.000    0.000    0.000 
#
# Total GULP energy -78467.034211 kJ/mol
# GULP energy per Si atom -5604.788158 kJ/mol
# Density = 2.605584 g / cm^3
# Si number density = 26.115277 Si / 1000 Ang^3
#
#
#
# Elastic Constant Matrix: (Units=GPa)
#
#
# Indices 1 2 3 4 5 6 
#
# 1 120.4638 43.1469 14.7749 -7.8795 6.6871 12.2723
# 2 43.1469 119.9833 24.9215 -4.6423 -4.3281 2.3640
# 3 14.7749 24.9215 88.4943 -18.5774 8.4263 -8.4357
# 4 -7.8795 -4.6423 -18.5774 71.4674 4.4955 8.2965
# 5 6.6871 -4.3281 8.4263 4.4955 52.9580 -4.1794
# 6 12.2723 2.3640 -8.4357 8.2965 -4.1794 63.5115
#
#
#
# Elastic Compliance Matrix: (Units=1/GPa)
#
#
# Indices 1 2 3 4 5 6 
#
# 1 0.009988 -0.003466 -0.000498 0.001102 -0.001726 -0.002125
# 2 -0.003466 0.010148 -0.002537 -0.000506 0.001724 0.000135
# 3 -0.000498 -0.002537 0.013124 0.003185 -0.002396 0.001360
# 4 0.001102 -0.000506 0.003185 0.015264 -0.002133 -0.001905
# 5 -0.001726 0.001724 -0.002396 -0.002133 0.019926 0.001541
# 6 -0.002125 0.000135 0.001360 -0.001905 0.001541 0.016682
#
#
# Mechanical properties :
#
#
# Convention : Reuss Voigt Hill
#
# Bulk Modulus (GPa) = 49.36423 54.95868 52.16145
# Shear Modulus (GPa) = 47.67055 53.99392 50.83224
#
# Velocity S-wave (km/s) = 4.27709 4.55193 4.41665
# Velocity P-wave (km/s) = 6.58292 6.97977 6.78425
#
# Compressibility (1/GPa) = 0.02025758
#
# Stress axis : x y z
#
# Youngs Moduli (GPa) = 100.11813 98.54373 76.19598
#
# Poissons Ratio (x) = 0.34156 0.03797
# Poissons Ratio (y) = 0.34702 0.19329
# Poissons Ratio (z) = 0.04990 0.24998
#
# Static dielectric constant tensor:
#      x y z
#    x 1.603670 -0.044190 -0.657850 
#    y -0.044190 2.108730 0.120330 
#    z -0.657850 0.120330 1.052330 
# 
# From -- ./inp_files/480721.got.cif
#   From: 2010.05.17/outbox.cif.g08.bks.cpg/sg2_241_cif.got.tgz:480721.got - 2010.06.03 11:33:40.
