data_PCOD9039333
_publ_section_title
;
Structure prediction by ZEFSAII (Michael W. Deem and Ramdas Pophale) SiO2 
 PCOD9039333
Probable space group: P -1
;
_chemical_formula_sum "Si O2"
_cell_formula_units_Z 16
_cell_length_a 10.235702
_cell_length_b 8.950959
_cell_length_c 13.679966
_cell_angle_alpha 51.605550
_cell_angle_beta 104.401234
_cell_angle_gamma 70.472180
_cell_volume 728.037632
_symmetry_space_group_name_H-M "P -1"
_symmetry_group_IT_number 2
_symmetry_cell_setting 'triclinic'
loop_
_space_group_symop_operation_xyz
x,y,z
-x,-y,-z
loop_
_atom_site_type_symbol
_atom_site_label
_atom_site_fract_x
_atom_site_fract_y
_atom_site_fract_z
Si Si1 0.945807 0.539781 0.086388
Si Si2 0.500898 0.332657 0.489583
Si Si3 0.791767 0.323924 0.237064
Si Si4 0.975871 0.254739 0.502415
Si Si5 0.547033 0.511166 0.798183
Si Si6 0.660626 0.826054 0.677705
Si Si7 0.128688 0.046937 0.964806
Si Si8 0.868881 0.480328 0.596271
O O1 0.823250 0.471542 0.111960
O O2 0.858457 0.806762 0.007408
O O3 0.139041 0.339824 0.255249
O O4 0.000000 0.500000 0.000000
O O5 0.500000 0.500000 0.500000
O O6 0.542326 0.372112 0.372730
O O7 0.302209 0.432079 0.413292
O O8 0.627472 0.038309 0.655114
O O9 0.861957 0.332120 0.352404
O O10 0.595844 0.426987 0.176010
O O11 0.914094 0.037497 0.343922
O O12 0.861955 0.406354 0.514994
O O13 0.106244 0.315935 0.488225
O O14 0.632409 0.638498 0.788500
O O15 0.693759 0.218084 0.926633
O O16 0.500000 0.000000 0.500000
O O17 0.037782 0.235652 0.780122
O O18 0.000000 0.000000 0.000000
#
# Coordination Sequence:
#
# PCOD9039333 Si02
#       8
#     2   2   2   2   2   2   2   2
#     4  12  28  46  71 102 138 187 228 281 351 422
#     4  11  23  36  67 101 133 169 232 289 330 394
#     4  11  25  44  69 100 138 175 226 295 343 402
#     4  10  24  41  70  97 137 175 227 283 353 389
#     4  11  24  42  68  97 134 181 225 277 348 403
#     4  10  23  42  67  98 135 179 231 278 337 407
#     4  12  23  45  71  93 137 186 225 273 341 420
#     4  11  22  44  66 101 133 183 228 279 339 417
#
# _framework density 21.976884999999999
#
# number of rings (size 3 to 8) (size 9 to 14) (size 15 to 20)
#    0.000    1.000    3.750    2.250   12.250    0.500 
#    0.000    3.750    0.000    0.000    0.000    0.000 
#    0.000    0.000    0.000    0.000    0.000    0.000 
#
# Total GULP energy -89507.047523 kJ/mol
# GULP energy per Si atom -5594.190470 kJ/mol
# Density = 2.192686 g / cm^3
# Si number density = 21.976885 Si / 1000 Ang^3
#
#
#
# Elastic Constant Matrix: (Units=GPa)
#
#
# Indices 1 2 3 4 5 6 
#
# 1 115.6629 25.4378 15.3709 -11.2700 -24.3352 -10.0814
# 2 25.4378 109.2003 31.3289 -19.9983 -20.4613 18.1640
# 3 15.3709 31.3289 52.9360 -18.5413 -13.1142 8.5962
# 4 -11.2700 -19.9983 -18.5413 38.7897 -0.1822 -6.8124
# 5 -24.3352 -20.4613 -13.1142 -0.1822 37.1120 -6.7870
# 6 -10.0814 18.1640 8.5962 -6.8124 -6.7870 35.9924
#
#
#
# Elastic Compliance Matrix: (Units=1/GPa)
#
#
# Indices 1 2 3 4 5 6 
#
# 1 0.011546 -0.001533 -0.000281 0.003558 0.007780 0.006215
# 2 -0.001533 0.012812 -0.004318 0.003317 0.003720 -0.004535
# 3 -0.000281 -0.004318 0.027071 0.010473 0.006853 -0.001090
# 4 0.003558 0.003317 0.010473 0.034455 0.008952 0.005031
# 5 0.007780 0.003720 0.006853 0.008952 0.037938 0.007513
# 6 0.006215 -0.004535 -0.001090 0.005031 0.007513 0.034443
#
#
# Mechanical properties :
#
#
# Convention : Reuss Voigt Hill
#
# Bulk Modulus (GPa) = 25.53290 46.89715 36.21503
# Shear Modulus (GPa) = 27.23571 36.08959 31.66265
#
# Velocity S-wave (km/s) = 3.52417 4.05676 3.79981
# Velocity P-wave (km/s) = 5.31065 6.58245 5.98045
#
# Compressibility (1/GPa) = 0.03916515
#
# Stress axis : x y z
#
# Youngs Moduli (GPa) = 86.61194 78.05095 36.94056
#
# Poissons Ratio (x) = 0.11969 0.01037
# Poissons Ratio (y) = 0.13282 0.15949
# Poissons Ratio (z) = 0.02430 0.33699
#
# Static dielectric constant tensor:
#      x y z
#    x 1.785700 0.030640 0.008700 
#    y 0.030640 1.847440 0.047700 
#    z 0.008700 0.047700 1.841120 
# 
# From -- ./inp_files/494405.got.cif
#   From: 2010.05.17/outbox.cif.g08.bks.cpg/sg2_248_cif.got.tgz:494405.got - 2010.06.03 11:33:40.
