data_PCOD9039067
_publ_section_title
;
Structure prediction by ZEFSAII (Michael W. Deem and Ramdas Pophale) SiO2 
 PCOD9039067
Probable space group: P -1
;
_chemical_formula_sum "Si O2"
_cell_formula_units_Z 16
_cell_length_a 11.927676
_cell_length_b 8.595564
_cell_length_c 16.874975
_cell_angle_alpha 126.693775
_cell_angle_beta 28.709414
_cell_angle_gamma 123.747737
_cell_volume 664.174164
_symmetry_space_group_name_H-M "P -1"
_symmetry_group_IT_number 2
_symmetry_cell_setting 'triclinic'
loop_
_space_group_symop_operation_xyz
x,y,z
-x,-y,-z
loop_
_atom_site_type_symbol
_atom_site_label
_atom_site_fract_x
_atom_site_fract_y
_atom_site_fract_z
Si Si1 0.564079 0.414786 0.155734
Si Si2 0.929106 0.106804 0.831145
Si Si3 0.752247 0.040338 0.621163
Si Si4 0.558958 0.374178 0.545534
Si Si5 0.817182 0.027334 0.231012
Si Si6 0.226856 0.321875 0.589144
Si Si7 0.688471 0.783130 0.082525
Si Si8 0.059215 0.277130 0.380678
O O1 0.517591 0.549434 0.300455
O O2 0.645110 0.562322 0.077524
O O3 0.320721 0.290466 0.254128
O O4 0.731942 0.246060 0.019323
O O5 0.005621 0.200095 0.726929
O O6 0.914553 0.872099 0.754930
O O7 0.111379 0.128504 0.796577
O O8 0.526928 0.155193 0.821307
O O9 0.850569 0.168998 0.526232
O O10 0.649018 0.832658 0.588458
O O11 0.000000 0.000000 0.500000
O O12 0.639934 0.161374 0.423340
O O13 0.364962 0.396186 0.604680
O O14 0.788568 0.505956 0.410466
O O15 0.699492 0.920610 0.195656
O O16 0.057157 0.153544 0.093570
O O17 0.000000 0.500000 0.500000
#
# Coordination Sequence:
#
# PCOD9039067 Si02
#       8
#     2   2   2   2   2   2   2   2
#     4  12  25  44  70 100 140 184 229 281 350 406
#     4  11  26  43  68 103 138 180 228 284 341 411
#     4  11  23  42  70 101 135 181 232 285 347 409
#     4  11  23  40  72  99 137 182 230 281 342 415
#     4  11  25  43  69 103 140 180 232 281 347 403
#     4  10  23  42  66 101 139 175 233 281 342 403
#     4  11  25  44  69 100 145 179 228 291 342 407
#     4  11  23  45  71  98 135 179 231 282 340 412
#
# _framework density 24.090069
#
# number of rings (size 3 to 8) (size 9 to 14) (size 15 to 20)
#    0.000    1.000    2.500    3.375    5.250    4.000 
#    0.000    0.625    0.000    0.000    0.000    0.000 
#    0.000    0.000    0.000    0.000    0.000    0.000 
#
# Total GULP energy -89126.402279 kJ/mol
# GULP energy per Si atom -5570.400142 kJ/mol
# Density = 2.403524 g / cm^3
# Si number density = 24.090069 Si / 1000 Ang^3
#
#
#
# Elastic Constant Matrix: (Units=GPa)
#
#
# Indices 1 2 3 4 5 6 
#
# 1 65.5141 10.5968 30.0171 11.2081 5.0893 6.9132
# 2 10.5968 93.2223 24.2935 -0.0111 7.0407 -6.8505
# 3 30.0171 24.2935 96.9422 14.2260 0.1654 -10.4731
# 4 11.2081 -0.0111 14.2260 31.4706 -3.9914 -5.1546
# 5 5.0893 7.0407 0.1654 -3.9914 28.3180 0.8203
# 6 6.9132 -6.8505 -10.4731 -5.1546 0.8203 34.4644
#
#
#
# Elastic Compliance Matrix: (Units=1/GPa)
#
#
# Indices 1 2 3 4 5 6 
#
# 1 0.020186 -0.000975 -0.005831 -0.006185 -0.004025 -0.006844
# 2 -0.000975 0.011883 -0.002681 0.001567 -0.002602 0.002039
# 3 -0.005831 -0.002681 0.013739 -0.003299 0.001045 0.004293
# 4 -0.006185 0.001567 -0.003299 0.037185 0.005809 0.005973
# 5 -0.004025 -0.002602 0.001045 0.005809 0.037479 0.000585
# 6 -0.006844 0.002039 0.004293 0.005973 0.000585 0.032978
#
#
# Mechanical properties :
#
#
# Convention : Reuss Voigt Hill
#
# Bulk Modulus (GPa) = 37.26593 42.83259 40.04926
# Shear Modulus (GPa) = 27.56795 31.56869 29.56832
#
# Velocity S-wave (km/s) = 3.38652 3.62393 3.50724
# Velocity P-wave (km/s) = 5.54927 5.94385 5.74994
#
# Compressibility (1/GPa) = 0.02683416
#
# Stress axis : x y z
#
# Youngs Moduli (GPa) = 49.53862 84.15292 72.78511
#
# Poissons Ratio (x) = 0.08203 0.42441
# Poissons Ratio (y) = 0.04829 0.19516
# Poissons Ratio (z) = 0.28886 0.22564
#
# Static dielectric constant tensor:
#      x y z
#    x 2.088940 -0.041600 0.063410 
#    y -0.041600 2.068210 -0.064480 
#    z 0.063410 -0.064480 2.055500 
# 
# From -- ./inp_files/274024.got.cif
#   From: 2010.05.17/outbox.cif.g08.bks.cpg/sg2_138_cif.got.tgz:274024.got - 2010.06.03 11:33:40.
