data_PCOD9039649
_publ_section_title
;
Structure prediction by ZEFSAII (Michael W. Deem and Ramdas Pophale) SiO2 
 PCOD9039649
Probable space group: P -1
;
_chemical_formula_sum "Si O2"
_cell_formula_units_Z 16
_cell_length_a 12.932025
_cell_length_b 14.259000
_cell_length_c 8.145631
_cell_angle_alpha 88.881713
_cell_angle_beta 108.082648
_cell_angle_gamma 30.913563
_cell_volume 594.808081
_symmetry_space_group_name_H-M "P -1"
_symmetry_group_IT_number 2
_symmetry_cell_setting 'triclinic'
loop_
_space_group_symop_operation_xyz
x,y,z
-x,-y,-z
loop_
_atom_site_type_symbol
_atom_site_label
_atom_site_fract_x
_atom_site_fract_y
_atom_site_fract_z
Si Si1 0.072725 0.667460 0.274728
Si Si2 0.771245 0.737938 0.467494
Si Si3 0.400647 0.791383 0.266033
Si Si4 0.351039 0.975203 0.481141
Si Si5 0.155027 0.821482 0.339817
Si Si6 0.508175 0.126891 0.957148
Si Si7 0.607306 0.335222 0.175893
Si Si8 0.293135 0.406574 0.091506
O O1 0.303147 0.450041 0.511494
O O2 0.130545 0.732553 0.278405
O O3 0.082922 0.597732 0.116535
O O4 0.779439 0.889385 0.184207
O O5 0.618353 0.809203 0.541325
O O6 0.555967 0.899292 0.210482
O O7 0.000000 0.500000 0.500000
O O8 0.822976 0.802187 0.553914
O O9 0.240684 0.992858 0.288901
O O10 0.273257 0.792358 0.252002
O O11 0.431871 0.822215 0.111340
O O12 0.447578 0.829619 0.673478
O O13 0.322623 0.695207 0.597392
O O14 0.874730 0.083755 0.241471
O O15 0.270516 0.340057 0.953435
O O16 0.381414 0.434865 0.058960
O O17 0.500000 0.500000 0.000000
#
# Coordination Sequence:
#
# PCOD9039649 Si02
#       8
#     2   2   2   2   2   2   2   2
#     4  11  24  43  67  97 144 184 235 280 347 407
#     4  10  23  47  76 104 133 183 231 292 369 425
#     4  10  23  42  69  98 138 192 228 286 350 407
#     4   9  21  45  70 100 142 171 233 289 351 425
#     4  11  23  43  69 100 142 197 237 284 342 409
#     4  11  26  44  67 106 136 179 237 287 350 420
#     4  11  25  42  66 106 144 189 245 288 335 404
#     4  11  24  44  65 104 143 184 233 288 347 404
#
# _framework density 26.899432999999998
#
# number of rings (size 3 to 8) (size 9 to 14) (size 15 to 20)
#    0.000    1.500    3.750    0.375    3.500    7.000 
#    0.000    4.375    0.000    0.000    0.000    0.000 
#    0.000    0.000    0.000    0.000    0.000    0.000 
#
# Total GULP energy -89540.093097 kJ/mol
# GULP energy per Si atom -5596.255819 kJ/mol
# Density = 2.683821 g / cm^3
# Si number density = 26.899433 Si / 1000 Ang^3
#
#
#
# Elastic Constant Matrix: (Units=GPa)
#
#
# Indices 1 2 3 4 5 6 
#
# 1 118.1909 26.5135 15.0741 -7.2366 -17.4086 13.8534
# 2 26.5135 186.7061 31.5253 -7.5812 1.2349 13.9216
# 3 15.0741 31.5253 78.2800 -15.7025 2.3634 3.4160
# 4 -7.2366 -7.5812 -15.7025 52.3227 1.3458 5.1084
# 5 -17.4086 1.2349 2.3634 1.3458 31.3511 1.4223
# 6 13.8534 13.9216 3.4160 5.1084 1.4223 45.8420
#
#
#
# Elastic Compliance Matrix: (Units=1/GPa)
#
#
# Indices 1 2 3 4 5 6 
#
# 1 0.010129 -0.000980 -0.001409 0.000973 0.005861 -0.002949
# 2 -0.000980 0.005963 -0.002086 0.000251 -0.000570 -0.001370
# 3 -0.001409 -0.002086 0.014772 0.004029 -0.001967 -0.000430
# 4 0.000973 0.000251 0.004029 0.020796 -0.000531 -0.002971
# 5 0.005861 -0.000570 -0.001967 -0.000531 0.035458 -0.002492
# 6 -0.002949 -0.001370 -0.000430 -0.002971 -0.002492 0.023562
#
#
# Mechanical properties :
#
#
# Convention : Reuss Voigt Hill
#
# Bulk Modulus (GPa) = 45.62933 58.82256 52.22594
# Shear Modulus (GPa) = 39.39055 46.57408 42.98232
#
# Velocity S-wave (km/s) = 3.83085 4.16554 4.00170
# Velocity P-wave (km/s) = 6.04706 6.71198 6.38818
#
# Compressibility (1/GPa) = 0.02191573
#
# Stress axis : x y z
#
# Youngs Moduli (GPa) = 98.72737 167.68933 67.69493
#
# Poissons Ratio (x) = 0.16431 0.09538
# Poissons Ratio (y) = 0.09674 0.14118
# Poissons Ratio (z) = 0.13910 0.34973
#
# Static dielectric constant tensor:
#      x y z
#    x 2.078210 0.000010 -0.004890 
#    y 0.000010 2.095230 0.058120 
#    z -0.004890 0.058120 2.182720 
# 
# From -- ./inp_files/315284.got.cif
#   From: 2010.05.17/outbox.cif.g08.bks.cpg/sg2_158_cif.got.tgz:315284.got - 2010.06.03 11:33:40.
