data_PCOD9039713
_publ_section_title
;
Structure prediction by ZEFSAII (Michael W. Deem and Ramdas Pophale) SiO2 
 PCOD9039713
Probable space group: P -1
;
_chemical_formula_sum "Si O2"
_cell_formula_units_Z 15
_cell_length_a 11.843290
_cell_length_b 8.418628
_cell_length_c 8.465100
_cell_angle_alpha 57.214459
_cell_angle_beta 60.490754
_cell_angle_gamma 73.471877
_cell_volume 617.330285
_symmetry_space_group_name_H-M "P -1"
_symmetry_group_IT_number 2
_symmetry_cell_setting 'triclinic'
loop_
_space_group_symop_operation_xyz
x,y,z
-x,-y,-z
loop_
_atom_site_type_symbol
_atom_site_label
_atom_site_fract_x
_atom_site_fract_y
_atom_site_fract_z
Si Si1 0.325244 0.094783 0.176674
Si Si2 0.500000 0.500000 0.500000
Si Si3 0.401235 0.723552 0.159736
Si Si4 0.127968 0.105431 0.797864
Si Si5 0.936351 0.818246 0.564639
Si Si6 0.983384 0.548820 0.168203
Si Si7 0.737231 0.281343 0.057095
Si Si8 0.564569 0.146481 0.493502
O O1 0.192267 0.210469 0.225377
O O2 0.328761 0.924454 0.140444
O O3 0.345095 0.978154 0.387974
O O4 0.449341 0.222786 0.002644
O O5 0.403478 0.580575 0.380284
O O6 0.470239 0.276420 0.594110
O O7 0.337841 0.650859 0.082482
O O8 0.103417 0.155067 0.604124
O O9 0.126626 0.295588 0.798819
O O10 0.239571 0.947198 0.831502
O O11 0.000000 0.000000 0.000000
O O12 0.032851 0.640818 0.618359
O O13 0.000000 0.000000 0.500000
O O14 0.122492 0.631378 0.077414
O O15 0.000000 0.500000 0.000000
O O16 0.646785 0.307506 0.259737
O O17 0.500000 0.000000 0.500000
#
# Coordination Sequence:
#
# PCOD9039713 Si02
#       8
#     2   1   2   2   2   2   2   2
#     4  10  23  42  70 104 143 186 234 298 366 428
#     4  10  26  44  68 104 154 188 242 300 362 446
#     4  10  23  45  71 106 147 188 238 295 365 446
#     4  10  23  46  70  99 138 185 240 301 360 428
#     4  12  25  44  73 102 142 192 241 300 367 437
#     4  11  27  46  67 107 142 188 246 305 364 431
#     4  11  23  44  75 100 140 191 244 294 368 441
#     4  11  22  45  67 105 142 185 234 297 367 434
#
# _framework density 24.298175000000001
#
# number of rings (size 3 to 8) (size 9 to 14) (size 15 to 20)
#    0.000    1.333    2.667    2.000    7.467    1.600 
#    2.400    0.000    0.000    0.000    0.000    0.000 
#    0.000    0.000    0.000    0.000    0.000    0.000 
#
# Total GULP energy -83669.998195 kJ/mol
# GULP energy per Si atom -5577.999880 kJ/mol
# Density = 2.424287 g / cm^3
# Si number density = 24.298175 Si / 1000 Ang^3
#
#
#
# Elastic Constant Matrix: (Units=GPa)
#
#
# Indices 1 2 3 4 5 6 
#
# 1 53.3701 12.1909 24.3909 2.6658 21.2155 9.6444
# 2 12.1909 100.8105 11.4011 -22.8792 7.5482 -0.8799
# 3 24.3909 11.4011 63.7413 1.0475 20.7298 2.3545
# 4 2.6658 -22.8792 1.0475 38.6515 -6.9602 6.3698
# 5 21.2155 7.5482 20.7298 -6.9602 50.5963 4.7778
# 6 9.6444 -0.8799 2.3545 6.3698 4.7778 38.6783
#
#
#
# Elastic Compliance Matrix: (Units=1/GPa)
#
#
# Indices 1 2 3 4 5 6 
#
# 1 0.026785 -0.002807 -0.006872 -0.004014 -0.008109 -0.004662
# 2 -0.002807 0.012084 -0.001557 0.007639 0.001093 -0.000324
# 3 -0.006872 -0.001557 0.020437 -0.002280 -0.005716 0.001516
# 4 -0.004014 0.007639 -0.002280 0.032693 0.006435 -0.004865
# 5 -0.008109 0.001093 -0.005716 0.006435 0.026411 -0.001927
# 6 -0.004662 -0.000324 0.001516 -0.004865 -0.001927 0.027956
#
#
# Mechanical properties :
#
#
# Convention : Reuss Voigt Hill
#
# Bulk Modulus (GPa) = 27.14751 34.87642 31.01196
# Shear Modulus (GPa) = 27.60672 36.91451 32.26061
#
# Velocity S-wave (km/s) = 3.37436 3.90196 3.64771
# Velocity P-wave (km/s) = 5.13602 5.88940 5.52556
#
# Compressibility (1/GPa) = 0.03683579
#
# Stress axis : x y z
#
# Youngs Moduli (GPa) = 37.33408 82.75391 48.93079
#
# Poissons Ratio (x) = 0.23225 0.33626
# Poissons Ratio (y) = 0.10478 0.07617
# Poissons Ratio (z) = 0.25656 0.12881
#
# Static dielectric constant tensor:
#      x y z
#    x 2.017570 0.029570 -0.031530 
#    y 0.029570 2.021780 0.077450 
#    z -0.031530 0.077450 2.046540 
# 
# From -- ./inp_files/241884.got.cif
#   From: 2010.05.17/outbox.cif.g08.bks.cpg/sg2_121_cif.got.tgz:241884.got - 2010.06.03 11:33:40.
