data_PCOD9039474
_publ_section_title
;
Structure prediction by ZEFSAII (Michael W. Deem and Ramdas Pophale) SiO2 
 PCOD9039474
Probable space group: P -1
;
_chemical_formula_sum "Si O2"
_cell_formula_units_Z 16
_cell_length_a 8.863475
_cell_length_b 21.689700
_cell_length_c 11.707977
_cell_angle_alpha 151.183530
_cell_angle_beta 38.731828
_cell_angle_gamma 129.882764
_cell_volume 672.099613
_symmetry_space_group_name_H-M "P -1"
_symmetry_group_IT_number 2
_symmetry_cell_setting 'triclinic'
loop_
_space_group_symop_operation_xyz
x,y,z
-x,-y,-z
loop_
_atom_site_type_symbol
_atom_site_label
_atom_site_fract_x
_atom_site_fract_y
_atom_site_fract_z
Si Si1 0.462901 0.222391 0.682880
Si Si2 0.526777 0.850179 0.925399
Si Si3 0.727137 0.491743 0.683099
Si Si4 0.329303 0.580880 0.646162
Si Si5 0.547781 0.237960 0.406823
Si Si6 0.912714 0.154047 0.476716
Si Si7 0.845218 0.977364 0.439983
Si Si8 0.976763 0.604291 0.079910
O O1 0.518611 0.176304 0.445665
O O2 0.689704 0.169683 0.544672
O O3 0.212395 0.168269 0.777309
O O4 0.406782 0.379235 0.969468
O O5 0.415579 0.720012 0.812259
O O6 0.414697 0.864995 0.885809
O O7 0.818922 0.845740 0.737917
O O8 0.417299 0.946914 0.244858
O O9 0.612304 0.485353 0.615993
O O10 0.720318 0.347952 0.502130
O O11 0.000000 0.500000 0.500000
O O12 0.500000 0.500000 0.500000
O O13 0.068174 0.571188 0.842857
O O14 0.295725 0.324945 0.660057
O O15 0.921863 0.038169 0.375222
O O16 0.872644 0.283940 0.786831
O O17 0.000000 0.000000 0.500000
O O18 0.000000 0.500000 0.000000
#
# Coordination Sequence:
#
# PCOD9039474 Si02
#       8
#     2   2   2   2   2   2   2   2
#     4  12  26  45  67 102 141 187 224 286 356 407
#     4  10  24  45  72 102 132 179 241 280 340 412
#     4  11  25  40  64 102 142 178 225 285 345 411
#     4  11  21  38  67 101 134 175 227 281 339 407
#     4  10  23  42  68  97 136 180 230 278 349 413
#     4  11  24  46  69 104 143 177 231 288 346 410
#     4  12  27  47  76  97 137 186 237 288 335 419
#     4  11  20  39  70  99 136 184 230 282 338 410
#
# _framework density 23.805997000000001
#
# number of rings (size 3 to 8) (size 9 to 14) (size 15 to 20)
#    0.000    1.000    1.250    6.750    3.500    4.500 
#    0.000    0.000    0.000    0.000    0.000    0.000 
#    0.000    0.000    0.000    0.000    0.000    0.000 
#
# Total GULP energy -89321.862462 kJ/mol
# GULP energy per Si atom -5582.616404 kJ/mol
# Density = 2.375181 g / cm^3
# Si number density = 23.805997 Si / 1000 Ang^3
#
#
#
# Elastic Constant Matrix: (Units=GPa)
#
#
# Indices 1 2 3 4 5 6 
#
# 1 98.2498 33.0524 -8.3867 0.1005 -12.7585 -5.3095
# 2 33.0524 113.6237 -11.5570 -2.8163 -3.2900 -5.8420
# 3 -8.3867 -11.5570 48.6533 -18.6115 6.5205 0.2099
# 4 0.1005 -2.8163 -18.6115 40.6438 2.1968 3.4996
# 5 -12.7585 -3.2900 6.5205 2.1968 32.2373 -2.8768
# 6 -5.3095 -5.8420 0.2099 3.4996 -2.8768 44.4514
#
#
#
# Elastic Compliance Matrix: (Units=1/GPa)
#
#
# Indices 1 2 3 4 5 6 
#
# 1 0.011961 -0.003235 0.000560 -0.000350 0.004432 0.001315
# 2 -0.003235 0.010074 0.002682 0.001919 -0.000861 0.000718
# 3 0.000560 0.002682 0.027062 0.012995 -0.005964 -0.001118
# 4 -0.000350 0.001919 0.012995 0.031181 -0.004930 -0.002625
# 5 0.004432 -0.000861 -0.005964 -0.004930 0.034502 0.003065
# 6 0.001315 0.000718 -0.001118 -0.002625 0.003065 0.023158
#
#
# Mechanical properties :
#
#
# Convention : Reuss Voigt Hill
#
# Bulk Modulus (GPa) = 20.36226 31.86047 26.11137
# Shear Modulus (GPa) = 32.40508 39.96106 36.18307
#
# Velocity S-wave (km/s) = 3.69347 4.10153 3.90284
# Velocity P-wave (km/s) = 5.17310 5.98686 5.59479
#
# Compressibility (1/GPa) = 0.04911045
#
# Stress axis : x y z
#
# Youngs Moduli (GPa) = 83.60352 99.26149 36.95169
#
# Poissons Ratio (x) = 0.32114 -0.02068
# Poissons Ratio (y) = 0.27048 -0.09909
# Poissons Ratio (z) = -0.04680 -0.26619
#
# Static dielectric constant tensor:
#      x y z
#    x 1.988630 0.151780 -0.022850 
#    y 0.151780 1.895640 0.086090 
#    z -0.022850 0.086090 1.893960 
# 
# From -- ./inp_files/405645.got.cif
#   From: 2010.05.17/outbox.cif.g08.bks.cpg/sg2_203_cif.got.tgz:405645.got - 2010.06.03 11:33:40.
