data_PCOD9039334
_publ_section_title
;
Structure prediction by ZEFSAII (Michael W. Deem and Ramdas Pophale) SiO2 
 PCOD9039334
Probable space group: P -1
;
_chemical_formula_sum "Si O2"
_cell_formula_units_Z 16
_cell_length_a 8.204194
_cell_length_b 8.387637
_cell_length_c 15.552863
_cell_angle_alpha 63.273900
_cell_angle_beta 73.348427
_cell_angle_gamma 114.469294
_cell_volume 707.752969
_symmetry_space_group_name_H-M "P -1"
_symmetry_group_IT_number 2
_symmetry_cell_setting 'triclinic'
loop_
_space_group_symop_operation_xyz
x,y,z
-x,-y,-z
loop_
_atom_site_type_symbol
_atom_site_label
_atom_site_fract_x
_atom_site_fract_y
_atom_site_fract_z
Si Si1 0.444166 0.258525 0.054632
Si Si2 0.316609 0.689873 0.605903
Si Si3 0.520443 0.803633 0.134155
Si Si4 0.341899 0.320980 0.341876
Si Si5 0.317833 0.018543 0.642087
Si Si6 0.885347 0.221907 0.740233
Si Si7 0.222517 0.766795 0.898941
Si Si8 0.021471 0.126410 0.592378
O O1 0.587622 0.249093 0.105084
O O2 0.195107 0.030240 0.161845
O O3 0.500000 0.500000 0.000000
O O4 0.495944 0.223473 0.959468
O O5 0.504420 0.727516 0.627826
O O6 0.248626 0.833806 0.621791
O O7 0.105930 0.426422 0.702967
O O8 0.427898 0.779913 0.472926
O O9 0.491683 0.584819 0.226520
O O10 0.309830 0.774644 0.206661
O O11 0.733624 0.051172 0.078802
O O12 0.164124 0.265391 0.453211
O O13 0.190211 0.133288 0.337262
O O14 0.267101 0.891977 0.770805
O O15 0.185382 0.113555 0.627914
O O16 0.938885 0.243322 0.626694
O O17 0.000000 0.500000 0.000000
#
# Coordination Sequence:
#
# PCOD9039334 Si02
#       8
#     2   2   2   2   2   2   2   2
#     4  11  27  49  69  97 134 179 226 284 333 397
#     4  10  24  41  69  99 135 176 219 279 329 404
#     4  11  26  46  67  98 139 173 225 283 333 398
#     4  10  23  42  67  99 134 178 223 273 329 406
#     4  10  24  44  66  97 142 173 221 273 339 392
#     4  11  24  42  70  96 132 178 220 279 339 393
#     4  11  27  43  71  97 131 182 224 274 336 399
#     4  10  23  42  67  98 136 177 219 271 342 396
#
# _framework density 22.606757000000002
#
# number of rings (size 3 to 8) (size 9 to 14) (size 15 to 20)
#    0.000    1.500    0.000    3.000   15.750    2.500 
#    0.000    1.250    0.000    0.000    0.000    0.000 
#    0.000    0.000    0.000    0.000    0.000    0.000 
#
# Total GULP energy -89439.734789 kJ/mol
# GULP energy per Si atom -5589.983424 kJ/mol
# Density = 2.255530 g / cm^3
# Si number density = 22.606757 Si / 1000 Ang^3
#
#
#
# Elastic Constant Matrix: (Units=GPa)
#
#
# Indices 1 2 3 4 5 6 
#
# 1 33.5201 20.2984 29.6961 7.7281 0.4811 6.4298
# 2 20.2984 88.9654 32.2816 -13.1484 -15.4341 11.9153
# 3 29.6961 32.2816 87.0546 -6.5733 6.9121 14.0348
# 4 7.7281 -13.1484 -6.5733 55.8788 -4.7779 -8.9630
# 5 0.4811 -15.4341 6.9121 -4.7779 39.6556 3.2412
# 6 6.4298 11.9153 14.0348 -8.9630 3.2412 21.6963
#
#
#
# Elastic Compliance Matrix: (Units=1/GPa)
#
#
# Indices 1 2 3 4 5 6 
#
# 1 0.051097 -0.007734 -0.014287 -0.011736 -0.002047 -0.006196
# 2 -0.007734 0.016828 -0.003224 0.004679 0.008108 -0.004142
# 3 -0.014287 -0.003224 0.018771 0.002371 -0.003691 -0.004607
# 4 -0.011736 0.004679 0.002371 0.022512 0.003597 0.008137
# 5 -0.002047 0.008108 -0.003691 0.003597 0.029836 -0.004429
# 6 -0.006196 -0.004142 -0.004607 0.008137 -0.004429 0.057205
#
#
# Mechanical properties :
#
#
# Convention : Reuss Voigt Hill
#
# Bulk Modulus (GPa) = 27.62063 41.56581 34.59322
# Shear Modulus (GPa) = 19.31930 31.93040 25.62485
#
# Velocity S-wave (km/s) = 2.92649 3.76230 3.37041
# Velocity P-wave (km/s) = 4.86452 6.10734 5.52101
#
# Compressibility (1/GPa) = 0.03620482
#
# Stress axis : x y z
#
# Youngs Moduli (GPa) = 19.57058 59.42579 53.27314
#
# Poissons Ratio (x) = 0.45960 0.76112
# Poissons Ratio (y) = 0.15136 0.17178
# Poissons Ratio (z) = 0.27961 0.19162
#
# Static dielectric constant tensor:
#      x y z
#    x 1.812770 0.007250 0.006910 
#    y 0.007250 1.875720 0.008400 
#    z 0.006910 0.008400 1.884210 
# 
# From -- ./inp_files/281520.got.cif
#   From: 2010.05.17/outbox.cif.g08.bks.cpg/sg2_141_cif.got.tgz:281520.got - 2010.06.03 11:33:40.
