data_PCOD9039646
_publ_section_title
;
Structure prediction by ZEFSAII (Michael W. Deem and Ramdas Pophale) SiO2 
 PCOD9039646
Probable space group: P -1
;
_chemical_formula_sum "Si O2"
_cell_formula_units_Z 14
_cell_length_a 5.560053
_cell_length_b 12.161723
_cell_length_c 9.605902
_cell_angle_alpha 86.048355
_cell_angle_beta 88.071075
_cell_angle_gamma 74.040225
_cell_volume 622.954490
_symmetry_space_group_name_H-M "P -1"
_symmetry_group_IT_number 2
_symmetry_cell_setting 'triclinic'
loop_
_space_group_symop_operation_xyz
x,y,z
-x,-y,-z
loop_
_atom_site_type_symbol
_atom_site_label
_atom_site_fract_x
_atom_site_fract_y
_atom_site_fract_z
Si Si1 0.324978 0.926159 0.136794
Si Si2 0.759133 0.473210 0.582182
Si Si3 0.927045 0.696365 0.015256
Si Si4 0.187702 0.866722 0.860810
Si Si5 0.038523 0.779973 0.286492
Si Si6 0.653687 0.997184 0.358606
Si Si7 0.692355 0.538299 0.890704
O O1 0.500906 0.967334 0.234555
O O2 0.273567 0.813485 0.214240
O O3 0.368506 0.892404 0.977090
O O4 0.066215 0.028289 0.133168
O O5 0.500000 0.500000 0.500000
O O6 0.671190 0.538776 0.724750
O O7 0.000000 0.500000 0.500000
O O8 0.866001 0.338526 0.626781
O O9 0.098903 0.754945 0.911970
O O10 0.720605 0.660591 0.930412
O O11 0.069503 0.571538 0.082866
O O12 0.874261 0.769405 0.152197
O O13 0.286504 0.886185 0.704211
O O14 0.895748 0.888074 0.371451
O O15 0.500000 0.000000 0.500000
O O16 0.500000 0.500000 0.000000
#
# Coordination Sequence:
#
# PCOD9039646 Si02
#       7
#     2   2   2   2   2   2   2
#     4   9  19  38  62  87 120 170 223 279 333 411
#     4  11  27  48  73 106 147 190 237 295 368 437
#     4   9  20  40  66  94 129 174 236 288 349 406
#     4   9  19  38  61  92 122 168 227 279 337 414
#     4   9  22  42  67  90 133 184 227 288 357 414
#     4  11  23  39  62  96 137 180 225 284 351 426
#     4  10  23  42  69  98 137 180 237 299 346 424
#
# _framework density 22.473552000000002
#
# number of rings (size 3 to 8) (size 9 to 14) (size 15 to 20)
#    0.000    2.286    0.000    1.286    8.000    5.714 
#    7.714    0.000    0.000    0.000    0.000    0.000 
#    0.000    0.000    0.000    0.000    0.000    0.000 
#
# Total GULP energy -78033.710950 kJ/mol
# GULP energy per Si atom -5573.836496 kJ/mol
# Density = 2.242240 g / cm^3
# Si number density = 22.473552 Si / 1000 Ang^3
#
#
#
# Elastic Constant Matrix: (Units=GPa)
#
#
# Indices 1 2 3 4 5 6 
#
# 1 75.8641 22.6067 74.5731 -2.8209 -5.8460 18.9683
# 2 22.6067 82.8625 60.3254 -16.7369 -5.4634 22.3722
# 3 74.5731 60.3254 151.0710 -18.9516 -29.1738 18.5474
# 4 -2.8209 -16.7369 -18.9516 35.6966 -3.4827 -8.1314
# 5 -5.8460 -5.4634 -29.1738 -3.4827 36.4318 -3.4196
# 6 18.9683 22.3722 18.5474 -8.1314 -3.4196 38.6979
#
#
#
# Elastic Compliance Matrix: (Units=1/GPa)
#
#
# Indices 1 2 3 4 5 6 
#
# 1 0.035330 0.007797 -0.022719 -0.010203 -0.013671 -0.014288
# 2 0.007797 0.021534 -0.012167 0.001209 -0.006154 -0.010729
# 3 -0.022719 -0.012167 0.026181 0.010210 0.017344 0.009300
# 4 -0.010203 0.001209 0.010210 0.036071 0.010915 0.007953
# 5 -0.013671 -0.006154 0.017344 0.010915 0.039994 0.007774
# 6 -0.014288 -0.010729 0.009300 0.007953 0.007774 0.036948
#
#
# Mechanical properties :
#
#
# Convention : Reuss Voigt Hill
#
# Bulk Modulus (GPa) = 34.64264 69.42312 52.03288
# Shear Modulus (GPa) = 19.24107 32.31809 25.77958
#
# Velocity S-wave (km/s) = 2.92920 3.79628 3.39057
# Velocity P-wave (km/s) = 5.18542 7.08334 6.20735
#
# Compressibility (1/GPa) = 0.02886616
#
# Stress axis : x y z
#
# Youngs Moduli (GPa) = 28.30438 46.43752 38.19519
#
# Poissons Ratio (x) = -0.36205 0.86776
# Poissons Ratio (y) = -0.22068 0.46473
# Poissons Ratio (z) = 0.64305 0.56502
#
# Static dielectric constant tensor:
#      x y z
#    x 1.952130 0.032920 0.067890 
#    y 0.032920 1.899510 0.094140 
#    z 0.067890 0.094140 2.001680 
# 
# From -- ./inp_files/60757.got.cif
#   From: 2010.05.17/outbox.cif.g08.bks.cpg/sg2_31_cif.got.tgz:60757.got - 2010.06.03 11:33:40.
