data_PCOD9039218
_publ_section_title
;
Structure prediction by ZEFSAII (Michael W. Deem and Ramdas Pophale) SiO2 
 PCOD9039218
Probable space group: P -1
;
_chemical_formula_sum "Si O2"
_cell_formula_units_Z 12
_cell_length_a 11.199013
_cell_length_b 9.482982
_cell_length_c 5.539327
_cell_angle_alpha 83.649556
_cell_angle_beta 83.666584
_cell_angle_gamma 53.257719
_cell_volume 467.793517
_symmetry_space_group_name_H-M "P -1"
_symmetry_group_IT_number 2
_symmetry_cell_setting 'triclinic'
loop_
_space_group_symop_operation_xyz
x,y,z
-x,-y,-z
loop_
_atom_site_type_symbol
_atom_site_label
_atom_site_fract_x
_atom_site_fract_y
_atom_site_fract_z
Si Si1 0.889191 0.124150 0.712789
Si Si2 0.365245 0.202080 0.925374
Si Si3 0.368026 0.668048 0.634879
Si Si4 0.142136 0.153368 0.105814
Si Si5 0.172860 0.589212 0.004627
Si Si6 0.411727 0.920239 0.460524
O O1 0.735454 0.227599 0.588893
O O2 0.897642 0.277477 0.779189
O O3 0.883916 0.994667 0.921898
O O4 0.000000 0.000000 0.500000
O O5 0.270549 0.381185 0.071374
O O6 0.457831 0.233885 0.714551
O O7 0.232850 0.184946 0.887603
O O8 0.500000 0.000000 0.000000
O O9 0.500000 0.500000 0.500000
O O10 0.280929 0.630630 0.849478
O O11 0.398586 0.808104 0.689344
O O12 0.975182 0.332651 0.141322
O O13 0.257928 0.069937 0.325450
O O14 0.500000 0.000000 0.500000
#
# Coordination Sequence:
#
# PCOD9039218 Si02
#       6
#     2   2   2   2   2   2
#     4  11  25  44  70 108 139 179 238 294 359 420
#     4  10  23  45  64  99 144 189 236 283 361 418
#     4  11  24  44  68 107 141 180 247 281 356 429
#     4  10  23  43  69 100 141 187 234 290 359 420
#     4  12  24  45  74 103 146 187 235 303 349 421
#     4  10  23  42  67 101 145 186 233 292 342 429
#
# _framework density 25.652343999999999
#
# number of rings (size 3 to 8) (size 9 to 14) (size 15 to 20)
#    0.000    1.333    3.333    1.000    2.333    4.667 
#    0.000    1.667    0.000    0.000    0.000    0.000 
#    0.000    0.000    0.000    0.000    0.000    0.000 
#
# Total GULP energy -66831.291170 kJ/mol
# GULP energy per Si atom -5569.274264 kJ/mol
# Density = 2.559396 g / cm^3
# Si number density = 25.652344 Si / 1000 Ang^3
#
#
#
# Elastic Constant Matrix: (Units=GPa)
#
#
# Indices 1 2 3 4 5 6 
#
# 1 147.6358 78.2503 21.2274 -1.2283 -25.3926 -2.4810
# 2 78.2503 219.5232 31.6222 7.2643 -0.9580 -10.8098
# 3 21.2274 31.6222 43.8293 8.8506 -19.6107 -0.3644
# 4 -1.2283 7.2643 8.8506 33.0294 3.6934 -11.0217
# 5 -25.3926 -0.9580 -19.6107 3.6934 46.6221 1.8405
# 6 -2.4810 -10.8098 -0.3644 -11.0217 1.8405 49.5471
#
#
#
# Elastic Compliance Matrix: (Units=1/GPa)
#
#
# Indices 1 2 3 4 5 6 
#
# 1 0.009424 -0.003377 0.000060 0.000387 0.005073 -0.000367
# 2 -0.003377 0.006503 -0.004929 0.000706 -0.003895 0.001515
# 3 0.000060 -0.004929 0.035868 -0.011660 0.016101 -0.004001
# 4 0.000387 0.000706 -0.011660 0.037025 -0.007953 0.008619
# 5 0.005073 -0.003895 0.016101 -0.007953 0.031669 -0.003423
# 6 -0.000367 0.001515 -0.004001 0.008619 -0.003423 0.022510
#
#
# Mechanical properties :
#
#
# Convention : Reuss Voigt Hill
#
# Bulk Modulus (GPa) = 28.32507 74.79867 51.56187
# Shear Modulus (GPa) = 29.19552 44.49895 36.84723
#
# Velocity S-wave (km/s) = 3.37727 4.16948 3.79411
# Velocity P-wave (km/s) = 5.12580 7.23888 6.27197
#
# Compressibility (1/GPa) = 0.03530441
#
# Stress axis : x y z
#
# Youngs Moduli (GPa) = 106.11251 153.76931 27.87988
#
# Poissons Ratio (x) = 0.51923 -0.00168
# Poissons Ratio (y) = 0.35830 0.13742
# Poissons Ratio (z) = -0.00640 0.75795
#
# Static dielectric constant tensor:
#      x y z
#    x 2.245510 0.104070 0.003990 
#    y 0.104070 2.019400 0.042620 
#    z 0.003990 0.042620 2.246180 
# 
# From -- ./inp_files/167780.got.cif
#   From: 2010.05.17/outbox.cif.g08.bks.cpg/sg2_84_cif.got.tgz:167780.got - 2010.06.03 11:33:40.
