data_PCOD9039970
_publ_section_title
;
Structure prediction by ZEFSAII (Michael W. Deem and Ramdas Pophale) SiO2 
 PCOD9039970
Probable space group: P -1
;
_chemical_formula_sum "Si O2"
_cell_formula_units_Z 14
_cell_length_a 8.278989
_cell_length_b 7.776780
_cell_length_c 15.224738
_cell_angle_alpha 126.874800
_cell_angle_beta 114.064142
_cell_angle_gamma 105.130567
_cell_volume 516.631949
_symmetry_space_group_name_H-M "P -1"
_symmetry_group_IT_number 2
_symmetry_cell_setting 'triclinic'
loop_
_space_group_symop_operation_xyz
x,y,z
-x,-y,-z
loop_
_atom_site_type_symbol
_atom_site_label
_atom_site_fract_x
_atom_site_fract_y
_atom_site_fract_z
Si Si1 0.140821 0.153013 0.962553
Si Si2 0.100033 0.826317 0.389864
Si Si3 0.903731 0.695743 0.503466
Si Si4 0.595365 0.770689 0.665072
Si Si5 0.275337 0.824024 0.965828
Si Si6 0.443135 0.786999 0.278585
Si Si7 0.658627 0.904325 0.181708
O O1 0.285144 0.215531 0.921256
O O2 0.203662 0.011103 0.997976
O O3 0.216044 0.438037 0.112793
O O4 0.858022 0.926256 0.806157
O O5 0.967884 0.715251 0.421885
O O6 0.962619 0.518267 0.216035
O O7 0.068734 0.022227 0.391601
O O8 0.386312 0.066994 0.553462
O O9 0.623950 0.396532 0.364780
O O10 0.079933 0.753715 0.638810
O O11 0.500000 0.500000 0.500000
O O12 0.612853 0.014046 0.694912
O O13 0.412478 0.827575 0.078507
O O14 0.500000 0.000000 0.000000
O O15 0.608295 0.816872 0.246517
#
# Coordination Sequence:
#
# PCOD9039970 Si02
#       7
#     2   2   2   2   2   2   2
#     4  11  24  45  67 104 147 181 228 289 355 419
#     4  10  24  44  69 106 138 181 240 295 342 406
#     4  10  24  42  73 102 140 185 235 290 348 411
#     4  12  25  46  72 104 145 188 233 285 359 429
#     4  10  24  39  72 102 142 177 233 291 351 409
#     4  11  26  43  74 104 140 187 239 289 347 416
#     4  10  23  42  73 103 136 179 241 286 345 403
#
# _framework density 27.098597000000002
#
# number of rings (size 3 to 8) (size 9 to 14) (size 15 to 20)
#    0.000    1.429    1.429    1.714   20.000    1.143 
#    0.000    7.143    0.000    0.000    0.000    0.000 
#    0.000    0.000    0.000    0.000    0.000    0.000 
#
# Total GULP energy -78409.360186 kJ/mol
# GULP energy per Si atom -5600.668585 kJ/mol
# Density = 2.703692 g / cm^3
# Si number density = 27.098597 Si / 1000 Ang^3
#
#
#
# Elastic Constant Matrix: (Units=GPa)
#
#
# Indices 1 2 3 4 5 6 
#
# 1 132.3348 43.4145 80.4325 -3.5561 -7.4460 -16.7125
# 2 43.4145 96.3594 58.4279 2.7304 -2.0345 -24.0774
# 3 80.4325 58.4279 253.8435 4.6192 -5.5724 -35.5192
# 4 -3.5561 2.7304 4.6192 50.5600 -17.0839 -1.6517
# 5 -7.4460 -2.0345 -5.5724 -17.0839 55.9334 -4.4764
# 6 -16.7125 -24.0774 -35.5192 -1.6517 -4.4764 52.3503
#
#
#
# Elastic Compliance Matrix: (Units=1/GPa)
#
#
# Indices 1 2 3 4 5 6 
#
# 1 0.010241 -0.003024 -0.002493 0.001643 0.001536 0.000370
# 2 -0.003024 0.013804 -0.001607 -0.000643 0.000086 0.004280
# 3 -0.002493 -0.001607 0.005411 -0.000452 0.000182 0.002137
# 4 0.001643 -0.000643 -0.000452 0.022407 0.007093 0.001236
# 5 0.001536 0.000086 0.000182 0.007093 0.020481 0.002628
# 6 0.000370 0.004280 0.002137 0.001236 0.002628 0.022903
#
#
# Mechanical properties :
#
#
# Convention : Reuss Voigt Hill
#
# Bulk Modulus (GPa) = 65.75480 94.12084 79.93782
# Shear Modulus (GPa) = 43.64359 51.78628 47.71493
#
# Velocity S-wave (km/s) = 4.01752 4.37628 4.20073
# Velocity P-wave (km/s) = 6.77040 7.76813 7.28636
#
# Compressibility (1/GPa) = 0.01520801
#
# Stress axis : x y z
#
# Youngs Moduli (GPa) = 97.64207 72.44261 184.82298
#
# Poissons Ratio (x) = 0.21907 0.46084
# Poissons Ratio (y) = 0.29527 0.29694
# Poissons Ratio (z) = 0.24346 0.11639
#
# Static dielectric constant tensor:
#      x y z
#    x 2.289460 -0.013020 0.066610 
#    y -0.013020 2.175800 -0.001710 
#    z 0.066610 -0.001710 2.159320 
# 
# From -- ./inp_files/557618.got.cif
#   From: 2010.05.17/outbox.cif.g08.bks.cpg/sg2_279_cif.got.tgz:557618.got - 2010.06.03 11:33:40.
