data_PCOD9039168
_publ_section_title
;
Structure prediction by ZEFSAII (Michael W. Deem and Ramdas Pophale) SiO2 
 PCOD9039168
Probable space group: P -1
;
_chemical_formula_sum "Si O2"
_cell_formula_units_Z 15
_cell_length_a 13.959448
_cell_length_b 5.907442
_cell_length_c 20.151904
_cell_angle_alpha 126.737339
_cell_angle_beta 28.800346
_cell_angle_gamma 125.335743
_cell_volume 635.231047
_symmetry_space_group_name_H-M "P -1"
_symmetry_group_IT_number 2
_symmetry_cell_setting 'triclinic'
loop_
_space_group_symop_operation_xyz
x,y,z
-x,-y,-z
loop_
_atom_site_type_symbol
_atom_site_label
_atom_site_fract_x
_atom_site_fract_y
_atom_site_fract_z
Si Si1 0.492391 0.147738 0.315808
Si Si2 0.119579 0.738624 0.513909
Si Si3 0.658684 0.174663 0.071065
Si Si4 0.941885 0.263018 0.764786
Si Si5 0.190110 0.184900 0.881237
Si Si6 0.256872 0.620400 0.548049
Si Si7 0.500000 0.000000 0.000000
Si Si8 0.095676 0.156687 0.784549
O O1 0.580271 0.138005 0.187193
O O2 0.442697 0.455869 0.423130
O O3 0.279314 0.946798 0.411478
O O4 0.638079 0.016273 0.254397
O O5 0.238787 0.609947 0.477916
O O6 0.000000 0.500000 0.500000
O O7 0.976012 0.935607 0.672074
O O8 0.729936 0.515212 0.080214
O O9 0.859433 0.023520 0.913237
O O10 0.501588 0.049671 0.089014
O O11 0.052783 0.449368 0.672287
O O12 0.071666 0.348983 0.768100
O O13 0.705490 0.240441 0.912915
O O14 0.146628 0.268772 0.846670
O O15 0.000000 0.000000 0.000000
O O16 0.246827 0.936981 0.635178
#
# Coordination Sequence:
#
# PCOD9039168 Si02
#       8
#     2   2   2   2   2   2   1   2
#     4  11  25  43  71 104 138 187 233 290 351 413
#     4  10  23  42  66  98 139 185 234 282 345 416
#     4  11  25  46  70 106 140 181 239 286 360 415
#     4   9  22  41  65  99 137 185 220 286 352 405
#     4  12  26  44  73 104 142 185 235 294 345 418
#     4  10  23  45  66  99 144 175 236 279 350 423
#     4  10  24  40  70 102 136 176 230 292 340 426
#     4  10  23  44  69 101 137 184 225 289 350 411
#
# _framework density 23.613458000000001
#
# number of rings (size 3 to 8) (size 9 to 14) (size 15 to 20)
#    0.000    1.600    1.333    1.200    9.333    1.600 
#    0.000   12.000    0.000    0.000    0.000    0.000 
#    0.000    0.000    0.000    0.000    0.000    0.000 
#
# Total GULP energy -83591.906289 kJ/mol
# GULP energy per Si atom -5572.793753 kJ/mol
# Density = 2.355971 g / cm^3
# Si number density = 23.613458 Si / 1000 Ang^3
#
#
#
# Elastic Constant Matrix: (Units=GPa)
#
#
# Indices 1 2 3 4 5 6 
#
# 1 123.7831 46.8821 16.1738 12.1491 16.9897 25.3115
# 2 46.8821 73.2825 23.2389 -3.8933 3.7851 5.5045
# 3 16.1738 23.2389 95.3491 -2.8702 5.2718 -7.9841
# 4 12.1491 -3.8933 -2.8702 48.2670 -9.6578 4.9548
# 5 16.9897 3.7851 5.2718 -9.6578 33.5957 -1.7512
# 6 25.3115 5.5045 -7.9841 4.9548 -1.7512 29.3490
#
#
#
# Elastic Compliance Matrix: (Units=1/GPa)
#
#
# Indices 1 2 3 4 5 6 
#
# 1 0.015634 -0.008542 -0.001230 -0.005257 -0.008880 -0.011858
# 2 -0.008542 0.020016 -0.003333 0.004114 0.003887 0.002243
# 3 -0.001230 -0.003333 0.011954 0.000134 -0.000585 0.004881
# 4 -0.005257 0.004114 0.000134 0.024183 0.009140 0.000261
# 5 -0.008880 0.003887 -0.000585 0.009140 0.036925 0.007431
# 6 -0.011858 0.002243 0.004881 0.000261 0.007431 0.045606
#
#
# Mechanical properties :
#
#
# Convention : Reuss Voigt Hill
#
# Bulk Modulus (GPa) = 46.74039 51.66714 49.20376
# Shear Modulus (GPa) = 26.64394 35.98369 31.31381
#
# Velocity S-wave (km/s) = 3.36272 3.90790 3.64552
# Velocity P-wave (km/s) = 5.90881 6.50309 6.21306
#
# Compressibility (1/GPa) = 0.02139477
#
# Stress axis : x y z
#
# Youngs Moduli (GPa) = 63.96256 49.95888 83.65511
#
# Poissons Ratio (x) = 0.42673 0.10293
# Poissons Ratio (y) = 0.54634 0.27881
# Poissons Ratio (z) = 0.07870 0.16651
#
# Static dielectric constant tensor:
#      x y z
#    x 1.890090 -0.040420 -0.016980 
#    y -0.040420 1.910940 0.025380 
#    z -0.016980 0.025380 1.931950 
# 
# From -- ./inp_files/596595.got.cif
#   From: 2010.05.17/outbox.cif.g08.bks.cpg/sg2_299_cif.got.tgz:596595.got - 2010.06.03 11:33:40.
