data_PCOD9039672
_publ_section_title
;
Structure prediction by ZEFSAII (Michael W. Deem and Ramdas Pophale) SiO2 
 PCOD9039672
Probable space group: P -1
;
_chemical_formula_sum "Si O2"
_cell_formula_units_Z 14
_cell_length_a 8.560248
_cell_length_b 8.824185
_cell_length_c 11.817201
_cell_angle_alpha 128.006511
_cell_angle_beta 85.172674
_cell_angle_gamma 80.583386
_cell_volume 673.953331
_symmetry_space_group_name_H-M "P -1"
_symmetry_group_IT_number 2
_symmetry_cell_setting 'triclinic'
loop_
_space_group_symop_operation_xyz
x,y,z
-x,-y,-z
loop_
_atom_site_type_symbol
_atom_site_label
_atom_site_fract_x
_atom_site_fract_y
_atom_site_fract_z
Si Si1 0.856276 0.652721 0.640403
Si Si2 0.840549 0.689124 0.072147
Si Si3 0.648572 0.603908 0.826214
Si Si4 0.540283 0.710378 0.266969
Si Si5 0.589870 0.305764 0.325088
Si Si6 0.944348 0.069068 0.161102
Si Si7 0.419091 0.154475 0.430403
O O1 0.792646 0.541342 0.695828
O O2 0.719649 0.736961 0.595494
O O3 0.000000 0.500000 0.500000
O O4 0.913040 0.842815 0.762974
O O5 0.704629 0.682588 0.172448
O O6 0.911334 0.882186 0.144837
O O7 0.736390 0.689646 0.961668
O O8 0.000000 0.500000 0.000000
O O9 0.563715 0.447215 0.815341
O O10 0.505711 0.715375 0.795640
O O11 0.584990 0.713527 0.397862
O O12 0.420460 0.931492 0.357920
O O13 0.500000 0.500000 0.500000
O O14 0.779474 0.254415 0.260119
O O15 0.579930 0.134851 0.336938
O O16 0.000000 0.000000 0.000000
#
# Coordination Sequence:
#
# PCOD9039672 Si02
#       7
#     2   2   2   2   2   2   2
#     4  11  26  43  74 106 140 181 242 291 358 414
#     4  12  29  46  67 102 145 187 230 291 364 422
#     4  11  25  43  70  99 134 191 231 281 355 414
#     4  11  24  45  67  98 141 179 235 283 349 423
#     4  11  22  45  76 101 137 181 247 293 342 420
#     4  12  26  47  71 106 145 184 234 297 356 419
#     4  10  23  42  70 100 129 184 233 287 344 417
#
# _framework density 20.772950999999999
#
# number of rings (size 3 to 8) (size 9 to 14) (size 15 to 20)
#    0.000    0.857    4.286    2.143    6.000    1.714 
#    0.000    1.429    0.000    0.000    0.000    0.000 
#    0.000    0.000    0.000    0.000    0.000    0.000 
#
# Total GULP energy -77969.501244 kJ/mol
# GULP energy per Si atom -5569.250089 kJ/mol
# Density = 2.072567 g / cm^3
# Si number density = 20.772951 Si / 1000 Ang^3
#
#
#
# Elastic Constant Matrix: (Units=GPa)
#
#
# Indices 1 2 3 4 5 6 
#
# 1 98.0392 29.8397 43.4582 -5.7212 -5.0150 12.8386
# 2 29.8397 71.7584 23.9001 0.4916 2.6951 13.2620
# 3 43.4582 23.9001 73.2371 -14.4466 0.9989 -4.2542
# 4 -5.7212 0.4916 -14.4466 39.9273 2.9279 3.6848
# 5 -5.0150 2.6951 0.9989 2.9279 42.8833 -2.1186
# 6 12.8386 13.2620 -4.2542 3.6848 -2.1186 39.7555
#
#
#
# Elastic Compliance Matrix: (Units=1/GPa)
#
#
# Indices 1 2 3 4 5 6 
#
# 1 0.015660 -0.002729 -0.008836 -0.000612 0.002007 -0.004929
# 2 -0.002729 0.017753 -0.004815 -0.001738 -0.001474 -0.005474
# 3 -0.008836 -0.004815 0.022092 0.006318 -0.001372 0.006165
# 4 -0.000612 -0.001738 0.006318 0.027527 -0.002049 -0.001207
# 5 0.002007 -0.001474 -0.001372 -0.002049 0.023876 0.001159
# 6 -0.004929 -0.005474 0.006165 -0.001207 0.001159 0.029405
#
#
# Mechanical properties :
#
#
# Convention : Reuss Voigt Hill
#
# Bulk Modulus (GPa) = 43.96648 48.60339 46.28493
# Shear Modulus (GPa) = 28.30394 34.23566 31.26980
#
# Velocity S-wave (km/s) = 3.69526 4.06407 3.88405
# Velocity P-wave (km/s) = 6.27836 6.74318 6.51492
#
# Compressibility (1/GPa) = 0.02274460
#
# Stress axis : x y z
#
# Youngs Moduli (GPa) = 63.85740 56.32825 45.26541
#
# Poissons Ratio (x) = 0.15373 0.39997
# Poissons Ratio (y) = 0.17428 0.21794
# Poissons Ratio (z) = 0.56425 0.27121
#
# Static dielectric constant tensor:
#      x y z
#    x 1.881880 0.123450 0.052270 
#    y 0.123450 1.888720 0.045490 
#    z 0.052270 0.045490 1.792410 
# 
# From -- ./inp_files/204748.got.cif
#   From: 2010.05.17/outbox.cif.g08.bks.cpg/sg2_103_cif.got.tgz:204748.got - 2010.06.03 11:33:40.
