data_PCOD9039235
_publ_section_title
;
Structure prediction by ZEFSAII (Michael W. Deem and Ramdas Pophale) SiO2 
 PCOD9039235
Probable space group: P -1
;
_chemical_formula_sum "Si O2"
_cell_formula_units_Z 15
_cell_length_a 10.279447
_cell_length_b 11.957031
_cell_length_c 5.397319
_cell_angle_alpha 62.861695
_cell_angle_beta 94.414072
_cell_angle_gamma 78.642031
_cell_volume 568.122325
_symmetry_space_group_name_H-M "P -1"
_symmetry_group_IT_number 2
_symmetry_cell_setting 'triclinic'
loop_
_space_group_symop_operation_xyz
x,y,z
-x,-y,-z
loop_
_atom_site_type_symbol
_atom_site_label
_atom_site_fract_x
_atom_site_fract_y
_atom_site_fract_z
Si Si1 0.179788 0.901948 0.595234
Si Si2 0.444614 0.902268 0.348350
Si Si3 0.580779 0.358215 0.568271
Si Si4 0.000000 0.000000 0.000000
Si Si5 0.278891 0.084512 0.728303
Si Si6 0.879337 0.533140 0.136931
Si Si7 0.726792 0.370359 0.070420
Si Si8 0.040513 0.283095 0.684064
O O1 0.336925 0.881716 0.555845
O O2 0.152731 0.760706 0.736278
O O3 0.182589 0.984535 0.763972
O O4 0.091098 0.985335 0.287657
O O5 0.473791 0.770293 0.317007
O O6 0.594346 0.911609 0.432808
O O7 0.360678 0.024401 0.048432
O O8 0.500000 0.500000 0.500000
O O9 0.624514 0.373174 0.278613
O O10 0.688917 0.336215 0.826265
O O11 0.980976 0.161431 0.845256
O O12 0.167712 0.221321 0.582774
O O13 0.758767 0.507856 0.980314
O O14 0.879815 0.665991 0.133959
O O15 0.923664 0.412304 0.461238
O O16 0.000000 0.500000 0.000000
#
# Coordination Sequence:
#
# PCOD9039235 Si02
#       8
#     2   2   2   1   2   2   2   2
#     4  11  23  44  70 107 144 197 245 316 381 443
#     4  10  23  42  67 103 147 184 247 305 378 448
#     4  11  25  46  71 109 143 201 252 308 381 454
#     4  12  24  46  70 106 146 186 260 304 366 462
#     4  11  23  43  70 101 141 189 245 312 374 450
#     4  11  28  47  70 102 149 199 245 315 389 457
#     4  11  25  47  76 102 152 196 250 318 378 460
#     4  11  27  46  70 106 140 194 253 312 381 450
#
# _framework density 26.402764999999999
#
# number of rings (size 3 to 8) (size 9 to 14) (size 15 to 20)
#    0.000    1.067    4.000    0.800    7.467    1.600 
#    0.000    0.000    0.000    0.000    0.000    0.000 
#    0.000    0.000    0.000    0.000    0.000    0.000 
#
# Total GULP energy -83531.227573 kJ/mol
# GULP energy per Si atom -5568.748505 kJ/mol
# Density = 2.634267 g / cm^3
# Si number density = 26.402765 Si / 1000 Ang^3
#
#
#
# Elastic Constant Matrix: (Units=GPa)
#
#
# Indices 1 2 3 4 5 6 
#
# 1 88.5349 19.8115 -5.9485 4.2352 -1.8763 16.2586
# 2 19.8115 131.9655 6.6561 -8.9780 7.5154 36.5974
# 3 -5.9485 6.6561 63.0693 -7.7157 8.5800 4.3822
# 4 4.2352 -8.9780 -7.7157 27.8495 3.7986 5.4743
# 5 -1.8763 7.5154 8.5800 3.7986 35.9452 -0.9669
# 6 16.2586 36.5974 4.3822 5.4743 -0.9669 62.1232
#
#
#
# Elastic Compliance Matrix: (Units=1/GPa)
#
#
# Indices 1 2 3 4 5 6 
#
# 1 0.012203 -0.001412 0.001153 -0.001647 0.000770 -0.002286
# 2 -0.001412 0.009953 0.000250 0.005070 -0.002911 -0.006003
# 3 0.001153 0.000250 0.017470 0.005853 -0.004842 -0.002272
# 4 -0.001647 0.005070 0.005853 0.041714 -0.007133 -0.006755
# 5 0.000770 -0.002911 -0.004842 -0.007133 0.030458 0.002958
# 6 -0.002286 -0.006003 -0.002272 -0.006755 0.002958 0.021034
#
#
# Mechanical properties :
#
#
# Convention : Reuss Voigt Hill
#
# Bulk Modulus (GPa) = 25.24787 36.06754 30.65771
# Shear Modulus (GPa) = 34.23386 42.72029 38.47708
#
# Velocity S-wave (km/s) = 3.60474 4.02683 3.82162
# Velocity P-wave (km/s) = 5.18738 5.94228 5.57761
#
# Compressibility (1/GPa) = 0.03960730
#
# Stress axis : x y z
#
# Youngs Moduli (GPa) = 81.94476 100.47504 57.23947
#
# Poissons Ratio (x) = 0.14188 -0.06598
# Poissons Ratio (y) = 0.11571 -0.01430
# Poissons Ratio (z) = -0.09445 -0.02511
#
# Static dielectric constant tensor:
#      x y z
#    x 1.956930 0.057320 0.089460 
#    y 0.057320 2.251850 -0.152880 
#    z 0.089460 -0.152880 2.025110 
# 
# From -- ./inp_files/65615.got.cif
#   From: 2010.05.17/outbox.cif.g08.bks.cpg/sg2_33_cif.got.tgz:65615.got - 2010.06.03 11:33:40.
