data_PCOD9039753
_publ_section_title
;
Structure prediction by ZEFSAII (Michael W. Deem and Ramdas Pophale) SiO2 
 PCOD9039753
Probable space group: P -1
;
_chemical_formula_sum "Si O2"
_cell_formula_units_Z 16
_cell_length_a 20.274515
_cell_length_b 5.278493
_cell_length_c 10.022566
_cell_angle_alpha 99.227536
_cell_angle_beta 35.107006
_cell_angle_gamma 87.358060
_cell_volume 578.424827
_symmetry_space_group_name_H-M "P -1"
_symmetry_group_IT_number 2
_symmetry_cell_setting 'triclinic'
loop_
_space_group_symop_operation_xyz
x,y,z
-x,-y,-z
loop_
_atom_site_type_symbol
_atom_site_label
_atom_site_fract_x
_atom_site_fract_y
_atom_site_fract_z
Si Si1 0.519340 0.635032 0.114268
Si Si2 0.703385 0.724059 0.120267
Si Si3 0.296100 0.751935 0.060045
Si Si4 0.947928 0.807379 0.663046
Si Si5 0.485449 0.093820 0.355361
Si Si6 0.790981 0.856461 0.522985
Si Si7 0.032132 0.894238 0.087370
Si Si8 0.728739 0.359001 0.457929
O O1 0.651777 0.469946 0.928570
O O2 0.402414 0.604901 0.384165
O O3 0.497060 0.954267 0.179185
O O4 0.500000 0.500000 0.000000
O O5 0.762845 0.412199 0.956050
O O6 0.651163 0.792484 0.360776
O O7 0.570809 0.834925 0.277365
O O8 0.801546 0.865287 0.922774
O O9 0.419996 0.744711 0.781784
O O10 0.241120 0.016692 0.264623
O O11 0.000000 0.500000 0.500000
O O12 0.985139 0.869251 0.755583
O O13 0.000000 0.000000 0.500000
O O14 0.738839 0.623042 0.540281
O O15 0.936825 0.741502 0.269496
O O16 0.754935 0.104083 0.496200
O O17 0.169952 0.714930 0.830646
O O18 0.000000 0.000000 0.000000
#
# Coordination Sequence:
#
# PCOD9039753 Si02
#       8
#     2   2   2   2   2   2   2   2
#     4  11  22  39  60 101 141 177 237 292 371 426
#     4  10  24  46  68 101 139 185 247 296 370 436
#     4  11  23  39  70  99 139 188 236 301 363 442
#     4  12  29  51  79 114 151 200 252 315 372 450
#     4  10  23  42  70  97 138 191 239 299 362 440
#     4  11  24  40  69  98 140 186 241 297 366 434
#     4  10  25  50  75 108 147 194 251 308 377 438
#     4  11  24  42  66 100 142 190 235 301 359 442
#
# _framework density 27.661332000000002
#
# number of rings (size 3 to 8) (size 9 to 14) (size 15 to 20)
#    0.000    1.250    1.250    3.000    7.000    5.000 
#    2.250    0.000    0.000    0.000    0.000    0.000 
#    0.000    0.000    0.000    0.000    0.000    0.000 
#
# Total GULP energy -89393.484294 kJ/mol
# GULP energy per Si atom -5587.092768 kJ/mol
# Density = 2.759837 g / cm^3
# Si number density = 27.661332 Si / 1000 Ang^3
#
#
#
# Elastic Constant Matrix: (Units=GPa)
#
#
# Indices 1 2 3 4 5 6 
#
# 1 63.2949 19.2108 37.0231 13.2929 13.8231 13.2725
# 2 19.2108 188.0391 57.5447 -3.0145 12.5065 20.9901
# 3 37.0231 57.5447 171.8258 -18.4407 -7.7928 3.6317
# 4 13.2929 -3.0145 -18.4407 46.2187 15.7727 -2.7686
# 5 13.8231 12.5065 -7.7928 15.7727 53.9327 0.1694
# 6 13.2725 20.9901 3.6317 -2.7686 0.1694 37.3686
#
#
#
# Elastic Compliance Matrix: (Units=1/GPa)
#
#
# Indices 1 2 3 4 5 6 
#
# 1 0.023894 0.000650 -0.006279 -0.008246 -0.004743 -0.008831
# 2 0.000650 0.006506 -0.002357 -0.000265 -0.001927 -0.003667
# 3 -0.006279 -0.002357 0.008475 0.004517 0.002050 0.003056
# 4 -0.008246 -0.000265 0.004517 0.027901 -0.005347 0.004730
# 5 -0.004743 -0.001927 0.002050 -0.005347 0.022057 0.002071
# 6 -0.008831 -0.003667 0.003056 0.004730 0.002071 0.032001
#
#
# Mechanical properties :
#
#
# Convention : Reuss Voigt Hill
#
# Bulk Modulus (GPa) = 43.66472 72.30187 57.98329
# Shear Modulus (GPa) = 34.61565 48.12940 41.37252
#
# Velocity S-wave (km/s) = 3.54136 4.17580 3.87160
# Velocity P-wave (km/s) = 5.70451 7.03169 6.40258
#
# Compressibility (1/GPa) = 0.02290178
#
# Stress axis : x y z
#
# Youngs Moduli (GPa) = 41.85121 153.69691 117.98717
#
# Poissons Ratio (x) = -0.09983 0.74089
# Poissons Ratio (y) = -0.02718 0.27813
# Poissons Ratio (z) = 0.26280 0.36230
#
# Static dielectric constant tensor:
#      x y z
#    x 2.655960 -0.157980 -0.084910 
#    y -0.157980 2.242730 0.138130 
#    z -0.084910 0.138130 2.368440 
# 
# From -- ./inp_files/473470.got.cif
#   From: 2010.05.17/outbox.cif.g08.bks.cpg/sg2_237_cif.got.tgz:473470.got - 2010.06.03 11:33:40.
