data_PCOD9039396
_publ_section_title
;
Structure prediction by ZEFSAII (Michael W. Deem and Ramdas Pophale) SiO2 
 PCOD9039396
Probable space group: P -1
;
_chemical_formula_sum "Si O2"
_cell_formula_units_Z 14
_cell_length_a 4.933855
_cell_length_b 14.240577
_cell_length_c 8.887257
_cell_angle_alpha 66.152118
_cell_angle_beta 61.364410
_cell_angle_gamma 70.543695
_cell_volume 493.651434
_symmetry_space_group_name_H-M "P -1"
_symmetry_group_IT_number 2
_symmetry_cell_setting 'triclinic'
loop_
_space_group_symop_operation_xyz
x,y,z
-x,-y,-z
loop_
_atom_site_type_symbol
_atom_site_label
_atom_site_fract_x
_atom_site_fract_y
_atom_site_fract_z
Si Si1 0.279486 0.067042 0.638324
Si Si2 0.240710 0.408633 0.078474
Si Si3 0.410375 0.927836 0.941708
Si Si4 0.821931 0.279799 0.862784
Si Si5 0.993408 0.203333 0.193654
Si Si6 0.317780 0.786705 0.442881
Si Si7 0.983616 0.608843 0.521820
O O1 0.434746 0.134170 0.677996
O O2 0.006211 0.142118 0.574592
O O3 0.500000 0.000000 0.500000
O O4 0.180268 0.982015 0.836238
O O5 0.129401 0.301056 0.152499
O O6 0.222347 0.410490 0.264434
O O7 0.574307 0.381922 0.919411
O O8 0.000000 0.500000 0.000000
O O9 0.334888 0.816420 0.096610
O O10 0.741957 0.894911 0.787202
O O11 0.500000 0.000000 0.000000
O O12 0.071426 0.316499 0.660203
O O13 0.948139 0.228136 0.016558
O O14 0.689556 0.212005 0.371090
O O15 0.267478 0.668965 0.475085
O O16 0.000000 0.500000 0.500000
#
# Coordination Sequence:
#
# PCOD9039396 Si02
#       7
#     2   2   2   2   2   2   2
#     4  12  24  45  75 111 150 210 263 318 393 468
#     4  10  24  48  72 107 144 193 255 317 390 462
#     4  11  25  41  67 104 150 202 251 317 388 461
#     4  11  25  48  74 106 153 196 254 325 384 472
#     4  10  23  42  68 102 146 197 253 311 386 461
#     4  11  26  46  73 113 157 201 269 328 381 477
#     4  11  26  49  76 113 149 206 258 324 394 468
#
# _framework density 28.360092000000002
#
# number of rings (size 3 to 8) (size 9 to 14) (size 15 to 20)
#    0.000    1.143    1.429    3.000    8.000    3.429 
#    5.143    0.000    0.000    0.000    0.000    0.000 
#    0.000    0.000    0.000    0.000    0.000    0.000 
#
# Total GULP energy -78061.714026 kJ/mol
# GULP energy per Si atom -5575.836716 kJ/mol
# Density = 2.829554 g / cm^3
# Si number density = 28.360092 Si / 1000 Ang^3
#
#
#
# Elastic Constant Matrix: (Units=GPa)
#
#
# Indices 1 2 3 4 5 6 
#
# 1 92.6695 58.1619 -13.7458 -16.8064 22.9963 19.0640
# 2 58.1619 223.0662 67.2027 -1.1838 17.2770 32.8930
# 3 -13.7458 67.2027 144.6167 -2.0301 22.3802 3.7175
# 4 -16.8064 -1.1838 -2.0301 46.3083 3.2553 5.0779
# 5 22.9963 17.2770 22.3802 3.2553 40.2963 -8.4014
# 6 19.0640 32.8930 3.7175 5.0779 -8.4014 44.7330
#
#
#
# Elastic Compliance Matrix: (Units=1/GPa)
#
#
# Indices 1 2 3 4 5 6 
#
# 1 0.025881 -0.005864 0.008923 0.012506 -0.020891 -0.012802
# 2 -0.005864 0.007409 -0.004345 -0.002085 0.002353 -0.001909
# 3 0.008923 -0.004345 0.011655 0.004869 -0.010969 -0.004189
# 4 0.012506 -0.002085 0.004869 0.028315 -0.013301 -0.009913
# 5 -0.020891 0.002353 -0.010969 -0.013301 0.046726 0.018370
# 6 -0.012802 -0.001909 -0.004189 -0.009913 0.018370 0.034138
#
#
# Mechanical properties :
#
#
# Convention : Reuss Voigt Hill
#
# Bulk Modulus (GPa) = 23.59992 75.95444 49.77718
# Shear Modulus (GPa) = 29.27035 49.51644 39.39339
#
# Velocity S-wave (km/s) = 3.21611 4.18304 3.73103
# Velocity P-wave (km/s) = 4.70433 7.08313 6.01255
#
# Compressibility (1/GPa) = 0.04237302
#
# Stress axis : x y z
#
# Youngs Moduli (GPa) = 38.63862 134.97020 85.79689
#
# Poissons Ratio (x) = 0.79146 -0.76552
# Poissons Ratio (y) = 0.22658 0.37276
# Poissons Ratio (z) = -0.34475 0.58640
#
# Static dielectric constant tensor:
#      x y z
#    x 2.284360 -0.131180 -0.118600 
#    y -0.131180 2.323300 0.259130 
#    z -0.118600 0.259130 2.618080 
# 
# From -- ./inp_files/134798.got.cif
#   From: 2010.05.17/outbox.cif.g08.bks.cpg/sg2_68_cif.got.tgz:134798.got - 2010.06.03 11:33:40.
