data_PCOD9039207
_publ_section_title
;
Structure prediction by ZEFSAII (Michael W. Deem and Ramdas Pophale) SiO2 
 PCOD9039207
Probable space group: P -1
;
_chemical_formula_sum "Si O2"
_cell_formula_units_Z 14
_cell_length_a 11.813221
_cell_length_b 9.953127
_cell_length_c 8.559420
_cell_angle_alpha 131.370173
_cell_angle_beta 123.951870
_cell_angle_gamma 55.515620
_cell_volume 594.275729
_symmetry_space_group_name_H-M "P -1"
_symmetry_group_IT_number 2
_symmetry_cell_setting 'triclinic'
loop_
_space_group_symop_operation_xyz
x,y,z
-x,-y,-z
loop_
_atom_site_type_symbol
_atom_site_label
_atom_site_fract_x
_atom_site_fract_y
_atom_site_fract_z
Si Si1 0.170834 0.117923 0.806506
Si Si2 0.666212 0.630397 0.696039
Si Si3 0.334451 0.751182 0.463530
Si Si4 0.897277 0.581306 0.251250
Si Si5 0.142196 0.936005 0.955271
Si Si6 0.836559 0.715785 0.650193
Si Si7 0.660712 0.403339 0.987818
O O1 0.071251 0.292167 0.763766
O O2 0.246451 0.956210 0.615983
O O3 0.274594 0.220747 0.050806
O O4 0.112543 0.007764 0.810210
O O5 0.494978 0.705389 0.619645
O O6 0.717842 0.419952 0.643472
O O7 0.722501 0.622237 0.554898
O O8 0.339201 0.727523 0.262580
O O9 0.890642 0.681566 0.490367
O O10 0.023310 0.382919 0.209824
O O11 0.742836 0.547296 0.100495
O O12 0.235910 0.723243 0.896591
O O13 0.229960 0.065726 0.195386
O O14 0.000000 0.000000 0.000000
O O15 0.500000 0.500000 0.000000
#
# Coordination Sequence:
#
# PCOD9039207 Si02
#       7
#     2   2   2   2   2   2   2
#     4  11  25  43  73 104 140 184 239 293 355 420
#     4  10  23  42  67 101 137 187 230 298 346 420
#     4  11  24  43  70 101 146 182 238 284 363 417
#     4  11  23  43  69 102 140 186 237 293 355 421
#     4  11  25  46  71 104 141 187 239 293 355 429
#     4  10  23  43  70  96 144 185 239 290 357 418
#     4  12  26  44  72 105 146 188 238 292 356 424
#
# _framework density 23.558088999999999
#
# number of rings (size 3 to 8) (size 9 to 14) (size 15 to 20)
#    0.000    1.143    2.857    2.143    6.000    5.714 
#    0.000    7.143    0.000    0.000    0.000    0.000 
#    0.000    0.000    0.000    0.000    0.000    0.000 
#
# Total GULP energy -78232.536989 kJ/mol
# GULP energy per Si atom -5588.038356 kJ/mol
# Density = 2.350447 g / cm^3
# Si number density = 23.558089 Si / 1000 Ang^3
#
#
#
# Elastic Constant Matrix: (Units=GPa)
#
#
# Indices 1 2 3 4 5 6 
#
# 1 115.4987 49.8838 19.5621 -1.0653 -2.6056 8.3662
# 2 49.8838 129.5489 21.8626 -0.0823 -8.1400 25.7550
# 3 19.5621 21.8626 91.8469 9.5048 -17.6175 2.0584
# 4 -1.0653 -0.0823 9.5048 29.7617 2.0606 -7.7374
# 5 -2.6056 -8.1400 -17.6175 2.0606 33.7653 -2.8966
# 6 8.3662 25.7550 2.0584 -7.7374 -2.8966 39.9343
#
#
#
# Elastic Compliance Matrix: (Units=1/GPa)
#
#
# Indices 1 2 3 4 5 6 
#
# 1 0.010601 -0.003984 -0.001631 0.001109 -0.001012 0.000574
# 2 -0.003984 0.010771 -0.001193 -0.001439 0.001219 -0.006241
# 3 -0.001631 -0.001193 0.013325 -0.004793 0.006831 -0.000009
# 4 0.001109 -0.001439 -0.004793 0.037522 -0.004375 0.007895
# 5 -0.001012 0.001219 0.006831 -0.004375 0.033721 0.000672
# 6 0.000574 -0.006241 -0.000009 0.007895 0.000672 0.030525
#
#
# Mechanical properties :
#
#
# Convention : Reuss Voigt Hill
#
# Bulk Modulus (GPa) = 47.43425 57.72349 52.57887
# Shear Modulus (GPa) = 31.82550 37.06466 34.44508
#
# Velocity S-wave (km/s) = 3.67950 3.97083 3.82793
# Velocity P-wave (km/s) = 6.18307 6.75123 6.47338
#
# Compressibility (1/GPa) = 0.02108181
#
# Stress axis : x y z
#
# Youngs Moduli (GPa) = 94.33316 92.84496 75.04419
#
# Poissons Ratio (x) = 0.36985 0.12242
# Poissons Ratio (y) = 0.37578 0.08951
# Poissons Ratio (z) = 0.15388 0.11074
#
# Static dielectric constant tensor:
#      x y z
#    x 1.910900 0.073310 0.023280 
#    y 0.073310 1.905590 -0.019210 
#    z 0.023280 -0.019210 1.963140 
# 
# From -- ./inp_files/246144.got.cif
#   From: 2010.05.17/outbox.cif.g08.bks.cpg/sg2_124_cif.got.tgz:246144.got - 2010.06.03 11:33:40.
