data_PCOD9039505
_publ_section_title
;
Structure prediction by ZEFSAII (Michael W. Deem and Ramdas Pophale) SiO2 
 PCOD9039505
Probable space group: P -1
;
_chemical_formula_sum "Si O2"
_cell_formula_units_Z 14
_cell_length_a 9.258528
_cell_length_b 21.012042
_cell_length_c 9.574543
_cell_angle_alpha 150.580996
_cell_angle_beta 48.151999
_cell_angle_gamma 122.967119
_cell_volume 678.047348
_symmetry_space_group_name_H-M "P -1"
_symmetry_group_IT_number 2
_symmetry_cell_setting 'triclinic'
loop_
_space_group_symop_operation_xyz
x,y,z
-x,-y,-z
loop_
_atom_site_type_symbol
_atom_site_label
_atom_site_fract_x
_atom_site_fract_y
_atom_site_fract_z
Si Si1 0.104498 0.820755 0.205963
Si Si2 0.310052 0.241683 0.748938
Si Si3 0.347643 0.533579 0.282668
Si Si4 0.576445 0.374193 0.297667
Si Si5 0.602899 0.855276 0.187075
Si Si6 0.307923 0.807614 0.770322
Si Si7 0.011298 0.042343 0.914683
O O1 0.891948 0.814194 0.264714
O O2 0.086379 0.923014 0.537724
O O3 0.194910 0.681266 0.943068
O O4 0.252511 0.859139 0.060973
O O5 0.406215 0.182179 0.715573
O O6 0.468728 0.212940 0.466244
O O7 0.262021 0.397588 0.104327
O O8 0.462758 0.581988 0.434318
O O9 0.225073 0.665170 0.560703
O O10 0.500000 0.500000 0.000000
O O11 0.500000 0.500000 0.500000
O O12 0.483618 0.251806 0.058376
O O13 0.829515 0.856188 0.006976
O O14 0.500000 0.000000 0.500000
O O15 0.190580 0.896610 0.903064
O O16 0.000000 0.000000 0.000000
#
# Coordination Sequence:
#
# PCOD9039505 Si02
#       7
#     2   2   2   2   2   2   2
#     4  11  25  44  69 100 139 179 242 282 347 421
#     4  11  23  43  72  99 138 185 234 286 353 415
#     4   9  21  40  67  99 136 177 234 286 345 412
#     4  11  23  42  71 104 138 183 234 290 352 416
#     4  12  24  43  70 100 143 189 227 288 360 407
#     4  10  23  42  68  99 135 181 234 289 340 420
#     4  12  26  43  66 102 143 183 238 293 351 415
#
# _framework density 20.647525000000002
#
# number of rings (size 3 to 8) (size 9 to 14) (size 15 to 20)
#    0.000    1.143    4.286    1.286    0.000    7.429 
#    0.000    0.000    0.000   11.143    0.000    0.000 
#    0.000    0.000    0.000    0.000    0.000    0.000 
#
# Total GULP energy -78095.397593 kJ/mol
# GULP energy per Si atom -5578.242685 kJ/mol
# Density = 2.060053 g / cm^3
# Si number density = 20.647525 Si / 1000 Ang^3
#
#
#
# Elastic Constant Matrix: (Units=GPa)
#
#
# Indices 1 2 3 4 5 6 
#
# 1 99.3893 31.4887 60.8617 -6.7616 15.5036 -17.6225
# 2 31.4887 83.6715 48.0629 -10.9665 13.5961 -21.8564
# 3 60.8617 48.0629 131.9296 -3.0860 18.1015 -18.1061
# 4 -6.7616 -10.9665 -3.0860 41.1627 -6.2232 -6.3050
# 5 15.5036 13.5961 18.1015 -6.2232 45.4717 3.8760
# 6 -17.6225 -21.8564 -18.1061 -6.3050 3.8760 42.1283
#
#
#
# Elastic Compliance Matrix: (Units=1/GPa)
#
#
# Indices 1 2 3 4 5 6 
#
# 1 0.015062 -0.000573 -0.005753 0.002104 -0.002735 0.004097
# 2 -0.000573 0.018243 -0.004652 0.005176 -0.003408 0.008314
# 3 -0.005753 -0.004652 0.012179 -0.001479 -0.001728 0.000352
# 4 0.002104 0.005176 -0.001479 0.027179 0.001458 0.006863
# 5 -0.002735 -0.003408 -0.001728 0.001458 0.025322 -0.005766
# 6 0.004097 0.008314 0.000352 0.006863 -0.005766 0.031473
#
#
# Mechanical properties :
#
#
# Convention : Reuss Voigt Hill
#
# Bulk Modulus (GPa) = 42.50203 66.20188 54.35196
# Shear Modulus (GPa) = 31.39546 37.39099 34.39322
#
# Velocity S-wave (km/s) = 3.90364 4.26011 4.08576
# Velocity P-wave (km/s) = 6.39900 7.50536 6.97415
#
# Compressibility (1/GPa) = 0.02352829
#
# Stress axis : x y z
#
# Youngs Moduli (GPa) = 66.39170 54.81475 82.10629
#
# Poissons Ratio (x) = 0.03143 0.47234
# Poissons Ratio (y) = 0.03807 0.38196
# Poissons Ratio (z) = 0.38193 0.25500
#
# Static dielectric constant tensor:
#      x y z
#    x 1.760200 -0.011860 -0.002850 
#    y -0.011860 1.827180 0.060490 
#    z -0.002850 0.060490 1.812890 
# 
# From -- ./inp_files/222914.got.cif
#   From: 2010.05.17/outbox.cif.g08.bks.cpg/sg2_112_cif.got.tgz:222914.got - 2010.06.03 11:33:40.
