data_PCOD9039740
_publ_section_title
;
Structure prediction by ZEFSAII (Michael W. Deem and Ramdas Pophale) SiO2 
 PCOD9039740
Probable space group: P -1
;
_chemical_formula_sum "Si O2"
_cell_formula_units_Z 15
_cell_length_a 9.924988
_cell_length_b 14.466234
_cell_length_c 6.822572
_cell_angle_alpha 74.507257
_cell_angle_beta 129.232945
_cell_angle_gamma 126.936196
_cell_volume 596.296658
_symmetry_space_group_name_H-M "P -1"
_symmetry_group_IT_number 2
_symmetry_cell_setting 'triclinic'
loop_
_space_group_symop_operation_xyz
x,y,z
-x,-y,-z
loop_
_atom_site_type_symbol
_atom_site_label
_atom_site_fract_x
_atom_site_fract_y
_atom_site_fract_z
Si Si1 0.447708 0.786161 0.788155
Si Si2 0.050317 0.407400 0.043194
Si Si3 0.626589 0.933568 0.264317
Si Si4 0.278116 0.539457 0.831293
Si Si5 0.066419 0.811688 0.788955
Si Si6 0.500000 0.000000 0.500000
Si Si7 0.837192 0.874176 0.820425
Si Si8 0.683305 0.598912 0.392567
O O1 0.265608 0.648287 0.719808
O O2 0.404933 0.869546 0.582435
O O3 0.641789 0.798845 0.833410
O O4 0.523796 0.844915 0.038368
O O5 0.264632 0.431671 0.329674
O O6 0.876440 0.278298 0.039980
O O7 0.092165 0.427685 0.841860
O O8 0.000000 0.500000 0.000000
O O9 0.499722 0.949719 0.308247
O O10 0.756527 0.898882 0.533969
O O11 0.775426 0.061555 0.228269
O O12 0.310150 0.490427 0.692411
O O13 0.482487 0.593566 0.132964
O O14 0.963659 0.822994 0.887136
O O15 0.886125 0.735090 0.500292
O O16 0.000000 0.000000 0.000000
#
# Coordination Sequence:
#
# PCOD9039740 Si02
#       8
#     2   2   2   2   2   1   2   2
#     4  11  25  42  69  97 138 176 225 278 344 405
#     4  10  25  44  65 102 131 184 228 280 342 402
#     4  11  23  45  67  99 133 178 221 283 342 407
#     4  11  23  43  70  94 138 178 225 281 334 413
#     4  10  23  42  70  94 140 168 227 289 335 399
#     4  10  26  46  64 102 132 186 226 264 358 408
#     4  11  23  38  65 105 129 172 222 276 343 401
#     4   9  24  42  65 101 130 179 227 275 338 396
#
# _framework density 25.155263000000001
#
# number of rings (size 3 to 8) (size 9 to 14) (size 15 to 20)
#    0.800    0.800    1.333    2.000    7.467    2.667 
#    2.400    0.000    0.000    0.000    0.000    0.000 
#    0.000    0.000    0.000    0.000    0.000    0.000 
#
# Total GULP energy -83529.074822 kJ/mol
# GULP energy per Si atom -5568.604988 kJ/mol
# Density = 2.509801 g / cm^3
# Si number density = 25.155263 Si / 1000 Ang^3
#
#
#
# Elastic Constant Matrix: (Units=GPa)
#
#
# Indices 1 2 3 4 5 6 
#
# 1 69.4720 44.9989 32.1768 -9.9111 -19.2677 -5.1939
# 2 44.9989 121.9464 69.2460 -11.8986 -20.4178 -6.9179
# 3 32.1768 69.2460 132.0985 -8.5920 -7.9383 8.4647
# 4 -9.9111 -11.8986 -8.5920 41.3494 1.0400 -3.0630
# 5 -19.2677 -20.4178 -7.9383 1.0400 35.1063 -4.6511
# 6 -5.1939 -6.9179 8.4647 -3.0630 -4.6511 36.3924
#
#
#
# Elastic Compliance Matrix: (Units=1/GPa)
#
#
# Indices 1 2 3 4 5 6 
#
# 1 0.021858 -0.004547 -0.002431 0.003511 0.009268 0.004301
# 2 -0.004547 0.014950 -0.006572 0.002052 0.005257 0.004566
# 3 -0.002431 -0.006572 0.011703 -0.000315 -0.003130 -0.004745
# 4 0.003511 0.002052 -0.000315 0.025740 0.002748 0.003482
# 5 0.009268 0.005257 -0.003130 0.002748 0.036900 0.007997
# 6 0.004301 0.004566 -0.004745 0.003482 0.007997 0.031379
#
#
# Mechanical properties :
#
#
# Convention : Reuss Voigt Hill
#
# Bulk Modulus (GPa) = 46.70620 68.48449 57.59534
# Shear Modulus (GPa) = 28.28588 34.37596 31.33092
#
# Velocity S-wave (km/s) = 3.35692 3.70070 3.53299
# Velocity P-wave (km/s) = 5.79937 6.74863 6.29193
#
# Compressibility (1/GPa) = 0.02141043
#
# Stress axis : x y z
#
# Youngs Moduli (GPa) = 45.74891 66.89097 85.44893
#
# Poissons Ratio (x) = 0.30416 0.20772
# Poissons Ratio (y) = 0.20803 0.56159
# Poissons Ratio (z) = 0.11121 0.43962
#
# Static dielectric constant tensor:
#      x y z
#    x 2.024030 -0.032060 0.093370 
#    y -0.032060 1.872000 0.005970 
#    z 0.093370 0.005970 1.947890 
# 
# From -- ./inp_files/76002.got.cif
#   From: 2010.05.17/outbox.cif.g08.bks.cpg/sg2_39_cif.got.tgz:76002.got - 2010.06.03 11:33:40.
