data_PCOD9039849
_publ_section_title
;
Structure prediction by ZEFSAII (Michael W. Deem and Ramdas Pophale) SiO2 
 PCOD9039849
Probable space group: P -1
;
_chemical_formula_sum "Si O2"
_cell_formula_units_Z 16
_cell_length_a 11.284297
_cell_length_b 7.712708
_cell_length_c 12.075071
_cell_angle_alpha 60.123539
_cell_angle_beta 64.439634
_cell_angle_gamma 48.628271
_cell_volume 675.349959
_symmetry_space_group_name_H-M "P -1"
_symmetry_group_IT_number 2
_symmetry_cell_setting 'triclinic'
loop_
_space_group_symop_operation_xyz
x,y,z
-x,-y,-z
loop_
_atom_site_type_symbol
_atom_site_label
_atom_site_fract_x
_atom_site_fract_y
_atom_site_fract_z
Si Si1 0.887497 0.715338 0.394416
Si Si2 0.490308 0.623610 0.728457
Si Si3 0.426676 0.084323 0.124132
Si Si4 0.221696 0.866387 0.315580
Si Si5 0.261899 0.649589 0.990238
Si Si6 0.317935 0.799338 0.536275
Si Si7 0.028339 0.977222 0.158558
Si Si8 0.587881 0.867390 0.344832
O O1 0.000000 0.500000 0.500000
O O2 0.974006 0.793146 0.251065
O O3 0.787749 0.940353 0.446376
O O4 0.763785 0.695116 0.378194
O O5 0.665873 0.392837 0.708391
O O6 0.407785 0.626936 0.873834
O O7 0.380575 0.624278 0.673658
O O8 0.485083 0.868895 0.651501
O O9 0.569592 0.938266 0.201289
O O10 0.307361 0.005580 0.223633
O O11 0.327343 0.375492 0.083640
O O12 0.500000 0.000000 0.000000
O O13 0.224405 0.809375 0.462260
O O14 0.063154 0.012425 0.259138
O O15 0.187041 0.838371 0.062618
O O16 0.111827 0.780505 0.923271
O O17 0.481413 0.765362 0.441229
#
# Coordination Sequence:
#
# PCOD9039849 Si02
#       8
#     2   2   2   2   2   2   2   2
#     4  11  24  43  67  98 130 168 217 265 328 390
#     4  11  20  42  68  95 125 170 226 271 312 385
#     4  11  24  42  65  98 130 170 224 271 325 371
#     4  11  25  39  65  98 131 169 212 273 337 382
#     4  11  24  45  67  93 132 176 225 265 315 393
#     4  10  23  44  64  99 128 166 220 271 330 382
#     4  11  26  44  66  97 133 177 216 262 331 395
#     4  10  23  42  71  94 126 171 222 273 314 385
#
# _framework density 23.691423
#
# number of rings (size 3 to 8) (size 9 to 14) (size 15 to 20)
#    0.000    1.250    3.750    2.625    8.750    2.000 
#    2.250    0.000    0.000    0.000    0.000    0.000 
#    0.000    0.000    0.000    0.000    0.000    0.000 
#
# Total GULP energy -89479.927184 kJ/mol
# GULP energy per Si atom -5592.495449 kJ/mol
# Density = 2.363750 g / cm^3
# Si number density = 23.691423 Si / 1000 Ang^3
#
#
#
# Elastic Constant Matrix: (Units=GPa)
#
#
# Indices 1 2 3 4 5 6 
#
# 1 84.0657 2.5001 38.8786 -9.4014 34.1505 -0.9777
# 2 2.5001 60.2139 17.0258 -9.3990 8.3458 -5.5449
# 3 38.8786 17.0258 122.0480 0.5723 29.9910 -6.6308
# 4 -9.4014 -9.3990 0.5723 48.4292 -1.4858 5.4035
# 5 34.1505 8.3458 29.9910 -1.4858 62.2927 -12.5447
# 6 -0.9777 -5.5449 -6.6308 5.4035 -12.5447 26.9291
#
#
#
# Elastic Compliance Matrix: (Units=1/GPa)
#
#
# Indices 1 2 3 4 5 6 
#
# 1 0.017720 0.001818 -0.003991 0.004119 -0.008936 -0.004954
# 2 0.001818 0.018242 -0.002619 0.003690 -0.001767 0.001614
# 3 -0.003991 -0.002619 0.010467 -0.001605 -0.002309 0.001139
# 4 0.004119 0.003690 -0.001605 0.022687 -0.002485 -0.005196
# 5 -0.008936 -0.001767 -0.002309 -0.002485 0.024376 0.010597
# 6 -0.004954 0.001614 0.001139 -0.005196 0.010597 0.043546
#
#
# Mechanical properties :
#
#
# Convention : Reuss Voigt Hill
#
# Bulk Modulus (GPa) = 27.14091 42.57072 34.85582
# Shear Modulus (GPa) = 31.46532 41.39175 36.42853
#
# Velocity S-wave (km/s) = 3.64831 4.18439 3.92551
# Velocity P-wave (km/s) = 5.40627 6.43066 5.94058
#
# Compressibility (1/GPa) = 0.03684474
#
# Stress axis : x y z
#
# Youngs Moduli (GPa) = 56.43211 54.81832 95.53690
#
# Poissons Ratio (x) = -0.09966 0.38129
# Poissons Ratio (y) = -0.10259 0.25025
# Poissons Ratio (z) = 0.22522 0.14359
#
# Static dielectric constant tensor:
#      x y z
#    x 1.978700 -0.036620 0.056420 
#    y -0.036620 1.927710 -0.030530 
#    z 0.056420 -0.030530 1.959480 
# 
# From -- ./inp_files/419141.got.cif
#   From: 2010.05.17/outbox.cif.g08.bks.cpg/sg2_210_cif.got.tgz:419141.got - 2010.06.03 11:33:40.
