data_PCOD9039660
_publ_section_title
;
Structure prediction by ZEFSAII (Michael W. Deem and Ramdas Pophale) SiO2 
 PCOD9039660
Probable space group: P -1
;
_chemical_formula_sum "Si O2"
_cell_formula_units_Z 10
_cell_length_a 5.197368
_cell_length_b 10.511767
_cell_length_c 8.610985
_cell_angle_alpha 70.905196
_cell_angle_beta 117.346842
_cell_angle_gamma 108.682604
_cell_volume 386.691675
_symmetry_space_group_name_H-M "P -1"
_symmetry_group_IT_number 2
_symmetry_cell_setting 'triclinic'
loop_
_space_group_symop_operation_xyz
x,y,z
-x,-y,-z
loop_
_atom_site_type_symbol
_atom_site_label
_atom_site_fract_x
_atom_site_fract_y
_atom_site_fract_z
Si Si1 0.271256 0.779593 0.958973
Si Si2 0.721902 0.336141 0.552829
Si Si3 0.811622 0.890451 0.610257
Si Si4 0.292203 0.965824 0.166865
Si Si5 0.400952 0.411980 0.730647
O O1 0.285010 0.824861 0.126439
O O2 0.438384 0.651888 0.058003
O O3 0.965700 0.775272 0.785187
O O4 0.447313 0.917074 0.872220
O O5 0.473595 0.199033 0.516626
O O6 0.627788 0.410792 0.650362
O O7 0.677147 0.437064 0.356324
O O8 0.065557 0.320396 0.652125
O O9 0.735906 0.988558 0.683642
O O10 0.000000 0.000000 0.500000
O O11 0.000000 0.000000 0.000000
#
# Coordination Sequence:
#
# PCOD9039660 Si02
#       5
#     2   2   2   2   2
#     4  10  23  42  69  99 136 193 230 280 353 424
#     4  10  25  46  71 104 140 182 237 295 347 410
#     4  11  26  42  68 109 145 179 231 300 349 408
#     4   9  22  41  62 100 141 186 227 280 354 418
#     4  10  24  47  73  98 138 193 235 282 352 425
#
# _framework density 25.860399000000001
#
# number of rings (size 3 to 8) (size 9 to 14) (size 15 to 20)
#    0.000    2.000    0.000    0.000   16.800    1.600 
#    0.000    2.000    0.000    0.000    0.000    0.000 
#    0.000    0.000    0.000    0.000    0.000    0.000 
#
# Total GULP energy -55755.816580 kJ/mol
# GULP energy per Si atom -5575.581658 kJ/mol
# Density = 2.580154 g / cm^3
# Si number density = 25.860399 Si / 1000 Ang^3
#
#
#
# Elastic Constant Matrix: (Units=GPa)
#
#
# Indices 1 2 3 4 5 6 
#
# 1 94.0862 -2.9840 36.7311 5.1319 1.9146 5.7538
# 2 -2.9840 33.3899 1.0963 -19.6517 0.8752 11.1761
# 3 36.7311 1.0963 145.0253 -4.3947 20.4572 -17.3450
# 4 5.1319 -19.6517 -4.3947 54.2019 -14.2945 19.9963
# 5 1.9146 0.8752 20.4572 -14.2945 58.8837 -5.2546
# 6 5.7538 11.1761 -17.3450 19.9963 -5.2546 38.9564
#
#
#
# Elastic Compliance Matrix: (Units=1/GPa)
#
#
# Indices 1 2 3 4 5 6 
#
# 1 0.012611 0.005343 -0.004095 0.003174 0.001106 -0.006699
# 2 0.005343 0.071820 -0.007184 0.044038 0.007828 -0.046141
# 3 -0.004095 -0.007184 0.009445 -0.005875 -0.003629 0.009397
# 4 0.003174 0.044038 -0.005875 0.051319 0.010110 -0.040697
# 5 0.001106 0.007828 -0.003629 0.010110 0.019963 -0.006522
# 6 -0.006699 -0.046141 0.009397 -0.040697 -0.006522 0.064090
#
#
# Mechanical properties :
#
#
# Convention : Reuss Voigt Hill
#
# Bulk Modulus (GPa) = 12.19487 38.02091 25.10789
# Shear Modulus (GPa) = 18.62504 46.25228 32.43866
#
# Velocity S-wave (km/s) = 2.68659 4.23370 3.54556
# Velocity P-wave (km/s) = 3.78809 6.21556 5.14698
#
# Compressibility (1/GPa) = 0.08200167
#
# Stress axis : x y z
#
# Youngs Moduli (GPa) = 79.29649 13.92379 105.87933
#
# Poissons Ratio (x) = -0.07439 0.43362
# Poissons Ratio (y) = -0.42368 0.76066
# Poissons Ratio (z) = 0.32475 0.10003
#
# Static dielectric constant tensor:
#      x y z
#    x 2.290610 0.120870 -0.064940 
#    y 0.120870 2.212140 -0.172680 
#    z -0.064940 -0.172680 2.131440 
# 
# From -- ./inp_files/131396.got.cif
#   From: 2010.05.17/outbox.cif.g08.bks.cpg/sg2_66_cif.got.tgz:131396.got - 2010.06.03 11:33:40.
