data_PCOD9039323
_publ_section_title
;
Structure prediction by ZEFSAII (Michael W. Deem and Ramdas Pophale) SiO2 
 PCOD9039323
Probable space group: P -1
;
_chemical_formula_sum "Si O2"
_cell_formula_units_Z 16
_cell_length_a 13.345345
_cell_length_b 9.593359
_cell_length_c 10.673630
_cell_angle_alpha 73.220108
_cell_angle_beta 122.357287
_cell_angle_gamma 146.572864
_cell_volume 598.128334
_symmetry_space_group_name_H-M "P -1"
_symmetry_group_IT_number 2
_symmetry_cell_setting 'triclinic'
loop_
_space_group_symop_operation_xyz
x,y,z
-x,-y,-z
loop_
_atom_site_type_symbol
_atom_site_label
_atom_site_fract_x
_atom_site_fract_y
_atom_site_fract_z
Si Si1 0.275057 0.797563 0.477283
Si Si2 0.213863 0.012335 0.226788
Si Si3 0.384031 0.536660 0.894688
Si Si4 0.816541 0.536689 0.966384
Si Si5 0.251105 0.449582 0.568190
Si Si6 0.660305 0.943896 0.313098
Si Si7 0.319252 0.913761 0.970446
Si Si8 0.761872 0.781500 0.584426
O O1 0.158230 0.805555 0.320076
O O2 0.172206 0.533637 0.489198
O O3 0.500000 0.000000 0.500000
O O4 0.313539 0.893828 0.618223
O O5 0.062902 0.852012 0.043975
O O6 0.478489 0.282807 0.326806
O O7 0.157296 0.090733 0.257507
O O8 0.260557 0.468971 0.952370
O O9 0.227361 0.362725 0.714652
O O10 0.500000 0.500000 0.000000
O O11 0.559208 0.851695 0.914802
O O12 0.830718 0.374153 0.010026
O O13 0.605159 0.356963 0.787581
O O14 0.165946 0.280870 0.432065
O O15 0.779222 0.933686 0.460368
O O16 0.744693 0.055537 0.200111
O O17 0.500000 0.000000 0.000000
O O18 0.500000 0.500000 0.500000
#
# Coordination Sequence:
#
# PCOD9039323 Si02
#       8
#     2   2   2   2   2   2   2   2
#     4   9  17  31  52  75 100 132 171 207 248 307
#     4   9  20  35  53  79 105 131 172 219 258 299
#     4  10  19  33  53  79 105 137 175 211 251 309
#     4  10  19  35  55  79 105 132 171 220 256 299
#     4  10  17  33  55  74 100 142 175 206 254 313
#     4   9  16  32  53  73  99 141 174 197 252 324
#     4   8  16  30  50  73 101 136 168 200 252 317
#     4   9  18  33  52  72 102 143 176 200 250 324
#
# _framework density 26.750112000000001
#
# number of rings (size 3 to 8) (size 9 to 14) (size 15 to 20)
#    0.000    3.000    0.000    4.500    0.000    0.000 
#    0.000   18.750    0.000    0.000    0.000    0.000 
#    0.000    0.000    0.000    0.000    0.000    0.000 
#
# Total GULP energy -89367.902205 kJ/mol
# GULP energy per Si atom -5585.493888 kJ/mol
# Density = 2.668923 g / cm^3
# Si number density = 26.750112 Si / 1000 Ang^3
#
#
#
# Elastic Constant Matrix: (Units=GPa)
#
#
# Indices 1 2 3 4 5 6 
#
# 1 127.1239 40.5713 25.0750 15.0119 -9.0940 -15.3356
# 2 40.5713 60.4633 31.5696 21.1964 10.1170 -32.0928
# 3 25.0750 31.5696 104.4608 27.6413 15.6940 -18.8433
# 4 15.0119 21.1964 27.6413 54.3451 -6.2333 -4.1441
# 5 -9.0940 10.1170 15.6940 -6.2333 35.5560 9.2404
# 6 -15.3356 -32.0928 -18.8433 -4.1441 9.2404 50.7402
#
#
#
# Elastic Compliance Matrix: (Units=1/GPa)
#
#
# Indices 1 2 3 4 5 6 
#
# 1 0.012509 -0.014983 -0.003033 0.004634 0.011849 -0.008601
# 2 -0.014983 0.059262 0.004211 -0.022324 -0.036700 0.039379
# 3 -0.003033 0.004211 0.014904 -0.009141 -0.012442 0.008801
# 4 0.004634 -0.022324 -0.009141 0.031629 0.021658 -0.017475
# 5 0.011849 -0.036700 -0.012442 0.021658 0.059548 -0.033328
# 6 -0.008601 0.039379 0.008801 -0.017475 -0.033328 0.049926
#
#
# Mechanical properties :
#
#
# Convention : Reuss Voigt Hill
#
# Bulk Modulus (GPa) = 16.93009 54.05331 35.49170
# Shear Modulus (GPa) = 18.17681 41.11707 29.64694
#
# Velocity S-wave (km/s) = 2.60956 3.92481 3.33271
# Velocity P-wave (km/s) = 3.92714 6.38667 5.30151
#
# Compressibility (1/GPa) = 0.05906643
#
# Stress axis : x y z
#
# Youngs Moduli (GPa) = 79.94241 16.87412 67.09610
#
# Poissons Ratio (x) = 0.25282 0.20347
# Poissons Ratio (y) = 1.19776 -0.28253
# Poissons Ratio (z) = 0.24243 -0.07105
#
# Static dielectric constant tensor:
#      x y z
#    x 2.086190 0.173630 0.021840 
#    y 0.173630 2.470410 -0.036630 
#    z 0.021840 -0.036630 2.100030 
# 
# From -- ./inp_files/189355.got.cif
#   From: 2010.05.17/outbox.cif.g08.bks.cpg/sg2_95_cif.got.tgz:189355.got - 2010.06.03 11:33:40.
