data_PCOD9039788
_publ_section_title
;
Structure prediction by ZEFSAII (Michael W. Deem and Ramdas Pophale) SiO2 
 PCOD9039788
Probable space group: P -1
;
_chemical_formula_sum "Si O2"
_cell_formula_units_Z 16
_cell_length_a 9.209469
_cell_length_b 11.927044
_cell_length_c 8.643993
_cell_angle_alpha 108.298921
_cell_angle_beta 113.792701
_cell_angle_gamma 110.099203
_cell_volume 693.514023
_symmetry_space_group_name_H-M "P -1"
_symmetry_group_IT_number 2
_symmetry_cell_setting 'triclinic'
loop_
_space_group_symop_operation_xyz
x,y,z
-x,-y,-z
loop_
_atom_site_type_symbol
_atom_site_label
_atom_site_fract_x
_atom_site_fract_y
_atom_site_fract_z
Si Si1 0.218443 0.326125 0.718208
Si Si2 0.288655 0.077579 0.100643
Si Si3 0.517443 0.752210 0.050037
Si Si4 0.393463 0.902970 0.265215
Si Si5 0.783108 0.438717 0.360712
Si Si6 0.890697 0.826976 0.698026
Si Si7 0.706328 0.535129 0.638279
Si Si8 0.980038 0.633634 0.066851
O O1 0.277760 0.459069 0.692399
O O2 0.129240 0.195055 0.503816
O O3 0.071296 0.326695 0.774085
O O4 0.388997 0.328567 0.877888
O O5 0.379540 0.178091 0.036796
O O6 0.259817 0.151579 0.267888
O O7 0.388641 0.001187 0.173168
O O8 0.087751 0.956364 0.894590
O O9 0.303254 0.675022 0.860188
O O10 0.517744 0.846072 0.227709
O O11 0.177078 0.773472 0.155066
O O12 0.500000 0.000000 0.500000
O O13 0.712161 0.413123 0.496479
O O14 0.000000 0.500000 0.500000
O O15 0.859643 0.683969 0.690604
O O16 0.500000 0.500000 0.500000
O O17 0.783611 0.570163 0.858958
O O18 0.000000 0.500000 0.000000
#
# Coordination Sequence:
#
# PCOD9039788 Si02
#       8
#     2   2   2   2   2   2   2   2
#     4  11  25  43  73 104 144 184 241 294 364 426
#     4  11  24  45  70  99 142 189 243 294 354 429
#     4  12  26  45  73 107 142 190 245 294 363 435
#     4  12  28  47  70 106 154 190 243 302 366 433
#     4  11  24  43  70 102 140 182 235 298 358 423
#     4  10  23  42  71 101 139 184 237 295 355 422
#     4  11  22  42  71 101 133 182 233 291 358 423
#     4  12  26  47  72 106 146 188 238 300 364 431
#
# _framework density 23.070912
#
# number of rings (size 3 to 8) (size 9 to 14) (size 15 to 20)
#    0.000    0.750    1.250    6.000    5.250    6.500 
#    0.000    0.000    0.000    0.000    0.000    0.000 
#    0.000    0.000    0.000    0.000    0.000    0.000 
#
# Total GULP energy -89265.275275 kJ/mol
# GULP energy per Si atom -5579.079705 kJ/mol
# Density = 2.301840 g / cm^3
# Si number density = 23.070912 Si / 1000 Ang^3
#
#
#
# Elastic Constant Matrix: (Units=GPa)
#
#
# Indices 1 2 3 4 5 6 
#
# 1 106.8386 2.4371 63.0570 -10.8142 -18.3800 -12.6475
# 2 2.4371 46.9312 32.6027 -11.8478 4.6344 -9.9278
# 3 63.0570 32.6027 166.6573 -0.7932 -13.4926 -0.5778
# 4 -10.8142 -11.8478 -0.7932 20.3161 -5.0190 -6.0957
# 5 -18.3800 4.6344 -13.4926 -5.0190 54.3910 -3.6366
# 6 -12.6475 -9.9278 -0.5778 -6.0957 -3.6366 20.4065
#
#
#
# Elastic Compliance Matrix: (Units=1/GPa)
#
#
# Indices 1 2 3 4 5 6 
#
# 1 0.037705 0.041797 -0.020713 0.066967 0.014616 0.065725
# 2 0.041797 0.087562 -0.030810 0.106683 0.015704 0.102298
# 3 -0.020713 -0.030810 0.019014 -0.042100 -0.006282 -0.040983
# 4 0.066967 0.106683 -0.042100 0.200774 0.032182 0.157923
# 5 0.014616 0.015704 -0.006282 0.032182 0.025448 0.030669
# 6 0.065725 0.102298 -0.040983 0.157923 0.030669 0.190985
#
#
# Mechanical properties :
#
#
# Convention : Reuss Voigt Hill
#
# Bulk Modulus (GPa) = 8.01098 57.40229 32.70664
# Shear Modulus (GPa) = 8.03150 33.84473 20.93812
#
# Velocity S-wave (km/s) = 1.86783 3.83428 3.01583
# Velocity P-wave (km/s) = 2.85159 6.67361 5.13170
#
# Compressibility (1/GPa) = 0.12482864
#
# Stress axis : x y z
#
# Youngs Moduli (GPa) = 26.52194 11.42045 52.59417
#
# Poissons Ratio (x) = -0.47734 1.08937
# Poissons Ratio (y) = -1.10854 1.62044
# Poissons Ratio (z) = 0.54934 0.35187
#
# Static dielectric constant tensor:
#      x y z
#    x 1.920340 -0.001360 -0.054010 
#    y -0.001360 1.936150 0.065930 
#    z -0.054010 0.065930 2.019700 
# 
# From -- ./inp_files/189465.got.cif
#   From: 2010.05.17/outbox.cif.g08.bks.cpg/sg2_95_cif.got.tgz:189465.got - 2010.06.03 11:33:40.
