data_PCOD9039117
_publ_section_title
;
Structure prediction by ZEFSAII (Michael W. Deem and Ramdas Pophale) SiO2 
 PCOD9039117
Probable space group: P -1
;
_chemical_formula_sum "Si O2"
_cell_formula_units_Z 16
_cell_length_a 5.322027
_cell_length_b 16.294762
_cell_length_c 8.596830
_cell_angle_alpha 103.540685
_cell_angle_beta 96.776276
_cell_angle_gamma 117.306001
_cell_volume 621.729634
_symmetry_space_group_name_H-M "P -1"
_symmetry_group_IT_number 2
_symmetry_cell_setting 'triclinic'
loop_
_space_group_symop_operation_xyz
x,y,z
-x,-y,-z
loop_
_atom_site_type_symbol
_atom_site_label
_atom_site_fract_x
_atom_site_fract_y
_atom_site_fract_z
Si Si1 0.245297 0.013365 0.646244
Si Si2 0.132522 0.248252 0.114514
Si Si3 0.509989 0.219136 0.699154
Si Si4 0.710558 0.509213 0.301701
Si Si5 0.292020 0.969619 0.122879
Si Si6 0.043250 0.393083 0.327214
Si Si7 0.203645 0.331459 0.840378
Si Si8 0.735366 0.850707 0.678298
O O1 0.334575 0.123892 0.755843
O O2 0.571455 0.031233 0.696515
O O3 0.000000 0.000000 0.500000
O O4 0.070187 0.906229 0.664975
O O5 0.937107 0.286481 0.202369
O O6 0.327141 0.239755 0.260256
O O7 0.950437 0.140227 0.982583
O O8 0.291432 0.320539 0.015918
O O9 0.359539 0.285200 0.728659
O O10 0.468111 0.180009 0.501236
O O11 0.850155 0.272069 0.787155
O O12 0.380508 0.454915 0.318745
O O13 0.917939 0.594901 0.478910
O O14 0.715318 0.563464 0.169532
O O15 0.860868 0.442901 0.279332
O O16 0.235818 0.058575 0.181299
O O17 0.500000 0.000000 0.000000
#
# Coordination Sequence:
#
# PCOD9039117 Si02
#       8
#     2   2   2   2   2   2   2   2
#     4  10  23  42  66  94 136 191 242 289 333 405
#     4  12  26  44  67 107 142 183 234 294 358 418
#     4  11  26  44  71 103 141 190 245 285 338 415
#     4  10  23  48  74 102 137 179 230 285 356 427
#     4  12  25  42  67  97 143 191 236 294 348 406
#     4  10  24  46  76 103 136 181 229 286 353 435
#     4  12  26  44  73 108 144 177 231 301 352 419
#     4  11  26  44  66  94 143 197 242 285 341 414
#
# _framework density 25.734656000000001
#
# number of rings (size 3 to 8) (size 9 to 14) (size 15 to 20)
#    0.000    1.000    2.500    2.625    5.250    7.000 
#    0.000    0.000    0.000    0.000    0.000    0.000 
#    0.000    0.000    0.000    0.000    0.000    0.000 
#
# Total GULP energy -89330.614175 kJ/mol
# GULP energy per Si atom -5583.163386 kJ/mol
# Density = 2.567608 g / cm^3
# Si number density = 25.734656 Si / 1000 Ang^3
#
#
#
# Elastic Constant Matrix: (Units=GPa)
#
#
# Indices 1 2 3 4 5 6 
#
# 1 117.9158 33.3038 25.6663 10.3283 6.1735 -20.6815
# 2 33.3038 128.7619 43.4973 -22.6848 0.1847 -29.0396
# 3 25.6663 43.4973 118.1294 -0.0337 7.2157 -12.4068
# 4 10.3283 -22.6848 -0.0337 40.2849 -10.7959 6.5913
# 5 6.1735 0.1847 7.2157 -10.7959 35.1612 5.3798
# 6 -20.6815 -29.0396 -12.4068 6.5913 5.3798 37.0067
#
#
#
# Elastic Compliance Matrix: (Units=1/GPa)
#
#
# Indices 1 2 3 4 5 6 
#
# 1 0.011173 -0.002487 -0.000601 -0.006505 -0.004731 0.005937
# 2 -0.002487 0.012041 -0.003495 0.007231 0.002510 0.005234
# 3 -0.000601 -0.003495 0.010203 -0.002829 -0.003036 0.001287
# 4 -0.006505 0.007231 -0.002829 0.035398 0.013655 -0.007199
# 5 -0.004731 0.002510 -0.003036 0.013655 0.035494 -0.009284
# 6 0.005937 0.005234 0.001287 -0.007199 -0.009284 0.037511
#
#
# Mechanical properties :
#
#
# Convention : Reuss Voigt Hill
#
# Bulk Modulus (GPa) = 49.38147 63.30466 56.34306
# Shear Modulus (GPa) = 30.91484 39.97987 35.44735
#
# Velocity S-wave (km/s) = 3.46973 3.94578 3.71538
# Velocity P-wave (km/s) = 5.93990 6.73879 6.35191
#
# Compressibility (1/GPa) = 0.02025051
#
# Stress axis : x y z
#
# Youngs Moduli (GPa) = 89.50462 83.04977 98.01429
#
# Poissons Ratio (x) = 0.20653 0.05892
# Poissons Ratio (y) = 0.22258 0.34255
# Poissons Ratio (z) = 0.05380 0.29025
#
# Static dielectric constant tensor:
#      x y z
#    x 2.026550 0.056060 -0.067280 
#    y 0.056060 2.051540 -0.031450 
#    z -0.067280 -0.031450 2.265520 
# 
# From -- ./inp_files/135553.got.cif
#   From: 2010.05.17/outbox.cif.g08.bks.cpg/sg2_68_cif.got.tgz:135553.got - 2010.06.03 11:33:40.
