data_PCOD9039215
_publ_section_title
;
Structure prediction by ZEFSAII (Michael W. Deem and Ramdas Pophale) SiO2 
 PCOD9039215
Probable space group: P -1
;
_chemical_formula_sum "Si O2"
_cell_formula_units_Z 13
_cell_length_a 9.616995
_cell_length_b 7.137042
_cell_length_c 11.530229
_cell_angle_alpha 58.556915
_cell_angle_beta 118.196374
_cell_angle_gamma 127.323674
_cell_volume 522.500398
_symmetry_space_group_name_H-M "P -1"
_symmetry_group_IT_number 2
_symmetry_cell_setting 'triclinic'
loop_
_space_group_symop_operation_xyz
x,y,z
-x,-y,-z
loop_
_atom_site_type_symbol
_atom_site_label
_atom_site_fract_x
_atom_site_fract_y
_atom_site_fract_z
Si Si1 0.839765 0.403505 0.560368
Si Si2 0.436311 0.793900 0.201745
Si Si3 0.337212 0.870040 0.623340
Si Si4 0.095134 0.371533 0.833143
Si Si5 0.296365 0.331965 0.425106
Si Si6 0.000000 0.500000 0.000000
Si Si7 0.233611 0.017854 0.892091
O O1 0.662856 0.255951 0.458657
O O2 0.829310 0.628161 0.546722
O O3 0.000000 0.500000 0.500000
O O4 0.902875 0.273275 0.724633
O O5 0.311978 0.499211 0.265596
O O6 0.620441 0.844697 0.195286
O O7 0.488477 0.946993 0.293084
O O8 0.327019 0.892274 0.049637
O O9 0.223460 0.645734 0.740230
O O10 0.254224 0.049543 0.495175
O O11 0.067109 0.389222 0.951919
O O12 0.183365 0.201328 0.883153
O O13 0.500000 0.500000 0.500000
O O14 0.063696 0.766256 0.865670
#
# Coordination Sequence:
#
# PCOD9039215 Si02
#       7
#     2   2   2   2   2   1   2
#     4  10  24  41  66 104 143 182 236 293 349 423
#     4  10  23  47  68 104 147 181 245 284 365 422
#     4  10  23  44  69 104 138 188 228 293 358 414
#     4  11  25  43  70 105 142 182 244 289 363 417
#     4  10  23  42  67 101 141 188 232 291 345 422
#     4  12  24  46  68  98 140 190 232 290 354 420
#     4  11  25  46  71 102 143 190 235 304 339 438
#
# _framework density 24.880362999999999
#
# number of rings (size 3 to 8) (size 9 to 14) (size 15 to 20)
#    0.000    1.538    1.538    1.385    8.615    8.000 
#    0.000    1.538    0.000    0.000    0.000    0.000 
#    0.000    0.000    0.000    0.000    0.000    0.000 
#
# Total GULP energy -72433.520861 kJ/mol
# GULP energy per Si atom -5571.809297 kJ/mol
# Density = 2.482373 g / cm^3
# Si number density = 24.880363 Si / 1000 Ang^3
#
#
#
# Elastic Constant Matrix: (Units=GPa)
#
#
# Indices 1 2 3 4 5 6 
#
# 1 128.1518 34.8678 32.6557 -21.3642 -12.8996 -17.2989
# 2 34.8678 75.2257 44.9156 -42.7889 -0.3249 -12.5549
# 3 32.6557 44.9156 94.5110 -6.5244 -9.4573 -5.0049
# 4 -21.3642 -42.7889 -6.5244 52.9308 8.5596 3.1247
# 5 -12.8996 -0.3249 -9.4573 8.5596 34.7187 2.3318
# 6 -17.2989 -12.5549 -5.0049 3.1247 2.3318 53.1617
#
#
#
# Elastic Compliance Matrix: (Units=1/GPa)
#
#
# Indices 1 2 3 4 5 6 
#
# 1 0.009661 -0.002347 -0.001756 0.001228 0.002636 0.002236
# 2 -0.002347 0.052308 -0.022526 0.040868 -0.017119 0.007818
# 3 -0.001756 -0.022526 0.021459 -0.017625 0.009546 -0.003254
# 4 0.001228 0.040868 -0.017625 0.052704 -0.017363 0.006056
# 5 0.002636 -0.017119 0.009546 -0.017363 0.036696 -0.002875
# 6 0.002236 0.007818 -0.003254 0.006056 -0.002875 0.020848
#
#
# Mechanical properties :
#
#
# Convention : Reuss Voigt Hill
#
# Bulk Modulus (GPa) = 33.14439 58.08517 45.61478
# Shear Modulus (GPa) = 19.45601 40.52553 29.99077
#
# Velocity S-wave (km/s) = 2.79943 4.04024 3.47565
# Velocity P-wave (km/s) = 4.87847 6.72021 5.87200
#
# Compressibility (1/GPa) = 0.03017102
#
# Stress axis : x y z
#
# Youngs Moduli (GPa) = 103.50783 19.11761 46.60069
#
# Poissons Ratio (x) = 0.04486 0.08183
# Poissons Ratio (y) = 0.24290 1.04972
# Poissons Ratio (z) = 0.18175 0.43064
#
# Static dielectric constant tensor:
#      x y z
#    x 2.186760 0.208620 -0.080890 
#    y 0.208620 2.091100 -0.043150 
#    z -0.080890 -0.043150 1.744640 
# 
# From -- ./inp_files/366600.got.cif
#   From: 2010.05.17/outbox.cif.g08.bks.cpg/sg2_184_cif.got.tgz:366600.got - 2010.06.03 11:33:40.
