data_PCOD9039827
_publ_section_title
;
Structure prediction by ZEFSAII (Michael W. Deem and Ramdas Pophale) SiO2 
 PCOD9039827
Probable space group: P -1
;
_chemical_formula_sum "Si O2"
_cell_formula_units_Z 14
_cell_length_a 12.210581
_cell_length_b 5.633829
_cell_length_c 11.760444
_cell_angle_alpha 115.029123
_cell_angle_beta 87.108030
_cell_angle_gamma 62.025041
_cell_volume 615.282701
_symmetry_space_group_name_H-M "P -1"
_symmetry_group_IT_number 2
_symmetry_cell_setting 'triclinic'
loop_
_space_group_symop_operation_xyz
x,y,z
-x,-y,-z
loop_
_atom_site_type_symbol
_atom_site_label
_atom_site_fract_x
_atom_site_fract_y
_atom_site_fract_z
Si Si1 0.296366 0.741924 0.989732
Si Si2 0.093994 0.334085 0.569822
Si Si3 0.066498 0.706974 0.026611
Si Si4 0.254453 0.636898 0.395600
Si Si5 0.377005 0.191374 0.465506
Si Si6 0.109848 0.457685 0.202292
Si Si7 0.562432 0.350201 0.797694
O O1 0.216225 0.573093 0.955774
O O2 0.371196 0.664726 0.089935
O O3 0.199223 0.117025 0.071782
O O4 0.409430 0.610403 0.863908
O O5 0.236896 0.279694 0.539283
O O6 0.000000 0.500000 0.500000
O O7 0.019318 0.495196 0.723287
O O8 0.133377 0.980782 0.494653
O O9 0.076261 0.733370 0.169763
O O10 0.000000 0.500000 0.000000
O O11 0.000000 0.000000 0.000000
O O12 0.337627 0.519292 0.482901
O O13 0.189262 0.468305 0.307107
O O14 0.355460 0.606301 0.291490
O O15 0.500000 0.000000 0.500000
O O16 0.415887 0.976327 0.307171
#
# Coordination Sequence:
#
# PCOD9039827 Si02
#       7
#     2   2   2   2   2   2   2
#     4  11  23  44  72 106 144 190 250 302 375 455
#     4  11  24  41  72 108 140 190 260 310 375 458
#     4  12  27  47  68 105 151 190 244 310 382 449
#     4  11  22  43  72 101 142 192 254 308 374 454
#     4  11  25  45  66 102 150 192 251 314 378 447
#     4  12  23  42  73 103 146 195 250 312 378 460
#     4  10  23  42  71 105 138 191 247 304 369 456
#
# _framework density 22.753769999999999
#
# number of rings (size 3 to 8) (size 9 to 14) (size 15 to 20)
#    0.000    0.857    5.714    1.286    0.000    5.143 
#    5.143    0.000    0.000    0.000    0.000    0.000 
#    0.000    0.000    0.000    0.000    0.000    0.000 
#
# Total GULP energy -77956.949599 kJ/mol
# GULP energy per Si atom -5568.353543 kJ/mol
# Density = 2.270198 g / cm^3
# Si number density = 22.753770 Si / 1000 Ang^3
#
#
#
# Elastic Constant Matrix: (Units=GPa)
#
#
# Indices 1 2 3 4 5 6 
#
# 1 79.7360 50.8085 18.0734 11.5476 -5.7891 -26.6754
# 2 50.8085 156.7215 42.0144 -12.8627 -12.4994 -31.1256
# 3 18.0734 42.0144 70.5751 16.3771 -38.0459 -11.0505
# 4 11.5476 -12.8627 16.3771 34.6222 -8.1693 4.3247
# 5 -5.7891 -12.4994 -38.0459 -8.1693 41.6060 2.1005
# 6 -26.6754 -31.1256 -11.0505 4.3247 2.1005 36.8041
#
#
#
# Elastic Compliance Matrix: (Units=1/GPa)
#
#
# Indices 1 2 3 4 5 6 
#
# 1 0.022323 -0.006740 0.004480 -0.013279 0.001901 0.013277
# 2 -0.006740 0.011991 -0.010052 0.010213 -0.004587 0.001300
# 3 0.004480 -0.010052 0.041422 -0.018331 0.031501 0.007540
# 4 -0.013279 0.010213 -0.018331 0.045811 -0.005965 -0.011534
# 5 0.001901 -0.004587 0.031501 -0.005965 0.050314 0.004786
# 6 0.013277 0.001300 0.007540 -0.011534 0.004786 0.041239
#
#
# Mechanical properties :
#
#
# Convention : Reuss Voigt Hill
#
# Bulk Modulus (GPa) = 19.56394 58.75836 39.16115
# Shear Modulus (GPa) = 19.62626 35.68221 27.65423
#
# Velocity S-wave (km/s) = 2.94011 3.96433 3.49000
# Velocity P-wave (km/s) = 4.48803 6.84355 5.78691
#
# Compressibility (1/GPa) = 0.05111444
#
# Stress axis : x y z
#
# Youngs Moduli (GPa) = 44.79634 83.39705 24.14162
#
# Poissons Ratio (x) = 0.56206 -0.10816
# Poissons Ratio (y) = 0.30191 0.24267
# Poissons Ratio (z) = -0.20071 0.83829
#
# Static dielectric constant tensor:
#      x y z
#    x 2.476420 0.491840 0.391740 
#    y 0.491840 2.431390 0.292210 
#    z 0.391740 0.292210 2.083390 
# 
# From -- ./inp_files/70015.got.cif
#   From: 2010.05.17/outbox.cif.g08.bks.cpg/sg2_36_cif.got.tgz:70015.got - 2010.06.03 11:33:40.
