data_PCOD9039707
_publ_section_title
;
Structure prediction by ZEFSAII (Michael W. Deem and Ramdas Pophale) SiO2 
 PCOD9039707
Probable space group: P -1
;
_chemical_formula_sum "Si O2"
_cell_formula_units_Z 12
_cell_length_a 4.868753
_cell_length_b 9.272684
_cell_length_c 11.146092
_cell_angle_alpha 108.976566
_cell_angle_beta 100.063872
_cell_angle_gamma 68.387988
_cell_volume 441.538706
_symmetry_space_group_name_H-M "P -1"
_symmetry_group_IT_number 2
_symmetry_cell_setting 'triclinic'
loop_
_space_group_symop_operation_xyz
x,y,z
-x,-y,-z
loop_
_atom_site_type_symbol
_atom_site_label
_atom_site_fract_x
_atom_site_fract_y
_atom_site_fract_z
Si Si1 0.249331 0.426788 0.636120
Si Si2 0.392717 0.366617 0.267754
Si Si3 0.302514 0.757374 0.972839
Si Si4 0.283382 0.053868 0.170786
Si Si5 0.172410 0.788360 0.231384
Si Si6 0.190180 0.119002 0.550294
O O1 0.389099 0.556250 0.628536
O O2 0.540939 0.315489 0.700375
O O3 0.948622 0.532232 0.707725
O O4 0.155227 0.287969 0.523564
O O5 0.448480 0.178279 0.249001
O O6 0.476731 0.365835 0.132913
O O7 0.198661 0.709862 0.079624
O O8 0.442377 0.895692 0.059125
O O9 0.008851 0.843500 0.896539
O O10 0.183696 0.966735 0.249687
O O11 0.888864 0.812946 0.299862
O O12 0.500000 0.000000 0.500000
O O13 0.000000 0.000000 0.500000
#
# Coordination Sequence:
#
# PCOD9039707 Si02
#       6
#     2   2   2   2   2   2
#     4  12  25  42  67 103 132 176 226 276 347 386
#     4  12  22  43  63 101 146 182 204 279 331 399
#     4   9  21  41  67 101 144 185 224 250 324 412
#     4   9  21  43  67  97 144 190 221 254 320 414
#     4  10  23  42  70 104 129 179 238 267 322 412
#     4  12  24  48  71  95 128 173 230 293 338 392
#
# _framework density 27.177683999999999
#
# number of rings (size 3 to 8) (size 9 to 14) (size 15 to 20)
#    1.000    0.333    5.000    0.500    0.000    4.000 
#    0.000    0.000    0.000    6.000    0.000    0.000 
#    0.000    0.000    0.000    0.000    0.000    0.000 
#
# Total GULP energy -67005.376693 kJ/mol
# GULP energy per Si atom -5583.781391 kJ/mol
# Density = 2.711583 g / cm^3
# Si number density = 27.177684 Si / 1000 Ang^3
#
#
#
# Elastic Constant Matrix: (Units=GPa)
#
#
# Indices 1 2 3 4 5 6 
#
# 1 194.3902 42.7913 62.0700 9.2756 -33.3608 2.7857
# 2 42.7913 131.9379 40.6268 46.7575 23.3624 22.0675
# 3 62.0700 40.6268 122.1454 4.2613 -31.5148 -4.8636
# 4 9.2756 46.7575 4.2613 65.5839 -3.3285 16.5733
# 5 -33.3608 23.3624 -31.5148 -3.3285 54.6589 7.8763
# 6 2.7857 22.0675 -4.8636 16.5733 7.8763 60.2733
#
#
#
# Elastic Compliance Matrix: (Units=1/GPa)
#
#
# Indices 1 2 3 4 5 6 
#
# 1 0.007123 -0.003548 -0.001134 0.001961 0.005382 -0.000364
# 2 -0.003548 0.018645 -0.007962 -0.012577 -0.015223 -0.001857
# 3 -0.001134 -0.007962 0.014115 0.005160 0.010983 0.001252
# 4 0.001961 -0.012577 0.005160 0.025067 0.011575 -0.003475
# 5 0.005382 -0.015223 0.010983 0.011575 0.035354 -0.001592
# 6 -0.000364 -0.001857 0.001252 -0.003475 -0.001592 0.018552
#
#
# Mechanical properties :
#
#
# Convention : Reuss Voigt Hill
#
# Bulk Modulus (GPa) = 68.51244 82.16106 75.33675
# Shear Modulus (GPa) = 33.55539 56.30224 44.92881
#
# Velocity S-wave (km/s) = 3.51759 4.55646 4.07031
# Velocity P-wave (km/s) = 6.46233 7.61436 7.06188
#
# Compressibility (1/GPa) = 0.01459589
#
# Stress axis : x y z
#
# Youngs Moduli (GPa) = 140.39816 53.63353 70.84831
#
# Poissons Ratio (x) = 0.19029 0.08032
# Poissons Ratio (y) = 0.49814 0.56406
# Poissons Ratio (z) = 0.15916 0.42700
#
# Static dielectric constant tensor:
#      x y z
#    x 2.073140 0.063330 0.064530 
#    y 0.063330 2.178150 0.001140 
#    z 0.064530 0.001140 2.242680 
# 
# From -- ./inp_files/478663.got.cif
#   From: 2010.05.17/outbox.cif.g08.bks.cpg/sg2_240_cif.got.tgz:478663.got - 2010.06.03 11:33:40.
