data_PCOD9039039
_publ_section_title
;
Structure prediction by ZEFSAII (Michael W. Deem and Ramdas Pophale) SiO2 
 PCOD9039039
Probable space group: P -1
;
_chemical_formula_sum "Si O2"
_cell_formula_units_Z 14
_cell_length_a 14.833244
_cell_length_b 21.252605
_cell_length_c 12.786208
_cell_angle_alpha 26.445821
_cell_angle_beta 149.475919
_cell_angle_gamma 160.648542
_cell_volume 591.038044
_symmetry_space_group_name_H-M "P -1"
_symmetry_group_IT_number 2
_symmetry_cell_setting 'triclinic'
loop_
_space_group_symop_operation_xyz
x,y,z
-x,-y,-z
loop_
_atom_site_type_symbol
_atom_site_label
_atom_site_fract_x
_atom_site_fract_y
_atom_site_fract_z
Si Si1 0.695573 0.012042 0.400232
Si Si2 0.882639 0.425271 0.624944
Si Si3 0.648462 0.942604 0.704756
Si Si4 0.335208 0.483879 0.029676
Si Si5 0.956431 0.017456 0.294569
Si Si6 0.070399 0.233253 0.868408
Si Si7 0.397529 0.808134 0.108102
O O1 0.402639 0.775434 0.419888
O O2 0.712528 0.993143 0.569084
O O3 0.924550 0.064883 0.485800
O O4 0.702523 0.177351 0.119616
O O5 0.998237 0.643573 0.380927
O O6 0.821739 0.397634 0.729870
O O7 0.098276 0.431848 0.815274
O O8 0.465430 0.691135 0.919361
O O9 0.500000 0.000000 0.500000
O O10 0.915315 0.089352 0.824191
O O11 0.163382 0.236235 0.248739
O O12 0.604062 0.591928 0.077835
O O13 0.973838 0.096645 0.078394
O O14 0.650241 0.859402 0.261533
O O15 0.500000 0.000000 0.000000
#
# Coordination Sequence:
#
# PCOD9039039 Si02
#       7
#     2   2   2   2   2   2   2
#     4  11  23  42  66  98 131 167 222 262 328 384
#     4  11  24  43  68  98 132 170 219 270 326 383
#     4  12  25  41  65  97 137 176 207 273 329 388
#     4  12  23  40  66 100 131 166 214 273 327 377
#     4  12  23  40  73  99 129 172 214 278 325 381
#     4  12  25  42  65 100 134 169 220 265 329 388
#     4  10  23  42  65  98 133 171 213 273 325 387
#
# _framework density 23.687138999999998
#
# number of rings (size 3 to 8) (size 9 to 14) (size 15 to 20)
#    0.000    0.571    7.143    2.571    0.000    4.571 
#    0.000    0.714    0.000    1.714    0.000    0.000 
#    0.000    0.000    0.000    0.000    0.000    0.000 
#
# Total GULP energy -78239.636200 kJ/mol
# GULP energy per Si atom -5588.545443 kJ/mol
# Density = 2.363323 g / cm^3
# Si number density = 23.687139 Si / 1000 Ang^3
#
#
#
# Elastic Constant Matrix: (Units=GPa)
#
#
# Indices 1 2 3 4 5 6 
#
# 1 108.0336 33.9272 45.6873 23.8092 9.6185 12.1459
# 2 33.9272 68.6405 16.6905 30.9090 -7.7874 1.0687
# 3 45.6873 16.6905 102.8635 24.3110 4.7644 10.2265
# 4 23.8092 30.9090 24.3110 32.2437 1.7392 6.2328
# 5 9.6185 -7.7874 4.7644 1.7392 64.6445 7.9278
# 6 12.1459 1.0687 10.2265 6.2328 7.9278 33.1207
#
#
#
# Elastic Compliance Matrix: (Units=1/GPa)
#
#
# Indices 1 2 3 4 5 6 
#
# 1 0.013555 -0.005469 -0.004613 -0.000646 -0.001978 -0.002775
# 2 -0.005469 0.029379 0.003645 -0.027908 0.004326 0.004148
# 3 -0.004613 0.003645 0.013663 -0.010255 0.000497 -0.000834
# 4 -0.000646 -0.027908 -0.010255 0.067629 -0.003396 -0.007610
# 5 -0.001978 0.004326 0.000497 -0.003396 0.016698 -0.002925
# 6 -0.002775 0.004148 -0.000834 -0.007610 -0.002925 0.033466
#
#
# Mechanical properties :
#
#
# Convention : Reuss Voigt Hill
#
# Bulk Modulus (GPa) = 22.87138 52.46084 37.66611
# Shear Modulus (GPa) = 24.77240 38.21730 31.49485
#
# Velocity S-wave (km/s) = 3.23742 4.02110 3.65035
# Velocity P-wave (km/s) = 4.86324 6.61471 5.80541
#
# Compressibility (1/GPa) = 0.04372277
#
# Stress axis : x y z
#
# Youngs Moduli (GPa) = 73.77336 34.03841 73.19253
#
# Poissons Ratio (x) = 0.18614 0.33764
# Poissons Ratio (y) = 0.40344 -0.26679
# Poissons Ratio (z) = 0.34032 -0.12407
#
# Static dielectric constant tensor:
#      x y z
#    x 1.909970 -0.020280 -0.029420 
#    y -0.020280 1.919680 -0.043370 
#    z -0.029420 -0.043370 1.956200 
# 
# From -- ./inp_files/260996.got.cif
#   From: 2010.05.17/outbox.cif.g08.bks.cpg/sg2_131_cif.got.tgz:260996.got - 2010.06.03 11:33:40.
