data_PCOD9039510
_publ_section_title
;
Structure prediction by ZEFSAII (Michael W. Deem and Ramdas Pophale) SiO2 
 PCOD9039510
Probable space group: P -1
;
_chemical_formula_sum "Si O2"
_cell_formula_units_Z 16
_cell_length_a 11.319351
_cell_length_b 9.097924
_cell_length_c 17.029423
_cell_angle_alpha 86.418123
_cell_angle_beta 58.220791
_cell_angle_gamma 39.503026
_cell_volume 731.878663
_symmetry_space_group_name_H-M "P -1"
_symmetry_group_IT_number 2
_symmetry_cell_setting 'triclinic'
loop_
_space_group_symop_operation_xyz
x,y,z
-x,-y,-z
loop_
_atom_site_type_symbol
_atom_site_label
_atom_site_fract_x
_atom_site_fract_y
_atom_site_fract_z
Si Si1 0.949610 0.610354 0.426927
Si Si2 0.060572 0.291067 0.832829
Si Si3 0.400969 0.126961 0.942038
Si Si4 0.715485 0.367024 0.864936
Si Si5 0.790761 0.916103 0.694450
Si Si6 0.487526 0.766933 0.810989
Si Si7 0.576787 0.771293 0.347216
Si Si8 0.799564 0.273051 0.363970
O O1 0.000000 0.500000 0.500000
O O2 0.997557 0.419550 0.366819
O O3 0.202396 0.484954 0.321923
O O4 0.658408 0.964671 0.515664
O O5 0.227259 0.266500 0.731264
O O6 0.840891 0.404941 0.853111
O O7 0.273287 0.978227 0.807330
O O8 0.901344 0.521871 0.950799
O O9 0.594993 0.069452 0.833404
O O10 0.412522 0.970791 0.889732
O O11 0.500000 0.000000 0.000000
O O12 0.515457 0.590600 0.853687
O O13 0.500000 0.500000 0.000000
O O14 0.995729 0.020454 0.750240
O O15 0.989978 0.871913 0.634692
O O16 0.593495 0.094116 0.680392
O O17 0.729870 0.481317 0.328669
O O18 0.500000 0.500000 0.500000
#
# Coordination Sequence:
#
# PCOD9039510 Si02
#       8
#     2   2   2   2   2   2   2   2
#     4   9  18  40  66 107 132 158 219 301 344 377
#     4  12  24  41  77 102 126 178 241 282 338 408
#     4  11  20  39  67 106 134 165 217 304 340 385
#     4  12  30  48  64  98 150 191 223 279 351 423
#     4  10  23  42  68  99 138 172 223 288 349 389
#     4  11  23  42  71 100 134 177 229 285 348 401
#     4  11  24  42  75 104 131 173 236 294 337 405
#     4  12  29  46  67 103 143 192 229 272 354 432
#
# _framework density 21.861547000000002
#
# number of rings (size 3 to 8) (size 9 to 14) (size 15 to 20)
#    0.000    1.000    5.000    2.625    5.250    2.500 
#    0.000    0.000    0.000    0.000    0.000    0.000 
#    0.000    0.000    0.000    0.000    0.000    0.000 
#
# Total GULP energy -89364.398315 kJ/mol
# GULP energy per Si atom -5585.274895 kJ/mol
# Density = 2.181179 g / cm^3
# Si number density = 21.861547 Si / 1000 Ang^3
#
#
#
# Elastic Constant Matrix: (Units=GPa)
#
#
# Indices 1 2 3 4 5 6 
#
# 1 52.3050 20.7814 -3.5593 3.2586 -11.5039 -22.3868
# 2 20.7814 135.2625 50.7241 0.8503 -3.8690 5.5075
# 3 -3.5593 50.7241 121.0897 18.7494 4.2280 -4.6264
# 4 3.2586 0.8503 18.7494 40.8519 1.6249 12.3170
# 5 -11.5039 -3.8690 4.2280 1.6249 16.3810 4.6500
# 6 -22.3868 5.5075 -4.6264 12.3170 4.6500 16.2724
#
#
#
# Elastic Compliance Matrix: (Units=1/GPa)
#
#
# Indices 1 2 3 4 5 6 
#
# 1 -0.066238 0.028065 -0.030618 0.067456 0.007458 -0.162521
# 2 0.028065 -0.001734 0.007211 -0.023056 0.003333 0.057747
# 3 -0.030618 0.007211 -0.000973 0.020777 -0.004805 -0.059194
# 4 0.067456 -0.023056 0.020777 -0.028400 0.003312 0.127064
# 5 0.007458 0.003333 -0.004805 0.003312 0.072360 -0.015419
# 6 -0.162521 0.057747 -0.059194 0.127064 -0.015419 -0.290281
#
#
# Mechanical properties :
#
#
# Convention : Reuss Voigt Hill
#
# Bulk Modulus (GPa) = -16.77054 49.39440 16.31193
# Shear Modulus (GPa) = -14.51549 30.74845 8.11648
#
# Velocity S-wave (km/s) = -2.57956 3.75441 1.92892
# Velocity P-wave (km/s) = 4.06941 6.43719 3.52685
#
# Compressibility (1/GPa) = -0.05962836
#
# Stress axis : x y z
#
# Youngs Moduli (GPa) = -15.09716 -576.65437 -1027.30501
#
# Poissons Ratio (x) = 16.18392 -31.45411
# Poissons Ratio (y) = 0.42370 7.40819
# Poissons Ratio (z) = -0.46225 4.15842
#
# Static dielectric constant tensor:
#      x y z
#    x 1.831830 -0.017220 0.016080 
#    y -0.017220 1.830640 0.019410 
#    z 0.016080 0.019410 1.812200 
# 
# From -- ./inp_files/566719.got.cif
#   From: 2010.05.17/outbox.cif.g08.bks.cpg/sg2_284_cif.got.tgz:566719.got - 2010.06.03 11:33:40.
