data_PCOD9039109
_publ_section_title
;
Structure prediction by ZEFSAII (Michael W. Deem and Ramdas Pophale) SiO2 
 PCOD9039109
Probable space group: P -1
;
_chemical_formula_sum "Si O2"
_cell_formula_units_Z 12
_cell_length_a 7.889520
_cell_length_b 10.834199
_cell_length_c 20.440057
_cell_angle_alpha 147.307435
_cell_angle_beta 145.738811
_cell_angle_gamma 38.261333
_cell_volume 507.653135
_symmetry_space_group_name_H-M "P -1"
_symmetry_group_IT_number 2
_symmetry_cell_setting 'triclinic'
loop_
_space_group_symop_operation_xyz
x,y,z
-x,-y,-z
loop_
_atom_site_type_symbol
_atom_site_label
_atom_site_fract_x
_atom_site_fract_y
_atom_site_fract_z
Si Si1 0.224291 0.018317 0.482435
Si Si2 0.379941 0.823287 0.160339
Si Si3 0.172230 0.234930 0.831684
Si Si4 0.368089 0.740201 0.523849
Si Si5 0.686926 0.087949 0.042292
Si Si6 0.453752 0.602889 0.228406
O O1 0.432393 0.190951 0.606693
O O2 0.001138 0.180314 0.539893
O O3 0.386872 0.772678 0.465272
O O4 0.973141 0.973887 0.331887
O O5 0.664969 0.681842 0.141187
O O6 0.373216 0.695908 0.170341
O O7 0.464637 0.068454 0.311455
O O8 0.028355 0.906953 0.056781
O O9 0.454366 0.138450 0.929052
O O10 0.865659 0.414729 0.847147
O O11 0.500000 0.500000 0.500000
O O12 0.706302 0.345495 0.189036
O O13 0.500000 0.000000 0.000000
#
# Coordination Sequence:
#
# PCOD9039109 Si02
#       6
#     2   2   2   2   2   2
#     4   9  20  38  63  95 125 163 210 259 315 376
#     4  10  23  42  66  94 126 170 214 261 318 377
#     4  11  23  43  67  97 129 164 216 263 314 385
#     4   9  17  36  63  94 129 162 204 261 318 373
#     4  12  25  45  65  91 133 173 212 265 319 374
#     4  11  23  45  67  91 132 169 208 267 321 373
#
# _framework density 23.638186999999999
#
# number of rings (size 3 to 8) (size 9 to 14) (size 15 to 20)
#    0.000    1.667    1.667    3.500    0.000    0.667 
#    9.000    0.833    0.000    0.000    0.000    0.000 
#    0.000    0.000    0.000    0.000    0.000    0.000 
#
# Total GULP energy -67004.328672 kJ/mol
# GULP energy per Si atom -5583.694056 kJ/mol
# Density = 2.358439 g / cm^3
# Si number density = 23.638187 Si / 1000 Ang^3
#
#
#
# Elastic Constant Matrix: (Units=GPa)
#
#
# Indices 1 2 3 4 5 6 
#
# 1 83.1064 15.9870 21.8906 8.0410 13.1886 -27.2558
# 2 15.9870 95.1779 18.2864 9.4306 13.4854 -4.2677
# 3 21.8906 18.2864 117.6484 -3.8399 17.3817 10.0576
# 4 8.0410 9.4306 -3.8399 34.3786 4.3317 17.1556
# 5 13.1886 13.4854 17.3817 4.3317 36.2937 -10.7714
# 6 -27.2558 -4.2677 10.0576 17.1556 -10.7714 35.5833
#
#
#
# Elastic Compliance Matrix: (Units=1/GPa)
#
#
# Indices 1 2 3 4 5 6 
#
# 1 0.035154 0.001215 -0.014902 -0.039447 0.014885 0.054809
# 2 0.001215 0.011895 -0.002671 -0.006754 -0.000973 0.006074
# 3 -0.014902 -0.002671 0.017453 0.024407 -0.014616 -0.032860
# 4 -0.039447 -0.006754 0.024407 0.093705 -0.033721 -0.093309
# 5 0.014885 -0.000973 -0.014616 -0.033721 0.047168 0.045953
# 6 0.054809 0.006074 -0.032860 -0.093309 0.045953 0.138999
#
#
# Mechanical properties :
#
#
# Convention : Reuss Voigt Hill
#
# Bulk Modulus (GPa) = 31.45952 45.36229 38.41091
# Shear Modulus (GPa) = 12.89703 37.23572 25.06638
#
# Velocity S-wave (km/s) = 2.33835 3.97323 3.25994
# Velocity P-wave (km/s) = 4.54182 6.34670 5.51855
#
# Compressibility (1/GPa) = 0.03178688
#
# Stress axis : x y z
#
# Youngs Moduli (GPa) = 28.44611 84.06765 57.29650
#
# Poissons Ratio (x) = -0.10218 0.85385
# Poissons Ratio (y) = -0.03457 0.15304
# Poissons Ratio (z) = 0.42391 0.22454
#
# Static dielectric constant tensor:
#      x y z
#    x 2.034520 -0.001170 -0.076960 
#    y -0.001170 1.889510 0.023750 
#    z -0.076960 0.023750 1.958920 
# 
# From -- ./inp_files/26607.got.cif
#   From: 2010.05.17/outbox.cif.g08.bks.cpg/sg2_14_cif.got.tgz:26607.got - 2010.06.03 11:33:40.
