data_PCOD9039031
_publ_section_title
;
Structure prediction by ZEFSAII (Michael W. Deem and Ramdas Pophale) SiO2 
 PCOD9039031
Probable space group: P -1
;
_chemical_formula_sum "Si O2"
_cell_formula_units_Z 16
_cell_length_a 8.286697
_cell_length_b 11.471574
_cell_length_c 11.057516
_cell_angle_alpha 118.663124
_cell_angle_beta 130.567822
_cell_angle_gamma 85.245659
_cell_volume 657.965398
_symmetry_space_group_name_H-M "P -1"
_symmetry_group_IT_number 2
_symmetry_cell_setting 'triclinic'
loop_
_space_group_symop_operation_xyz
x,y,z
-x,-y,-z
loop_
_atom_site_type_symbol
_atom_site_label
_atom_site_fract_x
_atom_site_fract_y
_atom_site_fract_z
Si Si1 0.827078 0.649303 0.777814
Si Si2 0.160017 0.420260 0.983640
Si Si3 0.956785 0.388179 0.622113
Si Si4 0.399978 0.346454 0.760051
Si Si5 0.204393 0.102325 0.730478
Si Si6 0.555652 0.115983 0.266122
Si Si7 0.062325 0.086825 0.915635
Si Si8 0.361299 0.191882 0.419092
O O1 0.735847 0.607637 0.849906
O O2 0.915864 0.535212 0.701068
O O3 0.658646 0.686361 0.621351
O O4 0.009326 0.803545 0.980693
O O5 0.372726 0.520675 0.061165
O O6 0.000000 0.500000 0.000000
O O7 0.001004 0.337832 0.753269
O O8 0.741823 0.267329 0.399802
O O9 0.179534 0.392792 0.659219
O O10 0.349678 0.239325 0.794899
O O11 0.428164 0.257172 0.613927
O O12 0.105517 0.137507 0.824248
O O13 0.356431 0.007937 0.789758
O O14 0.000000 0.000000 0.500000
O O15 0.525355 0.122810 0.399941
O O16 0.306090 0.091569 0.083633
O O17 0.880495 0.931939 0.751670
#
# Coordination Sequence:
#
# PCOD9039031 Si02
#       8
#     2   2   2   2   2   2   2   2
#     4  10  23  42  69  92 142 183 223 283 346 393
#     4  10  23  42  65  97 134 178 233 282 332 408
#     4  11  23  43  66 101 139 183 233 277 343 414
#     4  12  25  43  70 101 138 182 233 286 339 417
#     4  12  24  47  74 100 141 180 225 293 357 401
#     4  11  24  42  72 101 139 183 231 286 344 411
#     4  11  24  46  71 105 138 178 239 286 342 417
#     4  11  24  44  68 103 137 180 240 285 341 416
#
# _framework density 24.317387
#
# number of rings (size 3 to 8) (size 9 to 14) (size 15 to 20)
#    0.000    1.000    2.500    4.500    0.000    9.500 
#    0.000    2.500    0.000    0.000    0.000    0.000 
#    0.000    0.000    0.000    0.000    0.000    0.000 
#
# Total GULP energy -89376.287312 kJ/mol
# GULP energy per Si atom -5586.017957 kJ/mol
# Density = 2.426204 g / cm^3
# Si number density = 24.317387 Si / 1000 Ang^3
#
#
#
# Elastic Constant Matrix: (Units=GPa)
#
#
# Indices 1 2 3 4 5 6 
#
# 1 54.5560 -10.8201 -14.1869 0.7611 -0.5497 1.8040
# 2 -10.8201 81.6175 -7.2807 3.9122 2.3001 4.6401
# 3 -14.1869 -7.2807 84.6762 17.2652 16.8535 6.0196
# 4 0.7611 3.9122 17.2652 17.8876 2.1906 -11.8182
# 5 -0.5497 2.3001 16.8535 2.1906 52.9077 3.3853
# 6 1.8040 4.6401 6.0196 -11.8182 3.3853 49.4579
#
#
#
# Elastic Compliance Matrix: (Units=1/GPa)
#
#
# Indices 1 2 3 4 5 6 
#
# 1 0.021253 0.004272 0.006840 -0.011324 -0.001379 -0.004620
# 2 0.004272 0.014029 0.004648 -0.010522 -0.001325 -0.004461
# 3 0.006840 0.004648 0.020371 -0.026401 -0.004943 -0.009135
# 4 -0.011324 -0.010522 -0.026401 0.103046 0.002624 0.029057
# 5 -0.001379 -0.001325 -0.004943 0.002624 0.020410 0.000006
# 6 -0.004620 -0.004461 -0.009135 0.029057 0.000006 0.028861
#
#
# Mechanical properties :
#
#
# Convention : Reuss Voigt Hill
#
# Bulk Modulus (GPa) = 11.47150 17.36381 14.41766
# Shear Modulus (GPa) = 24.33007 40.92646 32.62827
#
# Velocity S-wave (km/s) = 3.16653 4.10690 3.66699
# Velocity P-wave (km/s) = 4.25404 5.44471 4.88578
#
# Compressibility (1/GPa) = 0.08717258
#
# Stress axis : x y z
#
# Youngs Moduli (GPa) = 47.05315 71.28323 49.08820
#
# Poissons Ratio (x) = -0.30452 -0.33576
# Poissons Ratio (y) = -0.20101 -0.22817
# Poissons Ratio (z) = -0.32184 -0.33133
#
# Static dielectric constant tensor:
#      x y z
#    x 1.933390 -0.003130 -0.030510 
#    y -0.003130 2.222520 0.239620 
#    z -0.030510 0.239620 2.217130 
# 
# From -- ./inp_files/392349.got.cif
#   From: 2010.05.17/outbox.cif.g08.bks.cpg/sg2_197_cif.got.tgz:392349.got - 2010.06.03 11:33:40.
