data_PCOD9039169
_publ_section_title
;
Structure prediction by ZEFSAII (Michael W. Deem and Ramdas Pophale) SiO2 
 PCOD9039169
Probable space group: P -1
;
_chemical_formula_sum "Si O2"
_cell_formula_units_Z 15
_cell_length_a 9.002574
_cell_length_b 20.497406
_cell_length_c 8.780537
_cell_angle_alpha 33.997476
_cell_angle_beta 131.985320
_cell_angle_gamma 126.676493
_cell_volume 669.867899
_symmetry_space_group_name_H-M "P -1"
_symmetry_group_IT_number 2
_symmetry_cell_setting 'triclinic'
loop_
_space_group_symop_operation_xyz
x,y,z
-x,-y,-z
loop_
_atom_site_type_symbol
_atom_site_label
_atom_site_fract_x
_atom_site_fract_y
_atom_site_fract_z
Si Si1 0.491351 0.811990 0.571115
Si Si2 0.824984 0.223952 0.048158
Si Si3 0.436182 0.069501 0.093771
Si Si4 0.924004 0.189381 0.839327
Si Si5 0.000000 0.000000 0.000000
Si Si6 0.466200 0.581103 0.547771
Si Si7 0.259094 0.260191 0.382358
Si Si8 0.345513 0.334178 0.807663
O O1 0.499256 0.950937 0.293113
O O2 0.278387 0.761876 0.454600
O O3 0.668671 0.766297 0.684493
O O4 0.522490 0.766209 0.849221
O O5 0.645406 0.136563 0.163161
O O6 0.890327 0.172254 0.030307
O O7 0.724182 0.343716 0.713827
O O8 0.018673 0.246678 0.245032
O O9 0.346817 0.161524 0.738540
O O10 0.243709 0.032513 0.137297
O O11 0.945796 0.074245 0.974683
O O12 0.115955 0.280919 0.760675
O O13 0.625890 0.617555 0.719345
O O14 0.393320 0.446071 0.733478
O O15 0.586043 0.625320 0.391359
#
# Coordination Sequence:
#
# PCOD9039169 Si02
#       8
#     2   2   2   2   1   2   2   2
#     4  11  23  41  68  97 136 178 225 276 336 400
#     4  11  23  42  72 100 136 179 231 268 346 396
#     4  10  23  42  66  98 141 178 219 275 327 412
#     4  11  22  43  66 102 135 176 226 284 323 413
#     4  10  24  40  64  92 142 176 210 272 336 380
#     4  10  25  47  69  98 137 178 226 290 332 408
#     4  11  22  43  67 101 133 181 224 277 339 397
#     4  11  25  46  69  98 138 177 229 282 346 389
#
# _framework density 22.392474
#
# number of rings (size 3 to 8) (size 9 to 14) (size 15 to 20)
#    0.000    1.333    4.000    2.000    1.867    8.000 
#    0.000   11.333    0.000    0.000    0.000    0.000 
#    0.000    0.000    0.000    0.000    0.000    0.000 
#
# Total GULP energy -83571.533595 kJ/mol
# GULP energy per Si atom -5571.435573 kJ/mol
# Density = 2.234151 g / cm^3
# Si number density = 22.392474 Si / 1000 Ang^3
#
#
#
# Elastic Constant Matrix: (Units=GPa)
#
#
# Indices 1 2 3 4 5 6 
#
# 1 93.2474 59.5058 18.9412 -4.5244 10.0244 -6.6646
# 2 59.5058 152.4746 33.2533 -5.0326 21.7987 14.9092
# 3 18.9412 33.2533 42.1778 6.6758 9.9059 19.2318
# 4 -4.5244 -5.0326 6.6758 22.3962 3.3999 8.6547
# 5 10.0244 21.7987 9.9059 3.3999 1.5314 -8.3562
# 6 -6.6646 14.9092 19.2318 8.6547 -8.3562 34.7613
#
#
#
# Elastic Compliance Matrix: (Units=1/GPa)
#
#
# Indices 1 2 3 4 5 6 
#
# 1 0.015529 -0.004084 -0.003503 0.003468 -0.010002 0.003399
# 2 -0.004084 0.007611 -0.010217 -0.000537 0.015510 0.005467
# 3 -0.003503 -0.010217 0.027371 -0.016842 0.034642 0.001088
# 4 0.003468 -0.000537 -0.016842 0.044099 0.026350 0.005567
# 5 -0.010002 0.015510 0.034642 0.026350 -0.089735 -0.055868
# 6 0.003399 0.005467 0.001088 0.005567 -0.055868 0.011657
#
#
# Mechanical properties :
#
#
# Convention : Reuss Voigt Hill
#
# Bulk Modulus (GPa) = 67.10734 56.81117 61.95925
# Shear Modulus (GPa) = 87.55350 23.48439 55.51895
#
# Velocity S-wave (km/s) = 6.25974 3.24197 4.98472
# Velocity P-wave (km/s) = 9.07081 6.28009 7.80126
#
# Compressibility (1/GPa) = 0.01490150
#
# Stress axis : x y z
#
# Youngs Moduli (GPa) = 64.39707 131.39010 36.53460
#
# Poissons Ratio (x) = 0.53662 0.12800
# Poissons Ratio (y) = 0.26301 0.37328
# Poissons Ratio (z) = 0.22561 1.34242
#
# Static dielectric constant tensor:
#      x y z
#    x 1.809500 -0.019660 -0.015200 
#    y -0.019660 1.850570 0.010590 
#    z -0.015200 0.010590 1.827690 
# 
# From -- ./inp_files/220395.got.cif
#   From: 2010.05.17/outbox.cif.g08.bks.cpg/sg2_111_cif.got.tgz:220395.got - 2010.06.03 11:33:40.
