data_PCOD9039568
_publ_section_title
;
Structure prediction by ZEFSAII (Michael W. Deem and Ramdas Pophale) SiO2 
 PCOD9039568
Probable space group: P -1
;
_chemical_formula_sum "Si O2"
_cell_formula_units_Z 14
_cell_length_a 19.235982
_cell_length_b 12.137611
_cell_length_c 5.267827
_cell_angle_alpha 106.396653
_cell_angle_beta 73.977473
_cell_angle_gamma 153.255298
_cell_volume 530.160063
_symmetry_space_group_name_H-M "P -1"
_symmetry_group_IT_number 2
_symmetry_cell_setting 'triclinic'
loop_
_space_group_symop_operation_xyz
x,y,z
-x,-y,-z
loop_
_atom_site_type_symbol
_atom_site_label
_atom_site_fract_x
_atom_site_fract_y
_atom_site_fract_z
Si Si1 0.098572 0.923630 0.169103
Si Si2 0.617683 0.234700 0.839721
Si Si3 0.864401 0.759557 0.167195
Si Si4 0.349404 0.350915 0.821748
Si Si5 0.650150 0.854361 0.678647
Si Si6 0.365256 0.969166 0.546179
Si Si7 0.061855 0.647929 0.786248
O O1 0.177975 0.945840 0.294771
O O2 0.034525 0.745567 0.902387
O O3 0.964658 0.825268 0.310029
O O4 0.243883 0.192271 0.071268
O O5 0.741606 0.494948 0.004842
O O6 0.515903 0.158719 0.683690
O O7 0.697839 0.244239 0.607093
O O8 0.500000 0.000000 0.000000
O O9 0.754112 0.713614 0.304148
O O10 0.000000 0.000000 0.000000
O O11 0.517021 0.640389 0.875517
O O12 0.380507 0.272849 0.610977
O O13 0.620737 0.940397 0.668607
O O14 0.243055 0.872979 0.758121
O O15 0.000000 0.500000 0.500000
O O16 0.000000 0.500000 0.000000
#
# Coordination Sequence:
#
# PCOD9039568 Si02
#       7
#     2   2   2   2   2   2   2
#     4  11  24  43  70 104 144 194 251 312 381 457
#     4  11  26  48  77 106 150 196 259 318 392 468
#     4  10  24  45  70 102 146 198 245 317 384 468
#     4  10  23  42  69 103 147 193 254 307 382 461
#     4  11  23  43  72 109 143 192 251 318 384 458
#     4  11  26  46  73 111 145 200 254 324 388 466
#     4  12  27  45  74 109 153 199 254 325 390 465
#
# _framework density 26.407122000000001
#
# number of rings (size 3 to 8) (size 9 to 14) (size 15 to 20)
#    0.000    1.143    1.429    3.000    8.000    5.143 
#    0.000    0.000    0.000    0.000    0.000    0.000 
#    0.000    0.000    0.000    0.000    0.000    0.000 
#
# Total GULP energy -78326.372041 kJ/mol
# GULP energy per Si atom -5594.740860 kJ/mol
# Density = 2.634702 g / cm^3
# Si number density = 26.407122 Si / 1000 Ang^3
#
#
#
# Elastic Constant Matrix: (Units=GPa)
#
#
# Indices 1 2 3 4 5 6 
#
# 1 195.6067 42.0070 21.0634 16.9895 4.3763 13.9286
# 2 42.0070 133.5085 25.1829 9.0888 16.6918 -7.3579
# 3 21.0634 25.1829 68.3146 7.4184 10.4443 -9.2687
# 4 16.9895 9.0888 7.4184 28.9548 6.7211 4.9447
# 5 4.3763 16.6918 10.4443 6.7211 53.5038 8.3173
# 6 13.9286 -7.3579 -9.2687 4.9447 8.3173 42.6571
#
#
#
# Elastic Compliance Matrix: (Units=1/GPa)
#
#
# Indices 1 2 3 4 5 6 
#
# 1 0.006001 -0.001714 -0.001448 -0.002424 0.001018 -0.002488
# 2 -0.001714 0.008907 -0.001946 -0.001107 -0.002475 0.002284
# 3 -0.001448 -0.001946 0.017252 -0.003086 -0.003005 0.004829
# 4 -0.002424 -0.001107 -0.003086 0.038482 -0.003077 -0.003931
# 5 0.001018 -0.002475 -0.003005 -0.003077 0.021158 -0.005181
# 6 -0.002488 0.002284 0.004829 -0.003931 -0.005181 0.027164
#
#
# Mechanical properties :
#
#
# Convention : Reuss Voigt Hill
#
# Bulk Modulus (GPa) = 45.57402 63.77071 54.67236
# Shear Modulus (GPa) = 36.63074 45.63491 41.13282
#
# Velocity S-wave (km/s) = 3.72849 4.16159 3.95098
# Velocity P-wave (km/s) = 5.98592 6.87701 6.44688
#
# Compressibility (1/GPa) = 0.02194233
#
# Stress axis : x y z
#
# Youngs Moduli (GPa) = 166.63085 112.26658 57.96401
#
# Poissons Ratio (x) = 0.19247 0.08395
# Poissons Ratio (y) = 0.28567 0.11283
# Poissons Ratio (z) = 0.24134 0.21852
#
# Static dielectric constant tensor:
#      x y z
#    x 2.057840 0.033510 -0.031450 
#    y 0.033510 1.991970 0.271580 
#    z -0.031450 0.271580 1.771370 
# 
# From -- ./inp_files/109781.got.cif
#   From: 2010.05.17/outbox.cif.g08.bks.cpg/sg2_55_cif.got.tgz:109781.got - 2010.06.03 11:33:40.
