data_PCOD9039803
_publ_section_title
;
Structure prediction by ZEFSAII (Michael W. Deem and Ramdas Pophale) SiO2 
 PCOD9039803
Probable space group: P -1
;
_chemical_formula_sum "Si O2"
_cell_formula_units_Z 16
_cell_length_a 10.705314
_cell_length_b 12.472200
_cell_length_c 9.108989
_cell_angle_alpha 82.771561
_cell_angle_beta 96.776517
_cell_angle_gamma 34.545782
_cell_volume 628.856591
_symmetry_space_group_name_H-M "P -1"
_symmetry_group_IT_number 2
_symmetry_cell_setting 'triclinic'
loop_
_space_group_symop_operation_xyz
x,y,z
-x,-y,-z
loop_
_atom_site_type_symbol
_atom_site_label
_atom_site_fract_x
_atom_site_fract_y
_atom_site_fract_z
Si Si1 0.634418 0.319482 0.303859
Si Si2 0.729420 0.558626 0.953533
Si Si3 0.479428 0.089018 0.307697
Si Si4 0.217270 0.399725 0.469436
Si Si5 0.856650 0.113019 0.673046
Si Si6 0.947270 0.798409 0.268260
Si Si7 0.715570 0.895632 0.948800
Si Si8 0.537452 0.644228 0.233288
O O1 0.423402 0.416665 0.167125
O O2 0.687661 0.225188 0.485692
O O3 0.591584 0.477604 0.286679
O O4 0.883126 0.123578 0.284755
O O5 0.654745 0.729935 0.853286
O O6 0.638310 0.609466 0.098637
O O7 0.015199 0.338583 0.020192
O O8 0.369080 0.204457 0.426950
O O9 0.416749 0.017903 0.241904
O O10 0.756858 0.917139 0.352637
O O11 0.341094 0.376140 0.618829
O O12 0.000000 0.500000 0.500000
O O13 0.098433 0.578017 0.317679
O O14 0.741658 0.145765 0.795921
O O15 0.893826 0.214164 0.678223
O O16 0.800207 0.922534 0.075974
O O17 0.500000 0.000000 0.000000
#
# Coordination Sequence:
#
# PCOD9039803 Si02
#       8
#     2   2   2   2   2   2   2   2
#     4  11  24  45  72  99 142 192 235 291 348 419
#     4  12  23  44  70 101 146 185 230 293 358 415
#     4  11  24  46  73  98 136 191 236 286 350 423
#     4  12  27  45  70 102 141 184 236 295 350 415
#     4  11  24  45  72 106 139 186 245 284 350 417
#     4  11  23  44  76 101 136 184 242 287 348 420
#     4  10  23  42  71 103 131 186 238 287 345 422
#     4  12  27  41  69 109 145 186 230 295 352 417
#
# _framework density 25.443004999999999
#
# number of rings (size 3 to 8) (size 9 to 14) (size 15 to 20)
#    0.000    0.750    3.750    3.375    3.500    1.000 
#    4.500    0.000    0.000    0.000    0.000    0.000 
#    0.000    0.000    0.000    0.000    0.000    0.000 
#
# Total GULP energy -89493.048758 kJ/mol
# GULP energy per Si atom -5593.315547 kJ/mol
# Density = 2.538510 g / cm^3
# Si number density = 25.443005 Si / 1000 Ang^3
#
#
#
# Elastic Constant Matrix: (Units=GPa)
#
#
# Indices 1 2 3 4 5 6 
#
# 1 88.7944 41.2085 70.6952 2.1145 22.4373 -18.8140
# 2 41.2085 144.7127 52.9059 25.3035 -20.4423 -29.4333
# 3 70.6952 52.9059 154.8774 34.1382 9.8627 -22.3509
# 4 2.1145 25.3035 34.1382 42.1184 1.2151 -0.0557
# 5 22.4373 -20.4423 9.8627 1.2151 34.5837 4.0480
# 6 -18.8140 -29.4333 -22.3509 -0.0557 4.0480 48.4069
#
#
#
# Elastic Compliance Matrix: (Units=1/GPa)
#
#
# Indices 1 2 3 4 5 6 
#
# 1 0.032656 -0.010242 -0.012952 0.015718 -0.024397 0.002543
# 2 -0.010242 0.013625 0.001795 -0.009526 0.014059 0.003946
# 3 -0.012952 0.001795 0.014437 -0.012285 0.005515 0.002248
# 4 0.015718 -0.009526 -0.012285 0.039009 -0.013203 -0.004207
# 5 -0.024397 0.014059 0.005515 -0.013203 0.052270 -0.002773
# 6 0.002543 0.003946 0.002248 -0.004207 -0.002773 0.025311
#
#
# Mechanical properties :
#
#
# Convention : Reuss Voigt Hill
#
# Bulk Modulus (GPa) = 55.80299 79.77817 67.79058
# Shear Modulus (GPa) = 22.11624 39.92678 31.02151
#
# Velocity S-wave (km/s) = 2.95150 3.96569 3.49557
# Velocity P-wave (km/s) = 5.79614 7.23828 6.55698
#
# Compressibility (1/GPa) = 0.01792019
#
# Stress axis : x y z
#
# Youngs Moduli (GPa) = 30.62233 73.39548 69.26763
#
# Poissons Ratio (x) = 0.75169 0.89713
# Poissons Ratio (y) = 0.31362 -0.12430
# Poissons Ratio (z) = 0.39661 -0.13171
#
# Static dielectric constant tensor:
#      x y z
#    x 2.054900 0.086110 -0.042170 
#    y 0.086110 2.050500 -0.003390 
#    z -0.042170 -0.003390 2.022480 
# 
# From -- ./inp_files/273175.got.cif
#   From: 2010.05.17/outbox.cif.g08.bks.cpg/sg2_137_cif.got.tgz:273175.got - 2010.06.03 11:33:40.
