data_PCOD9039922
_publ_section_title
;
Structure prediction by ZEFSAII (Michael W. Deem and Ramdas Pophale) SiO2 
 PCOD9039922
Probable space group: P -1
;
_chemical_formula_sum "Si O2"
_cell_formula_units_Z 16
_cell_length_a 8.124464
_cell_length_b 9.760181
_cell_length_c 11.960051
_cell_angle_alpha 117.522479
_cell_angle_beta 75.165632
_cell_angle_gamma 117.164653
_cell_volume 747.066504
_symmetry_space_group_name_H-M "P -1"
_symmetry_group_IT_number 2
_symmetry_cell_setting 'triclinic'
loop_
_space_group_symop_operation_xyz
x,y,z
-x,-y,-z
loop_
_atom_site_type_symbol
_atom_site_label
_atom_site_fract_x
_atom_site_fract_y
_atom_site_fract_z
Si Si1 0.847736 0.477229 0.245779
Si Si2 0.553990 0.691652 0.094598
Si Si3 0.315194 0.003056 0.478461
Si Si4 0.477378 0.811900 0.917734
Si Si5 0.807992 0.523682 0.520309
Si Si6 0.245810 0.642781 0.312585
Si Si7 0.124363 0.177352 0.744125
Si Si8 0.750238 0.862107 0.687193
O O1 0.725887 0.319458 0.132760
O O2 0.754175 0.463561 0.379927
O O3 0.861488 0.647504 0.246031
O O4 0.058873 0.499733 0.242171
O O5 0.407285 0.697589 0.214569
O O6 0.753876 0.777140 0.148168
O O7 0.500000 0.500000 0.000000
O O8 0.534970 0.769958 0.011535
O O9 0.214687 0.086921 0.608491
O O10 0.345023 0.100478 0.392811
O O11 0.500000 0.000000 0.500000
O O12 0.196318 0.804248 0.405913
O O13 0.613472 0.805950 0.793847
O O14 0.500000 0.000000 0.000000
O O15 0.690723 0.418303 0.606744
O O16 0.820893 0.713094 0.596920
O O17 0.000000 0.500000 0.500000
O O18 0.919054 0.040029 0.748626
#
# Coordination Sequence:
#
# PCOD9039922 Si02
#       8
#     2   2   2   2   2   2   2   2
#     4  11  24  46  73 101 144 183 231 291 362 427
#     4  12  26  46  68  98 138 187 250 282 339 415
#     4  12  24  42  75 110 146 182 226 289 366 441
#     4  12  30  46  68 103 140 190 249 299 339 411
#     4  10  23  42  72 111 142 173 230 293 366 428
#     4  11  24  44  72 107 141 186 230 292 360 427
#     4  12  24  44  76 103 138 188 230 289 360 431
#     4  12  26  47  73 106 148 183 237 295 360 422
#
# _framework density 21.417103999999998
#
# number of rings (size 3 to 8) (size 9 to 14) (size 15 to 20)
#    0.000    0.500    5.000    3.375    1.750    4.500 
#    0.000    0.000    0.000    0.000    0.000    0.000 
#    0.000    0.000    0.000    0.000    0.000    0.000 
#
# Total GULP energy -89514.348271 kJ/mol
# GULP energy per Si atom -5594.646767 kJ/mol
# Density = 2.136836 g / cm^3
# Si number density = 21.417104 Si / 1000 Ang^3
#
#
#
# Elastic Constant Matrix: (Units=GPa)
#
#
# Indices 1 2 3 4 5 6 
#
# 1 81.0022 38.8234 27.5685 -1.6248 29.8082 -2.3691
# 2 38.8234 132.2238 38.9020 -5.7127 22.2817 -32.2161
# 3 27.5685 38.9020 76.8617 3.8515 33.5927 -10.6965
# 4 -1.6248 -5.7127 3.8515 53.1651 -9.1770 1.0690
# 5 29.8082 22.2817 33.5927 -9.1770 44.8932 -0.8294
# 6 -2.3691 -32.2161 -10.6965 1.0690 -0.8294 42.7288
#
#
#
# Elastic Compliance Matrix: (Units=1/GPa)
#
#
# Indices 1 2 3 4 5 6 
#
# 1 0.018038 -0.004178 -0.000168 -0.001590 -0.010146 -0.002349
# 2 -0.004178 0.011744 -0.003360 0.001195 -0.000153 0.007749
# 3 -0.000168 -0.003360 0.022342 -0.004781 -0.015863 0.002862
# 4 -0.001590 0.001195 -0.004781 0.020675 0.008252 -0.000741
# 5 -0.010146 -0.000153 -0.015863 0.008252 0.042570 -0.004029
# 6 -0.002349 0.007749 0.002862 -0.000741 -0.004029 0.029772
#
#
# Mechanical properties :
#
#
# Convention : Reuss Voigt Hill
#
# Bulk Modulus (GPa) = 27.23980 55.63061 41.43520
# Shear Modulus (GPa) = 28.93673 40.47702 34.70687
#
# Velocity S-wave (km/s) = 3.67972 4.35206 4.02994
# Velocity P-wave (km/s) = 5.54979 7.16136 6.40645
#
# Compressibility (1/GPa) = 0.03671099
#
# Stress axis : x y z
#
# Youngs Moduli (GPa) = 55.43821 85.15258 44.75826
#
# Poissons Ratio (x) = 0.35579 0.00753
# Poissons Ratio (y) = 0.23163 0.15039
# Poissons Ratio (z) = 0.00933 0.28611
#
# Static dielectric constant tensor:
#      x y z
#    x 1.804850 0.042640 -0.007840 
#    y 0.042640 1.768150 -0.002670 
#    z -0.007840 -0.002670 1.763340 
# 
# From -- ./inp_files/383217.got.cif
#   From: 2010.05.17/outbox.cif.g08.bks.cpg/sg2_192_cif.got.tgz:383217.got - 2010.06.03 11:33:40.
