data_PCOD9039177
_publ_section_title
;
Structure prediction by ZEFSAII (Michael W. Deem and Ramdas Pophale) SiO2 
 PCOD9039177
Probable space group: P -1
;
_chemical_formula_sum "Si O2"
_cell_formula_units_Z 15
_cell_length_a 15.771746
_cell_length_b 12.516067
_cell_length_c 8.617898
_cell_angle_alpha 40.700300
_cell_angle_beta 42.281282
_cell_angle_gamma 55.089564
_cell_volume 746.080172
_symmetry_space_group_name_H-M "P -1"
_symmetry_group_IT_number 2
_symmetry_cell_setting 'triclinic'
loop_
_space_group_symop_operation_xyz
x,y,z
-x,-y,-z
loop_
_atom_site_type_symbol
_atom_site_label
_atom_site_fract_x
_atom_site_fract_y
_atom_site_fract_z
Si Si1 0.000000 0.500000 0.000000
Si Si2 0.295704 0.371487 0.202179
Si Si3 0.659069 0.254352 0.208449
Si Si4 0.452987 0.841151 0.832347
Si Si5 0.910176 0.069716 0.181416
Si Si6 0.947105 0.606515 0.306406
Si Si7 0.813103 0.766800 0.820052
Si Si8 0.572922 0.923997 0.130309
O O1 0.962417 0.512081 0.228653
O O2 0.103550 0.358109 0.056816
O O3 0.426023 0.271825 0.164524
O O4 0.195304 0.343575 0.506097
O O5 0.236605 0.312601 0.185437
O O6 0.316578 0.565655 0.959458
O O7 0.640480 0.253701 0.048647
O O8 0.773461 0.130152 0.234942
O O9 0.528261 0.190234 0.524027
O O10 0.500000 0.000000 0.500000
O O11 0.392197 0.923681 0.975247
O O12 0.888672 0.926185 0.490699
O O13 0.972831 0.229437 0.991405
O O14 0.000000 0.000000 0.000000
O O15 0.000000 0.500000 0.500000
O O16 0.693527 0.824675 0.018430
O O17 0.500000 0.000000 0.000000
#
# Coordination Sequence:
#
# PCOD9039177 Si02
#       8
#     1   2   2   2   2   2   2   2
#     4  12  28  46  68 108 142 192 242 294 352 424
#     4  12  23  46  69  96 142 187 228 291 364 417
#     4  11  24  41  69 104 133 183 238 282 363 426
#     4  10  23  42  66  99 132 177 230 286 344 421
#     4  12  23  43  76 101 137 195 235 286 365 427
#     4  12  25  48  72 101 146 186 233 299 350 424
#     4  12  25  46  71 102 144 187 240 295 357 423
#     4  11  22  44  68  98 137 176 227 294 346 419
#
# _framework density 20.105077999999999
#
# number of rings (size 3 to 8) (size 9 to 14) (size 15 to 20)
#    0.000    0.533    6.667    1.200    3.733    1.067 
#    2.400    0.000    0.000    0.000    0.000    0.000 
#    0.000    0.000    0.000    0.000    0.000    0.000 
#
# Total GULP energy -83605.442930 kJ/mol
# GULP energy per Si atom -5573.696195 kJ/mol
# Density = 2.005932 g / cm^3
# Si number density = 20.105078 Si / 1000 Ang^3
#
#
#
# Elastic Constant Matrix: (Units=GPa)
#
#
# Indices 1 2 3 4 5 6 
#
# 1 64.9994 52.4557 36.8905 1.2757 26.4389 -18.2781
# 2 52.4557 160.2109 50.4458 25.2162 7.8525 -18.7366
# 3 36.8905 50.4458 70.1861 15.8404 -4.5876 -1.5465
# 4 1.2757 25.2162 15.8404 40.3313 -1.2697 2.6008
# 5 26.4389 7.8525 -4.5876 -1.2697 33.2667 -2.0709
# 6 -18.2781 -18.7366 -1.5465 2.6008 -2.0709 54.5567
#
#
#
# Elastic Compliance Matrix: (Units=1/GPa)
#
#
# Indices 1 2 3 4 5 6 
#
# 1 0.075884 -0.009600 -0.040324 0.016340 -0.061869 0.017856
# 2 -0.009600 0.010394 -0.000782 -0.005785 0.004897 0.000793
# 3 -0.040324 -0.000782 0.040992 -0.012493 0.036747 -0.010626
# 4 0.016340 -0.005785 -0.012493 0.032349 -0.012038 0.001134
# 5 -0.061869 0.004897 0.036747 -0.012038 0.081792 -0.014326
# 6 0.017856 0.000793 -0.010626 0.001134 -0.014326 0.023685
#
#
# Mechanical properties :
#
#
# Convention : Reuss Voigt Hill
#
# Bulk Modulus (GPa) = 38.67139 63.88673 51.27906
# Shear Modulus (GPa) = 13.32878 36.00456 24.66667
#
# Velocity S-wave (km/s) = 2.57759 4.23640 3.50650
# Velocity P-wave (km/s) = 5.30424 7.46825 6.47726
#
# Compressibility (1/GPa) = 0.02585891
#
# Stress axis : x y z
#
# Youngs Moduli (GPa) = 13.17794 96.20511 24.39509
#
# Poissons Ratio (x) = 0.92359 0.98371
# Poissons Ratio (y) = 0.12651 0.01907
# Poissons Ratio (z) = 0.53139 0.07521
#
# Static dielectric constant tensor:
#      x y z
#    x 1.746690 0.042610 0.013800 
#    y 0.042610 1.659740 -0.009720 
#    z 0.013800 -0.009720 1.718690 
# 
# From -- ./inp_files/330558.got.cif
#   From: 2010.05.17/outbox.cif.g08.bks.cpg/sg2_166_cif.got.tgz:330558.got - 2010.06.03 11:33:40.
