data_PCOD9039844
_publ_section_title
;
Structure prediction by ZEFSAII (Michael W. Deem and Ramdas Pophale) SiO2 
 PCOD9039844
Probable space group: P -1
;
_chemical_formula_sum "Si O2"
_cell_formula_units_Z 14
_cell_length_a 7.598655
_cell_length_b 8.947838
_cell_length_c 8.440677
_cell_angle_alpha 86.424238
_cell_angle_beta 97.022816
_cell_angle_gamma 105.131945
_cell_volume 549.561930
_symmetry_space_group_name_H-M "P -1"
_symmetry_group_IT_number 2
_symmetry_cell_setting 'triclinic'
loop_
_space_group_symop_operation_xyz
x,y,z
-x,-y,-z
loop_
_atom_site_type_symbol
_atom_site_label
_atom_site_fract_x
_atom_site_fract_y
_atom_site_fract_z
Si Si1 0.876703 0.719175 0.001452
Si Si2 0.468132 0.717501 0.881484
Si Si3 0.036992 0.160067 0.344055
Si Si4 0.163031 0.160501 0.688700
Si Si5 0.485597 0.454856 0.681247
Si Si6 0.780817 0.324034 0.838897
Si Si7 0.370317 0.999744 0.335304
O O1 0.908375 0.848867 0.136472
O O2 0.002660 0.622022 0.107455
O O3 0.656827 0.679218 0.966690
O O4 0.953916 0.757004 0.830014
O O5 0.405046 0.579747 0.756847
O O6 0.520684 0.884837 0.795255
O O7 0.325428 0.713918 0.004088
O O8 0.061572 0.223386 0.524061
O O9 0.209666 0.083352 0.353127
O O10 0.856500 0.018621 0.336740
O O11 0.359347 0.281824 0.701031
O O12 0.500000 0.500000 0.500000
O O13 0.691583 0.453918 0.751158
O O14 0.718501 0.171091 0.732586
O O15 0.500000 0.000000 0.500000
#
# Coordination Sequence:
#
# PCOD9039844 Si02
#       7
#     2   2   2   2   2   2   2
#     4  11  24  45  72 106 144 183 239 298 352 432
#     4  11  26  46  71 101 149 191 226 295 370 413
#     4  10  23  42  71 109 144 186 231 305 368 410
#     4  11  22  43  74  96 146 191 230 293 361 421
#     4  12  26  50  71 100 146 196 233 293 364 432
#     4  12  25  43  73 107 136 186 245 292 355 426
#     4  11  23  42  71 108 139 182 244 300 349 425
#
# _framework density 25.474834999999999
#
# number of rings (size 3 to 8) (size 9 to 14) (size 15 to 20)
#    0.000    0.857    2.857    4.714    2.000    4.000 
#    2.571    0.714    0.000    0.000    0.000    0.000 
#    0.000    0.000    0.000    0.000    0.000    0.000 
#
# Total GULP energy -78180.000339 kJ/mol
# GULP energy per Si atom -5584.285738 kJ/mol
# Density = 2.541685 g / cm^3
# Si number density = 25.474835 Si / 1000 Ang^3
#
#
#
# Elastic Constant Matrix: (Units=GPa)
#
#
# Indices 1 2 3 4 5 6 
#
# 1 75.7116 8.4877 35.0176 3.4672 15.4798 2.1079
# 2 8.4877 52.5219 29.6649 16.4448 14.4351 8.9497
# 3 35.0176 29.6649 171.2114 6.4389 -12.1726 1.8824
# 4 3.4672 16.4448 6.4389 43.5891 5.7894 -3.6401
# 5 15.4798 14.4351 -12.1726 5.7894 40.0398 -8.2055
# 6 2.1079 8.9497 1.8824 -3.6401 -8.2055 33.4199
#
#
#
# Elastic Compliance Matrix: (Units=1/GPa)
#
#
# Indices 1 2 3 4 5 6 
#
# 1 0.017313 0.003925 -0.004864 -0.001143 -0.010351 -0.004535
# 2 0.003925 0.032696 -0.007113 -0.010525 -0.016788 -0.013871
# 3 -0.004864 -0.007113 0.008529 0.001107 0.007642 0.003728
# 4 -0.001143 -0.010525 0.001107 0.027105 0.001936 0.006256
# 5 -0.010351 -0.016788 0.007642 0.001936 0.040101 0.014775
# 6 -0.004535 -0.013871 0.003728 0.006256 0.014775 0.038022
#
#
# Mechanical properties :
#
#
# Convention : Reuss Voigt Hill
#
# Bulk Modulus (GPa) = 23.56626 49.53170 36.54898
# Shear Modulus (GPa) = 25.77129 38.49474 32.13301
#
# Velocity S-wave (km/s) = 3.18407 3.89149 3.55542
# Velocity P-wave (km/s) = 4.77375 6.29898 5.58864
#
# Compressibility (1/GPa) = 0.04243355
#
# Stress axis : x y z
#
# Youngs Moduli (GPa) = 57.76106 30.58452 117.25075
#
# Poissons Ratio (x) = -0.12005 0.57032
# Poissons Ratio (y) = -0.22673 0.83403
# Poissons Ratio (z) = 0.28096 0.21755
#
# Static dielectric constant tensor:
#      x y z
#    x 2.066080 -0.009990 0.004540 
#    y -0.009990 2.029390 0.044650 
#    z 0.004540 0.044650 2.061310 
# 
# From -- ./inp_files/158205.got.cif
#   From: 2010.05.17/outbox.cif.g08.bks.cpg/sg2_80_cif.got.tgz:158205.got - 2010.06.03 11:33:40.
