data_PCOD9039293
_publ_section_title
;
Structure prediction by ZEFSAII (Michael W. Deem and Ramdas Pophale) SiO2 
 PCOD9039293
Probable space group: P -1
;
_chemical_formula_sum "Si O2"
_cell_formula_units_Z 13
_cell_length_a 9.306550
_cell_length_b 12.606382
_cell_length_c 9.339879
_cell_angle_alpha 144.201363
_cell_angle_beta 71.215424
_cell_angle_gamma 109.051238
_cell_volume 602.593998
_symmetry_space_group_name_H-M "P -1"
_symmetry_group_IT_number 2
_symmetry_cell_setting 'triclinic'
loop_
_space_group_symop_operation_xyz
x,y,z
-x,-y,-z
loop_
_atom_site_type_symbol
_atom_site_label
_atom_site_fract_x
_atom_site_fract_y
_atom_site_fract_z
Si Si1 0.678229 0.838235 0.842117
Si Si2 0.319924 0.435331 0.987555
Si Si3 0.208350 0.457652 0.721519
Si Si4 0.657756 0.147397 0.955847
Si Si5 0.675027 0.982438 0.465181
Si Si6 0.877157 0.286087 0.549705
Si Si7 0.000000 0.000000 0.000000
O O1 0.694879 0.673165 0.546064
O O2 0.678595 0.022731 0.949312
O O3 0.518315 0.811014 0.946104
O O4 0.830444 0.876273 0.927081
O O5 0.259476 0.464855 0.878298
O O6 0.291292 0.222166 0.797189
O O7 0.500000 0.500000 0.000000
O O8 0.233664 0.557755 0.257110
O O9 0.032985 0.373060 0.670500
O O10 0.236105 0.661835 0.874072
O O11 0.691600 0.028900 0.678127
O O12 0.500000 0.000000 0.500000
O O13 0.787144 0.131017 0.508203
O O14 0.924638 0.180570 0.280506
#
# Coordination Sequence:
#
# PCOD9039293 Si02
#       7
#     2   2   2   2   2   2   1
#     4  10  23  42  67  95 134 177 222 277 321 411
#     4  12  24  40  68 100 133 173 222 278 334 394
#     4  11  23  43  63 101 134 172 226 274 333 397
#     4  11  22  40  68  95 134 178 223 267 339 389
#     4  12  23  41  68 100 133 176 224 279 335 390
#     4  11  25  44  68  96 141 173 223 279 329 411
#     4  10  24  46  66  94 136 176 218 274 340 384
#
# _framework density 21.573397
#
# number of rings (size 3 to 8) (size 9 to 14) (size 15 to 20)
#    0.000    0.923    4.615    1.846    0.000    3.077 
#    0.000    8.462    0.000    0.000    0.000    0.000 
#    0.000    0.000    0.000    0.000    0.000    0.000 
#
# Total GULP energy -72468.955625 kJ/mol
# GULP energy per Si atom -5574.535048 kJ/mol
# Density = 2.152429 g / cm^3
# Si number density = 21.573397 Si / 1000 Ang^3
#
#
#
# Elastic Constant Matrix: (Units=GPa)
#
#
# Indices 1 2 3 4 5 6 
#
# 1 79.0064 23.0592 52.8680 5.0329 -9.6216 28.4030
# 2 23.0592 80.9198 28.7665 33.6192 -4.8019 23.0134
# 3 52.8680 28.7665 170.2483 26.7773 -30.1851 13.2258
# 4 5.0329 33.6192 26.7773 34.6419 5.5417 4.4269
# 5 -9.6216 -4.8019 -30.1851 5.5417 43.1870 1.3419
# 6 28.4030 23.0134 13.2258 4.4269 1.3419 28.5659
#
#
#
# Elastic Compliance Matrix: (Units=1/GPa)
#
#
# Indices 1 2 3 4 5 6 
#
# 1 0.024927 -0.000036 -0.006400 0.004032 0.001257 -0.022476
# 2 -0.000036 0.031447 0.003343 -0.031934 0.010618 -0.022396
# 3 -0.006400 0.003343 0.010496 -0.011704 0.007776 0.000259
# 4 0.004032 -0.031934 -0.011704 0.069346 -0.020270 0.017342
# 5 0.001257 0.010618 0.007776 -0.020270 0.033019 -0.011815
# 6 -0.022476 -0.022396 0.000259 0.017342 -0.011815 0.073145
#
#
# Mechanical properties :
#
#
# Convention : Reuss Voigt Hill
#
# Bulk Modulus (GPa) = 16.47916 59.95133 38.21524
# Shear Modulus (GPa) = 18.60178 36.31101 27.45640
#
# Velocity S-wave (km/s) = 2.93960 4.10706 3.57136
# Velocity P-wave (km/s) = 4.37915 7.09509 5.89565
#
# Compressibility (1/GPa) = 0.06068270
#
# Stress axis : x y z
#
# Youngs Moduli (GPa) = 40.11766 31.80000 95.27806
#
# Poissons Ratio (x) = 0.00116 0.60974
# Poissons Ratio (y) = 0.00146 -0.31851
# Poissons Ratio (z) = 0.25674 -0.10631
#
# Static dielectric constant tensor:
#      x y z
#    x 1.784560 -0.031130 0.002840 
#    y -0.031130 1.769760 -0.017770 
#    z 0.002840 -0.017770 1.779230 
# 
# From -- ./inp_files/183516.got.cif
#   From: 2010.05.17/outbox.cif.g08.bks.cpg/sg2_92_cif.got.tgz:183516.got - 2010.06.03 11:33:40.
