data_PCOD9039594
_publ_section_title
;
Structure prediction by ZEFSAII (Michael W. Deem and Ramdas Pophale) SiO2 
 PCOD9039594
Probable space group: P -1
;
_chemical_formula_sum "Si O2"
_cell_formula_units_Z 16
_cell_length_a 19.927891
_cell_length_b 20.080677
_cell_length_c 6.784171
_cell_angle_alpha 136.221113
_cell_angle_beta 42.848781
_cell_angle_gamma 152.955312
_cell_volume 818.269743
_symmetry_space_group_name_H-M "P -1"
_symmetry_group_IT_number 2
_symmetry_cell_setting 'triclinic'
loop_
_space_group_symop_operation_xyz
x,y,z
-x,-y,-z
loop_
_atom_site_type_symbol
_atom_site_label
_atom_site_fract_x
_atom_site_fract_y
_atom_site_fract_z
Si Si1 0.277292 0.873659 0.842954
Si Si2 0.655234 0.773412 0.954365
Si Si3 0.872380 0.048847 0.798500
Si Si4 0.670809 0.402956 0.846534
Si Si5 0.783004 0.701701 0.276479
Si Si6 0.172202 0.136335 0.833262
Si Si7 0.177731 0.636292 0.846753
Si Si8 0.613824 0.203049 0.869298
O O1 0.211095 0.758169 0.911956
O O2 0.321364 0.835766 0.487550
O O3 0.433212 0.043730 0.942511
O O4 0.159741 0.865117 0.998454
O O5 0.667869 0.688515 0.606496
O O6 0.777692 0.941641 0.962663
O O7 0.489233 0.696699 0.133592
O O8 0.707084 0.781857 0.076748
O O9 0.050607 0.159248 0.684254
O O10 0.811781 0.939795 0.515155
O O11 0.779774 0.420421 0.510224
O O12 0.634561 0.314112 0.930196
O O13 0.739004 0.558055 0.079325
O O14 0.801460 0.749725 0.113416
O O15 0.000000 0.000000 0.000000
O O16 0.290388 0.718263 0.968118
O O17 0.000000 0.500000 0.000000
#
# Coordination Sequence:
#
# PCOD9039594 Si02
#       8
#     2   2   2   2   2   2   2   2
#     4  10  23  42  69  93 119 171 208 257 317 368
#     4  11  22  43  63  91 128 166 215 259 303 374
#     4  11  22  38  67  94 122 167 215 255 308 370
#     4  11  26  42  66  92 128 174 204 256 325 371
#     4  11  24  39  62  96 129 166 213 254 311 371
#     4  11  21  39  62  92 128 162 209 263 301 362
#     4  11  27  43  63  99 129 158 211 265 315 381
#     4  10  23  46  65  91 129 158 214 263 308 380
#
# _framework density 19.553453000000001
#
# number of rings (size 3 to 8) (size 9 to 14) (size 15 to 20)
#    0.000    1.250    3.750    1.500    5.250    4.500 
#    0.000    0.000    0.000    0.000    0.000    0.000 
#    0.000    0.000    0.000    0.000    0.000    0.000 
#
# Total GULP energy -89452.329218 kJ/mol
# GULP energy per Si atom -5590.770576 kJ/mol
# Density = 1.950895 g / cm^3
# Si number density = 19.553453 Si / 1000 Ang^3
#
#
#
# Elastic Constant Matrix: (Units=GPa)
#
#
# Indices 1 2 3 4 5 6 
#
# 1 116.2257 30.2241 45.1360 1.9753 -2.9966 -22.2807
# 2 30.2241 66.1870 30.8970 -5.7540 -10.8529 -24.2580
# 3 45.1360 30.8970 40.3286 -5.2618 -6.9102 -20.5809
# 4 1.9753 -5.7540 -5.2618 27.8488 2.1139 -9.4528
# 5 -2.9966 -10.8529 -6.9102 2.1139 38.3728 2.9587
# 6 -22.2807 -24.2580 -20.5809 -9.4528 2.9587 33.0105
#
#
#
# Elastic Compliance Matrix: (Units=1/GPa)
#
#
# Indices 1 2 3 4 5 6 
#
# 1 0.016175 0.000395 -0.021498 -0.006287 -0.001855 -0.003829
# 2 0.000395 0.027352 -0.012146 0.008026 0.004001 0.014734
# 3 -0.021498 -0.012146 0.078608 0.024360 0.005226 0.032081
# 4 -0.006287 0.008026 0.024360 0.053447 0.000748 0.032080
# 5 -0.001855 0.004001 0.005226 0.000748 0.027741 0.002675
# 6 -0.003829 0.014734 0.032081 0.032080 0.002675 0.067484
#
#
# Mechanical properties :
#
#
# Convention : Reuss Voigt Hill
#
# Bulk Modulus (GPa) = 17.97346 48.36173 33.16759
# Shear Modulus (GPa) = 14.05089 27.61203 20.83146
#
# Velocity S-wave (km/s) = 2.68356 3.76191 3.26753
# Velocity P-wave (km/s) = 4.33750 6.60727 5.58883
#
# Compressibility (1/GPa) = 0.05563759
#
# Stress axis : x y z
#
# Youngs Moduli (GPa) = 61.82453 36.56063 12.72135
#
# Poissons Ratio (x) = -0.01445 0.27348
# Poissons Ratio (y) = -0.02444 0.15451
# Poissons Ratio (z) = 1.32911 0.44405
#
# Static dielectric constant tensor:
#      x y z
#    x 1.657160 -0.002890 -0.002920 
#    y -0.002890 1.677160 -0.006860 
#    z -0.002920 -0.006860 1.674870 
# 
# From -- ./inp_files/38754.got.cif
#   From: 2010.05.17/outbox.cif.g08.bks.cpg/sg2_20_cif.got.tgz:38754.got - 2010.06.03 11:33:40.
