data_PCOD9039428
_publ_section_title
;
Structure prediction by ZEFSAII (Michael W. Deem and Ramdas Pophale) SiO2 
 PCOD9039428
Probable space group: P -1
;
_chemical_formula_sum "Si O2"
_cell_formula_units_Z 16
_cell_length_a 14.346837
_cell_length_b 9.102857
_cell_length_c 15.226372
_cell_angle_alpha 68.272307
_cell_angle_beta 149.451999
_cell_angle_gamma 91.902137
_cell_volume 747.604896
_symmetry_space_group_name_H-M "P -1"
_symmetry_group_IT_number 2
_symmetry_cell_setting 'triclinic'
loop_
_space_group_symop_operation_xyz
x,y,z
-x,-y,-z
loop_
_atom_site_type_symbol
_atom_site_label
_atom_site_fract_x
_atom_site_fract_y
_atom_site_fract_z
Si Si1 0.497559 0.314645 0.554122
Si Si2 0.874046 0.537044 0.299284
Si Si3 0.036540 0.828691 0.627828
Si Si4 0.603056 0.490145 0.877049
Si Si5 0.229419 0.352663 0.165069
Si Si6 0.189029 0.099664 0.050746
Si Si7 0.788208 0.473004 0.560773
Si Si8 0.477722 0.862637 0.805774
O O1 0.500000 0.500000 0.500000
O O2 0.426327 0.265141 0.417714
O O3 0.317374 0.383730 0.472394
O O4 0.737294 0.116609 0.823690
O O5 0.868893 0.354002 0.320558
O O6 0.000000 0.500000 0.500000
O O7 0.033113 0.517367 0.352680
O O8 0.625770 0.748115 0.039335
O O9 0.222425 0.714321 0.882529
O O10 0.000000 0.000000 0.500000
O O11 0.778555 0.941476 0.431135
O O12 0.735877 0.526085 0.904538
O O13 0.410913 0.488165 0.672109
O O14 0.490590 0.686624 0.803893
O O15 0.207776 0.199860 0.129780
O O16 0.000000 0.500000 0.000000
O O17 0.375613 0.085078 0.140773
O O18 0.940340 0.250686 0.772587
#
# Coordination Sequence:
#
# PCOD9039428 Si02
#       8
#     2   2   2   2   2   2   2   2
#     4  12  24  42  62  99 136 170 221 271 326 391
#     4  10  24  43  68  92 130 169 216 277 330 387
#     4  11  25  43  68  98 128 173 218 268 333 396
#     4  10  24  43  65  98 134 171 214 279 325 384
#     4  11  22  43  68  95 130 178 224 267 324 389
#     4  10  23  42  68  92 129 180 217 265 330 390
#     4  11  23  44  65  94 134 172 220 278 328 383
#     4   9  22  43  65  93 127 169 222 258 330 393
#
# _framework density 21.401679000000001
#
# number of rings (size 3 to 8) (size 9 to 14) (size 15 to 20)
#    0.000    1.500    2.500    1.875    5.250    3.000 
#    2.250    0.000    0.000    0.000    0.000    0.000 
#    0.000    0.000    0.000    0.000    0.000    0.000 
#
# Total GULP energy -89388.300065 kJ/mol
# GULP energy per Si atom -5586.768754 kJ/mol
# Density = 2.135297 g / cm^3
# Si number density = 21.401679 Si / 1000 Ang^3
#
#
#
# Elastic Constant Matrix: (Units=GPa)
#
#
# Indices 1 2 3 4 5 6 
#
# 1 41.8953 -3.1162 17.4822 -7.4044 -12.9554 -2.6361
# 2 -3.1162 46.4278 47.7847 -14.0871 -21.8200 14.9606
# 3 17.4822 47.7847 176.5069 -14.7140 -27.5775 -7.3199
# 4 -7.4044 -14.0871 -14.7140 42.0631 -1.1561 -8.1015
# 5 -12.9554 -21.8200 -27.5775 -1.1561 36.3819 2.2746
# 6 -2.6361 14.9606 -7.3199 -8.1015 2.2746 21.9025
#
#
#
# Elastic Compliance Matrix: (Units=1/GPa)
#
#
# Indices 1 2 3 4 5 6 
#
# 1 0.042976 0.042253 -0.010087 0.014253 0.035042 -0.025427
# 2 0.042253 0.122515 -0.027357 0.024283 0.073963 -0.086441
# 3 -0.010087 -0.027357 0.012964 -0.002466 -0.011632 0.022101
# 4 0.014253 0.024283 -0.002466 0.033026 0.019162 -0.005469
# 5 0.035042 0.073963 -0.011632 0.019162 0.079325 -0.051342
# 6 -0.025427 -0.086441 0.022101 -0.005469 -0.051342 0.112336
#
#
# Mechanical properties :
#
#
# Convention : Reuss Voigt Hill
#
# Bulk Modulus (GPa) = 5.31708 43.23683 24.27695
# Shear Modulus (GPa) = 10.95972 33.58145 22.27058
#
# Velocity S-wave (km/s) = 2.26541 3.96549 3.22933
# Velocity P-wave (km/s) = 3.05493 6.41975 5.02722
#
# Compressibility (1/GPa) = 0.18807330
#
# Stress axis : x y z
#
# Youngs Moduli (GPa) = 23.26874 8.16228 77.13432
#
# Poissons Ratio (x) = -0.34488 0.77805
# Poissons Ratio (y) = -0.98318 2.11018
# Poissons Ratio (z) = 0.23471 0.22330
#
# Static dielectric constant tensor:
#      x y z
#    x 1.830240 0.006240 -0.003320 
#    y 0.006240 1.774810 0.017630 
#    z -0.003320 0.017630 1.787360 
# 
# From -- ./inp_files/106701.got.cif
#   From: 2010.05.17/outbox.cif.g08.bks.cpg/sg2_54_cif.got.tgz:106701.got - 2010.06.03 11:33:40.
