data_PCOD9039074
_publ_section_title
;
Structure prediction by ZEFSAII (Michael W. Deem and Ramdas Pophale) SiO2 
 PCOD9039074
Probable space group: P -1
;
_chemical_formula_sum "Si O2"
_cell_formula_units_Z 16
_cell_length_a 14.306772
_cell_length_b 17.543227
_cell_length_c 22.800617
_cell_angle_alpha 157.746381
_cell_angle_beta 19.704328
_cell_angle_gamma 147.492481
_cell_volume 712.922907
_symmetry_space_group_name_H-M "P -1"
_symmetry_group_IT_number 2
_symmetry_cell_setting 'triclinic'
loop_
_space_group_symop_operation_xyz
x,y,z
-x,-y,-z
loop_
_atom_site_type_symbol
_atom_site_label
_atom_site_fract_x
_atom_site_fract_y
_atom_site_fract_z
Si Si1 0.945059 0.909405 0.032028
Si Si2 0.495684 0.024900 0.816320
Si Si3 0.722730 0.924118 0.734156
Si Si4 0.789491 0.216646 0.004461
Si Si5 0.398761 0.192878 0.610450
Si Si6 0.640425 0.446267 0.035061
Si Si7 0.813744 0.483882 0.828639
Si Si8 0.197645 0.327125 0.697242
O O1 0.644700 0.013816 0.313051
O O2 0.950280 0.667591 0.854732
O O3 0.195495 0.966666 0.963233
O O4 0.000000 0.000000 0.000000
O O5 0.704836 0.956890 0.698854
O O6 0.625572 0.885679 0.585558
O O7 0.473239 0.267487 0.993341
O O8 0.983092 0.736459 0.462065
O O9 0.751839 0.122335 0.895428
O O10 0.428476 0.867929 0.886830
O O11 0.124203 0.142341 0.769179
O O12 0.706804 0.464758 0.230663
O O13 0.247215 0.309371 0.724733
O O14 0.522140 0.347153 0.689330
O O15 0.777902 0.499728 0.931442
O O16 0.891001 0.357558 0.869958
O O17 0.500000 0.500000 0.000000
#
# Coordination Sequence:
#
# PCOD9039074 Si02
#       8
#     2   2   2   2   2   2   2   2
#     4  12  27  46  69 101 138 184 226 284 349 405
#     4  12  24  42  73 103 137 178 232 284 339 410
#     4  11  24  43  69 102 140 175 233 287 341 404
#     4  10  23  42  66 103 135 181 223 285 343 399
#     4  11  24  45  69  98 141 181 230 279 344 412
#     4  11  25  44  71 105 133 183 232 277 346 410
#     4  12  27  46  72 100 140 184 231 283 343 413
#     4  11  21  41  75  96 138 175 232 281 337 411
#
# _framework density 22.442817999999999
#
# number of rings (size 3 to 8) (size 9 to 14) (size 15 to 20)
#    0.000    0.750    2.500    5.625    5.250    2.000 
#    4.500    0.000    0.000    0.000    0.000    0.000 
#    0.000    0.000    0.000    0.000    0.000    0.000 
#
# Total GULP energy -89474.330400 kJ/mol
# GULP energy per Si atom -5592.145650 kJ/mol
# Density = 2.239174 g / cm^3
# Si number density = 22.442818 Si / 1000 Ang^3
#
#
#
# Elastic Constant Matrix: (Units=GPa)
#
#
# Indices 1 2 3 4 5 6 
#
# 1 85.8285 26.9514 27.4206 12.4101 17.6718 5.4030
# 2 26.9514 132.1407 12.5799 16.8388 5.2324 19.3573
# 3 27.4206 12.5799 75.3781 -7.8908 9.2022 8.6362
# 4 12.4101 16.8388 -7.8908 31.3544 7.9038 4.0132
# 5 17.6718 5.2324 9.2022 7.9038 38.7460 0.2625
# 6 5.4030 19.3573 8.6362 4.0132 0.2625 32.1697
#
#
#
# Elastic Compliance Matrix: (Units=1/GPa)
#
#
# Indices 1 2 3 4 5 6 
#
# 1 0.015680 -0.001896 -0.005504 -0.005539 -0.004463 0.000712
# 2 -0.001896 0.009170 -0.000824 -0.003975 0.000663 -0.004488
# 3 -0.005504 -0.000824 0.017127 0.008248 -0.003100 -0.004182
# 4 -0.005539 -0.003975 0.008248 0.040598 -0.007151 -0.003898
# 5 -0.004463 0.000663 -0.003100 -0.007151 0.029938 0.001831
# 6 0.000712 -0.004488 -0.004182 -0.003898 0.001831 0.035260
#
#
# Mechanical properties :
#
#
# Convention : Reuss Voigt Hill
#
# Bulk Modulus (GPa) = 39.16908 47.47233 43.32071
# Shear Modulus (GPa) = 28.94681 35.54705 32.24693
#
# Velocity S-wave (km/s) = 3.59528 3.98413 3.79469
# Velocity P-wave (km/s) = 5.89283 6.50868 6.20840
#
# Compressibility (1/GPa) = 0.02553034
#
# Stress axis : x y z
#
# Youngs Moduli (GPa) = 63.77550 109.04570 58.38674
#
# Poissons Ratio (x) = 0.20673 0.32137
# Poissons Ratio (y) = 0.12091 0.04809
# Poissons Ratio (z) = 0.35103 0.08981
#
# Static dielectric constant tensor:
#      x y z
#    x 1.823700 -0.009230 -0.004290 
#    y -0.009230 1.843650 -0.009230 
#    z -0.004290 -0.009230 1.846760 
# 
# From -- ./inp_files/612203.got.cif
#   From: 2010.05.17/outbox.cif.g08.bks.cpg/sg2_307_cif.got.tgz:612203.got - 2010.06.03 11:33:40.
