data_PCOD9039840
_publ_section_title
;
Structure prediction by ZEFSAII (Michael W. Deem and Ramdas Pophale) SiO2 
 PCOD9039840
Probable space group: P -1
;
_chemical_formula_sum "Si O2"
_cell_formula_units_Z 10
_cell_length_a 9.619090
_cell_length_b 10.518579
_cell_length_c 8.548307
_cell_angle_alpha 117.555972
_cell_angle_beta 32.875772
_cell_angle_gamma 107.870385
_cell_volume 410.194453
_symmetry_space_group_name_H-M "P -1"
_symmetry_group_IT_number 2
_symmetry_cell_setting 'triclinic'
loop_
_space_group_symop_operation_xyz
x,y,z
-x,-y,-z
loop_
_atom_site_type_symbol
_atom_site_label
_atom_site_fract_x
_atom_site_fract_y
_atom_site_fract_z
Si Si1 0.721118 0.066887 0.741966
Si Si2 0.266247 0.919008 0.624312
Si Si3 0.572456 0.323340 0.231159
Si Si4 0.087406 0.343104 0.906193
Si Si5 0.525704 0.585905 0.191458
O O1 0.741510 0.048361 0.531152
O O2 0.648803 0.234621 0.951253
O O3 0.000000 0.000000 0.500000
O O4 0.500000 0.000000 0.000000
O O5 0.336982 0.742220 0.464217
O O6 0.500000 0.000000 0.500000
O O7 0.000000 0.000000 0.000000
O O8 0.335265 0.278637 0.527530
O O9 0.489621 0.484512 0.321713
O O10 0.831145 0.278485 0.068104
O O11 0.194058 0.368419 0.994575
O O12 0.000000 0.500000 0.000000
O O13 0.500000 0.500000 0.000000
#
# Coordination Sequence:
#
# PCOD9039840 Si02
#       5
#     2   2   2   2   2
#     4  12  27  49  76 109 155 201 252 306 378 460
#     4  12  30  52  76 112 154 203 249 314 389 443
#     4  11  24  48  74 110 142 200 250 306 368 448
#     4  10  23  42  71 108 143 186 242 306 373 434
#     4  11  24  50  77 108 151 190 259 314 367 444
#
# _framework density 24.378681
#
# number of rings (size 3 to 8) (size 9 to 14) (size 15 to 20)
#    0.000    0.800    2.000    4.800    8.400    3.200 
#    0.000   10.000    0.000    0.000    0.000    0.000 
#    0.000    0.000    0.000    0.000    0.000    0.000 
#
# Total GULP energy -55810.589404 kJ/mol
# GULP energy per Si atom -5581.058940 kJ/mol
# Density = 2.432319 g / cm^3
# Si number density = 24.378681 Si / 1000 Ang^3
#
#
#
# Elastic Constant Matrix: (Units=GPa)
#
#
# Indices 1 2 3 4 5 6 
#
# 1 245.9609 53.3390 111.5150 -7.4907 11.0709 6.5526
# 2 53.3390 113.2320 79.4425 22.7303 -6.1942 -12.0940
# 3 111.5150 79.4425 230.9719 -5.2052 -5.2119 19.5609
# 4 -7.4907 22.7303 -5.2052 49.7603 3.2498 1.8115
# 5 11.0709 -6.1942 -5.2119 3.2498 48.2672 4.0888
# 6 6.5526 -12.0940 19.5609 1.8115 4.0888 37.6060
#
#
#
# Elastic Compliance Matrix: (Units=1/GPa)
#
#
# Indices 1 2 3 4 5 6 
#
# 1 0.005479 -0.001493 -0.002122 0.001407 -0.001754 -0.000208
# 2 -0.001493 0.016419 -0.005833 -0.008765 0.001663 0.008816
# 3 -0.002122 -0.005833 0.007955 0.003335 0.000872 -0.005900
# 4 0.001407 -0.008765 0.003335 0.025019 -0.002284 -0.005755
# 5 -0.001754 0.001663 0.000872 -0.002284 0.021740 -0.001867
# 6 -0.000208 0.008816 -0.005900 -0.005755 -0.001867 0.033012
#
#
# Mechanical properties :
#
#
# Convention : Reuss Voigt Hill
#
# Bulk Modulus (GPa) = 91.26713 119.86197 105.56455
# Shear Modulus (GPa) = 37.82936 50.18458 44.00697
#
# Velocity S-wave (km/s) = 3.94349 4.54204 4.25330
# Velocity P-wave (km/s) = 7.63239 8.76244 8.21686
#
# Compressibility (1/GPa) = 0.01095685
#
# Stress axis : x y z
#
# Youngs Moduli (GPa) = 182.51956 60.90464 125.70735
#
# Poissons Ratio (x) = 0.09090 0.26677
# Poissons Ratio (y) = 0.27241 0.73330
# Poissons Ratio (z) = 0.38734 0.35528
#
# Static dielectric constant tensor:
#      x y z
#    x 1.871120 -0.254590 0.194570 
#    y -0.254590 0.394780 1.130790 
#    z 0.194570 1.130790 1.278950 
# 
# From -- ./inp_files/106519.got.cif
#   From: 2010.05.17/outbox.cif.g08.bks.cpg/sg2_54_cif.got.tgz:106519.got - 2010.06.03 11:33:40.
