data_PCOD9039826
_publ_section_title
;
Structure prediction by ZEFSAII (Michael W. Deem and Ramdas Pophale) SiO2 
 PCOD9039826
Probable space group: P -1
;
_chemical_formula_sum "Si O2"
_cell_formula_units_Z 16
_cell_length_a 10.484266
_cell_length_b 17.174155
_cell_length_c 10.433223
_cell_angle_alpha 43.360383
_cell_angle_beta 30.937593
_cell_angle_gamma 50.637570
_cell_volume 662.797532
_symmetry_space_group_name_H-M "P -1"
_symmetry_group_IT_number 2
_symmetry_cell_setting 'triclinic'
loop_
_space_group_symop_operation_xyz
x,y,z
-x,-y,-z
loop_
_atom_site_type_symbol
_atom_site_label
_atom_site_fract_x
_atom_site_fract_y
_atom_site_fract_z
Si Si1 0.950634 0.828944 0.209680
Si Si2 0.054112 0.623888 0.863447
Si Si3 0.796742 0.417960 0.717741
Si Si4 0.302398 0.965054 0.927240
Si Si5 0.635062 0.610001 0.455635
Si Si6 0.836574 0.134365 0.592376
Si Si7 0.787445 0.074949 0.418462
Si Si8 0.510328 0.271446 0.308446
O O1 0.673043 0.801213 0.532636
O O2 0.072212 0.703833 0.265531
O O3 0.865453 0.915789 0.062611
O O4 0.142660 0.898821 0.042916
O O5 0.349071 0.617921 0.648338
O O6 0.036799 0.743585 0.657848
O O7 0.000000 0.500000 0.000000
O O8 0.852158 0.638841 0.134592
O O9 0.690006 0.481526 0.609816
O O10 0.000000 0.500000 0.500000
O O11 0.585250 0.385237 0.039023
O O12 0.572393 0.007325 0.613440
O O13 0.346123 0.884318 0.109550
O O14 0.638232 0.691977 0.478925
O O15 0.721855 0.117080 0.571356
O O16 0.015076 0.025260 0.598194
O O17 0.752799 0.196606 0.229445
#
# Coordination Sequence:
#
# PCOD9039826 Si02
#       8
#     2   2   2   2   2   2   2   2
#     4  10  24  42  67 103 144 181 238 306 365 444
#     4  12  30  50  73 109 152 198 248 309 366 440
#     4  12  25  41  72 104 144 192 248 297 374 437
#     4  10  23  43  67 101 141 185 237 303 376 430
#     4  12  27  47  74 104 152 192 249 303 363 439
#     4  11  24  42  74  99 141 190 251 290 377 432
#     4  10  23  42  71 105 136 187 243 311 362 444
#     4  11  23  44  71 107 146 186 245 304 372 435
#
# _framework density 24.140101000000001
#
# number of rings (size 3 to 8) (size 9 to 14) (size 15 to 20)
#    0.000    1.000    2.500    2.625    5.250    6.000 
#    0.000    3.750    0.000    0.000    0.000    0.000 
#    0.000    0.000    0.000    0.000    0.000    0.000 
#
# Total GULP energy -89127.865638 kJ/mol
# GULP energy per Si atom -5570.491602 kJ/mol
# Density = 2.408516 g / cm^3
# Si number density = 24.140101 Si / 1000 Ang^3
#
#
#
# Elastic Constant Matrix: (Units=GPa)
#
#
# Indices 1 2 3 4 5 6 
#
# 1 38.2035 9.0508 -0.8092 -23.5526 -17.9827 -36.3058
# 2 9.0508 89.6492 35.8072 -21.8388 5.7334 -20.3433
# 3 -0.8092 35.8072 87.4649 -45.2925 8.9487 -27.2157
# 4 -23.5526 -21.8388 -45.2925 47.9459 -12.0390 -8.0433
# 5 -17.9827 5.7334 8.9487 -12.0390 43.9772 -18.9856
# 6 -36.3058 -20.3433 -27.2157 -8.0433 -18.9856 35.5763
#
#
#
# Elastic Compliance Matrix: (Units=1/GPa)
#
#
# Indices 1 2 3 4 5 6 
#
# 1 0.001487 -0.002321 -0.009775 -0.013654 -0.006908 -0.014060
# 2 -0.002321 0.013838 -0.004920 0.000475 -0.001048 0.001329
# 3 -0.009775 -0.004920 0.012317 0.000991 -0.009027 -0.007959
# 4 -0.013654 0.000475 0.000991 0.010135 -0.009945 -0.015920
# 5 -0.006908 -0.001048 -0.009027 -0.009945 0.015477 -0.008544
# 6 -0.014060 0.001329 -0.007959 -0.015920 -0.008544 0.000273
#
#
# Mechanical properties :
#
#
# Convention : Reuss Voigt Hill
#
# Bulk Modulus (GPa) = -156.53059 33.71281 -61.40889
# Shear Modulus (GPa) = 58.52819 36.91778 47.72298
#
# Velocity S-wave (km/s) = 4.92928 3.91489 4.45108
# Velocity P-wave (km/s) = 5.70843 5.86779 0.96040
#
# Compressibility (1/GPa) = -0.00638853
#
# Stress axis : x y z
#
# Youngs Moduli (GPa) = 672.37197 72.26329 81.18624
#
# Poissons Ratio (x) = 0.16771 0.79357
# Poissons Ratio (y) = 1.56047 0.39945
# Poissons Ratio (z) = 6.57224 0.35555
#
# Static dielectric constant tensor:
#      x y z
#    x 1.955540 0.086950 0.047880 
#    y 0.086950 2.125130 0.211110 
#    z 0.047880 0.211110 2.131160 
# 
# From -- ./inp_files/436467.got.cif
#   From: 2010.05.17/outbox.cif.g08.bks.cpg/sg2_219_cif.got.tgz:436467.got - 2010.06.03 11:33:40.
