data_PCOD9039879
_publ_section_title
;
Structure prediction by ZEFSAII (Michael W. Deem and Ramdas Pophale) SiO2 
 PCOD9039879
Probable space group: P -1
;
_chemical_formula_sum "Si O2"
_cell_formula_units_Z 14
_cell_length_a 15.899523
_cell_length_b 5.756178
_cell_length_c 11.685018
_cell_angle_alpha 116.896402
_cell_angle_beta 133.898731
_cell_angle_gamma 88.789846
_cell_volume 611.883855
_symmetry_space_group_name_H-M "P -1"
_symmetry_group_IT_number 2
_symmetry_cell_setting 'triclinic'
loop_
_space_group_symop_operation_xyz
x,y,z
-x,-y,-z
loop_
_atom_site_type_symbol
_atom_site_label
_atom_site_fract_x
_atom_site_fract_y
_atom_site_fract_z
Si Si1 0.353321 0.523822 0.543345
Si Si2 0.341003 0.553341 0.805136
Si Si3 0.066005 0.353484 0.617762
Si Si4 0.432397 0.664248 0.313476
Si Si5 0.547802 0.874339 0.228934
Si Si6 0.125372 0.440660 0.959032
Si Si7 0.914343 0.059934 0.839754
O O1 0.358253 0.607764 0.699695
O O2 0.476294 0.490177 0.601054
O O3 0.355995 0.813305 0.557230
O O4 0.223951 0.224637 0.352753
O O5 0.199682 0.442589 0.697300
O O6 0.376675 0.284579 0.793990
O O7 0.437138 0.842630 0.027790
O O8 0.099601 0.477918 0.808615
O O9 0.000000 0.500000 0.500000
O O10 0.000000 0.000000 0.500000
O O11 0.461191 0.689480 0.211103
O O12 0.500000 0.000000 0.500000
O O13 0.273879 0.484943 0.134039
O O14 0.001695 0.147846 0.825899
O O15 0.114731 0.684661 0.082063
O O16 0.000000 0.000000 0.000000
#
# Coordination Sequence:
#
# PCOD9039879 Si02
#       7
#     2   2   2   2   2   2   2
#     4  11  24  41  73 103 139 192 246 309 375 455
#     4  10  23  45  66 103 140 186 242 303 378 439
#     4  12  29  48  77 112 153 204 255 314 383 464
#     4  11  23  44  68 104 141 186 246 304 379 437
#     4  10  23  42  71  99 139 181 242 306 375 440
#     4  11  26  50  71 102 154 192 252 316 374 459
#     4  11  27  45  72 105 143 202 248 307 381 457
#
# _framework density 22.880161000000001
#
# number of rings (size 3 to 8) (size 9 to 14) (size 15 to 20)
#    0.000    1.143    2.857    1.286    8.000    4.000 
#    0.000    0.000    0.000    0.000    0.000    0.000 
#    0.000    0.000    0.000    0.000    0.000    0.000 
#
# Total GULP energy -78036.713444 kJ/mol
# GULP energy per Si atom -5574.050960 kJ/mol
# Density = 2.282808 g / cm^3
# Si number density = 22.880161 Si / 1000 Ang^3
#
#
#
# Elastic Constant Matrix: (Units=GPa)
#
#
# Indices 1 2 3 4 5 6 
#
# 1 184.9114 50.8215 66.6444 -7.1363 29.0023 6.0250
# 2 50.8215 72.6054 44.1983 11.4726 24.9414 5.5988
# 3 66.6444 44.1983 112.9120 8.4726 17.8226 2.8646
# 4 -7.1363 11.4726 8.4726 35.6163 6.4644 -5.4334
# 5 29.0023 24.9414 17.8226 6.4644 45.7757 -7.9406
# 6 6.0250 5.5988 2.8646 -5.4334 -7.9406 28.4014
#
#
#
# Elastic Compliance Matrix: (Units=1/GPa)
#
#
# Indices 1 2 3 4 5 6 
#
# 1 0.008112 -0.003241 -0.003355 0.003848 -0.002745 -0.000775
# 2 -0.003241 0.024142 -0.005378 -0.006577 -0.009362 -0.007405
# 3 -0.003355 -0.005378 0.013048 -0.002076 0.000293 0.000141
# 4 0.003848 -0.006577 -0.002076 0.032734 -0.001537 0.006522
# 5 -0.002745 -0.009362 0.000293 -0.001537 0.030640 0.010671
# 6 -0.000775 -0.007405 0.000141 0.006522 0.010671 0.041051
#
#
# Mechanical properties :
#
#
# Convention : Reuss Voigt Hill
#
# Bulk Modulus (GPa) = 46.83036 77.08411 61.95724
# Shear Modulus (GPa) = 27.65583 35.87630 31.76607
#
# Velocity S-wave (km/s) = 3.48044 3.96411 3.73012
# Velocity P-wave (km/s) = 6.05503 7.39701 6.75941
#
# Compressibility (1/GPa) = 0.02135367
#
# Stress axis : x y z
#
# Youngs Moduli (GPa) = 123.26837 41.42165 76.64114
#
# Poissons Ratio (x) = 0.13425 0.25715
# Poissons Ratio (y) = 0.39952 0.41217
# Poissons Ratio (z) = 0.41359 0.22276
#
# Static dielectric constant tensor:
#      x y z
#    x 1.822200 0.028460 0.033360 
#    y 0.028460 1.865170 0.019760 
#    z 0.033360 0.019760 2.046970 
# 
# From -- ./inp_files/68787.got.cif
#   From: 2010.05.17/outbox.cif.g08.bks.cpg/sg2_35_cif.got.tgz:68787.got - 2010.06.03 11:33:40.
