data_PCOD9039723
_publ_section_title
;
Structure prediction by ZEFSAII (Michael W. Deem and Ramdas Pophale) SiO2 
 PCOD9039723
Probable space group: P -1
;
_chemical_formula_sum "Si O2"
_cell_formula_units_Z 16
_cell_length_a 9.129023
_cell_length_b 14.528522
_cell_length_c 9.278204
_cell_angle_alpha 141.212625
_cell_angle_beta 71.520504
_cell_angle_gamma 93.062226
_cell_volume 691.201550
_symmetry_space_group_name_H-M "P -1"
_symmetry_group_IT_number 2
_symmetry_cell_setting 'triclinic'
loop_
_space_group_symop_operation_xyz
x,y,z
-x,-y,-z
loop_
_atom_site_type_symbol
_atom_site_label
_atom_site_fract_x
_atom_site_fract_y
_atom_site_fract_z
Si Si1 0.465479 0.000117 0.683576
Si Si2 0.958854 0.184812 0.362494
Si Si3 0.213575 0.928503 0.283576
Si Si4 0.662300 0.859268 0.826890
Si Si5 0.235465 0.641604 0.109158
Si Si6 0.386994 0.315991 0.634826
Si Si7 0.080770 0.270781 0.840034
Si Si8 0.985903 0.157332 0.000800
O O1 0.628531 0.022190 0.724509
O O2 0.500000 0.000000 0.500000
O O3 0.468274 0.828071 0.520185
O O4 0.337155 0.125972 0.980135
O O5 0.154495 0.144492 0.277304
O O6 0.851836 0.318128 0.661449
O O7 0.927041 0.229930 0.261354
O O8 0.922522 0.024866 0.214448
O O9 0.260798 0.797028 0.230969
O O10 0.086542 0.098088 0.570907
O O11 0.160389 0.851802 0.068660
O O12 0.638057 0.719956 0.568752
O O13 0.500000 0.000000 0.000000
O O14 0.093710 0.616817 0.019630
O O15 0.390270 0.488537 0.865513
O O16 0.229099 0.311560 0.773122
O O17 0.083164 0.242557 0.975486
#
# Coordination Sequence:
#
# PCOD9039723 Si02
#       8
#     2   2   2   2   2   2   2   2
#     4  10  23  41  65  84 110 162 204 240 273 354
#     4  11  20  31  57  93 118 145 194 249 302 339
#     4  10  19  38  60  85 116 154 197 232 298 352
#     4  10  21  38  55  82 117 159 205 234 279 352
#     4  11  19  35  59  92 117 150 188 253 310 341
#     4  10  21  36  60  85 118 154 196 241 301 346
#     4  10  17  33  55  82 117 151 190 223 296 363
#     4  10  19  31  53  88 119 148 188 245 293 349
#
# _framework density 23.148095999999999
#
# number of rings (size 3 to 8) (size 9 to 14) (size 15 to 20)
#    0.000    1.750    3.750    2.625    3.500    0.000 
#    0.000    4.375    0.000    0.000    0.000    0.000 
#    0.000    0.000    0.000    0.000    0.000    0.000 
#
# Total GULP energy -89193.900542 kJ/mol
# GULP energy per Si atom -5574.618784 kJ/mol
# Density = 2.309541 g / cm^3
# Si number density = 23.148096 Si / 1000 Ang^3
#
#
#
# Elastic Constant Matrix: (Units=GPa)
#
#
# Indices 1 2 3 4 5 6 
#
# 1 51.6547 3.1136 9.4898 -4.3610 6.1440 -16.7823
# 2 3.1136 103.2120 66.5993 -28.9061 10.1463 -16.6876
# 3 9.4898 66.5993 144.3646 -23.0889 -0.4128 -17.8573
# 4 -4.3610 -28.9061 -23.0889 48.9321 -9.4440 14.2903
# 5 6.1440 10.1463 -0.4128 -9.4440 16.0726 -10.3420
# 6 -16.7823 -16.6876 -17.8573 14.2903 -10.3420 21.2587
#
#
#
# Elastic Compliance Matrix: (Units=1/GPa)
#
#
# Indices 1 2 3 4 5 6 
#
# 1 0.027478 0.002270 0.000019 -0.003567 0.003822 0.027747
# 2 0.002270 0.016286 -0.006636 0.004611 -0.007005 0.002494
# 3 0.000019 -0.006636 0.011254 0.000861 0.010692 0.008882
# 4 -0.003567 0.004611 0.000861 0.028734 0.005695 -0.015017
# 5 0.003822 -0.007005 0.010692 0.005695 0.102653 0.052610
# 6 0.027747 0.002494 0.008882 -0.015017 0.052610 0.114051
#
#
# Mechanical properties :
#
#
# Convention : Reuss Voigt Hill
#
# Bulk Modulus (GPa) = 21.58687 50.84853 36.21770
# Shear Modulus (GPa) = 15.40398 31.92124 23.66261
#
# Velocity S-wave (km/s) = 2.58244 3.71752 3.20070
# Velocity P-wave (km/s) = 4.27057 6.35932 5.41658
#
# Compressibility (1/GPa) = 0.04632445
#
# Stress axis : x y z
#
# Youngs Moduli (GPa) = 36.39247 61.40282 88.85575
#
# Poissons Ratio (x) = -0.13941 -0.00169
# Poissons Ratio (y) = -0.08263 0.58968
# Poissons Ratio (z) = -0.00069 0.40749
#
# Static dielectric constant tensor:
#      x y z
#    x 1.974620 -0.007520 -0.043840 
#    y -0.007520 1.967100 -0.046670 
#    z -0.043840 -0.046670 1.943230 
# 
# From -- ./inp_files/274606.got.cif
#   From: 2010.05.17/outbox.cif.g08.bks.cpg/sg2_138_cif.got.tgz:274606.got - 2010.06.03 11:33:40.
