data_PCOD9039614
_publ_section_title
;
Structure prediction by ZEFSAII (Michael W. Deem and Ramdas Pophale) SiO2 
 PCOD9039614
Probable space group: P -1
;
_chemical_formula_sum "Si O2"
_cell_formula_units_Z 16
_cell_length_a 12.188095
_cell_length_b 18.385801
_cell_length_c 12.216244
_cell_angle_alpha 29.894490
_cell_angle_beta 110.223051
_cell_angle_gamma 131.279711
_cell_volume 817.070951
_symmetry_space_group_name_H-M "P -1"
_symmetry_group_IT_number 2
_symmetry_cell_setting 'triclinic'
loop_
_space_group_symop_operation_xyz
x,y,z
-x,-y,-z
loop_
_atom_site_type_symbol
_atom_site_label
_atom_site_fract_x
_atom_site_fract_y
_atom_site_fract_z
Si Si1 0.779986 0.639433 0.294355
Si Si2 0.510331 0.879868 0.074084
Si Si3 0.235498 0.790967 0.955733
Si Si4 0.844311 0.079801 0.034156
Si Si5 0.774729 0.678944 0.495557
Si Si6 0.059255 0.706854 0.586551
Si Si7 0.340317 0.960037 0.528578
Si Si8 0.370116 0.211426 0.035856
O O1 0.606625 0.368484 0.598185
O O2 0.819978 0.726645 0.319256
O O3 0.734257 0.736571 0.079923
O O4 0.947082 0.712974 0.203597
O O5 0.717173 0.024782 0.967332
O O6 0.399683 0.839735 0.985856
O O7 0.500000 0.000000 0.000000
O O8 0.195986 0.869889 0.934384
O O9 0.298250 0.919811 0.694421
O O10 0.052673 0.519182 0.225562
O O11 0.798414 0.863591 0.310084
O O12 0.566181 0.425134 0.769904
O O13 0.911697 0.692812 0.577331
O O14 0.155939 0.738985 0.687185
O O15 0.235415 0.959765 0.266046
O O16 0.500000 0.000000 0.500000
O O17 0.392105 0.166588 0.223805
#
# Coordination Sequence:
#
# PCOD9039614 Si02
#       8
#     2   2   2   2   2   2   2   2
#     4  12  23  42  65 100 130 175 224 266 336 386
#     4  10  24  42  65  97 139 168 216 269 334 395
#     4  11  23  46  63 100 134 179 211 276 334 379
#     4  11  25  41  67  97 139 171 214 273 331 394
#     4  12  22  41  68  96 133 173 218 274 325 390
#     4  10  23  42  69  96 130 164 232 267 323 392
#     4  10  23  43  70  96 131 170 229 268 323 391
#     4  10  24  39  67 100 124 168 228 273 320 380
#
# _framework density 19.582144
#
# number of rings (size 3 to 8) (size 9 to 14) (size 15 to 20)
#    0.750    0.500    3.750    1.875    0.000    3.000 
#    6.750    3.125    0.000    0.000    0.000    0.000 
#    0.000    0.000    0.000    0.000    0.000    0.000 
#
# Total GULP energy -89242.466754 kJ/mol
# GULP energy per Si atom -5577.654172 kJ/mol
# Density = 1.953757 g / cm^3
# Si number density = 19.582144 Si / 1000 Ang^3
#
#
#
# Elastic Constant Matrix: (Units=GPa)
#
#
# Indices 1 2 3 4 5 6 
#
# 1 170.9510 84.5370 116.0455 7.1973 -40.3618 8.1917
# 2 84.5370 114.2457 65.4251 14.4209 -14.2871 9.0041
# 3 116.0455 65.4251 197.9671 10.4838 -51.6545 -6.3886
# 4 7.1973 14.4209 10.4838 28.9253 7.1401 4.5999
# 5 -40.3618 -14.2871 -51.6545 7.1401 57.5178 -6.3321
# 6 8.1917 9.0041 -6.3886 4.5999 -6.3321 44.3184
#
#
#
# Elastic Compliance Matrix: (Units=1/GPa)
#
#
# Indices 1 2 3 4 5 6 
#
# 1 0.013120 -0.006604 -0.004886 0.001338 0.002845 -0.001520
# 2 -0.006604 0.014897 -0.001322 -0.004593 -0.001745 -0.001769
# 3 -0.004886 -0.001322 0.010414 -0.004161 0.006557 0.004042
# 4 0.001338 -0.004593 -0.004161 0.041315 -0.009682 -0.005586
# 5 0.002845 -0.001745 0.006557 -0.009682 0.026654 0.005587
# 6 -0.001520 -0.001769 0.004042 -0.005586 0.005587 0.025165
#
#
# Mechanical properties :
#
#
# Convention : Reuss Voigt Hill
#
# Bulk Modulus (GPa) = 78.07089 112.79768 95.43428
# Shear Modulus (GPa) = 30.96786 40.62937 35.79862
#
# Velocity S-wave (km/s) = 3.98104 4.55996 4.28030
# Velocity P-wave (km/s) = 7.81579 9.24401 8.55974
#
# Compressibility (1/GPa) = 0.01280887
#
# Stress axis : x y z
#
# Youngs Moduli (GPa) = 76.21870 67.12676 96.02609
#
# Poissons Ratio (x) = 0.44328 0.46919
# Poissons Ratio (y) = 0.50331 0.12690
# Poissons Ratio (z) = 0.37241 0.08871
#
# Static dielectric constant tensor:
#      x y z
#    x 1.672340 0.023600 -0.008070 
#    y 0.023600 1.696200 -0.000820 
#    z -0.008070 -0.000820 1.703660 
# 
# From -- ./inp_files/436396.got.cif
#   From: 2010.05.17/outbox.cif.g08.bks.cpg/sg2_219_cif.got.tgz:436396.got - 2010.06.03 11:33:40.
