data_PCOD9039806
_publ_section_title
;
Structure prediction by ZEFSAII (Michael W. Deem and Ramdas Pophale) SiO2 
 PCOD9039806
Probable space group: P -1
;
_chemical_formula_sum "Si O2"
_cell_formula_units_Z 12
_cell_length_a 21.187545
_cell_length_b 7.640173
_cell_length_c 12.732841
_cell_angle_alpha 38.873434
_cell_angle_beta 24.491270
_cell_angle_gamma 41.983902
_cell_volume 531.427940
_symmetry_space_group_name_H-M "P -1"
_symmetry_group_IT_number 2
_symmetry_cell_setting 'triclinic'
loop_
_space_group_symop_operation_xyz
x,y,z
-x,-y,-z
loop_
_atom_site_type_symbol
_atom_site_label
_atom_site_fract_x
_atom_site_fract_y
_atom_site_fract_z
Si Si1 0.890318 0.197514 0.425238
Si Si2 0.837165 0.259793 0.708323
Si Si3 0.369612 0.849618 0.321475
Si Si4 0.664504 0.310777 0.339347
Si Si5 0.006284 0.663690 0.141356
Si Si6 0.582328 0.270980 0.256923
O O1 0.805870 0.160291 0.683129
O O2 0.785254 0.129603 0.520578
O O3 0.929658 0.518572 0.226776
O O4 0.045696 0.981423 0.300465
O O5 0.926644 0.527623 0.424105
O O6 0.687128 0.323537 0.975106
O O7 0.343650 0.924196 0.448836
O O8 0.446668 0.526800 0.354549
O O9 0.500000 0.000000 0.000000
O O10 0.500000 0.500000 0.500000
O O11 0.686297 0.228516 0.223870
O O12 0.812754 0.453491 0.079400
O O13 0.000000 0.000000 0.000000
O O14 0.500000 0.000000 0.500000
#
# Coordination Sequence:
#
# PCOD9039806 Si02
#       6
#     2   2   2   2   2   2
#     4   9  23  44  71 100 141 186 229 280 360 411
#     4   9  23  44  71 100 141 186 229 280 360 411
#     4  11  27  44  72 101 141 185 232 293 345 416
#     4  10  26  44  67  99 142 183 237 274 357 404
#     4  10  23  42  71 103 138 182 230 298 330 422
#     4  11  27  44  72 101 141 185 232 293 345 416
#
# _framework density 22.580673000000001
#
# number of rings (size 3 to 8) (size 9 to 14) (size 15 to 20)
#    1.000    1.000    0.000    0.000   16.333    3.333 
#    0.000    0.000    0.000    0.000    0.000    0.000 
#    0.000    0.000    0.000    0.000    0.000    0.000 
#
# Total GULP energy -66952.482866 kJ/mol
# GULP energy per Si atom -5579.373572 kJ/mol
# Density = 2.252928 g / cm^3
# Si number density = 22.580673 Si / 1000 Ang^3
#
#
#
# Elastic Constant Matrix: (Units=GPa)
#
#
# Indices 1 2 3 4 5 6 
#
# 1 85.5953 -7.2977 1.0443 7.1137 -11.4093 -16.9579
# 2 -7.2977 90.8530 5.0012 -17.5734 -4.1548 -10.6196
# 3 1.0443 5.0012 106.0109 -3.9554 7.4283 -4.2227
# 4 7.1137 -17.5734 -3.9554 44.3286 6.1672 1.0776
# 5 -11.4093 -4.1548 7.4283 6.1672 36.6974 1.4999
# 6 -16.9579 -10.6196 -4.2227 1.0776 1.4999 18.7306
#
#
#
# Elastic Compliance Matrix: (Units=1/GPa)
#
#
# Indices 1 2 3 4 5 6 
#
# 1 0.015942 0.002876 -0.000115 -0.002519 0.005084 0.015776
# 2 0.002876 0.013292 -0.000196 0.004372 0.001306 0.009740
# 3 -0.000115 -0.000196 0.009728 0.001077 -0.002294 0.002100
# 4 -0.002519 0.004372 0.001077 0.025470 -0.004760 -0.000643
# 5 0.005084 0.001306 -0.002294 -0.004760 0.030133 0.002687
# 6 0.015776 0.009740 0.002100 -0.000643 0.002687 0.073489
#
#
# Mechanical properties :
#
#
# Convention : Reuss Voigt Hill
#
# Bulk Modulus (GPa) = 22.67900 31.10609 26.89255
# Shear Modulus (GPa) = 28.14984 38.86541 33.50763
#
# Velocity S-wave (km/s) = 3.53460 4.15321 3.85633
# Velocity P-wave (km/s) = 5.16945 6.06666 5.63594
#
# Compressibility (1/GPa) = 0.04409366
#
# Stress axis : x y z
#
# Youngs Moduli (GPa) = 62.72768 75.23048 102.79700
#
# Poissons Ratio (x) = -0.21637 0.01178
# Poissons Ratio (y) = -0.18041 0.02013
# Poissons Ratio (z) = 0.00719 0.01473
#
# Static dielectric constant tensor:
#      x y z
#    x 1.863620 0.033270 0.051950 
#    y 0.033270 1.847620 -0.011100 
#    z 0.051950 -0.011100 1.800320 
# 
# From -- ./inp_files/542480.got.cif
#   From: 2010.05.17/outbox.cif.g08.bks.cpg/sg2_272_cif.got.tgz:542480.got - 2010.06.03 11:33:40.
