data_PCOD9039192
_publ_section_title
;
Structure prediction by ZEFSAII (Michael W. Deem and Ramdas Pophale) SiO2 
 PCOD9039192
Probable space group: P -1
;
_chemical_formula_sum "Si O2"
_cell_formula_units_Z 13
_cell_length_a 7.002781
_cell_length_b 13.763454
_cell_length_c 12.319068
_cell_angle_alpha 149.341266
_cell_angle_beta 125.680972
_cell_angle_gamma 57.974889
_cell_volume 490.626578
_symmetry_space_group_name_H-M "P -1"
_symmetry_group_IT_number 2
_symmetry_cell_setting 'triclinic'
loop_
_space_group_symop_operation_xyz
x,y,z
-x,-y,-z
loop_
_atom_site_type_symbol
_atom_site_label
_atom_site_fract_x
_atom_site_fract_y
_atom_site_fract_z
Si Si1 0.656771 0.623809 0.018719
Si Si2 0.813144 0.317890 0.396664
Si Si3 0.538532 0.064739 0.411469
Si Si4 0.522822 0.599482 0.442186
Si Si5 0.039497 0.989257 0.259717
Si Si6 0.862782 0.439234 0.119028
Si Si7 0.000000 0.000000 0.500000
O O1 0.654408 0.518501 0.802280
O O2 0.397090 0.595089 0.953038
O O3 0.827258 0.539343 0.086954
O O4 0.682767 0.853478 0.234443
O O5 0.735291 0.440291 0.383597
O O6 0.587554 0.332926 0.415664
O O7 0.906126 0.097760 0.219042
O O8 0.014508 0.421700 0.625916
O O9 0.434101 0.208007 0.423489
O O10 0.317148 0.025079 0.372965
O O11 0.774203 0.149277 0.615723
O O12 0.950015 0.073219 0.425888
O O13 0.000771 0.766947 0.028490
#
# Coordination Sequence:
#
# PCOD9039192 Si02
#       7
#     2   2   2   2   2   2   1
#     4  10  23  42  67 100 135 175 225 280 339 406
#     4  11  25  44  68  99 137 184 231 278 337 405
#     4  11  24  42  67 101 137 176 227 280 336 405
#     4  11  25  44  68  99 137 184 231 278 337 405
#     4  11  24  42  67 101 137 176 227 280 336 405
#     4  10  23  42  67 100 135 175 225 280 339 406
#     4  12  22  40  68 100 134 180 216 274 344 398
#
# _framework density 26.496731
#
# number of rings (size 3 to 8) (size 9 to 14) (size 15 to 20)
#    0.000    1.231    1.538    3.231    2.154    6.769 
#    0.000    6.154    0.000    0.000    0.000    0.000 
#    0.000    0.000    0.000    0.000    0.000    0.000 
#
# Total GULP energy -72583.252830 kJ/mol
# GULP energy per Si atom -5583.327141 kJ/mol
# Density = 2.643642 g / cm^3
# Si number density = 26.496731 Si / 1000 Ang^3
#
#
#
# Elastic Constant Matrix: (Units=GPa)
#
#
# Indices 1 2 3 4 5 6 
#
# 1 114.8374 42.1123 -5.3565 17.2996 6.4054 11.7245
# 2 42.1123 217.4457 40.3110 35.7910 19.7852 6.5916
# 3 -5.3565 40.3110 82.1247 32.6765 11.9740 10.7359
# 4 17.2996 35.7910 32.6765 45.6106 2.8614 4.0920
# 5 6.4054 19.7852 11.9740 2.8614 26.3869 5.7991
# 6 11.7245 6.5916 10.7359 4.0920 5.7991 37.3262
#
#
#
# Elastic Compliance Matrix: (Units=1/GPa)
#
#
# Indices 1 2 3 4 5 6 
#
# 1 0.010861 -0.001738 0.004522 -0.005556 -0.002017 -0.003483
# 2 -0.001738 0.005947 -0.001571 -0.002748 -0.003190 0.000745
# 3 0.004522 -0.001571 0.020512 -0.014360 -0.006697 -0.004428
# 4 -0.005556 -0.002748 -0.014360 0.035982 0.005687 0.001533
# 5 -0.002017 -0.003190 -0.006697 0.005687 0.044160 -0.004361
# 6 -0.003483 0.000745 -0.004428 0.001533 -0.004361 0.029536
#
#
# Mechanical properties :
#
#
# Convention : Reuss Voigt Hill
#
# Bulk Modulus (GPa) = 25.16055 63.17127 44.16591
# Shear Modulus (GPa) = 31.68141 44.35413 38.01777
#
# Velocity S-wave (km/s) = 3.46160 4.09583 3.79200
# Velocity P-wave (km/s) = 5.04908 6.80152 5.98974
#
# Compressibility (1/GPa) = 0.03974476
#
# Stress axis : x y z
#
# Youngs Moduli (GPa) = 92.06957 168.15930 48.75295
#
# Poissons Ratio (x) = 0.29228 -0.22045
# Poissons Ratio (y) = 0.16003 0.07659
# Poissons Ratio (z) = -0.41631 0.26419
#
# Static dielectric constant tensor:
#      x y z
#    x 1.822250 0.021890 -0.375720 
#    y 0.021890 2.126990 0.119340 
#    z -0.375720 0.119340 1.686540 
# 
# From -- ./inp_files/502397.got.cif
#   From: 2010.05.17/outbox.cif.g08.bks.cpg/sg2_252_cif.got.tgz:502397.got - 2010.06.03 11:33:40.
