data_PCOD9039097
_publ_section_title
;
Structure prediction by ZEFSAII (Michael W. Deem and Ramdas Pophale) SiO2 
 PCOD9039097
Probable space group: P -1
;
_chemical_formula_sum "Si O2"
_cell_formula_units_Z 16
_cell_length_a 6.060314
_cell_length_b 7.838333
_cell_length_c 20.655636
_cell_angle_alpha 53.515771
_cell_angle_beta 75.670481
_cell_angle_gamma 60.410670
_cell_volume 684.528088
_symmetry_space_group_name_H-M "P -1"
_symmetry_group_IT_number 2
_symmetry_cell_setting 'triclinic'
loop_
_space_group_symop_operation_xyz
x,y,z
-x,-y,-z
loop_
_atom_site_type_symbol
_atom_site_label
_atom_site_fract_x
_atom_site_fract_y
_atom_site_fract_z
Si Si1 0.729506 0.154157 0.568688
Si Si2 0.995521 0.388445 0.744840
Si Si3 0.881464 0.319650 0.996015
Si Si4 0.734422 0.909294 0.083543
Si Si5 0.519879 0.172893 0.334642
Si Si6 0.061661 0.935069 0.289280
Si Si7 0.752217 0.318418 0.396445
Si Si8 0.776643 0.823538 0.879532
O O1 0.699235 0.336773 0.472622
O O2 0.510141 0.068022 0.604096
O O3 0.792601 0.199950 0.626346
O O4 0.980166 0.914043 0.583407
O O5 0.091786 0.234397 0.836670
O O6 0.204369 0.470033 0.685542
O O7 0.732858 0.622042 0.723562
O O8 0.950205 0.237896 0.725599
O O9 0.721866 0.595715 0.931340
O O10 0.144723 0.242726 0.954350
O O11 0.966483 0.264554 0.076839
O O12 0.760207 0.152125 0.018922
O O13 0.449740 0.971698 0.110598
O O14 0.776519 0.115611 0.290328
O O15 0.551044 0.264431 0.382672
O O16 0.194184 0.081511 0.213316
#
# Coordination Sequence:
#
# PCOD9039097 Si02
#       8
#     2   2   2   2   2   2   2   2
#     4   9  20  40  65  94 127 170 218 263 317 377
#     4  11  25  40  64  98 131 170 212 264 318 381
#     4  10  24  44  64  98 120 168 212 260 326 372
#     4  11  24  43  67  93 130 164 212 265 314 382
#     4  10  23  42  66  92 128 174 212 266 318 374
#     4  11  25  40  64  98 131 170 212 264 318 381
#     4   9  20  40  65  94 127 170 218 263 317 377
#     4  11  24  43  67  93 130 164 212 265 314 382
#
# _framework density 23.373764999999999
#
# number of rings (size 3 to 8) (size 9 to 14) (size 15 to 20)
#    0.000    1.750    1.250    1.125    8.750    1.500 
#    9.000    1.250    0.000    0.000    0.000    0.000 
#    0.000    0.000    0.000    0.000    0.000    0.000 
#
# Total GULP energy -89527.212024 kJ/mol
# GULP energy per Si atom -5595.450752 kJ/mol
# Density = 2.332057 g / cm^3
# Si number density = 23.373765 Si / 1000 Ang^3
#
#
#
# Elastic Constant Matrix: (Units=GPa)
#
#
# Indices 1 2 3 4 5 6 
#
# 1 55.5500 6.2310 20.7751 2.9965 5.0443 -0.3686
# 2 6.2310 65.2817 30.2021 6.6078 4.8480 -8.0205
# 3 20.7751 30.2021 108.0969 11.8771 6.8052 -0.9329
# 4 2.9965 6.6078 11.8771 31.2528 5.6786 -5.2350
# 5 5.0443 4.8480 6.8052 5.6786 21.8924 5.6711
# 6 -0.3686 -8.0205 -0.9329 -5.2350 5.6711 39.5981
#
#
#
# Elastic Compliance Matrix: (Units=1/GPa)
#
#
# Indices 1 2 3 4 5 6 
#
# 1 0.019661 0.000122 -0.003602 0.000240 -0.003676 0.000681
# 2 0.000122 0.018359 -0.004818 -0.000770 -0.003432 0.003996
# 3 -0.003602 -0.004818 0.011664 -0.003129 -0.000644 -0.001056
# 4 0.000240 -0.000770 -0.003129 0.036107 -0.009820 0.005953
# 5 -0.003676 -0.003432 -0.000644 -0.009820 0.052510 -0.009563
# 6 0.000681 0.003996 -0.001056 0.005953 -0.009563 0.028201
#
#
# Mechanical properties :
#
#
# Convention : Reuss Voigt Hill
#
# Bulk Modulus (GPa) = 30.22130 38.14944 34.18537
# Shear Modulus (GPa) = 25.75634 29.99668 27.87651
#
# Velocity S-wave (km/s) = 3.32314 3.58627 3.45721
# Velocity P-wave (km/s) = 5.26137 5.78838 5.53116
#
# Compressibility (1/GPa) = 0.03308924
#
# Stress axis : x y z
#
# Youngs Moduli (GPa) = 50.86334 54.46848 85.73025
#
# Poissons Ratio (x) = -0.00665 0.30878
# Poissons Ratio (y) = -0.00621 0.41304
# Poissons Ratio (z) = 0.18320 0.26243
#
# Static dielectric constant tensor:
#      x y z
#    x 1.898840 -0.022710 -0.015810 
#    y -0.022710 1.896790 -0.006620 
#    z -0.015810 -0.006620 1.845110 
# 
# From -- ./inp_files/53231.got.cif
#   From: 2010.05.17/outbox.cif.g08.bks.cpg/sg2_27_cif.got.tgz:53231.got - 2010.06.03 11:33:40.
