data_PCOD9039063
_publ_section_title
;
Structure prediction by ZEFSAII (Michael W. Deem and Ramdas Pophale) SiO2 
 PCOD9039063
Probable space group: P -1
;
_chemical_formula_sum "Si O2"
_cell_formula_units_Z 16
_cell_length_a 16.730676
_cell_length_b 20.208357
_cell_length_c 8.984248
_cell_angle_alpha 64.463067
_cell_angle_beta 126.050912
_cell_angle_gamma 160.019396
_cell_volume 752.930086
_symmetry_space_group_name_H-M "P -1"
_symmetry_group_IT_number 2
_symmetry_cell_setting 'triclinic'
loop_
_space_group_symop_operation_xyz
x,y,z
-x,-y,-z
loop_
_atom_site_type_symbol
_atom_site_label
_atom_site_fract_x
_atom_site_fract_y
_atom_site_fract_z
Si Si1 0.942848 0.902023 0.244642
Si Si2 0.301394 0.681020 0.220750
Si Si3 0.632050 0.790489 0.325585
Si Si4 0.482170 0.528526 0.294977
Si Si5 0.156832 0.942300 0.944403
Si Si6 0.596181 0.788889 0.808290
Si Si7 0.058081 0.485301 0.441776
Si Si8 0.485465 0.063241 0.016702
O O1 0.740737 0.698267 0.294804
O O2 0.731366 0.812941 0.018530
O O3 0.125104 0.061034 0.430156
O O4 0.193418 0.055242 0.254508
O O5 0.375823 0.651787 0.273094
O O6 0.274237 0.671657 0.374917
O O7 0.528273 0.888446 0.181077
O O8 0.000000 0.500000 0.000000
O O9 0.507965 0.632954 0.260116
O O10 0.770504 0.946448 0.211705
O O11 0.500000 0.500000 0.500000
O O12 0.169223 0.285052 0.131590
O O13 0.362433 0.111655 0.137763
O O14 0.226311 0.910427 0.986300
O O15 0.249333 0.547010 0.634768
O O16 0.000000 0.500000 0.500000
O O17 0.767839 0.266411 0.238761
O O18 0.500000 0.000000 0.000000
#
# Coordination Sequence:
#
# PCOD9039063 Si02
#       8
#     2   2   2   2   2   2   2   2
#     4  11  23  41  66  96 135 180 223 276 335 409
#     4   9  21  38  66  94 122 176 218 271 332 401
#     4  11  21  43  66  93 135 175 231 273 332 402
#     4  12  24  38  68  99 126 174 229 281 329 387
#     4  11  23  41  67  97 134 175 225 284 332 407
#     4  11  23  42  66  95 136 180 220 269 349 413
#     4  11  21  42  69  96 128 179 222 268 350 412
#     4  10  23  42  66 101 134 168 228 283 331 400
#
# _framework density 21.250312000000001
#
# number of rings (size 3 to 8) (size 9 to 14) (size 15 to 20)
#    0.000    1.250    5.000    1.125    3.500    0.500 
#    0.000    1.875    0.000    0.000    0.000    0.000 
#    0.000    0.000    0.000    0.000    0.000    0.000 
#
# Total GULP energy -89115.149185 kJ/mol
# GULP energy per Si atom -5569.696824 kJ/mol
# Density = 2.120194 g / cm^3
# Si number density = 21.250312 Si / 1000 Ang^3
#
#
#
# Elastic Constant Matrix: (Units=GPa)
#
#
# Indices 1 2 3 4 5 6 
#
# 1 118.7799 19.8509 30.3682 -13.7127 -5.8177 13.3515
# 2 19.8509 70.3773 19.2011 -5.3236 -5.3263 15.0226
# 3 30.3682 19.2011 90.7324 3.2238 -4.8662 13.6572
# 4 -13.7127 -5.3236 3.2238 24.5172 7.7990 -2.3726
# 5 -5.8177 -5.3263 -4.8662 7.7990 37.7403 0.4236
# 6 13.3515 15.0226 13.6572 -2.3726 0.4236 36.5004
#
#
#
# Elastic Compliance Matrix: (Units=1/GPa)
#
#
# Indices 1 2 3 4 5 6 
#
# 1 0.010280 -0.001259 -0.003134 0.005779 -0.000173 -0.001692
# 2 -0.001259 0.016618 -0.002283 0.002218 0.001459 -0.005397
# 3 -0.003134 -0.002283 0.013323 -0.004941 0.001970 -0.003243
# 4 0.005779 0.002218 -0.004941 0.048358 -0.009450 0.002075
# 5 -0.000173 0.001459 0.001970 -0.009450 0.028908 -0.002224
# 6 -0.001692 -0.005397 -0.003243 0.002075 -0.002224 0.031611
#
#
# Mechanical properties :
#
#
# Convention : Reuss Voigt Hill
#
# Bulk Modulus (GPa) = 37.22079 46.52556 41.87318
# Shear Modulus (GPa) = 29.17048 33.78286 31.47667
#
# Velocity S-wave (km/s) = 3.70903 3.99150 3.85285
# Velocity P-wave (km/s) = 5.99132 6.57148 6.28810
#
# Compressibility (1/GPa) = 0.02686670
#
# Stress axis : x y z
#
# Youngs Moduli (GPa) = 97.28046 60.17739 75.05846
#
# Poissons Ratio (x) = 0.07578 0.23524
# Poissons Ratio (y) = 0.12250 0.17139
# Poissons Ratio (z) = 0.30488 0.13741
#
# Static dielectric constant tensor:
#      x y z
#    x 1.853680 0.030660 0.025600 
#    y 0.030660 1.806170 -0.014390 
#    z 0.025600 -0.014390 1.850540 
# 
# From -- ./inp_files/337691.got.cif
#   From: 2010.05.17/outbox.cif.g08.bks.cpg/sg2_169_cif.got.tgz:337691.got - 2010.06.03 11:33:40.
