data_PCOD9039902
_publ_section_title
;
Structure prediction by ZEFSAII (Michael W. Deem and Ramdas Pophale) SiO2 
 PCOD9039902
Probable space group: P -1
;
_chemical_formula_sum "Si O2"
_cell_formula_units_Z 14
_cell_length_a 5.999312
_cell_length_b 15.710557
_cell_length_c 23.907597
_cell_angle_alpha 161.274480
_cell_angle_beta 97.084957
_cell_angle_gamma 93.466588
_cell_volume 596.469262
_symmetry_space_group_name_H-M "P -1"
_symmetry_group_IT_number 2
_symmetry_cell_setting 'triclinic'
loop_
_space_group_symop_operation_xyz
x,y,z
-x,-y,-z
loop_
_atom_site_type_symbol
_atom_site_label
_atom_site_fract_x
_atom_site_fract_y
_atom_site_fract_z
Si Si1 0.830259 0.660803 0.113834
Si Si2 0.304121 0.689731 0.898701
Si Si3 0.096832 0.736972 0.565769
Si Si4 0.913861 0.235068 0.694971
Si Si5 0.952941 0.654936 0.783779
Si Si6 0.365779 0.546453 0.237015
Si Si7 0.575659 0.271154 0.333716
O O1 0.914093 0.726796 0.222585
O O2 0.938306 0.991382 0.290551
O O3 0.500000 0.500000 0.000000
O O4 0.000000 0.500000 0.000000
O O5 0.590560 0.736105 0.940547
O O6 0.102995 0.379720 0.736591
O O7 0.224312 0.677341 0.824659
O O8 0.328563 0.986322 0.114317
O O9 0.152785 0.559881 0.408029
O O10 0.336669 0.867054 0.699382
O O11 0.825835 0.475069 0.426631
O O12 0.780499 0.441199 0.815136
O O13 0.652671 0.881068 0.460110
O O14 0.775460 0.485507 0.728269
O O15 0.000000 0.000000 0.000000
O O16 0.500000 0.500000 0.500000
#
# Coordination Sequence:
#
# PCOD9039902 Si02
#       7
#     2   2   2   2   2   2   2
#     4  12  30  48  76 112 154 205 254 313 380 460
#     4  11  23  42  69  99 139 186 245 300 376 443
#     4  11  27  46  70 104 146 190 249 311 377 447
#     4  10  24  42  69 103 144 185 245 302 374 441
#     4  11  24  43  69 106 140 187 247 313 378 447
#     4  10  23  42  72 102 141 188 238 313 372 450
#     4  11  26  45  70  99 142 194 245 304 375 451
#
# _framework density 23.471449
#
# number of rings (size 3 to 8) (size 9 to 14) (size 15 to 20)
#    0.000    1.143    0.000    3.857   10.000    8.000 
#    0.000    0.000    0.000    0.000    0.000    0.000 
#    0.000    0.000    0.000    0.000    0.000    0.000 
#
# Total GULP energy -78117.896939 kJ/mol
# GULP energy per Si atom -5579.849781 kJ/mol
# Density = 2.341803 g / cm^3
# Si number density = 23.471449 Si / 1000 Ang^3
#
#
#
# Elastic Constant Matrix: (Units=GPa)
#
#
# Indices 1 2 3 4 5 6 
#
# 1 89.0027 36.3619 22.3335 7.8723 -13.1846 -20.5968
# 2 36.3619 131.6601 27.6011 -1.1257 1.8182 -25.5657
# 3 22.3335 27.6011 61.2585 8.2336 -3.6836 1.3720
# 4 7.8723 -1.1257 8.2336 31.2838 -6.9459 1.3106
# 5 -13.1846 1.8182 -3.6836 -6.9459 42.2270 -1.1183
# 6 -20.5968 -25.5657 1.3720 1.3106 -1.1183 45.4796
#
#
#
# Elastic Compliance Matrix: (Units=1/GPa)
#
#
# Indices 1 2 3 4 5 6 
#
# 1 0.015450 -0.002306 -0.004176 -0.002154 0.004363 0.005996
# 2 -0.002306 0.010010 -0.004051 0.001563 -0.001125 0.004632
# 3 -0.004176 -0.004051 0.020343 -0.004295 -0.000185 -0.004663
# 4 -0.002154 0.001563 -0.004295 0.034746 0.004578 -0.000856
# 5 0.004363 -0.001125 -0.000185 0.004578 0.025878 0.001854
# 6 0.005996 0.004632 -0.004663 -0.000856 0.001854 0.027518
#
#
# Mechanical properties :
#
#
# Convention : Reuss Voigt Hill
#
# Bulk Modulus (GPa) = 40.42592 50.50158 45.46375
# Shear Modulus (GPa) = 30.62663 36.83975 33.73319
#
# Velocity S-wave (km/s) = 3.61618 3.96606 3.79516
# Velocity P-wave (km/s) = 5.89038 6.52194 6.21419
#
# Compressibility (1/GPa) = 0.02473660
#
# Stress axis : x y z
#
# Youngs Moduli (GPa) = 64.72429 99.90315 49.15807
#
# Poissons Ratio (x) = 0.23036 0.20530
# Poissons Ratio (y) = 0.14924 0.19913
# Poissons Ratio (z) = 0.27030 0.40469
#
# Static dielectric constant tensor:
#      x y z
#    x 2.128510 -0.053850 0.005110 
#    y -0.053850 1.829210 0.026380 
#    z 0.005110 0.026380 1.887660 
# 
# From -- ./inp_files/485903.got.cif
#   From: 2010.05.17/outbox.cif.g08.bks.cpg/sg2_243_cif.got.tgz:485903.got - 2010.06.03 11:33:40.
