data_PCOD9039805
_publ_section_title
;
Structure prediction by ZEFSAII (Michael W. Deem and Ramdas Pophale) SiO2 
 PCOD9039805
Probable space group: P -1
;
_chemical_formula_sum "Si O2"
_cell_formula_units_Z 14
_cell_length_a 12.436860
_cell_length_b 8.110976
_cell_length_c 13.311915
_cell_angle_alpha 145.140564
_cell_angle_beta 112.168345
_cell_angle_gamma 54.795163
_cell_volume 613.823868
_symmetry_space_group_name_H-M "P -1"
_symmetry_group_IT_number 2
_symmetry_cell_setting 'triclinic'
loop_
_space_group_symop_operation_xyz
x,y,z
-x,-y,-z
loop_
_atom_site_type_symbol
_atom_site_label
_atom_site_fract_x
_atom_site_fract_y
_atom_site_fract_z
Si Si1 0.051345 0.749577 0.672898
Si Si2 0.623100 0.250352 0.542863
Si Si3 0.327152 0.474334 0.512057
Si Si4 0.810152 0.494863 0.192095
Si Si5 0.654808 0.788245 0.925065
Si Si6 0.356718 0.833433 0.093357
Si Si7 0.119679 0.510400 0.994755
O O1 0.183001 0.679184 0.618840
O O2 0.098449 0.702745 0.781722
O O3 0.000000 0.500000 0.500000
O O4 0.921780 0.113658 0.804318
O O5 0.464234 0.393382 0.577923
O O6 0.654397 0.353505 0.495886
O O7 0.680030 0.423810 0.722529
O O8 0.697383 0.852416 0.373067
O O9 0.339371 0.120968 0.307853
O O10 0.885613 0.553411 0.156475
O O11 0.745287 0.304822 0.016966
O O12 0.668610 0.980194 0.930310
O O13 0.742420 0.751165 0.034323
O O14 0.500000 0.000000 0.000000
O O15 0.500000 0.500000 0.000000
O O16 0.000000 0.500000 0.000000
#
# Coordination Sequence:
#
# PCOD9039805 Si02
#       7
#     2   2   2   2   2   2   2
#     4  12  27  46  69 100 145 187 237 291 358 425
#     4  10  23  42  71 103 138 180 238 288 350 420
#     4  10  23  44  69 101 141 186 228 291 354 423
#     4  12  25  44  72 104 138 183 236 295 353 414
#     4  11  26  44  72 101 141 189 238 283 348 425
#     4  11  22  42  69 109 141 176 229 297 352 407
#     4  12  27  47  70 101 142 189 237 287 355 430
#
# _framework density 22.807843999999999
#
# number of rings (size 3 to 8) (size 9 to 14) (size 15 to 20)
#    0.000    0.857    1.429    4.714    8.000    4.000 
#    0.000    5.000    0.000    0.000    0.000    0.000 
#    0.000    0.000    0.000    0.000    0.000    0.000 
#
# Total GULP energy -78260.510181 kJ/mol
# GULP energy per Si atom -5590.036441 kJ/mol
# Density = 2.275593 g / cm^3
# Si number density = 22.807844 Si / 1000 Ang^3
#
#
#
# Elastic Constant Matrix: (Units=GPa)
#
#
# Indices 1 2 3 4 5 6 
#
# 1 106.3108 29.6993 10.0182 -7.1570 -11.5550 -9.8798
# 2 29.6993 112.8391 21.2784 -0.0888 -7.2635 -18.2347
# 3 10.0182 21.2784 82.2603 15.7553 7.5773 2.5508
# 4 -7.1570 -0.0888 15.7553 38.9985 0.2905 -5.4223
# 5 -11.5550 -7.2635 7.5773 0.2905 40.7263 2.5935
# 6 -9.8798 -18.2347 2.5508 -5.4223 2.5935 19.8406
#
#
#
# Elastic Compliance Matrix: (Units=1/GPa)
#
#
# Indices 1 2 3 4 5 6 
#
# 1 0.011036 -0.001535 -0.002039 0.003509 0.002898 0.004928
# 2 -0.001535 0.011953 -0.003968 0.002908 0.001694 0.011304
# 3 -0.002039 -0.003968 0.015509 -0.007778 -0.003587 -0.008313
# 4 0.003509 0.002908 -0.007778 0.031331 0.001863 0.013739
# 5 0.002898 0.001694 -0.003587 0.001863 0.026299 0.000533
# 6 0.004928 0.011304 -0.008313 0.013739 0.000533 0.067999
#
#
# Mechanical properties :
#
#
# Convention : Reuss Voigt Hill
#
# Bulk Modulus (GPa) = 42.70927 47.04467 44.87697
# Shear Modulus (GPa) = 26.73573 35.94072 31.33822
#
# Velocity S-wave (km/s) = 3.42748 3.97395 3.71079
# Velocity P-wave (km/s) = 5.86769 6.45969 6.17080
#
# Compressibility (1/GPa) = 0.02341412
#
# Stress axis : x y z
#
# Youngs Moduli (GPa) = 90.60900 83.66417 64.47755
#
# Poissons Ratio (x) = 0.12840 0.13147
# Poissons Ratio (y) = 0.13906 0.25587
# Poissons Ratio (z) = 0.18475 0.33201
#
# Static dielectric constant tensor:
#      x y z
#    x 1.983130 0.291380 0.399140 
#    y 0.291380 2.214850 0.480930 
#    z 0.399140 0.480930 2.118880 
# 
# From -- ./inp_files/159382.got.cif
#   From: 2010.05.17/outbox.cif.g08.bks.cpg/sg2_80_cif.got.tgz:159382.got - 2010.06.03 11:33:40.
