data_PCOD9039461
_publ_section_title
;
Structure prediction by ZEFSAII (Michael W. Deem and Ramdas Pophale) SiO2 
 PCOD9039461
Probable space group: P -1
;
_chemical_formula_sum "Si O2"
_cell_formula_units_Z 14
_cell_length_a 8.568220
_cell_length_b 18.166396
_cell_length_c 12.446386
_cell_angle_alpha 28.522252
_cell_angle_beta 44.521455
_cell_angle_gamma 52.958206
_cell_volume 646.962871
_symmetry_space_group_name_H-M "P -1"
_symmetry_group_IT_number 2
_symmetry_cell_setting 'triclinic'
loop_
_space_group_symop_operation_xyz
x,y,z
-x,-y,-z
loop_
_atom_site_type_symbol
_atom_site_label
_atom_site_fract_x
_atom_site_fract_y
_atom_site_fract_z
Si Si1 0.427933 0.874191 0.783302
Si Si2 0.747083 0.068191 0.759370
Si Si3 0.170095 0.868274 0.118358
Si Si4 0.144259 0.680250 0.799786
Si Si5 0.326333 0.412461 0.952632
Si Si6 0.028783 0.780815 0.952864
Si Si7 0.304623 0.519844 0.481771
O O1 0.191961 0.799951 0.949735
O O2 0.500000 0.000000 0.500000
O O3 0.385295 0.917952 0.872258
O O4 0.618512 0.757697 0.827511
O O5 0.835815 0.122333 0.762447
O O6 0.769850 0.206120 0.484797
O O7 0.884535 0.928772 0.828497
O O8 0.500000 0.000000 0.000000
O O9 0.178944 0.679765 0.341999
O O10 0.000000 0.000000 0.000000
O O11 0.275774 0.526618 0.926221
O O12 0.158287 0.764679 0.798077
O O13 0.889607 0.613962 0.984369
O O14 0.548371 0.479705 0.698266
O O15 0.868922 0.626557 0.240206
O O16 0.500000 0.500000 0.500000
#
# Coordination Sequence:
#
# PCOD9039461 Si02
#       7
#     2   2   2   2   2   2   2
#     4  11  26  46  67  98 141 184 223 283 349 414
#     4  12  26  43  68 101 136 180 233 282 342 413
#     4  11  25  46  69  98 138 186 223 282 349 410
#     4  11  24  42  69 102 131 178 231 287 335 409
#     4  10  23  42  68  96 137 180 225 277 351 404
#     4  12  25  43  71 104 135 178 233 286 339 409
#     4  11  22  45  72 101 137 181 232 288 344 409
#
# _framework density 21.639572000000001
#
# number of rings (size 3 to 8) (size 9 to 14) (size 15 to 20)
#    0.000    0.857    2.857    3.857    6.000    2.857 
#    2.571    0.000    0.000    0.000    0.000    0.000 
#    0.000    0.000    0.000    0.000    0.000    0.000 
#
# Total GULP energy -78096.644513 kJ/mol
# GULP energy per Si atom -5578.331751 kJ/mol
# Density = 2.159032 g / cm^3
# Si number density = 21.639572 Si / 1000 Ang^3
#
#
#
# Elastic Constant Matrix: (Units=GPa)
#
#
# Indices 1 2 3 4 5 6 
#
# 1 23.1551 7.8739 -3.7470 4.5645 1.9799 -7.3319
# 2 7.8739 177.7218 22.9211 -5.9991 21.0834 -17.2151
# 3 -3.7470 22.9211 103.5105 8.3544 9.8832 4.9428
# 4 4.5645 -5.9991 8.3544 24.8828 2.8051 15.2200
# 5 1.9799 21.0834 9.8832 2.8051 35.3120 2.6441
# 6 -7.3319 -17.2151 4.9428 15.2200 2.6441 31.1048
#
#
#
# Elastic Compliance Matrix: (Units=1/GPa)
#
#
# Indices 1 2 3 4 5 6 
#
# 1 0.058410 -0.001015 0.003665 -0.028117 -0.003458 0.026676
# 2 -0.001015 0.006690 -0.001360 0.000343 -0.003872 0.003841
# 3 0.003665 -0.001360 0.010643 -0.004970 -0.002055 0.001027
# 4 -0.028117 0.000343 -0.004970 0.072136 0.000099 -0.040954
# 5 -0.003458 -0.003872 -0.002055 0.000099 0.031795 -0.005383
# 6 0.026676 0.003841 0.001027 -0.040954 -0.005383 0.060897
#
#
# Mechanical properties :
#
#
# Convention : Reuss Voigt Hill
#
# Bulk Modulus (GPa) = 12.76759 39.83151 26.29955
# Shear Modulus (GPa) = 18.93229 36.74921 27.84075
#
# Velocity S-wave (km/s) = 2.96107 4.12544 3.59077
# Velocity P-wave (km/s) = 4.19565 6.41398 5.41953
#
# Compressibility (1/GPa) = 0.07832333
#
# Stress axis : x y z
#
# Youngs Moduli (GPa) = 17.12022 149.47649 93.95985
#
# Poissons Ratio (x) = 0.15178 -0.34436
# Poissons Ratio (y) = 0.01738 0.12775
# Poissons Ratio (z) = -0.06275 0.20323
#
# Static dielectric constant tensor:
#      x y z
#    x 1.577350 0.103670 0.080330 
#    y 0.103670 1.753830 -0.035110 
#    z 0.080330 -0.035110 1.781550 
# 
# From -- ./inp_files/155465.got.cif
#   From: 2010.05.17/outbox.cif.g08.bks.cpg/sg2_78_cif.got.tgz:155465.got - 2010.06.03 11:33:40.
