data_PCOD9039290
_publ_section_title
;
Structure prediction by ZEFSAII (Michael W. Deem and Ramdas Pophale) SiO2 
 PCOD9039290
Probable space group: P -1
;
_chemical_formula_sum "Si O2"
_cell_formula_units_Z 14
_cell_length_a 12.236395
_cell_length_b 11.791450
_cell_length_c 12.236507
_cell_angle_alpha 42.000804
_cell_angle_beta 36.958713
_cell_angle_gamma 38.297501
_cell_volume 625.162837
_symmetry_space_group_name_H-M "P -1"
_symmetry_group_IT_number 2
_symmetry_cell_setting 'triclinic'
loop_
_space_group_symop_operation_xyz
x,y,z
-x,-y,-z
loop_
_atom_site_type_symbol
_atom_site_label
_atom_site_fract_x
_atom_site_fract_y
_atom_site_fract_z
Si Si1 0.398071 0.539573 0.170053
Si Si2 0.996580 0.777041 0.849783
Si Si3 0.295679 0.198471 0.544982
Si Si4 0.650450 0.759322 0.282053
Si Si5 0.458307 0.489142 0.690020
Si Si6 0.980540 0.065399 0.841096
Si Si7 0.344917 0.948897 0.225810
O O1 0.307484 0.389728 0.364656
O O2 0.546211 0.501404 0.181726
O O3 0.243649 0.766164 0.130581
O O4 0.500000 0.500000 0.000000
O O5 0.219077 0.604684 0.764514
O O6 0.035560 0.901284 0.824063
O O7 0.880400 0.906598 0.743515
O O8 0.831567 0.722039 0.077719
O O9 0.273062 0.203440 0.690516
O O10 0.119171 0.171861 0.645889
O O11 0.500000 0.000000 0.500000
O O12 0.590000 0.591736 0.471334
O O13 0.429313 0.934029 0.292586
O O14 0.583315 0.270506 0.707804
O O15 0.000000 0.000000 0.000000
O O16 0.500000 0.000000 0.000000
#
# Coordination Sequence:
#
# PCOD9039290 Si02
#       7
#     2   2   2   2   2   2   2
#     4  11  24  39  63  97 130 173 218 271 332 391
#     4  11  23  43  69  98 130 178 216 264 336 384
#     4  11  23  40  65  97 130 172 221 267 330 401
#     4  10  23  42  67  95 132 174 216 271 326 386
#     4  11  23  45  66  97 133 169 224 270 326 397
#     4  12  21  40  65  91 134 170 212 272 327 390
#     4  10  23  43  69  96 132 171 220 275 323 390
#
# _framework density 22.394168000000001
#
# number of rings (size 3 to 8) (size 9 to 14) (size 15 to 20)
#    0.000    1.143    2.857    4.286    0.000    2.857 
#    0.000    2.857    3.143    0.000    0.000    0.000 
#    0.000    0.000    0.000    0.000    0.000    0.000 
#
# Total GULP energy -78210.668064 kJ/mol
# GULP energy per Si atom -5586.476290 kJ/mol
# Density = 2.234320 g / cm^3
# Si number density = 22.394168 Si / 1000 Ang^3
#
#
#
# Elastic Constant Matrix: (Units=GPa)
#
#
# Indices 1 2 3 4 5 6 
#
# 1 121.3320 23.4904 34.0554 -4.1553 -0.1251 -15.1833
# 2 23.4904 93.7618 19.2218 -2.9048 -0.1850 -25.1518
# 3 34.0554 19.2218 70.7211 -5.4497 11.0736 -2.2673
# 4 -4.1553 -2.9048 -5.4497 31.0682 0.0289 0.3942
# 5 -0.1251 -0.1850 11.0736 0.0289 29.1734 -1.0030
# 6 -15.1833 -25.1518 -2.2673 0.3942 -1.0030 40.0805
#
#
#
# Elastic Compliance Matrix: (Units=1/GPa)
#
#
# Indices 1 2 3 4 5 6 
#
# 1 0.010160 -0.000668 -0.004892 0.000396 0.002006 0.003199
# 2 -0.000668 0.013747 -0.003370 0.000499 0.001646 0.008219
# 3 -0.004892 -0.003370 0.018623 0.002344 -0.007221 -0.003119
# 4 0.000396 0.000499 0.002344 0.032696 -0.000908 0.000251
# 5 0.002006 0.001646 -0.007221 -0.000908 0.037118 0.002322
# 6 0.003199 0.008219 -0.003119 0.000251 0.002322 0.031199
#
#
# Mechanical properties :
#
#
# Convention : Reuss Voigt Hill
#
# Bulk Modulus (GPa) = 40.53610 48.81666 44.67638
# Shear Modulus (GPa) = 29.47626 34.00088 31.73857
#
# Velocity S-wave (km/s) = 3.63195 3.90075 3.76875
# Velocity P-wave (km/s) = 5.97734 6.49107 6.23949
#
# Compressibility (1/GPa) = 0.02466937
#
# Stress axis : x y z
#
# Youngs Moduli (GPa) = 98.42253 72.74179 53.69666
#
# Poissons Ratio (x) = 0.04860 0.26269
# Poissons Ratio (y) = 0.06576 0.18098
# Poissons Ratio (z) = 0.48149 0.24517
#
# Static dielectric constant tensor:
#      x y z
#    x 1.864440 0.107580 0.023360 
#    y 0.107580 1.706780 -0.009130 
#    z 0.023360 -0.009130 1.842310 
# 
# From -- ./inp_files/203528.got.cif
#   From: 2010.05.17/outbox.cif.g08.bks.cpg/sg2_102_cif.got.tgz:203528.got - 2010.06.03 11:33:40.
