data_PCOD9039565
_publ_section_title
;
Structure prediction by ZEFSAII (Michael W. Deem and Ramdas Pophale) SiO2 
 PCOD9039565
Probable space group: P -1
;
_chemical_formula_sum "Si O2"
_cell_formula_units_Z 14
_cell_length_a 8.894225
_cell_length_b 13.771831
_cell_length_c 9.684580
_cell_angle_alpha 119.519529
_cell_angle_beta 73.286319
_cell_angle_gamma 58.321948
_cell_volume 593.028810
_symmetry_space_group_name_H-M "P -1"
_symmetry_group_IT_number 2
_symmetry_cell_setting 'triclinic'
loop_
_space_group_symop_operation_xyz
x,y,z
-x,-y,-z
loop_
_atom_site_type_symbol
_atom_site_label
_atom_site_fract_x
_atom_site_fract_y
_atom_site_fract_z
Si Si1 0.986520 0.289354 0.218659
Si Si2 0.236819 0.470245 0.301996
Si Si3 0.562806 0.513307 0.258465
Si Si4 0.506499 0.914539 0.069224
Si Si5 0.765131 0.090492 0.716764
Si Si6 0.948714 0.082854 0.218771
Si Si7 0.187880 0.477398 0.021134
O O1 0.909957 0.429119 0.444586
O O2 0.746478 0.395462 0.260000
O O3 0.237276 0.182044 0.989137
O O4 0.043257 0.153666 0.208111
O O5 0.409903 0.485341 0.249479
O O6 0.403779 0.261308 0.123499
O O7 0.875144 0.075532 0.823792
O O8 0.744026 0.454518 0.044615
O O9 0.342980 0.730816 0.513884
O O10 0.500000 0.000000 0.000000
O O11 0.273479 0.018618 0.309270
O O12 0.489098 0.272532 0.842202
O O13 0.925948 0.444437 0.738371
O O14 0.000000 0.000000 0.500000
O O15 0.000000 0.000000 0.000000
O O16 0.000000 0.500000 0.000000
#
# Coordination Sequence:
#
# PCOD9039565 Si02
#       7
#     2   2   2   2   2   2   2
#     4  11  24  42  68 106 142 180 242 299 358 426
#     4  10  23  42  69 103 138 188 239 295 360 429
#     4  11  23  42  69 106 145 187 244 292 360 438
#     4  11  23  41  68 100 139 184 236 299 358 414
#     4  11  23  45  71  99 144 188 237 292 362 427
#     4  11  24  42  71 106 142 185 239 300 359 430
#     4  11  24  44  70 102 144 196 240 295 359 433
#
# _framework density 23.607624000000001
#
# number of rings (size 3 to 8) (size 9 to 14) (size 15 to 20)
#    0.000    1.143    2.857    4.286    8.000    0.000 
#    0.000    0.000    0.000    4.286    0.000    0.000 
#    0.000    0.000    0.000    0.000    0.000    0.000 
#
# Total GULP energy -77934.494526 kJ/mol
# GULP energy per Si atom -5566.749609 kJ/mol
# Density = 2.355389 g / cm^3
# Si number density = 23.607624 Si / 1000 Ang^3
#
#
#
# Elastic Constant Matrix: (Units=GPa)
#
#
# Indices 1 2 3 4 5 6 
#
# 1 124.7802 48.8146 21.4551 -10.7707 -14.5840 -20.7116
# 2 48.8146 142.9672 31.2341 -19.0093 0.8110 -10.5862
# 3 21.4551 31.2341 50.3906 -2.8583 -2.8048 -1.4782
# 4 -10.7707 -19.0093 -2.8583 39.1562 8.8719 1.7433
# 5 -14.5840 0.8110 -2.8048 8.8719 45.9451 -9.2215
# 6 -20.7116 -10.5862 -1.4782 1.7433 -9.2215 49.4407
#
#
#
# Elastic Compliance Matrix: (Units=1/GPa)
#
#
# Indices 1 2 3 4 5 6 
#
# 1 0.010821 -0.002794 -0.002489 0.000278 0.004209 0.004635
# 2 -0.002794 0.009505 -0.004585 0.003969 -0.002060 0.000203
# 3 -0.002489 -0.004585 0.023682 -0.001304 0.000762 -0.001128
# 4 0.000278 0.003969 -0.001304 0.028828 -0.005866 -0.001183
# 5 0.004209 -0.002060 0.000762 -0.005866 0.025586 0.006324
# 6 0.004635 0.000203 -0.001128 -0.001183 0.006324 0.023399
#
#
# Mechanical properties :
#
#
# Convention : Reuss Voigt Hill
#
# Bulk Modulus (GPa) = 41.20289 57.90508 49.55399
# Shear Modulus (GPa) = 33.41158 41.35066 37.38112
#
# Velocity S-wave (km/s) = 3.76611 4.18973 3.98356
# Velocity P-wave (km/s) = 6.03345 6.92723 6.49573
#
# Compressibility (1/GPa) = 0.02427014
#
# Stress axis : x y z
#
# Youngs Moduli (GPa) = 92.41645 105.20852 42.22579
#
# Poissons Ratio (x) = 0.29400 0.10510
# Poissons Ratio (y) = 0.25825 0.19362
# Poissons Ratio (z) = 0.23003 0.48241
#
# Static dielectric constant tensor:
#      x y z
#    x 0.901880 0.391710 -0.828950 
#    y 0.391710 1.800470 0.298510 
#    z -0.828950 0.298510 1.630710 
# 
# From -- ./inp_files/397733.got.cif
#   From: 2010.05.17/outbox.cif.g08.bks.cpg/sg2_199_cif.got.tgz:397733.got - 2010.06.03 11:33:40.
