data_PCOD9039080
_publ_section_title
;
Structure prediction by ZEFSAII (Michael W. Deem and Ramdas Pophale) SiO2 
 PCOD9039080
Probable space group: P -1
;
_chemical_formula_sum "Si O2"
_cell_formula_units_Z 16
_cell_length_a 7.934440
_cell_length_b 8.623193
_cell_length_c 14.206579
_cell_angle_alpha 129.047868
_cell_angle_beta 103.738966
_cell_angle_gamma 105.547545
_cell_volume 610.657633
_symmetry_space_group_name_H-M "P -1"
_symmetry_group_IT_number 2
_symmetry_cell_setting 'triclinic'
loop_
_space_group_symop_operation_xyz
x,y,z
-x,-y,-z
loop_
_atom_site_type_symbol
_atom_site_label
_atom_site_fract_x
_atom_site_fract_y
_atom_site_fract_z
Si Si1 0.963869 0.780351 0.966121
Si Si2 0.531430 0.619328 0.948320
Si Si3 0.048331 0.159211 0.365536
Si Si4 0.642470 0.100575 0.226577
Si Si5 0.613229 0.365601 0.488852
Si Si6 0.777045 0.302789 0.666084
Si Si7 0.156905 0.789815 0.160426
Si Si8 0.177071 0.400251 0.667031
O O1 0.752359 0.684672 0.961522
O O2 0.919598 0.584971 0.810589
O O3 0.173866 0.866551 0.083639
O O4 0.000000 0.000000 0.000000
O O5 0.345153 0.447584 0.786110
O O6 0.500000 0.500000 0.000000
O O7 0.534694 0.860206 0.058617
O O8 0.153947 0.406882 0.413500
O O9 0.156162 0.246440 0.514425
O O10 0.811446 0.075838 0.297357
O O11 0.073925 0.951764 0.251323
O O12 0.541502 0.159338 0.323009
O O13 0.740213 0.336255 0.264552
O O14 0.500000 0.500000 0.500000
O O15 0.606963 0.267935 0.554816
O O16 0.723537 0.214327 0.733179
O O17 0.943743 0.261410 0.625183
O O18 0.000000 0.500000 0.000000
#
# Coordination Sequence:
#
# PCOD9039080 Si02
#       8
#     2   2   2   2   2   2   2   2
#     4  11  23  43  74 100 143 197 248 291 363 437
#     4  12  27  46  69 111 152 189 241 306 367 428
#     4  11  21  45  73  97 138 189 247 294 359 442
#     4  11  22  46  71 101 137 192 245 293 359 439
#     4  11  24  44  69 105 138 188 247 308 357 433
#     4  11  22  41  67 100 144 183 238 295 372 426
#     4  10  23  42  66 105 138 184 236 295 363 436
#     4  11  23  42  70 104 142 187 249 301 357 436
#
# _framework density 26.201260000000001
#
# number of rings (size 3 to 8) (size 9 to 14) (size 15 to 20)
#    0.000    1.000    3.750    3.375    3.500    1.500 
#    9.000    0.625    0.000    0.000    0.000    0.000 
#    0.000    0.000    0.000    0.000    0.000    0.000 
#
# Total GULP energy -89340.257944 kJ/mol
# GULP energy per Si atom -5583.766122 kJ/mol
# Density = 2.614163 g / cm^3
# Si number density = 26.201260 Si / 1000 Ang^3
#
#
#
# Elastic Constant Matrix: (Units=GPa)
#
#
# Indices 1 2 3 4 5 6 
#
# 1 55.8091 -27.1162 16.9646 -17.9322 8.2554 0.3097
# 2 -27.1162 112.6480 11.4598 -26.1251 24.5430 -4.4231
# 3 16.9646 11.4598 181.3523 -29.7806 4.2189 -20.1438
# 4 -17.9322 -26.1251 -29.7806 53.8248 -20.4780 -0.0207
# 5 8.2554 24.5430 4.2189 -20.4780 43.4396 -8.9269
# 6 0.3097 -4.4231 -20.1438 -0.0207 -8.9269 37.8877
#
#
#
# Elastic Compliance Matrix: (Units=1/GPa)
#
#
# Indices 1 2 3 4 5 6 
#
# 1 0.028334 0.010965 -0.001421 0.011614 -0.006206 -0.001163
# 2 0.010965 0.014885 -0.000510 0.008051 -0.006689 -0.000195
# 3 -0.001421 -0.000510 0.006740 0.004019 0.002654 0.004163
# 4 0.011614 0.008051 0.004019 0.032003 0.008992 0.005118
# 5 -0.006206 -0.006689 0.002654 0.008992 0.033735 0.008634
# 6 -0.001163 -0.000195 0.004163 0.005118 0.008634 0.030631
#
#
# Mechanical properties :
#
#
# Convention : Reuss Voigt Hill
#
# Bulk Modulus (GPa) = 14.70016 39.15840 26.92928
# Shear Modulus (GPa) = 33.12659 50.26384 41.69521
#
# Velocity S-wave (km/s) = 3.55957 4.38468 3.99349
# Velocity P-wave (km/s) = 4.74518 6.37272 5.61820
#
# Compressibility (1/GPa) = 0.06802647
#
# Stress axis : x y z
#
# Youngs Moduli (GPa) = 35.29343 67.17995 148.36753
#
# Poissons Ratio (x) = -0.73662 0.21083
# Poissons Ratio (y) = -0.38699 0.07572
# Poissons Ratio (z) = 0.05015 0.03428
#
# Static dielectric constant tensor:
#      x y z
#    x 2.142210 0.108520 0.091600 
#    y 0.108520 2.118730 0.031650 
#    z 0.091600 0.031650 2.032910 
# 
# From -- ./inp_files/495748.got.cif
#   From: 2010.05.17/outbox.cif.g08.bks.cpg/sg2_248_cif.got.tgz:495748.got - 2010.06.03 11:33:40.
