data_PCOD9039942
_publ_section_title
;
Structure prediction by ZEFSAII (Michael W. Deem and Ramdas Pophale) SiO2 
 PCOD9039942
Probable space group: P -1
;
_chemical_formula_sum "Si O2"
_cell_formula_units_Z 14
_cell_length_a 12.868413
_cell_length_b 8.449888
_cell_length_c 9.517848
_cell_angle_alpha 49.728271
_cell_angle_beta 48.670017
_cell_angle_gamma 65.363542
_cell_volume 592.868547
_symmetry_space_group_name_H-M "P -1"
_symmetry_group_IT_number 2
_symmetry_cell_setting 'triclinic'
loop_
_space_group_symop_operation_xyz
x,y,z
-x,-y,-z
loop_
_atom_site_type_symbol
_atom_site_label
_atom_site_fract_x
_atom_site_fract_y
_atom_site_fract_z
Si Si1 0.891567 0.367434 0.580820
Si Si2 0.689217 0.829618 0.849085
Si Si3 0.926492 0.935286 0.956892
Si Si4 0.627430 0.728407 0.385333
Si Si5 0.573099 0.252449 0.686338
Si Si6 0.373237 0.379903 0.253276
Si Si7 0.980534 0.775625 0.721114
O O1 0.940111 0.371769 0.372536
O O2 0.741521 0.461771 0.680867
O O3 0.000000 0.500000 0.500000
O O4 0.895695 0.141300 0.776498
O O5 0.699259 0.763033 0.717317
O O6 0.815570 0.735399 0.875558
O O7 0.543352 0.749471 0.087407
O O8 0.684237 0.078868 0.720778
O O9 0.779132 0.827431 0.181806
O O10 0.011678 0.796319 0.847128
O O11 0.000000 0.000000 0.000000
O O12 0.628250 0.484345 0.482103
O O13 0.515293 0.823835 0.326184
O O14 0.580060 0.740873 0.581363
O O15 0.500000 0.500000 0.000000
O O16 0.000000 0.000000 0.500000
#
# Coordination Sequence:
#
# PCOD9039942 Si02
#       7
#     2   2   2   2   2   2   2
#     4  11  24  47  73  99 141 194 239 288 351 437
#     4  11  22  45  71 102 138 188 242 286 359 430
#     4  11  25  46  70 107 145 182 237 302 358 424
#     4  11  24  44  67 105 145 175 240 300 359 418
#     4  10  24  43  73 102 138 187 235 301 354 425
#     4  12  26  43  70 104 141 189 238 290 359 429
#     4  10  23  42  72  98 137 187 240 283 350 430
#
# _framework density 23.614003
#
# number of rings (size 3 to 8) (size 9 to 14) (size 15 to 20)
#    0.000    1.143    4.286    0.857    8.000    0.571 
#    0.000    4.286    0.000    0.000    0.000    0.000 
#    0.000    0.000    0.000    0.000    0.000    0.000 
#
# Total GULP energy -78372.087357 kJ/mol
# GULP energy per Si atom -5598.006240 kJ/mol
# Density = 2.356026 g / cm^3
# Si number density = 23.614003 Si / 1000 Ang^3
#
#
#
# Elastic Constant Matrix: (Units=GPa)
#
#
# Indices 1 2 3 4 5 6 
#
# 1 129.3616 46.1433 34.9292 25.9896 2.8677 19.7086
# 2 46.1433 114.7883 39.3535 35.5896 -1.0773 10.3536
# 3 34.9292 39.3535 116.5163 13.9689 -4.9993 13.3594
# 4 25.9896 35.5896 13.9689 49.9972 15.1196 7.1917
# 5 2.8677 -1.0773 -4.9993 15.1196 46.9268 9.9595
# 6 19.7086 10.3536 13.3594 7.1917 9.9595 52.0717
#
#
#
# Elastic Compliance Matrix: (Units=1/GPa)
#
#
# Indices 1 2 3 4 5 6 
#
# 1 0.009942 -0.002331 -0.001513 -0.002911 0.000676 -0.002639
# 2 -0.002331 0.013163 -0.002575 -0.008255 0.002935 -0.000496
# 3 -0.001513 -0.002575 0.010241 -0.000487 0.001662 -0.001794
# 4 -0.002911 -0.008255 -0.000487 0.030469 -0.010002 0.000573
# 5 0.000676 0.002935 0.001662 -0.010002 0.025757 -0.004811
# 6 -0.002639 -0.000496 -0.001794 0.000573 -0.004811 0.021603
#
#
# Mechanical properties :
#
#
# Convention : Reuss Voigt Hill
#
# Bulk Modulus (GPa) = 48.75794 66.83535 57.79665
# Shear Modulus (GPa) = 38.21249 45.81515 42.01382
#
# Velocity S-wave (km/s) = 4.02707 4.40951 4.22262
# Velocity P-wave (km/s) = 6.50505 7.36816 6.95002
#
# Compressibility (1/GPa) = 0.02050948
#
# Stress axis : x y z
#
# Youngs Moduli (GPa) = 100.58292 75.96934 97.64860
#
# Poissons Ratio (x) = 0.17710 0.14770
# Poissons Ratio (y) = 0.23448 0.25140
# Poissons Ratio (z) = 0.15214 0.19559
#
# Static dielectric constant tensor:
#      x y z
#    x 1.935350 0.031130 0.002090 
#    y 0.031130 1.972300 -0.013880 
#    z 0.002090 -0.013880 1.876160 
# 
# From -- ./inp_files/241895.got.cif
#   From: 2010.05.17/outbox.cif.g08.bks.cpg/sg2_121_cif.got.tgz:241895.got - 2010.06.03 11:33:40.
