data_PCOD9039489
_publ_section_title
;
Structure prediction by ZEFSAII (Michael W. Deem and Ramdas Pophale) SiO2 
 PCOD9039489
Probable space group: P -1
;
_chemical_formula_sum "Si O2"
_cell_formula_units_Z 16
_cell_length_a 11.819335
_cell_length_b 11.232953
_cell_length_c 9.417398
_cell_angle_alpha 63.481090
_cell_angle_beta 55.113493
_cell_angle_gamma 40.546176
_cell_volume 666.545294
_symmetry_space_group_name_H-M "P -1"
_symmetry_group_IT_number 2
_symmetry_cell_setting 'triclinic'
loop_
_space_group_symop_operation_xyz
x,y,z
-x,-y,-z
loop_
_atom_site_type_symbol
_atom_site_label
_atom_site_fract_x
_atom_site_fract_y
_atom_site_fract_z
Si Si1 0.365602 0.549314 0.699934
Si Si2 0.037741 0.795533 0.367787
Si Si3 0.952221 0.905056 0.783651
Si Si4 0.350695 0.359210 0.040789
Si Si5 0.559489 0.601581 0.742191
Si Si6 0.419141 0.156115 0.590725
Si Si7 0.058769 0.226934 0.854140
Si Si8 0.270659 0.103622 0.269407
O O1 0.500000 0.500000 0.500000
O O2 0.151150 0.698934 0.718562
O O3 0.389097 0.639117 0.765550
O O4 0.414495 0.379531 0.834627
O O5 0.256909 0.614592 0.283970
O O6 0.934520 0.844674 0.265673
O O7 0.025432 0.955324 0.341302
O O8 0.781210 0.947384 0.803139
O O9 0.923040 0.897728 0.974441
O O10 0.139620 0.562371 0.103261
O O11 0.465088 0.334703 0.111459
O O12 0.333844 0.211781 0.133894
O O13 0.610179 0.691544 0.557909
O O14 0.226145 0.222193 0.752857
O O15 0.500000 0.000000 0.500000
O O16 0.572242 0.067059 0.652336
O O17 0.074613 0.228064 0.434233
#
# Coordination Sequence:
#
# PCOD9039489 Si02
#       8
#     2   2   2   2   2   2   2   2
#     4  11  25  44  69 101 139 178 218 279 343 402
#     4  11  22  43  69  98 135 180 225 273 335 407
#     4  11  26  44  65  98 138 180 225 277 338 403
#     4  10  23  44  68 102 134 176 228 275 334 403
#     4  11  23  42  71  99 132 177 227 279 332 398
#     4  12  23  41  68 101 134 174 223 281 333 392
#     4  10  23  42  68  98 132 180 223 277 336 398
#     4  12  24  41  68  97 140 177 225 281 335 396
#
# _framework density 24.004372
#
# number of rings (size 3 to 8) (size 9 to 14) (size 15 to 20)
#    0.000    1.000    2.500    3.375    0.000    7.500 
#    0.000    0.000    0.000    0.000    0.000    0.000 
#    0.000    0.000    0.000    0.000    0.000    0.000 
#
# Total GULP energy -89680.375237 kJ/mol
# GULP energy per Si atom -5605.023452 kJ/mol
# Density = 2.394974 g / cm^3
# Si number density = 24.004372 Si / 1000 Ang^3
#
#
#
# Elastic Constant Matrix: (Units=GPa)
#
#
# Indices 1 2 3 4 5 6 
#
# 1 130.6515 28.1826 45.8697 -7.4858 23.5874 -8.6736
# 2 28.1826 53.0403 36.6459 -11.5077 8.3613 1.3877
# 3 45.8697 36.6459 152.0487 -18.0776 -9.4687 4.8986
# 4 -7.4858 -11.5077 -18.0776 20.5370 -3.1004 -3.6523
# 5 23.5874 8.3613 -9.4687 -3.1004 38.9282 -4.1293
# 6 -8.6736 1.3877 4.8986 -3.6523 -4.1293 29.5322
#
#
#
# Elastic Compliance Matrix: (Units=1/GPa)
#
#
# Indices 1 2 3 4 5 6 
#
# 1 0.010636 -0.002738 -0.003143 -0.000898 -0.006399 0.002768
# 2 -0.002738 0.026177 -0.004702 0.008708 -0.004499 -0.000806
# 3 -0.003143 -0.004702 0.009682 0.005438 0.005612 -0.000851
# 4 -0.000898 0.008708 0.005438 0.060035 0.005480 0.006616
# 5 -0.006399 -0.004499 0.005612 0.005480 0.032613 0.002639
# 6 0.002768 -0.000806 -0.000851 0.006616 0.002639 0.036041
#
#
# Mechanical properties :
#
#
# Convention : Reuss Voigt Hill
#
# Bulk Modulus (GPa) = 39.48189 61.90411 50.69300
# Shear Modulus (GPa) = 24.41511 32.80229 28.60870
#
# Velocity S-wave (km/s) = 3.19268 3.70065 3.45601
# Velocity P-wave (km/s) = 5.48402 6.64111 6.09011
#
# Compressibility (1/GPa) = 0.02532806
#
# Stress axis : x y z
#
# Youngs Moduli (GPa) = 94.02458 38.20204 103.28873
#
# Poissons Ratio (x) = 0.10460 0.32463
# Poissons Ratio (y) = 0.25746 0.48563
# Poissons Ratio (z) = 0.29551 0.17961
#
# Static dielectric constant tensor:
#      x y z
#    x 1.882810 0.014890 0.004460 
#    y 0.014890 1.909910 0.018080 
#    z 0.004460 0.018080 1.906040 
# 
# From -- ./inp_files/256789.got.cif
#   From: 2010.05.17/outbox.cif.g08.bks.cpg/sg2_129_cif.got.tgz:256789.got - 2010.06.03 11:33:40.
