data_PCOD9039357
_publ_section_title
;
Structure prediction by ZEFSAII (Michael W. Deem and Ramdas Pophale) SiO2 
 PCOD9039357
Probable space group: P -1
;
_chemical_formula_sum "Si O2"
_cell_formula_units_Z 15
_cell_length_a 14.954051
_cell_length_b 8.295030
_cell_length_c 5.183015
_cell_angle_alpha 107.927385
_cell_angle_beta 90.508969
_cell_angle_gamma 95.784259
_cell_volume 608.052293
_symmetry_space_group_name_H-M "P -1"
_symmetry_group_IT_number 2
_symmetry_cell_setting 'triclinic'
loop_
_space_group_symop_operation_xyz
x,y,z
-x,-y,-z
loop_
_atom_site_type_symbol
_atom_site_label
_atom_site_fract_x
_atom_site_fract_y
_atom_site_fract_z
Si Si1 0.763843 0.752238 0.905069
Si Si2 0.124321 0.668740 0.509607
Si Si3 0.728918 0.537175 0.316176
Si Si4 0.572556 0.937650 0.669652
Si Si5 0.722274 0.054737 0.382148
Si Si6 0.967461 0.801755 0.906404
Si Si7 0.415111 0.748680 0.783042
Si Si8 0.000000 0.500000 0.000000
O O1 0.758230 0.650143 0.124817
O O2 0.734140 0.934911 0.077746
O O3 0.712703 0.637750 0.628532
O O4 0.864596 0.786329 0.813893
O O5 0.190557 0.576700 0.656456
O O6 0.039148 0.704022 0.698918
O O7 0.181631 0.842861 0.501972
O O8 0.087731 0.549257 0.216337
O O9 0.635940 0.421577 0.187464
O O10 0.666694 0.934764 0.527435
O O11 0.517996 0.766050 0.698558
O O12 0.500000 0.000000 0.500000
O O13 0.584080 0.091104 0.947752
O O14 0.655805 0.200662 0.409232
O O15 0.974470 0.700278 0.124613
O O16 0.000000 0.000000 0.000000
#
# Coordination Sequence:
#
# PCOD9039357 Si02
#       8
#     2   2   2   2   2   2   2   1
#     4  12  27  46  68 103 145 184 237 300 360 424
#     4  11  25  45  68  98 136 194 243 297 356 426
#     4  11  27  45  73 101 141 187 237 294 363 432
#     4   9  19  39  72 100 137 173 237 286 346 432
#     4  10  23  42  68 100 137 185 233 292 356 429
#     4  12  26  45  66 100 142 192 248 302 360 426
#     4   9  21  42  72 103 131 183 234 285 353 435
#     4  12  26  44  70  98 144 190 250 306 362 422
#
# _framework density 24.668932999999999
#
# number of rings (size 3 to 8) (size 9 to 14) (size 15 to 20)
#    0.000    1.333    2.667    1.200    9.333    2.667 
#    0.000    1.333    0.000    0.000    0.000    0.000 
#    0.000    0.000    0.000    0.000    0.000    0.000 
#
# Total GULP energy -83560.720469 kJ/mol
# GULP energy per Si atom -5570.714698 kJ/mol
# Density = 2.461279 g / cm^3
# Si number density = 24.668933 Si / 1000 Ang^3
#
#
#
# Elastic Constant Matrix: (Units=GPa)
#
#
# Indices 1 2 3 4 5 6 
#
# 1 121.0133 53.0384 44.0010 6.0283 -18.6830 40.5392
# 2 53.0384 107.2472 18.1813 18.6048 9.3514 18.4562
# 3 44.0010 18.1813 81.0558 10.2426 3.4438 22.7329
# 4 6.0283 18.6048 10.2426 32.3035 1.1465 8.4879
# 5 -18.6830 9.3514 3.4438 1.1465 36.2559 3.5048
# 6 40.5392 18.4562 22.7329 8.4879 3.5048 56.5103
#
#
#
# Elastic Compliance Matrix: (Units=1/GPa)
#
#
# Indices 1 2 3 4 5 6 
#
# 1 0.020611 -0.009462 -0.007526 0.006233 0.014595 -0.010509
# 2 -0.009462 0.015364 0.002381 -0.008201 -0.009058 0.002606
# 3 -0.007526 0.002381 0.017076 -0.004870 -0.005849 -0.001153
# 4 0.006233 -0.008201 -0.004870 0.037394 0.005165 -0.005771
# 5 0.014595 -0.009058 -0.005849 0.005165 0.038637 -0.008331
# 6 -0.010509 0.002606 -0.001153 -0.005771 -0.008331 0.026231
#
#
# Mechanical properties :
#
#
# Convention : Reuss Voigt Hill
#
# Bulk Modulus (GPa) = 41.95541 59.97310 50.96426
# Shear Modulus (GPa) = 25.97751 37.95364 31.96557
#
# Velocity S-wave (km/s) = 3.24859 3.92665 3.60360
# Velocity P-wave (km/s) = 5.57812 6.70239 6.16593
#
# Compressibility (1/GPa) = 0.02383483
#
# Stress axis : x y z
#
# Youngs Moduli (GPa) = 48.51836 65.08621 58.56066
#
# Poissons Ratio (x) = 0.61587 0.44075
# Poissons Ratio (y) = 0.45910 -0.13941
# Poissons Ratio (z) = 0.36517 -0.15495
#
# Static dielectric constant tensor:
#      x y z
#    x 2.155780 0.286950 -0.228140 
#    y 0.286950 3.095830 -0.927200 
#    z -0.228140 -0.927200 2.710580 
# 
# From -- ./inp_files/89309.got.cif
#   From: 2010.05.17/outbox.cif.g08.bks.cpg/sg2_45_cif.got.tgz:89309.got - 2010.06.03 11:33:40.
