data_PCOD9039979
_publ_section_title
;
Structure prediction by ZEFSAII (Michael W. Deem and Ramdas Pophale) SiO2 
 PCOD9039979
Probable space group: P -1
;
_chemical_formula_sum "Si O2"
_cell_formula_units_Z 16
_cell_length_a 11.679493
_cell_length_b 5.138315
_cell_length_c 16.375596
_cell_angle_alpha 112.413765
_cell_angle_beta 54.636818
_cell_angle_gamma 122.747585
_cell_volume 670.709941
_symmetry_space_group_name_H-M "P -1"
_symmetry_group_IT_number 2
_symmetry_cell_setting 'triclinic'
loop_
_space_group_symop_operation_xyz
x,y,z
-x,-y,-z
loop_
_atom_site_type_symbol
_atom_site_label
_atom_site_fract_x
_atom_site_fract_y
_atom_site_fract_z
Si Si1 0.426512 0.188313 0.102071
Si Si2 0.145210 0.265750 0.269555
Si Si3 0.666184 0.241420 0.426810
Si Si4 0.840049 0.501377 0.093771
Si Si5 0.362794 0.928254 0.275646
Si Si6 0.806303 0.780079 0.307594
Si Si7 0.176705 0.248754 0.445793
Si Si8 0.359621 0.181661 0.868372
O O1 0.248930 0.134131 0.159517
O O2 0.535178 0.546013 0.082772
O O3 0.434072 0.139166 0.191301
O O4 0.500000 0.000000 0.000000
O O5 0.215047 0.631987 0.262329
O O6 0.188047 0.316219 0.353319
O O7 0.968244 0.022585 0.308685
O O8 0.690631 0.515461 0.384592
O O9 0.771061 0.447898 0.483683
O O10 0.500000 0.000000 0.500000
O O11 0.734311 0.011201 0.334252
O O12 0.845994 0.603734 0.197304
O O13 0.766034 0.710453 0.104503
O O14 0.727040 0.141682 0.090819
O O15 0.000000 0.500000 0.000000
O O16 0.501826 0.853727 0.244910
O O17 0.296161 0.090436 0.387993
O O18 0.000000 0.000000 0.500000
#
# Coordination Sequence:
#
# PCOD9039979 Si02
#       8
#     2   2   2   2   2   2   2   2
#     4  10  23  43  73 108 144 185 237 309 361 436
#     4  10  24  41  72 108 142 191 240 305 366 440
#     4  12  29  49  74 110 148 200 247 316 372 441
#     4  12  28  49  76 106 146 203 244 304 370 450
#     4  10  23  42  73 107 141 191 240 306 363 444
#     4  12  28  49  72 108 151 189 254 308 365 447
#     4  11  23  45  75 104 149 192 249 297 385 440
#     4  11  24  48  72 104 144 192 248 292 374 436
#
# _framework density 23.855319999999999
#
# number of rings (size 3 to 8) (size 9 to 14) (size 15 to 20)
#    0.000    1.000    2.500    2.250    7.000    7.000 
#    0.000    0.000    0.000    0.000    0.000    0.000 
#    0.000    0.000    0.000    0.000    0.000    0.000 
#
# Total GULP energy -89343.230799 kJ/mol
# GULP energy per Si atom -5583.951925 kJ/mol
# Density = 2.380102 g / cm^3
# Si number density = 23.855320 Si / 1000 Ang^3
#
#
#
# Elastic Constant Matrix: (Units=GPa)
#
#
# Indices 1 2 3 4 5 6 
#
# 1 68.0660 22.4594 18.0305 -4.7656 -18.6623 -4.0291
# 2 22.4594 137.6164 39.2205 -11.3388 -23.2685 2.7157
# 3 18.0305 39.2205 127.2062 11.5246 -25.4488 2.0323
# 4 -4.7656 -11.3388 11.5246 32.6812 1.8101 -13.8694
# 5 -18.6623 -23.2685 -25.4488 1.8101 40.4404 1.2321
# 6 -4.0291 2.7157 2.0323 -13.8694 1.2321 36.7034
#
#
#
# Elastic Compliance Matrix: (Units=1/GPa)
#
#
# Indices 1 2 3 4 5 6 
#
# 1 0.017614 -0.001212 -0.001219 0.003596 0.006404 0.003235
# 2 -0.001212 0.008937 -0.002369 0.003902 0.002895 0.000714
# 3 -0.001219 -0.002369 0.010373 -0.006229 0.004973 -0.003054
# 4 0.003596 0.003902 -0.006229 0.041721 -0.002379 0.016296
# 5 0.006404 0.002895 0.004973 -0.002379 0.032640 -0.001781
# 6 0.003235 0.000714 -0.003054 0.016296 -0.001781 0.033935
#
#
# Mechanical properties :
#
#
# Convention : Reuss Voigt Hill
#
# Bulk Modulus (GPa) = 36.60019 54.70104 45.65062
# Shear Modulus (GPa) = 30.50156 38.84355 34.67255
#
# Velocity S-wave (km/s) = 3.57964 4.03959 3.81655
# Velocity P-wave (km/s) = 5.69745 6.68864 6.21284
#
# Compressibility (1/GPa) = 0.02732226
#
# Stress axis : x y z
#
# Youngs Moduli (GPa) = 56.77426 111.90009 96.40725
#
# Poissons Ratio (x) = 0.13560 0.11754
# Poissons Ratio (y) = 0.06880 0.22842
# Poissons Ratio (z) = 0.06922 0.26512
#
# Static dielectric constant tensor:
#      x y z
#    x 2.013310 -0.059020 -0.019740 
#    y -0.059020 2.021020 0.012530 
#    z -0.019740 0.012530 1.924240 
# 
# From -- ./inp_files/564537.got.cif
#   From: 2010.05.17/outbox.cif.g08.bks.cpg/sg2_283_cif.got.tgz:564537.got - 2010.06.03 11:33:40.
