data_PCOD9039564
_publ_section_title
;
Structure prediction by ZEFSAII (Michael W. Deem and Ramdas Pophale) SiO2 
 PCOD9039564
Probable space group: P -1
;
_chemical_formula_sum "Si O2"
_cell_formula_units_Z 16
_cell_length_a 14.625533
_cell_length_b 11.369913
_cell_length_c 9.481816
_cell_angle_alpha 105.999687
_cell_angle_beta 116.810054
_cell_angle_gamma 32.658181
_cell_volume 741.440060
_symmetry_space_group_name_H-M "P -1"
_symmetry_group_IT_number 2
_symmetry_cell_setting 'triclinic'
loop_
_space_group_symop_operation_xyz
x,y,z
-x,-y,-z
loop_
_atom_site_type_symbol
_atom_site_label
_atom_site_fract_x
_atom_site_fract_y
_atom_site_fract_z
Si Si1 0.347591 0.164651 0.325922
Si Si2 0.304162 0.974190 0.699468
Si Si3 0.988860 0.902769 0.353446
Si Si4 0.705396 0.524494 0.753052
Si Si5 0.829982 0.383795 0.098976
Si Si6 0.898430 0.709073 0.585618
Si Si7 0.574690 0.119619 0.930934
Si Si8 0.293551 0.755833 0.974835
O O1 0.310326 0.337092 0.302707
O O2 0.166183 0.289525 0.314620
O O3 0.500000 0.000000 0.500000
O O4 0.407268 0.020411 0.190469
O O5 0.491198 0.706101 0.708784
O O6 0.268499 0.086430 0.569997
O O7 0.351011 0.978226 0.889941
O O8 0.099894 0.120712 0.630782
O O9 0.177869 0.686553 0.329484
O O10 0.000000 0.000000 0.500000
O O11 0.826050 0.102954 0.200215
O O12 0.823164 0.432393 0.947244
O O13 0.637841 0.624801 0.113523
O O14 0.811898 0.253360 0.029331
O O15 0.987650 0.285449 0.276323
O O16 0.000000 0.500000 0.500000
O O17 0.676498 0.131672 0.922442
O O18 0.500000 0.500000 0.000000
#
# Coordination Sequence:
#
# PCOD9039564 Si02
#       8
#     2   2   2   2   2   2   2   2
#     4  12  25  44  68  99 138 183 234 286 351 419
#     4  10  23  46  66 100 139 185 232 280 355 413
#     4  11  24  44  70 100 141 183 233 297 347 416
#     4  11  26  45  67 101 140 186 238 286 356 424
#     4  10  23  42  69 103 138 177 235 294 344 417
#     4  12  25  40  66 103 140 184 234 289 346 413
#     4   9  22  43  74  95 136 187 226 286 349 420
#     4   9  20  44  69  99 134 179 229 280 354 410
#
# _framework density 21.579626000000001
#
# number of rings (size 3 to 8) (size 9 to 14) (size 15 to 20)
#    0.000    1.500    1.250    3.000    5.250    4.500 
#    2.250    0.000    0.000    0.000    0.000    0.000 
#    0.000    0.000    0.000    0.000    0.000    0.000 
#
# Total GULP energy -89164.319573 kJ/mol
# GULP energy per Si atom -5572.769973 kJ/mol
# Density = 2.153051 g / cm^3
# Si number density = 21.579626 Si / 1000 Ang^3
#
#
#
# Elastic Constant Matrix: (Units=GPa)
#
#
# Indices 1 2 3 4 5 6 
#
# 1 54.1440 -0.7526 32.3362 -5.1270 -11.1646 -3.8054
# 2 -0.7526 104.5074 48.3213 20.9832 4.9098 -4.1029
# 3 32.3362 48.3213 97.8336 8.1757 -0.9905 6.8559
# 4 -5.1270 20.9832 8.1757 34.6541 4.8079 -12.2585
# 5 -11.1646 4.9098 -0.9905 4.8079 35.5695 -2.5408
# 6 -3.8054 -4.1029 6.8559 -12.2585 -2.5408 27.7128
#
#
#
# Elastic Compliance Matrix: (Units=1/GPa)
#
#
# Indices 1 2 3 4 5 6 
#
# 1 0.030288 0.005233 -0.014069 0.007984 0.008221 0.012700
# 2 0.005233 0.014814 -0.008813 -0.005148 0.000251 0.002838
# 3 -0.014069 -0.008813 0.020363 -0.004963 -0.002727 -0.010720
# 4 0.007984 -0.005148 -0.004963 0.041489 -0.001114 0.019812
# 5 0.008221 0.000251 -0.002727 -0.001114 0.031034 0.004193
# 6 0.012700 0.002838 -0.010720 0.019812 0.004193 0.050048
#
#
# Mechanical properties :
#
#
# Convention : Reuss Voigt Hill
#
# Bulk Modulus (GPa) = 33.14909 46.25497 39.70203
# Shear Modulus (GPa) = 21.42334 31.35930 26.39132
#
# Velocity S-wave (km/s) = 3.15422 3.81621 3.50090
# Velocity P-wave (km/s) = 5.35352 6.39523 5.89742
#
# Compressibility (1/GPa) = 0.03016674
#
# Stress axis : x y z
#
# Youngs Moduli (GPa) = 33.01607 67.50217 49.10939
#
# Poissons Ratio (x) = -0.35322 0.69094
# Poissons Ratio (y) = -0.17277 0.43279
# Poissons Ratio (z) = 0.46452 0.59488
#
# Static dielectric constant tensor:
#      x y z
#    x 1.984770 -0.016880 0.009470 
#    y -0.016880 1.763110 -0.010540 
#    z 0.009470 -0.010540 1.737020 
# 
# From -- ./inp_files/272507.got.cif
#   From: 2010.05.17/outbox.cif.g08.bks.cpg/sg2_137_cif.got.tgz:272507.got - 2010.06.03 11:33:40.
