data_PCOD9039675
_publ_section_title
;
Structure prediction by ZEFSAII (Michael W. Deem and Ramdas Pophale) SiO2 
 PCOD9039675
Probable space group: P -1
;
_chemical_formula_sum "Si O2"
_cell_formula_units_Z 14
_cell_length_a 17.444803
_cell_length_b 8.295335
_cell_length_c 5.123340
_cell_angle_alpha 61.600466
_cell_angle_beta 81.243383
_cell_angle_gamma 58.960864
_cell_volume 554.523289
_symmetry_space_group_name_H-M "P -1"
_symmetry_group_IT_number 2
_symmetry_cell_setting 'triclinic'
loop_
_space_group_symop_operation_xyz
x,y,z
-x,-y,-z
loop_
_atom_site_type_symbol
_atom_site_label
_atom_site_fract_x
_atom_site_fract_y
_atom_site_fract_z
Si Si1 0.238995 0.972991 0.259003
Si Si2 0.312100 0.291422 0.934369
Si Si3 0.967011 0.148985 0.654092
Si Si4 0.416702 0.611762 0.255462
Si Si5 0.518092 0.796498 0.812440
Si Si6 0.208278 0.484491 0.333277
Si Si7 0.870829 0.817771 0.367634
O O1 0.317994 0.736038 0.334251
O O2 0.291119 0.105346 0.160220
O O3 0.188364 0.996748 0.536196
O O4 0.166493 0.089548 0.973029
O O5 0.414713 0.223289 0.978681
O O6 0.249781 0.476179 0.035142
O O7 0.285459 0.348476 0.606111
O O8 0.861510 0.301799 0.642668
O O9 0.026106 0.262334 0.556586
O O10 0.000000 0.000000 0.500000
O O11 0.000000 0.000000 0.000000
O O12 0.500000 0.500000 0.500000
O O13 0.430175 0.424604 0.203596
O O14 0.431188 0.788253 0.961502
O O15 0.500000 0.000000 0.500000
O O16 0.151625 0.365433 0.422817
#
# Coordination Sequence:
#
# PCOD9039675 Si02
#       7
#     2   2   2   2   2   2   2
#     4  10  23  42  71  96 137 173 233 285 349 412
#     4  10  23  42  70 100 131 181 229 287 349 412
#     4  12  25  42  65 100 137 175 223 282 346 411
#     4  11  27  45  68 106 140 190 239 293 359 421
#     4  11  27  45  72 102 145 190 237 299 355 422
#     4  10  23  44  68  98 132 176 230 275 343 424
#     4  10  23  44  69  97 130 182 218 285 341 412
#
# _framework density 25.24691
#
# number of rings (size 3 to 8) (size 9 to 14) (size 15 to 20)
#    0.000    1.429    0.000    3.000   12.000    4.571 
#    0.000    5.714    0.000    0.000    0.000    0.000 
#    0.000    0.000    0.000    0.000    0.000    0.000 
#
# Total GULP energy -78455.183393 kJ/mol
# GULP energy per Si atom -5603.941671 kJ/mol
# Density = 2.518945 g / cm^3
# Si number density = 25.246910 Si / 1000 Ang^3
#
#
#
# Elastic Constant Matrix: (Units=GPa)
#
#
# Indices 1 2 3 4 5 6 
#
# 1 116.7664 14.1529 5.3164 1.2287 -9.3140 9.3059
# 2 14.1529 122.9412 10.2843 20.2808 -8.2325 -15.2297
# 3 5.3164 10.2843 70.4511 13.5276 -10.7742 10.6921
# 4 1.2287 20.2808 13.5276 44.3302 7.0363 -2.7062
# 5 -9.3140 -8.2325 -10.7742 7.0363 37.6133 -2.4323
# 6 9.3059 -15.2297 10.6921 -2.7062 -2.4323 40.9517
#
#
#
# Elastic Compliance Matrix: (Units=1/GPa)
#
#
# Indices 1 2 3 4 5 6 
#
# 1 0.009051 -0.001198 0.000200 -0.000218 0.001918 -0.002455
# 2 -0.001198 0.009723 -0.000664 -0.004404 0.002719 0.003932
# 3 0.000200 -0.000664 0.017032 -0.006083 0.005610 -0.004808
# 4 -0.000218 -0.004404 -0.006083 0.027767 -0.007866 0.001368
# 5 0.001918 0.002719 0.005610 -0.007866 0.030762 0.000418
# 6 -0.002455 0.003932 -0.004808 0.001368 0.000418 0.027810
#
#
# Mechanical properties :
#
#
# Convention : Reuss Voigt Hill
#
# Bulk Modulus (GPa) = 30.78786 41.07397 35.93091
# Shear Modulus (GPa) = 36.68439 43.27271 39.97855
#
# Velocity S-wave (km/s) = 3.81599 4.14452 3.98364
# Velocity P-wave (km/s) = 5.62467 6.26154 5.95163
#
# Compressibility (1/GPa) = 0.03248034
#
# Stress axis : x y z
#
# Youngs Moduli (GPa) = 110.48212 102.84691 58.71382
#
# Poissons Ratio (x) = 0.12325 -0.01173
# Poissons Ratio (y) = 0.13240 0.03900
# Poissons Ratio (z) = -0.02207 0.06831
#
# Static dielectric constant tensor:
#      x y z
#    x 2.152490 -0.053770 -0.081770 
#    y -0.053770 2.085280 0.003950 
#    z -0.081770 0.003950 1.951620 
# 
# From -- ./inp_files/104503.got.cif
#   From: 2010.05.17/outbox.cif.g08.bks.cpg/sg2_53_cif.got.tgz:104503.got - 2010.06.03 11:33:40.
