data_PCOD9039253
_publ_section_title
;
Structure prediction by ZEFSAII (Michael W. Deem and Ramdas Pophale) SiO2 
 PCOD9039253
Probable space group: P -1
;
_chemical_formula_sum "Si O2"
_cell_formula_units_Z 16
_cell_length_a 16.110724
_cell_length_b 11.767322
_cell_length_c 19.701259
_cell_angle_alpha 20.305897
_cell_angle_beta 147.530466
_cell_angle_gamma 146.534087
_cell_volume 677.081320
_symmetry_space_group_name_H-M "P -1"
_symmetry_group_IT_number 2
_symmetry_cell_setting 'triclinic'
loop_
_space_group_symop_operation_xyz
x,y,z
-x,-y,-z
loop_
_atom_site_type_symbol
_atom_site_label
_atom_site_fract_x
_atom_site_fract_y
_atom_site_fract_z
Si Si1 0.788504 0.627931 0.979119
Si Si2 0.676758 0.030601 0.972856
Si Si3 0.958305 0.789650 0.354628
Si Si4 0.098440 0.373551 0.340555
Si Si5 0.265039 0.631569 0.447355
Si Si6 0.558244 0.204138 0.169005
Si Si7 0.466381 0.619405 0.162720
Si Si8 0.747557 0.751908 0.625460
O O1 0.707691 0.522005 0.909201
O O2 0.764290 0.997184 0.772337
O O3 0.695594 0.367582 0.117920
O O4 0.970657 0.604322 0.119567
O O5 0.853972 0.987149 0.127312
O O6 0.573091 0.696484 0.123903
O O7 0.670287 0.382058 0.807524
O O8 0.592138 0.019482 0.848667
O O9 0.855106 0.619761 0.443721
O O10 0.000000 0.500000 0.500000
O O11 0.115710 0.039649 0.350009
O O12 0.222241 0.499462 0.415903
O O13 0.176069 0.339667 0.340834
O O14 0.000000 0.000000 0.500000
O O15 0.442575 0.614381 0.601366
O O16 0.628259 0.979184 0.395688
O O17 0.500000 0.500000 0.000000
O O18 0.500000 0.000000 0.000000
#
# Coordination Sequence:
#
# PCOD9039253 Si02
#       8
#     2   2   2   2   2   2   2   2
#     4  11  24  41  65  99 128 169 216 261 325 380
#     4  10  25  41  64  96 124 167 217 256 320 378
#     4  11  24  43  64  93 133 168 209 267 320 383
#     4  12  23  42  68  95 133 169 213 272 318 381
#     4  11  24  41  65  99 128 169 216 261 325 380
#     4  11  24  43  64  93 133 168 209 267 320 383
#     4  10  23  42  67  91 129 167 215 271 310 374
#     4  12  25  43  68  97 130 170 218 264 325 385
#
# _framework density 23.630839999999999
#
# number of rings (size 3 to 8) (size 9 to 14) (size 15 to 20)
#    0.000    1.000    2.500    3.000    7.000    2.000 
#    0.000    0.000    0.000    0.000    0.000    0.000 
#    0.000    0.000    0.000    0.000    0.000    0.000 
#
# Total GULP energy -89608.369583 kJ/mol
# GULP energy per Si atom -5600.523099 kJ/mol
# Density = 2.357706 g / cm^3
# Si number density = 23.630840 Si / 1000 Ang^3
#
#
#
# Elastic Constant Matrix: (Units=GPa)
#
#
# Indices 1 2 3 4 5 6 
#
# 1 76.5178 -20.1403 -10.3715 -2.2256 -7.9087 15.6152
# 2 -20.1403 -53.9041 -156.0730 -25.0017 -2.5099 113.0848
# 3 -10.3715 -156.0730 -45.1572 -29.0454 20.6965 153.4994
# 4 -2.2256 -25.0017 -29.0454 43.1145 5.9053 33.2675
# 5 -7.9087 -2.5099 20.6965 5.9053 41.7119 -16.1464
# 6 15.6152 113.0848 153.4994 33.2675 -16.1464 -69.3029
#
#
#
# Elastic Compliance Matrix: (Units=1/GPa)
#
#
# Indices 1 2 3 4 5 6 
#
# 1 0.013377 0.001361 -0.001213 -0.000832 0.003825 0.001258
# 2 0.001361 0.012180 -0.003116 -0.003588 0.006897 0.009951
# 3 -0.001213 -0.003116 0.004745 -0.001957 -0.000793 0.004397
# 4 -0.000832 -0.003588 -0.001957 0.020184 -0.002318 -0.000149
# 5 0.003825 0.006897 -0.000793 -0.002318 0.026982 0.002961
# 6 0.001258 0.009951 0.004397 -0.000149 0.002961 0.011069
#
#
# Mechanical properties :
#
#
# Convention : Reuss Voigt Hill
#
# Bulk Modulus (GPa) = 41.03956 -43.96811 -1.46428
# Shear Modulus (GPa) = 48.73584 14.04078 31.38831
#
# Velocity S-wave (km/s) = 4.54627 2.44021 3.64851
# Velocity P-wave (km/s) = 6.70543 3.27218 4.13858
#
# Compressibility (1/GPa) = 0.02436673
#
# Stress axis : x y z
#
# Youngs Moduli (GPa) = 74.75426 82.10217 210.75299
#
# Poissons Ratio (x) = -0.11177 0.25568
# Poissons Ratio (y) = -0.10177 0.65668
# Poissons Ratio (z) = 0.09069 0.25582
#
# Static dielectric constant tensor:
#      x y z
#    x 2.054380 0.024200 -0.086280 
#    y 0.024200 1.840620 -0.000140 
#    z -0.086280 -0.000140 1.866430 
# 
# From -- ./inp_files/599994.got.cif
#   From: 2010.05.17/outbox.cif.g08.bks.cpg/sg2_300_cif.got.tgz:599994.got - 2010.06.03 11:33:40.
