data_PCOD9039591
_publ_section_title
;
Structure prediction by ZEFSAII (Michael W. Deem and Ramdas Pophale) SiO2 
 PCOD9039591
Probable space group: P -1
;
_chemical_formula_sum "Si O2"
_cell_formula_units_Z 16
_cell_length_a 14.775248
_cell_length_b 16.276712
_cell_length_c 4.839641
_cell_angle_alpha 55.282737
_cell_angle_beta 56.383791
_cell_angle_gamma 46.047506
_cell_volume 663.622829
_symmetry_space_group_name_H-M "P -1"
_symmetry_group_IT_number 2
_symmetry_cell_setting 'triclinic'
loop_
_space_group_symop_operation_xyz
x,y,z
-x,-y,-z
loop_
_atom_site_type_symbol
_atom_site_label
_atom_site_fract_x
_atom_site_fract_y
_atom_site_fract_z
Si Si1 0.189964 0.991468 0.733751
Si Si2 0.770402 0.252962 0.652607
Si Si3 0.605403 0.368812 0.182716
Si Si4 0.174567 0.412583 0.151996
Si Si5 0.532456 0.086190 0.434710
Si Si6 0.451408 0.251687 0.741136
Si Si7 0.057279 0.138457 0.181361
Si Si8 0.913224 0.659436 0.057831
O O1 0.134578 0.017843 0.468158
O O2 0.323416 0.985408 0.543886
O O3 0.083243 0.100645 0.893661
O O4 0.215626 0.870275 0.051273
O O5 0.654191 0.339237 0.471522
O O6 0.906696 0.213898 0.367228
O O7 0.732749 0.322604 0.870856
O O8 0.539267 0.294445 0.384051
O O9 0.500000 0.500000 0.000000
O O10 0.165021 0.380403 0.543859
O O11 0.066454 0.553455 0.031370
O O12 0.316316 0.361890 0.885477
O O13 0.124138 0.344378 0.185302
O O14 0.440655 0.171012 0.678927
O O15 0.500000 0.000000 0.500000
O O16 0.523840 0.169434 0.041023
O O17 0.113255 0.216767 0.029405
#
# Coordination Sequence:
#
# PCOD9039591 Si02
#       8
#     2   2   2   2   2   2   2   2
#     4  12  24  46  68  98 139 179 226 288 343 403
#     4  12  25  49  68 101 138 177 232 287 341 410
#     4  12  26  47  74 103 140 181 229 285 350 411
#     4  10  23  42  69  90 140 172 219 274 352 396
#     4  12  27  44  71 102 140 184 229 282 347 415
#     4  12  24  47  70 103 136 183 226 285 347 414
#     4  12  26  41  74  97 132 181 236 281 339 400
#     4  10  23  44  62 102 129 175 221 286 326 409
#
# _framework density 24.110078000000001
#
# number of rings (size 3 to 8) (size 9 to 14) (size 15 to 20)
#    0.000    0.500    2.500    5.250    7.000    0.000 
#    4.500    0.000    0.000    0.000    0.000    0.000 
#    0.000    0.000    0.000    0.000    0.000    0.000 
#
# Total GULP energy -89596.845382 kJ/mol
# GULP energy per Si atom -5599.802836 kJ/mol
# Density = 2.405520 g / cm^3
# Si number density = 24.110078 Si / 1000 Ang^3
#
#
#
# Elastic Constant Matrix: (Units=GPa)
#
#
# Indices 1 2 3 4 5 6 
#
# 1 60.7059 -3.6336 9.2978 -3.8853 16.7849 -11.7870
# 2 -3.6336 64.7302 24.8673 24.5962 11.9768 -10.5468
# 3 9.2978 24.8673 52.5723 6.8450 12.0040 -7.4185
# 4 -3.8853 24.5962 6.8450 47.9987 -6.6960 -1.2563
# 5 16.7849 11.9768 12.0040 -6.6960 34.1118 11.0316
# 6 -11.7870 -10.5468 -7.4185 -1.2563 11.0316 37.7052
#
#
#
# Elastic Compliance Matrix: (Units=1/GPa)
#
#
# Indices 1 2 3 4 5 6 
#
# 1 0.027498 0.012375 -0.001521 -0.006861 -0.024758 0.018773
# 2 0.012375 0.033399 -0.007411 -0.018020 -0.024688 0.018375
# 3 -0.001521 -0.007411 0.025144 -0.000784 -0.007090 0.004447
# 4 -0.006861 -0.018020 -0.000784 0.032127 0.020226 -0.012187
# 5 -0.024758 -0.024688 -0.007090 0.020226 0.068038 -0.035272
# 6 0.018773 0.018375 0.004447 -0.012187 -0.035272 0.048319
#
#
# Mechanical properties :
#
#
# Convention : Reuss Voigt Hill
#
# Bulk Modulus (GPa) = 10.76110 26.56351 18.66230
# Shear Modulus (GPa) = 19.33377 33.79496 26.56436
#
# Velocity S-wave (km/s) = 2.83485 3.74798 3.32293
# Velocity P-wave (km/s) = 3.89720 5.45631 4.74128
#
# Compressibility (1/GPa) = 0.09292727
#
# Stress axis : x y z
#
# Youngs Moduli (GPa) = 36.36624 29.94077 39.77059
#
# Poissons Ratio (x) = -0.37051 0.06050
# Poissons Ratio (y) = -0.45002 0.29473
# Poissons Ratio (z) = 0.05532 0.22188
#
# Static dielectric constant tensor:
#      x y z
#    x 1.882330 -0.031280 -0.019190 
#    y -0.031280 1.932010 -0.018870 
#    z -0.019190 -0.018870 1.890310 
# 
# From -- ./inp_files/97470.got.cif
#   From: 2010.05.17/outbox.cif.g08.bks.cpg/sg2_49_cif.got.tgz:97470.got - 2010.06.03 11:33:40.
