data_PCOD9039187
_publ_section_title
;
Structure prediction by ZEFSAII (Michael W. Deem and Ramdas Pophale) SiO2 
 PCOD9039187
Probable space group: P -1
;
_chemical_formula_sum "Si O2"
_cell_formula_units_Z 16
_cell_length_a 5.654299
_cell_length_b 16.975690
_cell_length_c 16.381195
_cell_angle_alpha 33.571269
_cell_angle_beta 81.230653
_cell_angle_gamma 66.923093
_cell_volume 751.581005
_symmetry_space_group_name_H-M "P -1"
_symmetry_group_IT_number 2
_symmetry_cell_setting 'triclinic'
loop_
_space_group_symop_operation_xyz
x,y,z
-x,-y,-z
loop_
_atom_site_type_symbol
_atom_site_label
_atom_site_fract_x
_atom_site_fract_y
_atom_site_fract_z
Si Si1 0.643786 0.088695 0.371078
Si Si2 0.423919 0.461217 0.781891
Si Si3 0.810803 0.856178 0.123433
Si Si4 0.958248 0.484084 0.664196
Si Si5 0.251796 0.792182 0.579892
Si Si6 0.057412 0.953853 0.174830
Si Si7 0.479551 0.165332 0.634387
Si Si8 0.577368 0.132733 0.151913
O O1 0.631594 0.217182 0.327381
O O2 0.520296 0.151369 0.234581
O O3 0.500000 0.000000 0.500000
O O4 0.955368 0.949915 0.459977
O O5 0.698846 0.465005 0.731485
O O6 0.257377 0.625715 0.700686
O O7 0.209167 0.462967 0.725888
O O8 0.495940 0.302781 0.968024
O O9 0.891572 0.668677 0.272845
O O10 0.922249 0.883752 0.179179
O O11 0.500000 0.000000 0.000000
O O12 0.955752 0.898035 0.004889
O O13 0.813590 0.673382 0.482123
O O14 0.420782 0.816760 0.476658
O O15 0.353880 0.828115 0.301242
O O16 0.895907 0.020413 0.210143
O O17 0.529223 0.980523 0.788240
#
# Coordination Sequence:
#
# PCOD9039187 Si02
#       8
#     2   2   2   2   2   2   2   2
#     4  11  22  41  69  99 139 182 229 288 353 406
#     4  11  25  44  71 102 141 184 238 283 354 414
#     4  11  24  45  68 100 145 178 232 292 353 412
#     4  11  25  45  71 103 141 188 227 296 350 411
#     4  10  23  42  66  99 140 182 229 291 347 412
#     4  11  23  41  68 100 133 185 232 284 348 416
#     4  11  23  41  71  99 137 183 239 281 351 420
#     4  12  23  42  70 101 137 186 237 282 348 424
#
# _framework density 21.288456
#
# number of rings (size 3 to 8) (size 9 to 14) (size 15 to 20)
#    0.000    1.000    3.750    3.000    5.250    1.000 
#    0.000    3.125    0.000    0.000    0.000    0.000 
#    0.000    0.000    0.000    0.000    0.000    0.000 
#
# Total GULP energy -89214.392997 kJ/mol
# GULP energy per Si atom -5575.899562 kJ/mol
# Density = 2.124000 g / cm^3
# Si number density = 21.288456 Si / 1000 Ang^3
#
#
#
# Elastic Constant Matrix: (Units=GPa)
#
#
# Indices 1 2 3 4 5 6 
#
# 1 66.1457 19.9196 8.0686 13.1140 -3.5318 15.1925
# 2 19.9196 113.7749 23.6975 6.0152 -3.2679 16.2176
# 3 8.0686 23.6975 51.8377 4.2088 -10.7203 10.3469
# 4 13.1140 6.0152 4.2088 41.8112 6.6262 -3.4205
# 5 -3.5318 -3.2679 -10.7203 6.6262 29.5716 5.1708
# 6 15.1925 16.2176 10.3469 -3.4205 5.1708 36.4868
#
#
#
# Elastic Compliance Matrix: (Units=1/GPa)
#
#
# Indices 1 2 3 4 5 6 
#
# 1 0.019471 -0.001820 0.001536 -0.007719 0.006039 -0.009313
# 2 -0.001820 0.010352 -0.003753 -0.000818 0.000255 -0.002892
# 3 0.001536 -0.003753 0.025171 -0.004959 0.011438 -0.008195
# 4 -0.007719 -0.000818 -0.004959 0.029466 -0.011041 0.009311
# 5 0.006039 0.000255 0.011438 -0.011041 0.043471 -0.013067
# 6 -0.009313 -0.002892 -0.008195 0.009311 -0.013067 0.037619
#
#
# Mechanical properties :
#
#
# Convention : Reuss Voigt Hill
#
# Bulk Modulus (GPa) = 21.31235 37.23662 29.27449
# Shear Modulus (GPa) = 26.41799 33.57875 29.99837
#
# Velocity S-wave (km/s) = 3.52654 3.97586 3.75792
# Velocity P-wave (km/s) = 5.15897 6.21338 5.71056
#
# Compressibility (1/GPa) = 0.04692116
#
# Stress axis : x y z
#
# Youngs Moduli (GPa) = 51.35931 96.59615 39.72757
#
# Poissons Ratio (x) = 0.17578 -0.06102
# Poissons Ratio (y) = 0.09346 0.14909
# Poissons Ratio (z) = -0.07888 0.36251
#
# Static dielectric constant tensor:
#      x y z
#    x 1.931430 -0.016370 -0.033330 
#    y -0.016370 1.769640 0.020240 
#    z -0.033330 0.020240 1.743090 
# 
# From -- ./inp_files/51845.got.cif
#   From: 2010.05.17/outbox.cif.g08.bks.cpg/sg2_26_cif.got.tgz:51845.got - 2010.06.03 11:33:40.
