data_PCOD9039522
_publ_section_title
;
Structure prediction by ZEFSAII (Michael W. Deem and Ramdas Pophale) SiO2 
 PCOD9039522
Probable space group: P -1
;
_chemical_formula_sum "Si O2"
_cell_formula_units_Z 16
_cell_length_a 18.259511
_cell_length_b 12.060180
_cell_length_c 8.895422
_cell_angle_alpha 49.166556
_cell_angle_beta 75.292451
_cell_angle_gamma 38.780083
_cell_volume 781.399924
_symmetry_space_group_name_H-M "P -1"
_symmetry_group_IT_number 2
_symmetry_cell_setting 'triclinic'
loop_
_space_group_symop_operation_xyz
x,y,z
-x,-y,-z
loop_
_atom_site_type_symbol
_atom_site_label
_atom_site_fract_x
_atom_site_fract_y
_atom_site_fract_z
Si Si1 0.106078 0.582171 0.571158
Si Si2 0.629850 0.871418 0.982234
Si Si3 0.631397 0.206671 0.766342
Si Si4 0.432898 0.975837 0.462644
Si Si5 0.111980 0.870096 0.923954
Si Si6 0.938966 0.658010 0.048920
Si Si7 0.837679 0.530824 0.712255
Si Si8 0.390371 0.598916 0.084682
O O1 0.068382 0.478871 0.729101
O O2 0.146925 0.505191 0.442642
O O3 0.231171 0.420545 0.759762
O O4 0.984325 0.899379 0.355899
O O5 0.619120 0.890769 0.791954
O O6 0.616945 0.057755 0.882683
O O7 0.500000 0.000000 0.000000
O O8 0.500000 0.500000 0.500000
O O9 0.630684 0.256913 0.894262
O O10 0.787305 0.978044 0.823037
O O11 0.294730 0.154282 0.464882
O O12 0.500000 0.000000 0.500000
O O13 0.533550 0.674614 0.661213
O O14 0.185397 0.596028 0.099911
O O15 0.234457 0.791432 0.955889
O O16 0.000000 0.000000 0.000000
O O17 0.033971 0.613170 0.134609
O O18 0.000000 0.500000 0.000000
O O19 0.500000 0.500000 0.000000
#
# Coordination Sequence:
#
# PCOD9039522 Si02
#       8
#     2   2   2   2   2   2   2   2
#     4  10  23  42  69 100 135 181 242 291 361 432
#     4  11  25  42  68 101 139 184 235 296 367 427
#     4  11  24  45  66 102 144 190 237 300 364 431
#     4  12  25  45  70 102 143 186 240 299 366 433
#     4  10  23  44  69 102 136 187 239 294 359 429
#     4  11  25  43  68 103 144 190 242 300 367 435
#     4  11  22  41  72  95 138 187 237 299 359 430
#     4  12  28  44  73 109 146 187 249 302 367 433
#
# _framework density 20.476068999999999
#
# number of rings (size 3 to 8) (size 9 to 14) (size 15 to 20)
#    0.000    1.000    2.500    4.125    8.750    1.000 
#    0.000    2.500    0.000    0.000    0.000    0.000 
#    0.000    0.000    0.000    0.000    0.000    0.000 
#
# Total GULP energy -89223.281985 kJ/mol
# GULP energy per Si atom -5576.455124 kJ/mol
# Density = 2.042946 g / cm^3
# Si number density = 20.476069 Si / 1000 Ang^3
#
#
#
# Elastic Constant Matrix: (Units=GPa)
#
#
# Indices 1 2 3 4 5 6 
#
# 1 117.8466 29.0890 42.2931 13.4511 30.2491 -4.8940
# 2 29.0890 115.6630 46.5104 1.5763 13.8944 8.7997
# 3 42.2931 46.5104 151.2944 -5.0733 23.6778 0.0235
# 4 13.4511 1.5763 -5.0733 36.6093 -1.9968 5.5906
# 5 30.2491 13.8944 23.6778 -1.9968 30.5290 -3.0377
# 6 -4.8940 8.7997 0.0235 5.5906 -3.0377 35.0765
#
#
#
# Elastic Compliance Matrix: (Units=1/GPa)
#
#
# Indices 1 2 3 4 5 6 
#
# 1 0.013058 -0.001344 -0.001684 -0.005910 -0.011196 0.002133
# 2 -0.001344 0.010447 -0.002564 0.000047 -0.001726 -0.002964
# 3 -0.001684 -0.002564 0.008500 0.001736 -0.003663 -0.000191
# 4 -0.005910 0.000047 0.001736 0.030851 0.005984 -0.005237
# 5 -0.011196 -0.001726 -0.003663 0.005984 0.048074 0.002083
# 6 0.002133 -0.002964 -0.000191 -0.005237 0.002083 0.030565
#
#
# Mechanical properties :
#
#
# Convention : Reuss Voigt Hill
#
# Bulk Modulus (GPa) = 48.02424 68.95433 58.48928
# Shear Modulus (GPa) = 31.32456 38.23705 34.78081
#
# Velocity S-wave (km/s) = 3.91553 4.32603 4.12589
# Velocity P-wave (km/s) = 6.62922 7.66169 7.16408
#
# Compressibility (1/GPa) = 0.02082282
#
# Stress axis : x y z
#
# Youngs Moduli (GPa) = 76.57939 95.72191 117.64880
#
# Poissons Ratio (x) = 0.12865 0.19807
# Poissons Ratio (y) = 0.10292 0.30161
# Poissons Ratio (z) = 0.12893 0.24540
#
# Static dielectric constant tensor:
#      x y z
#    x 1.718500 -0.074870 0.013850 
#    y -0.074870 1.726400 -0.064910 
#    z 0.013850 -0.064910 1.723510 
# 
# From -- ./inp_files/332887.got.cif
#   From: 2010.05.17/outbox.cif.g08.bks.cpg/sg2_167_cif.got.tgz:332887.got - 2010.06.03 11:33:40.
