data_PCOD9039182
_publ_section_title
;
Structure prediction by ZEFSAII (Michael W. Deem and Ramdas Pophale) SiO2 
 PCOD9039182
Probable space group: P -1
;
_chemical_formula_sum "Si O2"
_cell_formula_units_Z 12
_cell_length_a 9.075766
_cell_length_b 15.371332
_cell_length_c 13.542909
_cell_angle_alpha 30.317583
_cell_angle_beta 149.433870
_cell_angle_gamma 136.302208
_cell_volume 483.478420
_symmetry_space_group_name_H-M "P -1"
_symmetry_group_IT_number 2
_symmetry_cell_setting 'triclinic'
loop_
_space_group_symop_operation_xyz
x,y,z
-x,-y,-z
loop_
_atom_site_type_symbol
_atom_site_label
_atom_site_fract_x
_atom_site_fract_y
_atom_site_fract_z
Si Si1 0.958366 0.281879 0.832056
Si Si2 0.520567 0.221654 0.078215
Si Si3 0.183664 0.959776 0.399069
Si Si4 0.352705 0.390702 0.292527
Si Si5 0.865496 0.421464 0.837293
Si Si6 0.384325 0.158672 0.847180
O O1 0.667214 0.295404 0.585832
O O2 0.953052 0.435363 0.759885
O O3 0.231418 0.261182 0.938041
O O4 0.994863 0.123623 0.084614
O O5 0.746724 0.099706 0.391350
O O6 0.604504 0.413413 0.910715
O O7 0.461134 0.124179 0.039154
O O8 0.966458 0.815526 0.383222
O O9 0.500000 0.000000 0.500000
O O10 0.208847 0.413883 0.295452
O O11 0.134553 0.323268 0.151284
O O12 0.575191 0.318104 0.774090
O O13 0.500000 0.000000 0.000000
#
# Coordination Sequence:
#
# PCOD9039182 Si02
#       6
#     2   2   2   2   2   2
#     4  11  22  42  68 100 134 180 221 279 333 397
#     4  10  25  43  68 100 136 176 225 275 337 399
#     4  10  24  44  66 100 136 175 220 277 333 397
#     4  10  23  43  67  96 135 180 225 272 334 402
#     4  10  23  42  66  99 134 177 226 277 333 397
#     4  11  23  46  68  99 135 178 224 279 333 398
#
# _framework density 24.820135000000001
#
# number of rings (size 3 to 8) (size 9 to 14) (size 15 to 20)
#    0.000    1.667    1.667    1.000    0.000   14.667 
#    0.000    0.000    0.000    0.000    0.000    0.000 
#    0.000    0.000    0.000    0.000    0.000    0.000 
#
# Total GULP energy -66948.970409 kJ/mol
# GULP energy per Si atom -5579.080867 kJ/mol
# Density = 2.476364 g / cm^3
# Si number density = 24.820135 Si / 1000 Ang^3
#
#
#
# Elastic Constant Matrix: (Units=GPa)
#
#
# Indices 1 2 3 4 5 6 
#
# 1 116.0583 49.8680 31.3777 10.4946 -17.6357 -0.2533
# 2 49.8680 119.0457 57.5952 18.9211 -6.2569 7.5705
# 3 31.3777 57.5952 175.9097 34.1330 -13.6556 11.0737
# 4 10.4946 18.9211 34.1330 56.7442 -7.7766 -1.3925
# 5 -17.6357 -6.2569 -13.6556 -7.7766 39.5266 16.7529
# 6 -0.2533 7.5705 11.0737 -1.3925 16.7529 25.7865
#
#
#
# Elastic Compliance Matrix: (Units=1/GPa)
#
#
# Indices 1 2 3 4 5 6 
#
# 1 0.011255 -0.004285 -0.000097 0.000062 0.005138 -0.001924
# 2 -0.004285 0.011885 -0.002690 -0.001653 -0.000332 -0.002250
# 3 -0.000097 -0.002690 0.007873 -0.003429 0.003800 -0.005246
# 4 0.000062 -0.001653 -0.003429 0.020521 0.001820 0.001884
# 5 0.005138 -0.000332 0.003800 0.001820 0.041120 -0.028101
# 6 -0.001924 -0.002250 -0.005246 0.001884 -0.028101 0.060033
#
#
# Mechanical properties :
#
#
# Convention : Reuss Voigt Hill
#
# Bulk Modulus (GPa) = 59.28160 76.52172 67.90166
# Shear Modulus (GPa) = 28.99311 42.55633 35.77472
#
# Velocity S-wave (km/s) = 3.42150 4.14525 3.80064
# Velocity P-wave (km/s) = 6.28850 7.33541 6.83204
#
# Compressibility (1/GPa) = 0.01686864
#
# Stress axis : x y z
#
# Youngs Moduli (GPa) = 88.85218 84.13811 127.00919
#
# Poissons Ratio (x) = 0.36056 0.01227
# Poissons Ratio (y) = 0.38076 0.34171
# Poissons Ratio (z) = 0.00858 0.22637
#
# Static dielectric constant tensor:
#      x y z
#    x 1.973820 -0.003000 0.044570 
#    y -0.003000 2.144700 -0.129880 
#    z 0.044570 -0.129880 2.148100 
# 
# From -- ./inp_files/61166.got.cif
#   From: 2010.05.17/outbox.cif.g08.bks.cpg/sg2_31_cif.got.tgz:61166.got - 2010.06.03 11:33:40.
