data_PCOD9039388
_publ_section_title
;
Structure prediction by ZEFSAII (Michael W. Deem and Ramdas Pophale) SiO2 
 PCOD9039388
Probable space group: P -1
;
_chemical_formula_sum "Si O2"
_cell_formula_units_Z 12
_cell_length_a 12.991467
_cell_length_b 11.102928
_cell_length_c 5.351150
_cell_angle_alpha 74.888304
_cell_angle_beta 48.468053
_cell_angle_gamma 59.989239
_cell_volume 497.339429
_symmetry_space_group_name_H-M "P -1"
_symmetry_group_IT_number 2
_symmetry_cell_setting 'triclinic'
loop_
_space_group_symop_operation_xyz
x,y,z
-x,-y,-z
loop_
_atom_site_type_symbol
_atom_site_label
_atom_site_fract_x
_atom_site_fract_y
_atom_site_fract_z
Si Si1 0.103453 0.571246 0.704769
Si Si2 0.883563 0.165453 0.581176
Si Si3 0.397534 0.047691 0.390028
Si Si4 0.640338 0.663372 0.822158
Si Si5 0.414178 0.422231 0.548274
Si Si6 0.183588 0.897879 0.776203
O O1 0.036786 0.734491 0.658432
O O2 0.203349 0.481709 0.357166
O O3 0.237252 0.531751 0.717770
O O4 0.000000 0.500000 0.000000
O O5 0.775259 0.178205 0.514518
O O6 0.797193 0.200063 0.965468
O O7 0.000000 0.000000 0.500000
O O8 0.321029 0.215200 0.403074
O O9 0.500000 0.000000 0.500000
O O10 0.274328 0.987858 0.622684
O O11 0.500000 0.000000 0.000000
O O12 0.539405 0.642795 0.770513
O O13 0.578325 0.687104 0.190728
O O14 0.500000 0.500000 0.500000
O O15 0.000000 0.000000 0.000000
#
# Coordination Sequence:
#
# PCOD9039388 Si02
#       6
#     2   2   2   2   2   2
#     4  10  26  43  72 103 141 182 228 287 355 409
#     4  10  23  42  68 102 136 181 229 287 347 416
#     4  12  26  46  71 103 139 190 235 287 354 417
#     4  10  25  44  70  98 142 178 235 286 346 415
#     4  10  23  43  67  96 138 182 230 284 342 411
#     4  10  24  43  70  97 139 177 231 286 349 409
#
# _framework density 24.128391000000001
#
# number of rings (size 3 to 8) (size 9 to 14) (size 15 to 20)
#    1.000    0.667    0.000    2.500    7.000    7.333 
#    0.000    0.000    0.000    0.000    0.000    0.000 
#    0.000    0.000    0.000    0.000    0.000    0.000 
#
# Total GULP energy -67008.808744 kJ/mol
# GULP energy per Si atom -5584.067395 kJ/mol
# Density = 2.407347 g / cm^3
# Si number density = 24.128391 Si / 1000 Ang^3
#
#
#
# Elastic Constant Matrix: (Units=GPa)
#
#
# Indices 1 2 3 4 5 6 
#
# 1 124.3890 27.9364 78.3079 -11.2376 3.8852 14.9989
# 2 27.9364 130.5232 39.2646 -35.6500 -10.4713 5.6401
# 3 78.3079 39.2646 118.3609 -28.6861 19.7593 3.2737
# 4 -11.2376 -35.6500 -28.6861 53.1619 10.8832 -4.5742
# 5 3.8852 -10.4713 19.7593 10.8832 68.8001 -4.1515
# 6 14.9989 5.6401 3.2737 -4.5742 -4.1515 31.7792
#
#
#
# Elastic Compliance Matrix: (Units=1/GPa)
#
#
# Indices 1 2 3 4 5 6 
#
# 1 0.015733 -0.000610 -0.011537 -0.004401 0.002641 -0.006417
# 2 -0.000610 0.009877 -0.001790 0.005251 0.001199 -0.000368
# 3 -0.011537 -0.001790 0.019734 0.008678 -0.006412 0.004141
# 4 -0.004401 0.005251 0.008678 0.027528 -0.005589 0.003484
# 5 0.002641 0.001199 -0.006412 -0.005589 0.017334 0.000661
# 6 -0.006417 -0.000368 0.004141 0.003484 0.000661 0.034722
#
#
# Mechanical properties :
#
#
# Convention : Reuss Voigt Hill
#
# Bulk Modulus (GPa) = 57.23915 73.81010 65.52462
# Shear Modulus (GPa) = 31.52083 45.93254 38.72669
#
# Velocity S-wave (km/s) = 3.61831 4.36784 4.01062
# Velocity P-wave (km/s) = 6.42109 7.48962 6.97584
#
# Compressibility (1/GPa) = 0.01747056
#
# Stress axis : x y z
#
# Youngs Moduli (GPa) = 63.56198 101.24558 50.67297
#
# Poissons Ratio (x) = 0.06174 0.58459
# Poissons Ratio (y) = 0.03876 0.09072
# Poissons Ratio (z) = 0.73329 0.18127
#
# Static dielectric constant tensor:
#      x y z
#    x 1.872110 0.056420 0.050030 
#    y 0.056420 1.885810 -0.012670 
#    z 0.050030 -0.012670 1.932270 
# 
# From -- ./inp_files/93094.got.cif
#   From: 2010.05.17/outbox.cif.g08.bks.cpg/sg2_47_cif.got.tgz:93094.got - 2010.06.03 11:33:40.
