data_PCOD9039214
_publ_section_title
;
Structure prediction by ZEFSAII (Michael W. Deem and Ramdas Pophale) SiO2 
 PCOD9039214
Probable space group: P -1
;
_chemical_formula_sum "Si O2"
_cell_formula_units_Z 12
_cell_length_a 8.833571
_cell_length_b 13.336118
_cell_length_c 7.108736
_cell_angle_alpha 109.704278
_cell_angle_beta 125.555317
_cell_angle_gamma 48.350206
_cell_volume 507.413647
_symmetry_space_group_name_H-M "P -1"
_symmetry_group_IT_number 2
_symmetry_cell_setting 'triclinic'
loop_
_space_group_symop_operation_xyz
x,y,z
-x,-y,-z
loop_
_atom_site_type_symbol
_atom_site_label
_atom_site_fract_x
_atom_site_fract_y
_atom_site_fract_z
Si Si1 0.585698 0.852395 0.525335
Si Si2 0.890687 0.602854 0.314138
Si Si3 0.198136 0.814776 0.168073
Si Si4 0.820757 0.338914 0.626380
Si Si5 0.541287 0.382285 0.085634
Si Si6 0.244581 0.105653 0.965265
O O1 0.749631 0.744487 0.415062
O O2 0.361085 0.853116 0.380621
O O3 0.500000 0.000000 0.500000
O O4 0.725035 0.815926 0.800404
O O5 0.000000 0.500000 0.500000
O O6 0.094239 0.572238 0.302913
O O7 0.699182 0.598848 0.068843
O O8 0.263592 0.684987 0.255964
O O9 0.918322 0.926589 0.070229
O O10 0.268462 0.758077 0.973694
O O11 0.643325 0.371926 0.355729
O O12 0.077476 0.192714 0.725141
O O13 0.500000 0.500000 0.000000
O O14 0.500000 0.000000 0.000000
#
# Coordination Sequence:
#
# PCOD9039214 Si02
#       6
#     2   2   2   2   2   2
#     4  11  24  46  69 100 145 184 234 296 350 421
#     4  11  23  43  71 104 137 188 234 288 354 413
#     4   9  25  43  67 103 134 183 239 276 360 413
#     4  10  23  42  67 101 141 175 232 289 343 414
#     4  11  22  43  70  98 142 184 227 289 355 415
#     4  10  23  43  66 100 137 181 238 279 351 407
#
# _framework density 23.649342000000001
#
# number of rings (size 3 to 8) (size 9 to 14) (size 15 to 20)
#    1.000    0.667    1.667    2.000    2.333    2.000 
#    0.000    1.667    0.000    0.000    0.000    0.000 
#    0.000    0.000    0.000    0.000    0.000    0.000 
#
# Total GULP energy -66945.868905 kJ/mol
# GULP energy per Si atom -5578.822409 kJ/mol
# Density = 2.359551 g / cm^3
# Si number density = 23.649342 Si / 1000 Ang^3
#
#
#
# Elastic Constant Matrix: (Units=GPa)
#
#
# Indices 1 2 3 4 5 6 
#
# 1 134.1234 23.3896 51.0989 20.6867 28.2458 3.0296
# 2 23.3896 78.8948 12.7636 -1.4143 6.8353 -3.2697
# 3 51.0989 12.7636 123.5040 5.8415 24.9873 -14.2059
# 4 20.6867 -1.4143 5.8415 34.0079 5.8309 8.9436
# 5 28.2458 6.8353 24.9873 5.8309 32.9254 -0.7181
# 6 3.0296 -3.2697 -14.2059 8.9436 -0.7181 26.7041
#
#
#
# Elastic Compliance Matrix: (Units=1/GPa)
#
#
# Indices 1 2 3 4 5 6 
#
# 1 0.011084 -0.002436 -0.003132 -0.004849 -0.005806 -0.001754
# 2 -0.002436 0.013587 -0.000165 0.001922 -0.000920 0.001184
# 3 -0.003132 -0.000165 0.011323 -0.000790 -0.005591 0.006473
# 4 -0.004849 0.001922 -0.000790 0.036057 -0.002282 -0.011772
# 5 -0.005806 -0.000920 -0.005591 -0.002282 0.040177 -0.000584
# 6 -0.001754 0.001184 0.006473 -0.011772 -0.000584 0.045162
#
#
# Mechanical properties :
#
#
# Convention : Reuss Voigt Hill
#
# Bulk Modulus (GPa) = 40.76890 56.78070 48.77480
# Shear Modulus (GPa) = 28.24342 35.34550 31.79446
#
# Velocity S-wave (km/s) = 3.45955 3.87016 3.67060
# Velocity P-wave (km/s) = 5.76492 6.63569 6.21557
#
# Compressibility (1/GPa) = 0.02452850
#
# Stress axis : x y z
#
# Youngs Moduli (GPa) = 90.22011 73.59870 88.31721
#
# Poissons Ratio (x) = 0.17928 0.27661
# Poissons Ratio (y) = 0.21977 0.01455
# Poissons Ratio (z) = 0.28257 0.01213
#
# Static dielectric constant tensor:
#      x y z
#    x 1.971390 0.035930 -0.023300 
#    y 0.035930 2.008050 -0.039840 
#    z -0.023300 -0.039840 1.862370 
# 
# From -- ./inp_files/172475.got.cif
#   From: 2010.05.17/outbox.cif.g08.bks.cpg/sg2_87_cif.got.tgz:172475.got - 2010.06.03 11:33:40.
