data_PCOD9039722
_publ_section_title
;
Structure prediction by ZEFSAII (Michael W. Deem and Ramdas Pophale) SiO2 
 PCOD9039722
Probable space group: P -1
;
_chemical_formula_sum "Si O2"
_cell_formula_units_Z 16
_cell_length_a 29.112615
_cell_length_b 5.295050
_cell_length_c 7.048302
_cell_angle_alpha 72.886426
_cell_angle_beta 47.384250
_cell_angle_gamma 59.188048
_cell_volume 684.342895
_symmetry_space_group_name_H-M "P -1"
_symmetry_group_IT_number 2
_symmetry_cell_setting 'triclinic'
loop_
_space_group_symop_operation_xyz
x,y,z
-x,-y,-z
loop_
_atom_site_type_symbol
_atom_site_label
_atom_site_fract_x
_atom_site_fract_y
_atom_site_fract_z
Si Si1 0.694857 0.515603 0.552202
Si Si2 0.794550 0.510352 0.942473
Si Si3 0.917020 0.645901 0.159025
Si Si4 0.700189 0.931583 0.786667
Si Si5 0.549369 0.223482 0.300265
Si Si6 0.929075 0.055783 0.292352
Si Si7 0.118222 0.177102 0.211182
Si Si8 0.542234 0.806273 0.744976
O O1 0.743404 0.567713 0.251835
O O2 0.688076 0.730578 0.702304
O O3 0.618742 0.600614 0.654993
O O4 0.725775 0.166513 0.586203
O O5 0.750644 0.712541 0.849137
O O6 0.853372 0.610246 0.819958
O O7 0.824432 0.164451 0.884398
O O8 0.892440 0.404572 0.346205
O O9 0.886548 0.944837 0.297464
O O10 0.904982 0.711377 0.958692
O O11 0.000000 0.500000 0.000000
O O12 0.628236 0.142700 0.047836
O O13 0.500000 0.500000 0.500000
O O14 0.510879 0.291307 0.188828
O O15 0.554908 0.964402 0.486057
O O16 0.940551 0.859652 0.490255
O O17 0.000000 0.000000 0.000000
O O18 0.500000 0.000000 0.000000
#
# Coordination Sequence:
#
# PCOD9039722 Si02
#       8
#     2   2   2   2   2   2   2   2
#     4  12  27  46  74  99 142 188 244 298 371 419
#     4  12  28  48  69 102 143 191 246 290 347 435
#     4  10  23  42  70 106 144 178 230 283 348 414
#     4  12  27  47  70 102 139 188 240 304 355 430
#     4  11  25  40  70 101 143 180 238 305 374 440
#     4  10  23  42  70 106 144 179 225 285 344 418
#     4  12  26  45  74 102 142 192 233 287 357 423
#     4  11  23  43  67 103 137 182 238 301 370 434
#
# _framework density 23.380094
#
# number of rings (size 3 to 8) (size 9 to 14) (size 15 to 20)
#    0.000    0.750    2.500    3.750    3.500   12.000 
#    0.000    0.000    0.000    0.000    0.000    0.000 
#    0.000    0.000    0.000    0.000    0.000    0.000 
#
# Total GULP energy -89436.496828 kJ/mol
# GULP energy per Si atom -5589.781052 kJ/mol
# Density = 2.332688 g / cm^3
# Si number density = 23.380094 Si / 1000 Ang^3
#
#
#
# Elastic Constant Matrix: (Units=GPa)
#
#
# Indices 1 2 3 4 5 6 
#
# 1 106.1039 56.7923 27.2037 -9.4574 30.6965 1.2690
# 2 56.7923 110.8362 20.5256 -16.3360 13.4063 8.9054
# 3 27.2037 20.5256 90.8048 -14.0583 8.1451 -2.7057
# 4 -9.4574 -16.3360 -14.0583 48.8845 -0.1913 9.6677
# 5 30.6965 13.4063 8.1451 -0.1913 47.2254 0.1221
# 6 1.2690 8.9054 -2.7057 9.6677 0.1221 42.4400
#
#
#
# Elastic Compliance Matrix: (Units=1/GPa)
#
#
# Indices 1 2 3 4 5 6 
#
# 1 0.016062 -0.006873 -0.002528 -0.000116 -0.008056 0.000850
# 2 -0.006873 0.013373 -0.000571 0.003665 0.000793 -0.003474
# 3 -0.002528 -0.000571 0.012373 0.002809 -0.000318 0.000345
# 4 -0.000116 0.003665 0.002809 0.023642 -0.001338 -0.005968
# 5 -0.008056 0.000793 -0.000318 -0.001338 0.026235 0.000284
# 6 0.000850 -0.003474 0.000345 -0.005968 0.000284 0.025647
#
#
# Mechanical properties :
#
#
# Convention : Reuss Voigt Hill
#
# Bulk Modulus (GPa) = 45.73929 57.42092 51.58010
# Shear Modulus (GPa) = 34.58696 41.25819 37.92257
#
# Velocity S-wave (km/s) = 3.85038 4.20536 4.03178
# Velocity P-wave (km/s) = 6.27480 6.94213 6.61688
#
# Compressibility (1/GPa) = 0.02186304
#
# Stress axis : x y z
#
# Youngs Moduli (GPa) = 62.26003 74.77683 80.82224
#
# Poissons Ratio (x) = 0.51393 0.20435
# Poissons Ratio (y) = 0.42790 0.04616
# Poissons Ratio (z) = 0.15742 0.04271
#
# Static dielectric constant tensor:
#      x y z
#    x 1.872960 0.115670 -0.047230 
#    y 0.115670 1.850610 0.003980 
#    z -0.047230 0.003980 1.872580 
# 
# From -- ./inp_files/125770.got.cif
#   From: 2010.05.17/outbox.cif.g08.bks.cpg/sg2_63_cif.got.tgz:125770.got - 2010.06.03 11:33:40.
