data_PCOD9039909
_publ_section_title
;
Structure prediction by ZEFSAII (Michael W. Deem and Ramdas Pophale) SiO2 
 PCOD9039909
Probable space group: P -1
;
_chemical_formula_sum "Si O2"
_cell_formula_units_Z 16
_cell_length_a 14.699757
_cell_length_b 9.060047
_cell_length_c 9.811892
_cell_angle_alpha 45.414616
_cell_angle_beta 66.387265
_cell_angle_gamma 98.267351
_cell_volume 647.146593
_symmetry_space_group_name_H-M "P -1"
_symmetry_group_IT_number 2
_symmetry_cell_setting 'triclinic'
loop_
_space_group_symop_operation_xyz
x,y,z
-x,-y,-z
loop_
_atom_site_type_symbol
_atom_site_label
_atom_site_fract_x
_atom_site_fract_y
_atom_site_fract_z
Si Si1 0.340849 0.972980 0.575807
Si Si2 0.544755 0.286795 0.839265
Si Si3 0.837007 0.315040 0.378421
Si Si4 0.725550 0.935634 0.940666
Si Si5 0.065596 0.092306 0.069880
Si Si6 0.764039 0.886210 0.234985
Si Si7 0.895511 0.956833 0.489229
Si Si8 0.382652 0.611584 0.953654
O O1 0.247741 0.007250 0.687422
O O2 0.481652 0.269140 0.276476
O O3 0.287630 0.839052 0.546943
O O4 0.351121 0.785971 0.785768
O O5 0.667154 0.557579 0.512527
O O6 0.420512 0.266199 0.897523
O O7 0.584774 0.323045 0.948975
O O8 0.500000 0.000000 0.000000
O O9 0.915646 0.229733 0.321120
O O10 0.799205 0.197462 0.630092
O O11 0.903276 0.624940 0.138595
O O12 0.717969 0.973113 0.082413
O O13 0.744442 0.705429 0.777340
O O14 0.932446 0.898857 0.360711
O O15 0.183912 0.146863 0.054937
O O16 0.095932 0.004411 0.971306
O O17 0.000000 0.000000 0.500000
#
# Coordination Sequence:
#
# PCOD9039909 Si02
#       8
#     2   2   2   2   2   2   2   2
#     4  11  25  46  71 115 150 187 248 317 386 436
#     4  12  23  43  74 110 148 198 244 306 392 438
#     4  12  23  45  80 106 145 196 251 312 373 441
#     4  10  23  42  72 104 147 185 249 300 370 440
#     4  10  25  45  72 110 143 199 254 289 368 455
#     4  10  24  43  69 107 149 191 239 308 371 451
#     4  12  24  47  73 107 148 202 252 304 367 447
#     4  11  27  43  75 112 155 189 253 313 372 448
#
# _framework density 24.72392
#
# number of rings (size 3 to 8) (size 9 to 14) (size 15 to 20)
#    0.750    0.250    2.500    3.750    1.750    2.000 
#    0.000    3.125    0.000    0.000    0.000    0.000 
#    0.000    0.000    0.000    0.000    0.000    0.000 
#
# Total GULP energy -89521.546671 kJ/mol
# GULP energy per Si atom -5595.096667 kJ/mol
# Density = 2.466765 g / cm^3
# Si number density = 24.723920 Si / 1000 Ang^3
#
#
#
# Elastic Constant Matrix: (Units=GPa)
#
#
# Indices 1 2 3 4 5 6 
#
# 1 129.6718 33.1419 41.3394 -7.8131 0.5002 -6.5835
# 2 33.1419 93.2886 33.9517 -3.4902 -0.4301 7.1370
# 3 41.3394 33.9517 123.3675 13.4172 12.8586 4.1016
# 4 -7.8131 -3.4902 13.4172 34.9540 0.2325 -4.1493
# 5 0.5002 -0.4301 12.8586 0.2325 42.9816 9.4043
# 6 -6.5835 7.1370 4.1016 -4.1493 9.4043 29.6864
#
#
#
# Elastic Compliance Matrix: (Units=1/GPa)
#
#
# Indices 1 2 3 4 5 6 
#
# 1 0.009730 -0.002486 -0.003081 0.003548 -0.000043 0.003691
# 2 -0.002486 0.013029 -0.002980 0.001443 0.001843 -0.003654
# 3 -0.003081 -0.002980 0.010883 -0.005296 -0.002941 -0.001279
# 4 0.003548 0.001443 -0.005296 0.032246 0.000151 0.005631
# 5 -0.000043 0.001843 -0.002941 0.000151 0.025969 -0.008252
# 6 0.003691 -0.003654 -0.001279 0.005631 -0.008252 0.038960
#
#
# Mechanical properties :
#
#
# Convention : Reuss Voigt Hill
#
# Bulk Modulus (GPa) = 60.42289 62.57710 61.50000
# Shear Modulus (GPa) = 32.58843 37.38406 34.98625
#
# Velocity S-wave (km/s) = 3.63449 3.89274 3.76583
# Velocity P-wave (km/s) = 6.48882 6.75055 6.62098
#
# Compressibility (1/GPa) = 0.01655002
#
# Stress axis : x y z
#
# Youngs Moduli (GPa) = 102.77047 76.75087 91.88245
#
# Poissons Ratio (x) = 0.19077 0.28305
# Poissons Ratio (y) = 0.25544 0.27385
# Poissons Ratio (z) = 0.31659 0.22875
#
# Static dielectric constant tensor:
#      x y z
#    x 2.029490 0.026200 0.032490 
#    y 0.026200 1.970790 0.076250 
#    z 0.032490 0.076250 1.978330 
# 
# From -- ./inp_files/218475.got.cif
#   From: 2010.05.17/outbox.cif.g08.bks.cpg/sg2_110_cif.got.tgz:218475.got - 2010.06.03 11:33:40.
