data_PCOD9039828
_publ_section_title
;
Structure prediction by ZEFSAII (Michael W. Deem and Ramdas Pophale) SiO2 
 PCOD9039828
Probable space group: P -1
;
_chemical_formula_sum "Si O2"
_cell_formula_units_Z 16
_cell_length_a 10.398975
_cell_length_b 8.419391
_cell_length_c 12.476117
_cell_angle_alpha 39.796898
_cell_angle_beta 91.518027
_cell_angle_gamma 81.440139
_cell_volume 674.036275
_symmetry_space_group_name_H-M "P -1"
_symmetry_group_IT_number 2
_symmetry_cell_setting 'triclinic'
loop_
_space_group_symop_operation_xyz
x,y,z
-x,-y,-z
loop_
_atom_site_type_symbol
_atom_site_label
_atom_site_fract_x
_atom_site_fract_y
_atom_site_fract_z
Si Si1 0.995944 0.605591 0.751359
Si Si2 0.879248 0.617350 0.356202
Si Si3 0.900443 0.146306 0.013272
Si Si4 0.451327 0.156575 0.024304
Si Si5 0.300964 0.109297 0.474574
Si Si6 0.643667 0.505378 0.862017
Si Si7 0.254385 0.611853 0.832712
Si Si8 0.403449 0.310728 0.588175
O O1 0.070950 0.505029 0.693837
O O2 0.095581 0.721022 0.761488
O O3 0.853185 0.785367 0.621154
O O4 0.969487 0.363655 0.940996
O O5 0.652144 0.745906 0.499100
O O6 0.000000 0.500000 0.500000
O O7 0.868319 0.922437 0.198205
O O8 0.756439 0.323430 0.881804
O O9 0.000000 0.000000 0.000000
O O10 0.507737 0.958413 0.222581
O O11 0.519948 0.388900 0.913279
O O12 0.500000 0.000000 0.000000
O O13 0.298337 0.319512 0.937501
O O14 0.376407 0.202148 0.327865
O O15 0.312405 0.821120 0.663301
O O16 0.700322 0.440765 0.016189
O O17 0.266179 0.413409 0.600022
O O18 0.500000 0.500000 0.500000
#
# Coordination Sequence:
#
# PCOD9039828 Si02
#       8
#     2   2   2   2   2   2   2   2
#     4  10  23  42  71 105 142 192 245 301 375 446
#     4  11  20  40  70 104 143 191 239 311 376 427
#     4   9  20  38  68  97 140 180 239 297 365 433
#     4  12  26  48  75 100 145 196 249 306 374 440
#     4  11  24  46  72 106 149 192 244 307 372 447
#     4  11  24  46  72 102 146 196 238 303 376 436
#     4  12  26  47  73 105 154 194 246 306 373 458
#     4  12  25  45  72 111 150 192 255 311 370 447
#
# _framework density 23.737597999999998
#
# number of rings (size 3 to 8) (size 9 to 14) (size 15 to 20)
#    0.000    1.000    3.750    2.250    1.750    3.500 
#    6.750    0.000    0.000    0.000    0.000    0.000 
#    0.000    0.000    0.000    0.000    0.000    0.000 
#
# Total GULP energy -89372.361832 kJ/mol
# GULP energy per Si atom -5585.772615 kJ/mol
# Density = 2.368357 g / cm^3
# Si number density = 23.737598 Si / 1000 Ang^3
#
#
#
# Elastic Constant Matrix: (Units=GPa)
#
#
# Indices 1 2 3 4 5 6 
#
# 1 138.1384 16.7590 64.7988 -5.8731 -8.1055 2.2107
# 2 16.7590 68.3816 34.0193 1.5909 10.2047 -6.2342
# 3 64.7988 34.0193 187.4691 -14.9369 -4.7779 8.9283
# 4 -5.8731 1.5909 -14.9369 33.4211 6.7657 2.1168
# 5 -8.1055 10.2047 -4.7779 6.7657 47.0292 5.4917
# 6 2.2107 -6.2342 8.9283 2.1168 5.4917 36.8853
#
#
#
# Elastic Compliance Matrix: (Units=1/GPa)
#
#
# Indices 1 2 3 4 5 6 
#
# 1 0.008763 -0.000999 -0.002795 0.000058 0.001463 -0.000239
# 2 -0.000999 0.017697 -0.003355 -0.001876 -0.004627 0.004660
# 3 -0.002795 -0.003355 0.007279 0.002904 0.000855 -0.002456
# 4 0.000058 -0.001876 0.002904 0.032205 -0.003649 -0.002328
# 5 0.001463 -0.004627 0.000855 -0.003649 0.023644 -0.004387
# 6 -0.000239 0.004660 -0.002456 -0.002328 -0.004387 0.029294
#
#
# Mechanical properties :
#
#
# Convention : Reuss Voigt Hill
#
# Bulk Modulus (GPa) = 51.43579 69.46036 60.44807
# Shear Modulus (GPa) = 35.80112 42.02793 38.91452
#
# Velocity S-wave (km/s) = 3.88777 4.21232 4.05330
# Velocity P-wave (km/s) = 6.47059 7.27898 6.88666
#
# Compressibility (1/GPa) = 0.01944172
#
# Stress axis : x y z
#
# Youngs Moduli (GPa) = 114.11264 56.50695 137.37770
#
# Poissons Ratio (x) = 0.05644 0.38391
# Poissons Ratio (y) = 0.11398 0.46097
# Poissons Ratio (z) = 0.31889 0.18961
#
# Static dielectric constant tensor:
#      x y z
#    x 2.080180 -0.084750 -0.018250 
#    y -0.084750 1.995920 0.027330 
#    z -0.018250 0.027330 1.923010 
# 
# From -- ./inp_files/276280.got.cif
#   From: 2010.05.17/outbox.cif.g08.bks.cpg/sg2_139_cif.got.tgz:276280.got - 2010.06.03 11:33:40.
