data_PCOD9039941
_publ_section_title
;
Structure prediction by ZEFSAII (Michael W. Deem and Ramdas Pophale) SiO2 
 PCOD9039941
Probable space group: P -1
;
_chemical_formula_sum "Si O2"
_cell_formula_units_Z 16
_cell_length_a 7.501184
_cell_length_b 5.346938
_cell_length_c 20.858305
_cell_angle_alpha 104.954129
_cell_angle_beta 57.517675
_cell_angle_gamma 102.454313
_cell_volume 678.756725
_symmetry_space_group_name_H-M "P -1"
_symmetry_group_IT_number 2
_symmetry_cell_setting 'triclinic'
loop_
_space_group_symop_operation_xyz
x,y,z
-x,-y,-z
loop_
_atom_site_type_symbol
_atom_site_label
_atom_site_fract_x
_atom_site_fract_y
_atom_site_fract_z
Si Si1 0.080946 0.261115 0.540241
Si Si2 0.056436 0.875281 0.734987
Si Si3 0.097543 0.296245 0.013608
Si Si4 0.341111 0.087299 0.590184
Si Si5 0.572292 0.783380 0.769866
Si Si6 0.338498 0.480903 0.390911
Si Si7 0.026535 0.556181 0.180014
Si Si8 0.492920 0.338107 0.856103
O O1 0.156795 0.207404 0.593172
O O2 0.277254 0.381910 0.467459
O O3 0.883634 0.431708 0.587414
O O4 0.000000 0.000000 0.500000
O O5 0.068012 0.164307 0.783755
O O6 0.220709 0.874130 0.644769
O O7 0.815697 0.828979 0.751377
O O8 0.092195 0.647355 0.761821
O O9 0.051822 0.399996 0.099484
O O10 0.342801 0.332543 0.946809
O O11 0.000000 0.500000 0.000000
O O12 0.000000 0.000000 0.000000
O O13 0.500000 0.000000 0.500000
O O14 0.484475 0.282221 0.619997
O O15 0.587154 0.715667 0.688095
O O16 0.462433 0.553738 0.821448
O O17 0.463543 0.047561 0.815230
O O18 0.264996 0.612778 0.164802
#
# Coordination Sequence:
#
# PCOD9039941 Si02
#       8
#     2   2   2   2   2   2   2   2
#     4  11  24  45  68  92 138 178 240 296 352 429
#     4  10  24  43  71  98 135 179 231 292 343 415
#     4  12  25  42  69 105 145 180 220 288 345 409
#     4  12  26  44  68 104 136 185 239 294 363 422
#     4  10  23  42  72  98 135 183 230 287 348 407
#     4  11  26  42  68 100 131 189 230 298 360 416
#     4  10  23  46  71  98 133 186 227 278 342 408
#     4  10  23  44  71 101 134 183 231 272 340 426
#
# _framework density 23.572510999999999
#
# number of rings (size 3 to 8) (size 9 to 14) (size 15 to 20)
#    0.000    1.250    1.250    3.000    8.750    4.000 
#    0.000    5.000    0.000    0.000    0.000    0.000 
#    0.000    0.000    0.000    0.000    0.000    0.000 
#
# Total GULP energy -89642.482812 kJ/mol
# GULP energy per Si atom -5602.655176 kJ/mol
# Density = 2.351886 g / cm^3
# Si number density = 23.572511 Si / 1000 Ang^3
#
#
#
# Elastic Constant Matrix: (Units=GPa)
#
#
# Indices 1 2 3 4 5 6 
#
# 1 49.4150 24.1585 26.2121 -5.4253 2.7034 -5.6215
# 2 24.1585 135.6065 46.4952 -7.0779 1.8815 -10.9600
# 3 26.2121 46.4952 139.9739 -5.0057 2.7928 1.5517
# 4 -5.4253 -7.0779 -5.0057 53.8130 4.5244 0.5863
# 5 2.7034 1.8815 2.7928 4.5244 35.1516 -5.6948
# 6 -5.6215 -10.9600 1.5517 0.5863 -5.6948 25.0093
#
#
#
# Elastic Compliance Matrix: (Units=1/GPa)
#
#
# Indices 1 2 3 4 5 6 
#
# 1 0.024169 -0.002614 -0.003621 0.001792 -0.000973 0.004248
# 2 -0.002614 0.009027 -0.002536 0.000613 0.000425 0.003608
# 3 -0.003621 -0.002536 0.008716 0.000202 -0.000732 -0.002637
# 4 0.001792 0.000613 0.000202 0.019095 -0.002710 -0.000406
# 5 -0.000973 0.000425 -0.000732 -0.002710 0.030027 0.006914
# 6 0.004248 0.003608 -0.002637 -0.000406 0.006914 0.044269
#
#
# Mechanical properties :
#
#
# Convention : Reuss Voigt Hill
#
# Bulk Modulus (GPa) = 41.03387 57.63633 49.33510
# Shear Modulus (GPa) = 31.06216 38.00341 34.53279
#
# Velocity S-wave (km/s) = 3.63399 4.01957 3.83163
# Velocity P-wave (km/s) = 5.92057 6.78574 6.36787
#
# Compressibility (1/GPa) = 0.02437011
#
# Stress axis : x y z
#
# Youngs Moduli (GPa) = 41.37573 110.77861 114.73593
#
# Poissons Ratio (x) = 0.28954 0.41550
# Poissons Ratio (y) = 0.10814 0.29093
# Poissons Ratio (z) = 0.14984 0.28089
#
# Static dielectric constant tensor:
#      x y z
#    x 1.900590 0.004290 -0.052190 
#    y 0.004290 1.910680 -0.006110 
#    z -0.052190 -0.006110 1.922490 
# 
# From -- ./inp_files/585849.got.cif
#   From: 2010.05.17/outbox.cif.g08.bks.cpg/sg2_293_cif.got.tgz:585849.got - 2010.06.03 11:33:40.
