data_PCOD9039669
_publ_section_title
;
Structure prediction by ZEFSAII (Michael W. Deem and Ramdas Pophale) SiO2 
 PCOD9039669
Probable space group: P -1
;
_chemical_formula_sum "Si O2"
_cell_formula_units_Z 16
_cell_length_a 15.737864
_cell_length_b 21.516287
_cell_length_c 8.409894
_cell_angle_alpha 134.038865
_cell_angle_beta 42.917841
_cell_angle_gamma 158.559756
_cell_volume 707.787584
_symmetry_space_group_name_H-M "P -1"
_symmetry_group_IT_number 2
_symmetry_cell_setting 'triclinic'
loop_
_space_group_symop_operation_xyz
x,y,z
-x,-y,-z
loop_
_atom_site_type_symbol
_atom_site_label
_atom_site_fract_x
_atom_site_fract_y
_atom_site_fract_z
Si Si1 0.886482 0.695793 0.794251
Si Si2 0.557425 0.938550 0.369677
Si Si3 0.301528 0.277532 0.102194
Si Si4 0.199629 0.373362 0.847617
Si Si5 0.641903 0.259446 0.985027
Si Si6 0.730834 0.927625 0.350096
Si Si7 0.133111 0.991851 0.348924
Si Si8 0.941526 0.611156 0.252020
O O1 0.709314 0.671095 0.951796
O O2 0.879808 0.629977 0.529377
O O3 0.851747 0.632986 0.904849
O O4 0.157238 0.899116 0.781239
O O5 0.577125 0.918874 0.488787
O O6 0.500000 0.000000 0.500000
O O7 0.358070 0.760154 0.237885
O O8 0.505537 0.439258 0.225684
O O9 0.347716 0.204322 0.873810
O O10 0.024314 0.116066 0.260395
O O11 0.091466 0.359919 0.819776
O O12 0.076660 0.206063 0.705932
O O13 0.354188 0.092264 0.115045
O O14 0.766042 0.422999 0.151435
O O15 0.786135 0.266683 0.882602
O O16 0.715429 0.901683 0.508823
O O17 0.000000 0.000000 0.500000
#
# Coordination Sequence:
#
# PCOD9039669 Si02
#       8
#     2   2   2   2   2   2   2   2
#     4  11  23  42  68 101 133 183 231 282 348 411
#     4  11  21  43  71  94 134 184 226 281 351 411
#     4  10  23  42  69  99 146 175 233 293 346 422
#     4  12  25  43  72 106 133 187 238 283 349 424
#     4  11  26  49  66  99 149 175 232 297 343 414
#     4  10  24  42  67 104 135 186 229 286 361 410
#     4  12  28  43  69 105 142 182 231 293 352 411
#     4  11  27  47  71 101 139 190 230 290 354 408
#
# _framework density 22.605654000000001
#
# number of rings (size 3 to 8) (size 9 to 14) (size 15 to 20)
#    0.000    1.000    2.500    3.375    8.750    2.500 
#    0.000    1.250    0.000    0.000    0.000    0.000 
#    0.000    0.000    0.000    0.000    0.000    0.000 
#
# Total GULP energy -89255.221362 kJ/mol
# GULP energy per Si atom -5578.451335 kJ/mol
# Density = 2.255420 g / cm^3
# Si number density = 22.605654 Si / 1000 Ang^3
#
#
#
# Elastic Constant Matrix: (Units=GPa)
#
#
# Indices 1 2 3 4 5 6 
#
# 1 210.5774 30.6383 64.2529 10.7255 -2.7648 18.4492
# 2 30.6383 97.5483 23.3873 27.0892 -14.2362 12.9700
# 3 64.2529 23.3873 76.1874 28.6336 6.1854 3.2574
# 4 10.7255 27.0892 28.6336 32.2857 -0.0203 6.5868
# 5 -2.7648 -14.2362 6.1854 -0.0203 37.2774 2.1406
# 6 18.4492 12.9700 3.2574 6.5868 2.1406 33.2394
#
#
#
# Elastic Compliance Matrix: (Units=1/GPa)
#
#
# Indices 1 2 3 4 5 6 
#
# 1 0.007656 -0.001535 -0.008697 0.007349 0.001679 -0.004362
# 2 -0.001535 0.015206 0.000993 -0.012500 0.005698 -0.003069
# 3 -0.008697 0.000993 0.030125 -0.026098 -0.005682 0.007025
# 4 0.007349 -0.012500 -0.026098 0.064082 0.000676 -0.009386
# 5 0.001679 0.005698 -0.005682 0.000676 0.030339 -0.004686
# 6 -0.004362 -0.003069 0.007025 -0.009386 -0.004686 0.035177
#
#
# Mechanical properties :
#
#
# Convention : Reuss Voigt Hill
#
# Bulk Modulus (GPa) = 28.97800 68.98555 48.98177
# Shear Modulus (GPa) = 23.52214 38.29614 30.90914
#
# Velocity S-wave (km/s) = 3.22924 4.12040 3.70174
# Velocity P-wave (km/s) = 5.17211 7.29522 6.32341
#
# Compressibility (1/GPa) = 0.03450894
#
# Stress axis : x y z
#
# Youngs Moduli (GPa) = 130.61757 65.76268 33.19500
#
# Poissons Ratio (x) = 0.10096 0.28871
# Poissons Ratio (y) = 0.20053 -0.03298
# Poissons Ratio (z) = 1.13602 -0.06533
#
# Static dielectric constant tensor:
#      x y z
#    x 34.332990 -4.519070 27.882190 
#    y -4.519070 2.424550 -3.851960 
#    z 27.882190 -3.851960 25.756800 
# 
# From -- ./inp_files/319474.got.cif
#   From: 2010.05.17/outbox.cif.g08.bks.cpg/sg2_160_cif.got.tgz:319474.got - 2010.06.03 11:33:40.
