data_PCOD9039811
_publ_section_title
;
Structure prediction by ZEFSAII (Michael W. Deem and Ramdas Pophale) SiO2 
 PCOD9039811
Probable space group: P -1
;
_chemical_formula_sum "Si O2"
_cell_formula_units_Z 14
_cell_length_a 6.923974
_cell_length_b 11.708549
_cell_length_c 20.094180
_cell_angle_alpha 155.150329
_cell_angle_beta 118.493920
_cell_angle_gamma 54.127066
_cell_volume 547.533432
_symmetry_space_group_name_H-M "P -1"
_symmetry_group_IT_number 2
_symmetry_cell_setting 'triclinic'
loop_
_space_group_symop_operation_xyz
x,y,z
-x,-y,-z
loop_
_atom_site_type_symbol
_atom_site_label
_atom_site_fract_x
_atom_site_fract_y
_atom_site_fract_z
Si Si1 0.161435 0.646387 0.766973
Si Si2 0.456288 0.145633 0.659013
Si Si3 0.311275 0.098969 0.090853
Si Si4 0.205873 0.055935 0.828690
Si Si5 0.224863 0.730784 0.423724
Si Si6 0.997277 0.245947 0.456766
Si Si7 0.744076 0.544479 0.072813
O O1 0.315461 0.355563 0.685151
O O2 0.301207 0.860842 0.910249
O O3 0.075078 0.520162 0.621859
O O4 0.904055 0.847947 0.864678
O O5 0.301681 0.322114 0.790420
O O6 0.436503 0.829812 0.494836
O O7 0.745422 0.054235 0.658598
O O8 0.249711 0.432923 0.233647
O O9 0.553497 0.004814 0.123427
O O10 0.225101 0.235497 0.860873
O O11 0.157534 0.783749 0.645830
O O12 0.979805 0.244380 0.938369
O O13 0.164252 0.718875 0.484952
O O14 0.000000 0.000000 0.500000
O O15 0.500000 0.500000 0.000000
#
# Coordination Sequence:
#
# PCOD9039811 Si02
#       7
#     2   2   2   2   2   2   2
#     4  10  23  42  71 103 142 183 227 295 353 400
#     4  12  22  43  73  99 140 185 239 282 345 418
#     4  10  23  45  67 104 145 181 230 293 352 409
#     4  11  24  43  71 104 138 187 232 284 354 412
#     4  11  23  44  70 101 137 185 235 285 349 420
#     4  11  23  42  73 103 139 183 232 288 349 412
#     4  11  23  42  69 102 141 186 235 284 342 421
#
# _framework density 25.569213999999999
#
# number of rings (size 3 to 8) (size 9 to 14) (size 15 to 20)
#    0.000    1.143    5.714    1.286    2.000    2.286 
#    0.000    9.286    0.000    0.000    0.000    0.000 
#    0.000    0.000    0.000    0.000    0.000    0.000 
#
# Total GULP energy -78298.753201 kJ/mol
# GULP energy per Si atom -5592.768086 kJ/mol
# Density = 2.551102 g / cm^3
# Si number density = 25.569214 Si / 1000 Ang^3
#
#
#
# Elastic Constant Matrix: (Units=GPa)
#
#
# Indices 1 2 3 4 5 6 
#
# 1 163.6609 60.5751 77.0645 -16.1570 -22.2246 -14.6005
# 2 60.5751 64.6300 39.1156 -11.0670 15.3406 -1.3719
# 3 77.0645 39.1156 184.1455 -24.7265 39.0942 -0.1601
# 4 -16.1570 -11.0670 -24.7265 30.6362 -6.3937 -1.2722
# 5 -22.2246 15.3406 39.0942 -6.3937 56.6845 -5.8584
# 6 -14.6005 -1.3719 -0.1601 -1.2722 -5.8584 55.9383
#
#
#
# Elastic Compliance Matrix: (Units=1/GPa)
#
#
# Indices 1 2 3 4 5 6 
#
# 1 0.020311 -0.018070 -0.008619 0.001626 0.019699 0.006934
# 2 -0.018070 0.034555 0.004803 0.002392 -0.020090 -0.005905
# 3 -0.008619 0.004803 0.011082 0.003434 -0.012277 -0.003308
# 4 0.001626 0.002392 0.003434 0.037622 0.002027 0.001561
# 5 0.019699 -0.020090 -0.012277 0.002027 0.040417 0.008893
# 6 0.006934 -0.005905 -0.003308 0.001561 0.008893 0.020499
#
#
# Mechanical properties :
#
#
# Convention : Reuss Voigt Hill
#
# Bulk Modulus (GPa) = 45.09461 85.10520 65.09991
# Shear Modulus (GPa) = 23.18567 44.36388 33.77477
#
# Velocity S-wave (km/s) = 3.01455 4.16991 3.63838
# Velocity P-wave (km/s) = 5.45813 7.51936 6.57008
#
# Compressibility (1/GPa) = 0.02217560
#
# Stress axis : x y z
#
# Youngs Moduli (GPa) = 49.23375 28.93960 90.23608
#
# Poissons Ratio (x) = 0.52295 0.77778
# Poissons Ratio (y) = 0.88967 -0.43344
# Poissons Ratio (z) = 0.42437 -0.13901
#
# Static dielectric constant tensor:
#      x y z
#    x 2.115420 0.032980 -0.000180 
#    y 0.032980 2.011990 -0.026170 
#    z -0.000180 -0.026170 2.127640 
# 
# From -- ./inp_files/72446.got.cif
#   From: 2010.05.17/outbox.cif.g08.bks.cpg/sg2_37_cif.got.tgz:72446.got - 2010.06.03 11:33:40.
