data_PCOD9039716
_publ_section_title
;
Structure prediction by ZEFSAII (Michael W. Deem and Ramdas Pophale) SiO2 
 PCOD9039716
Probable space group: P -1
;
_chemical_formula_sum "Si O2"
_cell_formula_units_Z 14
_cell_length_a 11.821215
_cell_length_b 10.846382
_cell_length_c 5.107405
_cell_angle_alpha 90.519925
_cell_angle_beta 85.949804
_cell_angle_gamma 120.979986
_cell_volume 559.753658
_symmetry_space_group_name_H-M "P -1"
_symmetry_group_IT_number 2
_symmetry_cell_setting 'triclinic'
loop_
_space_group_symop_operation_xyz
x,y,z
-x,-y,-z
loop_
_atom_site_type_symbol
_atom_site_label
_atom_site_fract_x
_atom_site_fract_y
_atom_site_fract_z
Si Si1 0.856598 0.826669 0.769592
Si Si2 0.092537 0.545802 0.733289
Si Si3 0.296064 0.492260 0.427419
Si Si4 0.308058 0.871669 0.616540
Si Si5 0.544727 0.389918 0.084874
Si Si6 0.839969 0.983427 0.269649
Si Si7 0.437823 0.072816 0.184892
O O1 0.762502 0.665049 0.687912
O O2 0.012098 0.875481 0.759866
O O3 0.836812 0.920209 0.554617
O O4 0.830728 0.869066 0.058852
O O5 0.181915 0.479003 0.640613
O O6 0.193074 0.715698 0.709593
O O7 0.000000 0.500000 0.500000
O O8 0.000000 0.500000 0.000000
O O9 0.345290 0.588905 0.154339
O O10 0.413275 0.561248 0.621102
O O11 0.273425 0.979800 0.775700
O O12 0.441731 0.865736 0.614915
O O13 0.311918 0.935363 0.330377
O O14 0.500000 0.500000 0.000000
O O15 0.443869 0.217993 0.102920
O O16 0.500000 0.000000 0.000000
#
# Coordination Sequence:
#
# PCOD9039716 Si02
#       7
#     2   2   2   2   2   2   2
#     4  10  23  43  68 106 144 194 238 309 368 467
#     4  12  27  46  78 114 152 199 251 312 395 466
#     4  12  25  49  74 107 157 194 258 316 390 459
#     4  11  26  47  75 109 148 199 253 318 387 454
#     4  12  28  49  77 112 152 206 265 324 395 463
#     4  10  23  42  70 104 146 188 250 296 381 449
#     4  11  27  48  77 108 153 201 264 324 384 460
#
# _framework density 25.011002999999999
#
# number of rings (size 3 to 8) (size 9 to 14) (size 15 to 20)
#    0.000    0.857    1.429    3.857    8.000    4.571 
#    0.000    0.000    0.000    0.000    0.000    0.000 
#    0.000    0.000    0.000    0.000    0.000    0.000 
#
# Total GULP energy -78131.768855 kJ/mol
# GULP energy per Si atom -5580.840633 kJ/mol
# Density = 2.495408 g / cm^3
# Si number density = 25.011003 Si / 1000 Ang^3
#
#
#
# Elastic Constant Matrix: (Units=GPa)
#
#
# Indices 1 2 3 4 5 6 
#
# 1 47.1596 7.1432 -8.3187 -3.7869 -10.5350 -11.5942
# 2 7.1432 137.7824 22.5955 4.7135 -10.4184 4.2999
# 3 -8.3187 22.5955 141.0763 -3.2088 -11.3499 5.4762
# 4 -3.7869 4.7135 -3.2088 48.7758 9.1116 -8.9628
# 5 -10.5350 -10.4184 -11.3499 9.1116 43.8415 -1.1103
# 6 -11.5942 4.2999 5.4762 -8.9628 -1.1103 34.7727
#
#
#
# Elastic Compliance Matrix: (Units=1/GPa)
#
#
# Indices 1 2 3 4 5 6 
#
# 1 0.025650 -0.001592 0.001946 0.002889 0.005926 0.009377
# 2 -0.001592 0.007747 -0.001191 -0.001519 0.001424 -0.001648
# 3 0.001946 -0.001191 0.007578 0.000333 0.002071 -0.000245
# 4 0.002889 -0.001519 0.000333 0.022939 -0.004174 0.006878
# 5 0.005926 0.001424 0.002071 -0.004174 0.026007 0.001228
# 6 0.009377 -0.001648 -0.000245 0.006878 0.001228 0.033939
#
#
# Mechanical properties :
#
#
# Convention : Reuss Voigt Hill
#
# Bulk Modulus (GPa) = 25.44498 40.98424 33.21461
# Shear Modulus (GPa) = 36.06648 45.78456 40.92552
#
# Velocity S-wave (km/s) = 3.80152 4.28317 4.04951
# Velocity P-wave (km/s) = 5.42811 6.39396 5.93073
#
# Compressibility (1/GPa) = 0.03930049
#
# Stress axis : x y z
#
# Youngs Moduli (GPa) = 38.98603 129.08705 131.96912
#
# Poissons Ratio (x) = 0.20555 -0.25681
# Poissons Ratio (y) = 0.06208 0.15713
# Poissons Ratio (z) = -0.07587 0.15370
#
# Static dielectric constant tensor:
#      x y z
#    x 2.183290 0.121790 -0.055230 
#    y 0.121790 1.991710 0.037120 
#    z -0.055230 0.037120 2.030600 
# 
# From -- ./inp_files/67579.got.cif
#   From: 2010.05.17/outbox.cif.g08.bks.cpg/sg2_34_cif.got.tgz:67579.got - 2010.06.03 11:33:40.
