data_PCOD9039831
_publ_section_title
;
Structure prediction by ZEFSAII (Michael W. Deem and Ramdas Pophale) SiO2 
 PCOD9039831
Probable space group: P -1
;
_chemical_formula_sum "Si O2"
_cell_formula_units_Z 16
_cell_length_a 7.111107
_cell_length_b 21.977167
_cell_length_c 5.115849
_cell_angle_alpha 68.584099
_cell_angle_beta 68.759817
_cell_angle_gamma 60.438826
_cell_volume 630.835042
_symmetry_space_group_name_H-M "P -1"
_symmetry_group_IT_number 2
_symmetry_cell_setting 'triclinic'
loop_
_space_group_symop_operation_xyz
x,y,z
-x,-y,-z
loop_
_atom_site_type_symbol
_atom_site_label
_atom_site_fract_x
_atom_site_fract_y
_atom_site_fract_z
Si Si1 0.883829 0.029919 0.290821
Si Si2 0.632219 0.382157 0.591518
Si Si3 0.782092 0.294501 0.154854
Si Si4 0.146169 0.414896 0.600450
Si Si5 0.453232 0.808690 0.680622
Si Si6 0.278433 0.192138 0.968636
Si Si7 0.966662 0.427278 0.173279
Si Si8 0.617432 0.969247 0.713495
O O1 0.748414 0.115329 0.266878
O O2 0.635602 0.015666 0.366975
O O3 0.128478 0.020150 0.364352
O O4 0.000000 0.000000 0.000000
O O5 0.663518 0.360900 0.910512
O O6 0.385386 0.402126 0.593658
O O7 0.726799 0.440448 0.377518
O O8 0.777656 0.317647 0.422407
O O9 0.025612 0.247667 0.997409
O O10 0.644538 0.246286 0.278278
O O11 0.136819 0.381274 0.380720
O O12 0.000000 0.500000 0.500000
O O13 0.025204 0.390505 0.922546
O O14 0.598259 0.819411 0.353940
O O15 0.593206 0.782875 0.916578
O O16 0.287713 0.116932 0.190615
O O17 0.000000 0.500000 0.000000
O O18 0.500000 0.000000 0.000000
#
# Coordination Sequence:
#
# PCOD9039831 Si02
#       8
#     2   2   2   2   2   2   2   2
#     4  12  24  40  67  99 133 173 230 300 367 433
#     4  12  26  46  70 103 145 184 237 292 348 422
#     4  12  29  46  70 103 140 194 244 289 346 434
#     4  10  23  42  71 106 142 181 225 281 350 417
#     4  12  26  47  70  98 141 187 240 296 361 425
#     4  12  25  47  72  98 142 188 240 301 363 425
#     4  10  23  42  71 106 141 181 229 281 354 413
#     4  12  22  42  67  97 132 171 233 294 368 425
#
# _framework density 25.363206000000002
#
# number of rings (size 3 to 8) (size 9 to 14) (size 15 to 20)
#    0.000    0.500    2.500    5.250    0.000   12.000 
#    0.000    0.000    0.000    0.000    0.000    0.000 
#    0.000    0.000    0.000    0.000    0.000    0.000 
#
# Total GULP energy -89543.624886 kJ/mol
# GULP energy per Si atom -5596.476555 kJ/mol
# Density = 2.530548 g / cm^3
# Si number density = 25.363206 Si / 1000 Ang^3
#
#
#
# Elastic Constant Matrix: (Units=GPa)
#
#
# Indices 1 2 3 4 5 6 
#
# 1 157.0498 14.2771 48.9235 -0.6114 2.6612 -14.3486
# 2 14.2771 64.2195 22.6989 6.3333 -11.4209 1.7711
# 3 48.9235 22.6989 139.8201 7.0671 5.7037 -5.0506
# 4 -0.6114 6.3333 7.0671 31.2160 7.8450 -2.6050
# 5 2.6612 -11.4209 5.7037 7.8450 72.8840 2.0291
# 6 -14.3486 1.7711 -5.0506 -2.6050 2.0291 57.6362
#
#
#
# Elastic Compliance Matrix: (Units=1/GPa)
#
#
# Indices 1 2 3 4 5 6 
#
# 1 0.007375 -0.001028 -0.002392 0.001143 -0.000414 0.001724
# 2 -0.001028 0.017741 -0.002506 -0.004039 0.003485 -0.001326
# 3 -0.002392 -0.002506 0.008500 -0.001234 -0.000843 0.000200
# 4 0.001143 -0.004039 -0.001234 0.034414 -0.004338 0.002009
# 5 -0.000414 0.003485 -0.000843 -0.004338 0.014843 -0.001003
# 6 0.001724 -0.001326 0.000200 0.002009 -0.001003 0.017964
#
#
# Mechanical properties :
#
#
# Convention : Reuss Voigt Hill
#
# Bulk Modulus (GPa) = 45.95020 59.20982 52.58001
# Shear Modulus (GPa) = 41.68639 50.69323 46.18981
#
# Velocity S-wave (km/s) = 4.05850 4.47552 4.27210
# Velocity P-wave (km/s) = 6.33389 7.07831 6.71642
#
# Compressibility (1/GPa) = 0.02176269
#
# Stress axis : x y z
#
# Youngs Moduli (GPa) = 135.59188 56.36763 117.64695
#
# Poissons Ratio (x) = 0.05794 0.28144
# Poissons Ratio (y) = 0.13938 0.29487
# Poissons Ratio (z) = 0.32437 0.14128
#
# Static dielectric constant tensor:
#      x y z
#    x 2.258980 -0.617720 -0.157340 
#    y -0.617720 0.345800 -0.326650 
#    z -0.157340 -0.326650 1.908050 
# 
# From -- ./inp_files/13094.got.cif
#   From: 2010.05.17/outbox.cif.g08.bks.cpg/sg2_7_cif.got.tgz:13094.got - 2010.06.03 11:33:40.
