data_PCOD9039247
_publ_section_title
;
Structure prediction by ZEFSAII (Michael W. Deem and Ramdas Pophale) SiO2 
 PCOD9039247
Probable space group: P -1
;
_chemical_formula_sum "Si O2"
_cell_formula_units_Z 16
_cell_length_a 16.258214
_cell_length_b 11.267713
_cell_length_c 19.090879
_cell_angle_alpha 37.351717
_cell_angle_beta 156.404405
_cell_angle_gamma 154.661634
_cell_volume 587.672318
_symmetry_space_group_name_H-M "P -1"
_symmetry_group_IT_number 2
_symmetry_cell_setting 'triclinic'
loop_
_space_group_symop_operation_xyz
x,y,z
-x,-y,-z
loop_
_atom_site_type_symbol
_atom_site_label
_atom_site_fract_x
_atom_site_fract_y
_atom_site_fract_z
Si Si1 0.201852 0.418133 0.919736
Si Si2 0.389871 0.256770 0.615306
Si Si3 0.145395 0.854169 0.040304
Si Si4 0.087641 0.382693 0.257562
Si Si5 0.466129 0.985122 0.082312
Si Si6 0.961079 0.624897 0.513317
Si Si7 0.691135 0.796727 0.765033
Si Si8 0.667682 0.465456 0.208685
O O1 0.252445 0.680495 0.851196
O O2 0.275416 0.341088 0.082566
O O3 0.480694 0.542658 0.027738
O O4 0.885737 0.116694 0.790170
O O5 0.211636 0.335845 0.438450
O O6 0.683270 0.496606 0.685177
O O7 0.465522 0.198291 0.773828
O O8 0.182444 0.948519 0.559699
O O9 0.079347 0.609945 0.144058
O O10 0.279491 0.888409 0.054105
O O11 0.387008 0.126295 0.150002
O O12 0.878402 0.824490 0.836159
O O13 0.754362 0.095807 0.111817
O O14 0.653808 0.402741 0.420227
O O15 0.859499 0.606040 0.363629
O O16 0.114514 0.516039 0.679379
#
# Coordination Sequence:
#
# PCOD9039247 Si02
#       8
#     2   2   2   2   2   2   2   2
#     4   9  19  36  56  85 116 160 194 242 294 363
#     4  10  20  36  59  89 116 151 203 248 292 351
#     4  10  19  36  58  91 116 156 204 246 289 364
#     4  10  20  36  62  88 115 157 203 255 291 338
#     4  11  21  38  64  87 118 156 208 250 291 344
#     4  10  17  33  54  85 122 149 184 251 290 349
#     4   9  19  34  59  85 123 156 194 235 312 362
#     4   9  17  30  57  85 114 149 198 235 286 352
#
# _framework density 27.226056
#
# number of rings (size 3 to 8) (size 9 to 14) (size 15 to 20)
#    0.000    2.250    2.500    3.750    0.000    2.000 
#    0.000    3.125    0.000    5.250    0.000    0.000 
#    0.000    0.000    0.000    0.000    0.000    0.000 
#
# Total GULP energy -89517.026354 kJ/mol
# GULP energy per Si atom -5594.814147 kJ/mol
# Density = 2.716409 g / cm^3
# Si number density = 27.226056 Si / 1000 Ang^3
#
#
#
# Elastic Constant Matrix: (Units=GPa)
#
#
# Indices 1 2 3 4 5 6 
#
# 1 54.8729 20.6804 19.4258 9.7719 13.4705 13.3201
# 2 20.6804 125.8373 63.8391 -3.0388 -2.9651 -0.5947
# 3 19.4258 63.8391 148.7630 20.3242 48.2609 -12.3217
# 4 9.7719 -3.0388 20.3242 49.3689 -6.3642 4.3191
# 5 13.4705 -2.9651 48.2609 -6.3642 27.7289 15.1599
# 6 13.3201 -0.5947 -12.3217 4.3191 15.1599 41.3267
#
#
#
# Elastic Compliance Matrix: (Units=1/GPa)
#
#
# Indices 1 2 3 4 5 6 
#
# 1 0.021125 0.000431 -0.007304 0.001210 0.009697 -0.012664
# 2 0.000431 0.002186 0.009723 -0.008476 -0.026087 0.013247
# 3 -0.007304 0.009723 -0.014242 0.015185 0.043388 -0.019255
# 4 0.001210 -0.008476 0.015185 0.007315 -0.035051 0.016109
# 5 0.009697 -0.026087 0.043388 -0.035051 -0.077750 0.041620
# 6 -0.012664 0.013247 -0.019255 0.016109 0.041620 0.005778
#
#
# Mechanical properties :
#
#
# Convention : Reuss Voigt Hill
#
# Bulk Modulus (GPa) = 67.69716 59.70709 63.70213
# Shear Modulus (GPa) = -88.70676 38.72009 -24.99333
#
# Velocity S-wave (km/s) = -5.71422 3.77526 -3.03313
# Velocity P-wave (km/s) = 4.31481 6.40165 3.34392
#
# Compressibility (1/GPa) = 0.01477167
#
# Stress axis : x y z
#
# Youngs Moduli (GPa) = 47.33700 457.40407 -70.21577
#
# Poissons Ratio (x) = -0.19736 -0.51285
# Poissons Ratio (y) = -0.02043 0.68274
# Poissons Ratio (z) = 0.34574 -4.44755
#
# Static dielectric constant tensor:
#      x y z
#    x 2.407860 0.061860 -0.045110 
#    y 0.061860 2.051000 0.002980 
#    z -0.045110 0.002980 2.136160 
# 
# From -- ./inp_files/613798.got.cif
#   From: 2010.05.17/outbox.cif.g08.bks.cpg/sg2_307_cif.got.tgz:613798.got - 2010.06.03 11:33:40.
