data_PCOD9039769
_publ_section_title
;
Structure prediction by ZEFSAII (Michael W. Deem and Ramdas Pophale) SiO2 
 PCOD9039769
Probable space group: P -1
;
_chemical_formula_sum "Si O2"
_cell_formula_units_Z 14
_cell_length_a 12.091106
_cell_length_b 12.131311
_cell_length_c 11.911575
_cell_angle_alpha 143.850618
_cell_angle_beta 34.458586
_cell_angle_gamma 145.041653
_cell_volume 517.581520
_symmetry_space_group_name_H-M "P -1"
_symmetry_group_IT_number 2
_symmetry_cell_setting 'triclinic'
loop_
_space_group_symop_operation_xyz
x,y,z
-x,-y,-z
loop_
_atom_site_type_symbol
_atom_site_label
_atom_site_fract_x
_atom_site_fract_y
_atom_site_fract_z
Si Si1 0.046119 0.295739 0.286533
Si Si2 0.623676 0.958842 0.466608
Si Si3 0.975211 0.629807 0.873440
Si Si4 0.491650 0.461401 0.170242
Si Si5 0.972797 0.179011 0.770102
Si Si6 0.657531 0.945762 0.668230
Si Si7 0.706743 0.519025 0.435452
O O1 0.295259 0.356038 0.160008
O O2 0.000000 0.500000 0.500000
O O3 0.876103 0.115109 0.358566
O O4 0.996593 0.230975 0.144588
O O5 0.500000 0.000000 0.500000
O O6 0.566669 0.713732 0.314826
O O7 0.570344 0.003054 0.674659
O O8 0.719361 0.460166 0.952092
O O9 0.034349 0.748035 0.039284
O O10 0.135080 0.524248 0.647320
O O11 0.401916 0.381533 0.305263
O O12 0.102643 0.039138 0.553077
O O13 0.136735 0.364671 0.703680
O O14 0.736474 0.078461 0.824652
O O15 0.487704 0.701177 0.625848
#
# Coordination Sequence:
#
# PCOD9039769 Si02
#       7
#     2   2   2   2   2   2   2
#     4  12  23  43  69  97 133 181 219 276 345 386
#     4  11  21  42  73  97 131 178 220 276 333 393
#     4  12  25  43  66 104 133 172 235 271 323 416
#     4  11  24  45  66 101 135 170 232 275 330 401
#     4  11  23  44  68 100 139 174 225 276 326 407
#     4  10  23  42  71 100 132 179 224 270 340 397
#     4  11  22  44  71  93 137 179 214 277 342 383
#
# _framework density 27.048878999999999
#
# number of rings (size 3 to 8) (size 9 to 14) (size 15 to 20)
#    0.000    0.857    5.714    3.000    0.000    1.143 
#    0.000    2.857    0.000    0.000    0.000    0.000 
#    0.000    0.000    0.000    0.000    0.000    0.000 
#
# Total GULP energy -78463.235726 kJ/mol
# GULP energy per Si atom -5604.516838 kJ/mol
# Density = 2.698731 g / cm^3
# Si number density = 27.048879 Si / 1000 Ang^3
#
#
#
# Elastic Constant Matrix: (Units=GPa)
#
#
# Indices 1 2 3 4 5 6 
#
# 1 208.8388 50.4548 5.6209 -17.5749 25.3615 13.1912
# 2 50.4548 118.8075 19.3541 -20.4568 24.1119 14.7660
# 3 5.6209 19.3541 39.4097 -23.2044 -4.8563 -1.7984
# 4 -17.5749 -20.4568 -23.2044 41.7907 -1.0034 -3.6924
# 5 25.3615 24.1119 -4.8563 -1.0034 55.4898 -21.4294
# 6 13.1912 14.7660 -1.7984 -3.6924 -21.4294 44.9176
#
#
#
# Elastic Compliance Matrix: (Units=1/GPa)
#
#
# Indices 1 2 3 4 5 6 
#
# 1 0.005756 -0.001279 0.000300 0.001663 -0.003005 -0.002555
# 2 -0.001279 0.013192 -0.007254 0.000925 -0.009044 -0.008490
# 3 0.000300 -0.007254 0.043984 0.022292 0.011697 0.011471
# 4 0.001663 0.000925 0.022292 0.037964 0.003334 0.004812
# 5 -0.003005 -0.009044 0.011697 0.003334 0.032098 0.019912
# 6 -0.002555 -0.008490 0.011471 0.004812 0.019912 0.036159
#
#
# Mechanical properties :
#
#
# Convention : Reuss Voigt Hill
#
# Bulk Modulus (GPa) = 21.52160 57.54617 39.53388
# Shear Modulus (GPa) = 24.86229 47.88138 36.37183
#
# Velocity S-wave (km/s) = 3.03506 4.21191 3.67095
# Velocity P-wave (km/s) = 4.50066 6.70632 5.71098
#
# Compressibility (1/GPa) = 0.04646495
#
# Stress axis : x y z
#
# Youngs Moduli (GPa) = 173.74270 75.80399 22.73530
#
# Poissons Ratio (x) = 0.09699 -0.00681
# Poissons Ratio (y) = 0.22229 0.16491
# Poissons Ratio (z) = -0.05204 0.54985
#
# Static dielectric constant tensor:
#      x y z
#    x 2.159720 -0.014490 0.005590 
#    y -0.014490 2.107640 0.076310 
#    z 0.005590 0.076310 2.174790 
# 
# From -- ./inp_files/293615.got.cif
#   From: 2010.05.17/outbox.cif.g08.bks.cpg/sg2_147_cif.got.tgz:293615.got - 2010.06.03 11:33:40.
