data_PCOD9039814
_publ_section_title
;
Structure prediction by ZEFSAII (Michael W. Deem and Ramdas Pophale) SiO2 
 PCOD9039814
Probable space group: P -1
;
_chemical_formula_sum "Si O2"
_cell_formula_units_Z 12
_cell_length_a 13.631068
_cell_length_b 9.098911
_cell_length_c 5.060496
_cell_angle_alpha 95.807650
_cell_angle_beta 81.655567
_cell_angle_gamma 57.480298
_cell_volume 511.406776
_symmetry_space_group_name_H-M "P -1"
_symmetry_group_IT_number 2
_symmetry_cell_setting 'triclinic'
loop_
_space_group_symop_operation_xyz
x,y,z
-x,-y,-z
loop_
_atom_site_type_symbol
_atom_site_label
_atom_site_fract_x
_atom_site_fract_y
_atom_site_fract_z
Si Si1 0.132137 0.346282 0.512208
Si Si2 0.830589 0.433366 0.105276
Si Si3 0.112681 0.798748 0.438049
Si Si4 0.644607 0.721403 0.939833
Si Si5 0.270149 0.940471 0.314959
Si Si6 0.589542 0.084292 0.246184
O O1 0.143408 0.418644 0.802080
O O2 0.307002 0.445711 0.915925
O O3 0.000000 0.500000 0.500000
O O4 0.164258 0.146916 0.456536
O O5 0.865087 0.305712 0.318206
O O6 0.759166 0.675552 0.709956
O O7 0.900078 0.308046 0.810212
O O8 0.224748 0.813742 0.350561
O O9 0.000000 0.000000 0.500000
O O10 0.601215 0.897918 0.161527
O O11 0.540114 0.765081 0.787796
O O12 0.314277 0.927296 0.997327
O O13 0.374962 0.898006 0.471091
#
# Coordination Sequence:
#
# PCOD9039814 Si02
#       6
#     2   2   2   2   2   2
#     4  11  24  43  72 104 134 170 233 286 329 399
#     4  12  24  45  69 100 135 176 230 270 341 398
#     4  12  27  46  67  96 144 186 216 272 347 406
#     4  10  23  42  71 104 133 179 220 286 339 388
#     4  11  24  44  67 102 131 183 226 275 335 398
#     4  10  23  42  72  98 140 171 230 278 335 394
#
# _framework density 23.464687000000001
#
# number of rings (size 3 to 8) (size 9 to 14) (size 15 to 20)
#    0.000    1.000    3.333    2.500    2.333    5.333 
#    0.000    5.000    0.000    0.000    0.000    0.000 
#    0.000    0.000    0.000    0.000    0.000    0.000 
#
# Total GULP energy -67172.479100 kJ/mol
# GULP energy per Si atom -5597.706592 kJ/mol
# Density = 2.341128 g / cm^3
# Si number density = 23.464687 Si / 1000 Ang^3
#
#
#
# Elastic Constant Matrix: (Units=GPa)
#
#
# Indices 1 2 3 4 5 6 
#
# 1 69.3904 12.1674 5.5645 2.1000 -4.5733 -12.5549
# 2 12.1674 117.9355 32.8108 -17.7558 -5.8994 -25.2301
# 3 5.5645 32.8108 101.1509 -4.1733 1.3883 1.7181
# 4 2.1000 -17.7558 -4.1733 39.1358 2.8022 2.7392
# 5 -4.5733 -5.8994 1.3883 2.8022 21.7017 -5.4583
# 6 -12.5549 -25.2301 1.7181 2.7392 -5.4583 41.9266
#
#
#
# Elastic Compliance Matrix: (Units=1/GPa)
#
#
# Indices 1 2 3 4 5 6 
#
# 1 0.015897 -0.000209 -0.001041 -0.001795 0.004960 0.005440
# 2 -0.000209 0.012142 -0.003953 0.004202 0.004922 0.007773
# 3 -0.001041 -0.003953 0.011322 -0.000076 -0.002896 -0.003527
# 4 -0.001795 0.004202 -0.000076 0.027765 -0.002865 -0.000193
# 5 0.004960 0.004922 -0.002896 -0.002865 0.051913 0.011512
# 6 0.005440 0.007773 -0.003527 -0.000193 0.011512 0.031813
#
#
# Mechanical properties :
#
#
# Convention : Reuss Voigt Hill
#
# Bulk Modulus (GPa) = 34.53649 43.28468 38.91058
# Shear Modulus (GPa) = 29.25487 36.41508 32.83498
#
# Velocity S-wave (km/s) = 3.53478 3.94370 3.74483
# Velocity P-wave (km/s) = 5.60446 6.26289 5.94280
#
# Compressibility (1/GPa) = 0.02895489
#
# Stress axis : x y z
#
# Youngs Moduli (GPa) = 62.90547 82.35692 88.32052
#
# Poissons Ratio (x) = 0.01717 0.09198
# Poissons Ratio (y) = 0.01312 0.34917
# Poissons Ratio (z) = 0.06551 0.32559
#
# Static dielectric constant tensor:
#      x y z
#    x 1.922940 -0.020540 -0.012090 
#    y -0.020540 1.896080 -0.007640 
#    z -0.012090 -0.007640 1.889960 
# 
# From -- ./inp_files/89315.got.cif
#   From: 2010.05.17/outbox.cif.g08.bks.cpg/sg2_45_cif.got.tgz:89315.got - 2010.06.03 11:33:40.
