data_PCOD9039251
_publ_section_title
;
Structure prediction by ZEFSAII (Michael W. Deem and Ramdas Pophale) SiO2 
 PCOD9039251
Probable space group: P -1
;
_chemical_formula_sum "Si O2"
_cell_formula_units_Z 14
_cell_length_a 12.150221
_cell_length_b 9.215443
_cell_length_c 9.115795
_cell_angle_alpha 70.670028
_cell_angle_beta 63.189750
_cell_angle_gamma 120.586156
_cell_volume 536.376685
_symmetry_space_group_name_H-M "P -1"
_symmetry_group_IT_number 2
_symmetry_cell_setting 'triclinic'
loop_
_space_group_symop_operation_xyz
x,y,z
-x,-y,-z
loop_
_atom_site_type_symbol
_atom_site_label
_atom_site_fract_x
_atom_site_fract_y
_atom_site_fract_z
Si Si1 0.218642 0.123753 0.248400
Si Si2 0.464390 0.301754 0.479334
Si Si3 0.237274 0.592853 0.543477
Si Si4 0.601378 0.477413 0.743928
Si Si5 0.076918 0.301112 0.220243
Si Si6 0.450596 0.846058 0.773868
Si Si7 0.865155 0.212190 0.086974
O O1 0.301436 0.311618 0.268507
O O2 0.120999 0.164875 0.196124
O O3 0.397535 0.220501 0.023536
O O4 0.070990 0.861988 0.500436
O O5 0.656855 0.415930 0.398308
O O6 0.462517 0.473082 0.369040
O O7 0.451718 0.186756 0.376299
O O8 0.267390 0.067963 0.766560
O O9 0.259937 0.518070 0.406870
O O10 0.017514 0.400509 0.802429
O O11 0.378229 0.880390 0.353417
O O12 0.982100 0.294295 0.139889
O O13 0.281010 0.583677 0.047103
O O14 0.305722 0.825299 0.783965
#
# Coordination Sequence:
#
# PCOD9039251 Si02
#       7
#     2   2   2   2   2   2   2
#     4  10  23  42  67  89 124 180 227 256 305 386
#     4  11  22  39  67  99 129 170 215 261 325 388
#     4  11  24  39  63 101 138 160 205 274 336 377
#     4  11  22  44  64  93 129 172 220 266 317 375
#     4  11  21  40  67  95 123 170 223 263 307 384
#     4  11  24  40  67 103 129 168 212 261 334 389
#     4  11  22  38  65 102 130 164 206 273 327 379
#
# _framework density 26.101058999999999
#
# number of rings (size 3 to 8) (size 9 to 14) (size 15 to 20)
#    0.000    1.143    4.286    2.571    2.000    0.571 
#   10.286    1.429    0.000    0.000    0.000    0.000 
#    0.000    0.000    0.000    0.000    0.000    0.000 
#
# Total GULP energy -78339.141326 kJ/mol
# GULP energy per Si atom -5595.652952 kJ/mol
# Density = 2.604165 g / cm^3
# Si number density = 26.101059 Si / 1000 Ang^3
#
#
#
# Elastic Constant Matrix: (Units=GPa)
#
#
# Indices 1 2 3 4 5 6 
#
# 1 88.4093 14.8346 21.6197 0.9249 -8.2651 -14.3390
# 2 14.8346 104.4575 64.9342 -4.2575 -0.9906 -13.8898
# 3 21.6197 64.9342 221.5566 -31.6786 -16.5592 -17.8695
# 4 0.9249 -4.2575 -31.6786 47.7198 -8.9896 -2.6892
# 5 -8.2651 -0.9906 -16.5592 -8.9896 39.0638 -1.6220
# 6 -14.3390 -13.8898 -17.8695 -2.6892 -1.6220 31.1634
#
#
#
# Elastic Compliance Matrix: (Units=1/GPa)
#
#
# Indices 1 2 3 4 5 6 
#
# 1 0.012673 -0.000855 -0.000286 0.000332 0.002842 0.005462
# 2 -0.000855 0.012230 -0.003601 -0.001429 -0.001611 0.002785
# 3 -0.000286 -0.003601 0.006872 0.005174 0.004071 0.002862
# 4 0.000332 -0.001429 0.005174 0.026142 0.008458 0.005179
# 5 0.002842 -0.001611 0.004071 0.008458 0.030048 0.005218
# 6 0.005462 0.002785 0.002862 0.005179 0.005218 0.038204
#
#
# Mechanical properties :
#
#
# Convention : Reuss Voigt Hill
#
# Bulk Modulus (GPa) = 44.86221 68.57781 56.72001
# Shear Modulus (GPa) = 34.94498 44.45838 39.70168
#
# Velocity S-wave (km/s) = 3.66298 4.13160 3.90433
# Velocity P-wave (km/s) = 5.92580 7.00651 6.48869
#
# Compressibility (1/GPa) = 0.02229047
#
# Stress axis : x y z
#
# Youngs Moduli (GPa) = 78.91099 81.76531 145.52442
#
# Poissons Ratio (x) = 0.06994 0.04155
# Poissons Ratio (y) = 0.06750 0.52404
# Poissons Ratio (z) = 0.02253 0.29444
#
# Static dielectric constant tensor:
#      x y z
#    x 2.171650 0.034630 0.059890 
#    y 0.034630 2.064460 -0.020460 
#    z 0.059890 -0.020460 2.065310 
# 
# From -- ./inp_files/460541.got.cif
#   From: 2010.05.17/outbox.cif.g08.bks.cpg/sg2_231_cif.got.tgz:460541.got - 2010.06.03 11:33:40.
