data_PCOD9039332
_publ_section_title
;
Structure prediction by ZEFSAII (Michael W. Deem and Ramdas Pophale) SiO2 
 PCOD9039332
Probable space group: P -1
;
_chemical_formula_sum "Si O2"
_cell_formula_units_Z 16
_cell_length_a 16.634714
_cell_length_b 17.613328
_cell_length_c 11.234193
_cell_angle_alpha 151.891839
_cell_angle_beta 32.474122
_cell_angle_gamma 156.671080
_cell_volume 604.025176
_symmetry_space_group_name_H-M "P -1"
_symmetry_group_IT_number 2
_symmetry_cell_setting 'triclinic'
loop_
_space_group_symop_operation_xyz
x,y,z
-x,-y,-z
loop_
_atom_site_type_symbol
_atom_site_label
_atom_site_fract_x
_atom_site_fract_y
_atom_site_fract_z
Si Si1 0.974387 0.853367 0.155106
Si Si2 0.687482 0.782781 0.601261
Si Si3 0.728598 0.371515 0.040572
Si Si4 0.563130 0.294528 0.559077
Si Si5 0.253457 0.891509 0.511779
Si Si6 0.199582 0.747313 0.628545
Si Si7 0.784007 0.215265 0.992313
Si Si8 0.868589 0.754158 0.870815
O O1 0.777736 0.729670 0.314637
O O2 0.149913 0.106196 0.336923
O O3 0.114334 0.796697 0.907182
O O4 0.893697 0.783019 0.022368
O O5 0.444333 0.618985 0.709869
O O6 0.719355 0.983508 0.776736
O O7 0.730157 0.240513 0.963007
O O8 0.671751 0.224372 0.791832
O O9 0.967023 0.597960 0.050087
O O10 0.641758 0.265606 0.541869
O O11 0.659763 0.254741 0.281782
O O12 0.648492 0.538865 0.794069
O O13 0.325183 0.083187 0.594184
O O14 0.288711 0.921880 0.652036
O O15 0.004873 0.711045 0.579827
O O16 0.000000 0.500000 0.500000
O O17 0.000000 0.000000 0.000000
#
# Coordination Sequence:
#
# PCOD9039332 Si02
#       8
#     2   2   2   2   2   2   2   2
#     4  10  23  42  67  98 134 183 214 280 348 396
#     4  11  23  42  66  94 139 172 222 282 340 406
#     4  11  23  40  66 103 130 178 228 282 334 404
#     4  12  22  41  69  98 130 176 229 281 338 398
#     4  11  23  38  69 100 127 172 227 277 343 402
#     4  11  19  41  69  94 131 172 222 275 329 400
#     4  11  23  39  70  99 132 178 231 276 340 408
#     4  11  26  44  65  95 141 179 221 286 339 404
#
# _framework density 26.488962000000001
#
# number of rings (size 3 to 8) (size 9 to 14) (size 15 to 20)
#    0.000    1.000    6.250    0.750    1.750    1.500 
#    0.000    5.000    0.000    0.000    0.000    0.000 
#    0.000    0.000    0.000    0.000    0.000    0.000 
#
# Total GULP energy -89300.383215 kJ/mol
# GULP energy per Si atom -5581.273951 kJ/mol
# Density = 2.642867 g / cm^3
# Si number density = 26.488962 Si / 1000 Ang^3
#
#
#
# Elastic Constant Matrix: (Units=GPa)
#
#
# Indices 1 2 3 4 5 6 
#
# 1 55.3488 14.0938 24.0165 -14.5174 4.9228 -1.2879
# 2 14.0938 138.4424 62.0254 -30.1182 12.0271 2.3904
# 3 24.0165 62.0254 157.8176 -34.9672 8.9127 4.4911
# 4 -14.5174 -30.1182 -34.9672 48.0473 0.1359 -11.0755
# 5 4.9228 12.0271 8.9127 0.1359 38.1864 -8.5492
# 6 -1.2879 2.3904 4.4911 -11.0755 -8.5492 39.5799
#
#
#
# Elastic Compliance Matrix: (Units=1/GPa)
#
#
# Indices 1 2 3 4 5 6 
#
# 1 0.020478 0.000044 -0.001920 0.005278 -0.001783 0.001973
# 2 0.000044 0.009523 -0.002723 0.004096 -0.002298 0.000385
# 3 -0.001920 -0.002723 0.008638 0.004013 -0.000915 0.000047
# 4 0.005278 0.004096 0.004013 0.029621 -0.001341 0.007468
# 5 -0.001783 -0.002298 -0.000915 -0.001341 0.028705 0.006010
# 6 0.001973 0.000385 0.000047 0.007468 0.006010 0.028689
#
#
# Mechanical properties :
#
#
# Convention : Reuss Voigt Hill
#
# Bulk Modulus (GPa) = 33.96490 61.32002 47.64246
# Shear Modulus (GPa) = 34.56281 41.92760 38.24520
#
# Velocity S-wave (km/s) = 3.61612 3.98280 3.80388
# Velocity P-wave (km/s) = 5.50320 6.65956 6.10881
#
# Compressibility (1/GPa) = 0.02944216
#
# Stress axis : x y z
#
# Youngs Moduli (GPa) = 48.83342 105.01127 115.76389
#
# Poissons Ratio (x) = -0.00467 0.22224
# Poissons Ratio (y) = -0.00217 0.31522
# Poissons Ratio (z) = 0.09375 0.28594
#
# Static dielectric constant tensor:
#      x y z
#    x 2.186540 0.027420 -0.087280 
#    y 0.027420 2.506720 -0.101950 
#    z -0.087280 -0.101950 2.227620 
# 
# From -- ./inp_files/472682.got.cif
#   From: 2010.05.17/outbox.cif.g08.bks.cpg/sg2_237_cif.got.tgz:472682.got - 2010.06.03 11:33:40.
