data_PCOD9039694
_publ_section_title
;
Structure prediction by ZEFSAII (Michael W. Deem and Ramdas Pophale) SiO2 
 PCOD9039694
Probable space group: P -1
;
_chemical_formula_sum "Si O2"
_cell_formula_units_Z 16
_cell_length_a 9.462857
_cell_length_b 16.096813
_cell_length_c 5.360047
_cell_angle_alpha 126.929611
_cell_angle_beta 80.199597
_cell_angle_gamma 78.000380
_cell_volume 591.167415
_symmetry_space_group_name_H-M "P -1"
_symmetry_group_IT_number 2
_symmetry_cell_setting 'triclinic'
loop_
_space_group_symop_operation_xyz
x,y,z
-x,-y,-z
loop_
_atom_site_type_symbol
_atom_site_label
_atom_site_fract_x
_atom_site_fract_y
_atom_site_fract_z
Si Si1 0.465490 0.414192 0.173951
Si Si2 0.134804 0.169869 0.784738
Si Si3 0.246337 0.415381 0.855612
Si Si4 0.754061 0.261358 0.538881
Si Si5 0.468299 0.781712 0.818986
Si Si6 0.679482 0.892726 0.906068
Si Si7 0.060980 0.633048 0.080649
Si Si8 0.145763 0.969602 0.712994
O O1 0.500000 0.500000 0.500000
O O2 0.490128 0.296890 0.092536
O O3 0.301319 0.460670 0.166083
O O4 0.604558 0.372891 0.855363
O O5 0.240725 0.144976 0.456885
O O6 0.979605 0.279792 0.976648
O O7 0.102380 0.057977 0.657185
O O8 0.223575 0.186342 0.033483
O O9 0.391235 0.300200 0.547119
O O10 0.094069 0.390397 0.892325
O O11 0.199527 0.509861 0.824426
O O12 0.695232 0.211327 0.231182
O O13 0.898993 0.297924 0.582877
O O14 0.791647 0.164012 0.562568
O O15 0.507772 0.893250 0.003654
O O16 0.711390 0.003703 0.164321
O O17 0.000000 0.000000 0.000000
#
# Coordination Sequence:
#
# PCOD9039694 Si02
#       8
#     2   2   2   2   2   2   2   2
#     4  11  24  46  70 104 151 200 246 314 379 457
#     4  10  23  45  72 104 149 193 251 308 381 435
#     4  10  23  42  70 101 143 188 254 306 379 449
#     4  11  26  43  70 107 145 195 252 308 381 452
#     4  11  23  44  70 100 147 198 248 308 378 449
#     4  10  23  44  74 101 147 198 244 314 366 452
#     4  11  21  43  69 104 141 191 248 316 375 449
#     4  10  25  45  74 107 148 197 252 315 382 444
#
# _framework density 27.065092
#
# number of rings (size 3 to 8) (size 9 to 14) (size 15 to 20)
#    0.750    0.750    1.250    3.000    1.750    6.500 
#    4.500    5.000    0.000    0.000    0.000    0.000 
#    0.000    0.000    0.000    0.000    0.000    0.000 
#
# Total GULP energy -89385.735031 kJ/mol
# GULP energy per Si atom -5586.608439 kJ/mol
# Density = 2.700349 g / cm^3
# Si number density = 27.065092 Si / 1000 Ang^3
#
#
#
# Elastic Constant Matrix: (Units=GPa)
#
#
# Indices 1 2 3 4 5 6 
#
# 1 193.9689 56.2294 43.4164 -5.5310 46.5549 11.4692
# 2 56.2294 162.0671 34.3956 -6.7687 14.2190 -7.7944
# 3 43.4164 34.3956 74.1155 -10.4207 9.2089 6.2795
# 4 -5.5310 -6.7687 -10.4207 50.4264 -3.9849 1.4703
# 5 46.5549 14.2190 9.2089 -3.9849 27.3063 3.2298
# 6 11.4692 -7.7944 6.2795 1.4703 3.2298 50.8430
#
#
#
# Elastic Compliance Matrix: (Units=1/GPa)
#
#
# Indices 1 2 3 4 5 6 
#
# 1 0.010024 -0.001535 -0.003315 -0.000960 -0.015183 -0.001095
# 2 -0.001535 0.007397 -0.002594 0.000192 -0.000549 0.001830
# 3 -0.003315 -0.002594 0.016986 0.003009 0.001945 -0.001958
# 4 -0.000960 0.000192 0.003009 0.020690 0.003654 -0.000956
# 5 -0.015183 -0.000549 0.001945 0.003654 0.062788 -0.000994
# 6 -0.001095 0.001830 -0.001958 -0.000956 -0.000994 0.020529
#
#
# Mechanical properties :
#
#
# Convention : Reuss Voigt Hill
#
# Bulk Modulus (GPa) = 51.23189 77.58159 64.40674
# Shear Modulus (GPa) = 31.28756 45.45583 38.37169
#
# Velocity S-wave (km/s) = 3.40371 4.10262 3.76939
# Velocity P-wave (km/s) = 5.86662 7.15325 6.54164
#
# Compressibility (1/GPa) = 0.01951909
#
# Stress axis : x y z
#
# Youngs Moduli (GPa) = 99.76022 135.18133 58.87357
#
# Poissons Ratio (x) = 0.20748 0.19519
# Poissons Ratio (y) = 0.15312 0.15271
# Poissons Ratio (z) = 0.33074 0.35063
#
# Static dielectric constant tensor:
#      x y z
#    x 2.174520 -0.015540 0.020300 
#    y -0.015540 2.113170 -0.010070 
#    z 0.020300 -0.010070 2.181920 
# 
# From -- ./inp_files/49331.got.cif
#   From: 2010.05.17/outbox.cif.g08.bks.cpg/sg2_25_cif.got.tgz:49331.got - 2010.06.03 11:33:40.
