data_PCOD9039647
_publ_section_title
;
Structure prediction by ZEFSAII (Michael W. Deem and Ramdas Pophale) SiO2 
 PCOD9039647
Probable space group: P -1
;
_chemical_formula_sum "Si O2"
_cell_formula_units_Z 14
_cell_length_a 7.344691
_cell_length_b 17.396202
_cell_length_c 12.656348
_cell_angle_alpha 152.720068
_cell_angle_beta 130.935131
_cell_angle_gamma 53.253930
_cell_volume 559.330760
_symmetry_space_group_name_H-M "P -1"
_symmetry_group_IT_number 2
_symmetry_cell_setting 'triclinic'
loop_
_space_group_symop_operation_xyz
x,y,z
-x,-y,-z
loop_
_atom_site_type_symbol
_atom_site_label
_atom_site_fract_x
_atom_site_fract_y
_atom_site_fract_z
Si Si1 0.055953 0.303775 0.552473
Si Si2 0.289474 0.140080 0.873365
Si Si3 0.802003 0.694547 0.762506
Si Si4 0.771031 0.029334 0.025022
Si Si5 0.938914 0.865047 0.431449
Si Si6 0.707002 0.516234 0.309440
Si Si7 0.203355 0.563734 0.079153
O O1 0.188275 0.321954 0.513130
O O2 0.134854 0.195297 0.554074
O O3 0.114013 0.490349 0.845582
O O4 0.812315 0.210709 0.318210
O O5 0.269391 0.158718 0.762931
O O6 0.530238 0.039552 0.877499
O O7 0.043949 0.047872 0.697763
O O8 0.282512 0.301259 0.143672
O O9 0.765809 0.882014 0.929659
O O10 0.663707 0.572910 0.482909
O O11 0.082367 0.628632 0.783132
O O12 0.000000 0.000000 0.000000
O O13 0.167870 0.758505 0.334026
O O14 0.462206 0.488866 0.120603
O O15 0.000000 0.500000 0.000000
#
# Coordination Sequence:
#
# PCOD9039647 Si02
#       7
#     2   2   2   2   2   2   2
#     4  11  23  43  68 103 135 182 227 286 350 403
#     4  11  24  44  72 100 142 183 233 287 346 418
#     4  11  24  44  71 102 138 184 229 288 348 411
#     4  12  25  44  70 105 140 181 232 288 350 412
#     4  10  23  44  70 103 134 183 236 284 348 409
#     4  11  24  44  70 104 141 180 233 291 341 414
#     4  10  23  42  69  98 137 182 230 277 347 412
#
# _framework density 25.029910999999998
#
# number of rings (size 3 to 8) (size 9 to 14) (size 15 to 20)
#    0.000    1.143    2.857    2.571    4.000    2.286 
#    2.571    2.857    0.000    0.000    0.000    0.000 
#    0.000    0.000    0.000    0.000    0.000    0.000 
#
# Total GULP energy -78091.110810 kJ/mol
# GULP energy per Si atom -5577.936486 kJ/mol
# Density = 2.497294 g / cm^3
# Si number density = 25.029911 Si / 1000 Ang^3
#
#
#
# Elastic Constant Matrix: (Units=GPa)
#
#
# Indices 1 2 3 4 5 6 
#
# 1 53.4096 39.7769 8.6355 -8.7050 3.3058 2.4059
# 2 39.7769 142.9752 32.9364 -45.0387 13.1609 -5.2736
# 3 8.6355 32.9364 121.3015 -27.1524 -3.8383 -4.9267
# 4 -8.7050 -45.0387 -27.1524 41.0269 2.6682 -1.8350
# 5 3.3058 13.1609 -3.8383 2.6682 39.7530 -1.6885
# 6 2.4059 -5.2736 -4.9267 -1.8350 -1.6885 44.1268
#
#
#
# Elastic Compliance Matrix: (Units=1/GPa)
#
#
# Indices 1 2 3 4 5 6 
#
# 1 0.024237 -0.008148 -0.000560 -0.004337 0.000812 -0.002507
# 2 -0.008148 0.014381 -0.000156 0.014391 -0.004956 0.002554
# 3 -0.000560 -0.000156 0.009794 0.006209 0.000686 0.001390
# 4 -0.004337 0.014391 0.006209 0.043979 -0.006577 0.004227
# 5 0.000812 -0.004956 0.000686 -0.006577 0.027245 0.000209
# 6 -0.002507 0.002554 0.001390 0.004227 0.000209 0.023443
#
#
# Mechanical properties :
#
#
# Convention : Reuss Voigt Hill
#
# Bulk Modulus (GPa) = 32.59008 53.37599 42.98304
# Shear Modulus (GPa) = 29.23368 40.73718 34.98543
#
# Velocity S-wave (km/s) = 3.42124 4.03865 3.74270
# Velocity P-wave (km/s) = 5.35305 6.56649 5.99058
#
# Compressibility (1/GPa) = 0.03068418
#
# Stress axis : x y z
#
# Youngs Moduli (GPa) = 41.25847 69.53704 102.10039
#
# Poissons Ratio (x) = 0.56656 0.05720
# Poissons Ratio (y) = 0.33616 0.01597
# Poissons Ratio (z) = 0.02311 0.01088
#
# Static dielectric constant tensor:
#      x y z
#    x 2.018120 -0.031990 -0.171660 
#    y -0.031990 2.062980 0.137340 
#    z -0.171660 0.137340 2.221020 
# 
# From -- ./inp_files/202660.got.cif
#   From: 2010.05.17/outbox.cif.g08.bks.cpg/sg2_102_cif.got.tgz:202660.got - 2010.06.03 11:33:40.
