data_PCOD9039156
_publ_section_title
;
Structure prediction by ZEFSAII (Michael W. Deem and Ramdas Pophale) SiO2 
 PCOD9039156
Probable space group: P -1
;
_chemical_formula_sum "Si O2"
_cell_formula_units_Z 10
_cell_length_a 8.060292
_cell_length_b 11.936433
_cell_length_c 8.562438
_cell_angle_alpha 119.986584
_cell_angle_beta 50.611659
_cell_angle_gamma 140.468223
_cell_volume 405.164324
_symmetry_space_group_name_H-M "P -1"
_symmetry_group_IT_number 2
_symmetry_cell_setting 'triclinic'
loop_
_space_group_symop_operation_xyz
x,y,z
-x,-y,-z
loop_
_atom_site_type_symbol
_atom_site_label
_atom_site_fract_x
_atom_site_fract_y
_atom_site_fract_z
Si Si1 0.694002 0.331398 0.239215
Si Si2 0.658827 0.383198 0.636567
Si Si3 0.688550 0.972248 0.276905
Si Si4 0.173484 0.994798 0.129830
Si Si5 0.784556 0.602473 0.155468
O O1 0.566341 0.285617 0.455848
O O2 0.471521 0.158830 0.146209
O O3 0.725199 0.488275 0.259652
O O4 0.017294 0.402645 0.082123
O O5 0.511576 0.238126 0.757055
O O6 0.519753 0.468219 0.779608
O O7 0.000000 0.500000 0.500000
O O8 0.500000 0.000000 0.500000
O O9 0.768497 0.041976 0.102029
O O10 0.975969 0.040755 0.244186
O O11 0.986288 0.811925 0.207942
#
# Coordination Sequence:
#
# PCOD9039156 Si02
#       5
#     2   2   2   2   2
#     4  11  24  43  70  96 129 179 213 271 329 383
#     4  11  26  43  64  99 135 169 220 271 324 389
#     4  10  23  42  66  98 132 171 211 274 329 380
#     4  10  23  44  67  97 131 168 224 266 322 393
#     4  10  24  43  68  98 128 171 221 268 326 385
#
# _framework density 24.681342999999998
#
# number of rings (size 3 to 8) (size 9 to 14) (size 15 to 20)
#    0.000    1.600    0.000    2.400    8.400    5.600 
#    0.000    0.000    0.000    0.000    0.000    0.000 
#    0.000    0.000    0.000    0.000    0.000    0.000 
#
# Total GULP energy -55978.099134 kJ/mol
# GULP energy per Si atom -5597.809913 kJ/mol
# Density = 2.462517 g / cm^3
# Si number density = 24.681343 Si / 1000 Ang^3
#
#
#
# Elastic Constant Matrix: (Units=GPa)
#
#
# Indices 1 2 3 4 5 6 
#
# 1 119.2377 49.5641 39.7162 2.2744 -48.6289 3.3663
# 2 49.5641 99.6205 2.4683 -18.4518 2.9033 -15.5432
# 3 39.7162 2.4683 92.0696 3.2665 -37.7944 9.7947
# 4 2.2744 -18.4518 3.2665 32.1960 0.5244 -5.4190
# 5 -48.6289 2.9033 -37.7944 0.5244 53.9762 -8.3699
# 6 3.3663 -15.5432 9.7947 -5.4190 -8.3699 38.0205
#
#
#
# Elastic Compliance Matrix: (Units=1/GPa)
#
#
# Indices 1 2 3 4 5 6 
#
# 1 0.024375 -0.015871 -0.000015 -0.012103 0.022066 -0.005510
# 2 -0.015871 0.023084 -0.001743 0.016506 -0.015329 0.010269
# 3 -0.000015 -0.001743 0.015716 -0.003250 0.010670 -0.002874
# 4 -0.012103 0.016506 -0.003250 0.043953 -0.012611 0.012145
# 5 0.022066 -0.015329 0.010670 -0.012611 0.046430 -0.002545
# 6 -0.005510 0.010269 -0.002874 0.012145 -0.002545 0.032899
#
#
# Mechanical properties :
#
#
# Convention : Reuss Voigt Hill
#
# Bulk Modulus (GPa) = 35.82314 54.93614 45.37964
# Shear Modulus (GPa) = 21.64308 39.45049 30.54678
#
# Velocity S-wave (km/s) = 2.96446 4.00233 3.52184
# Velocity P-wave (km/s) = 5.12476 6.60792 5.91303
#
# Compressibility (1/GPa) = 0.02791491
#
# Stress axis : x y z
#
# Youngs Moduli (GPa) = 41.02635 43.32044 63.63014
#
# Poissons Ratio (x) = 0.68755 0.00098
# Poissons Ratio (y) = 0.65114 0.11091
# Poissons Ratio (z) = 0.00063 0.07551
#
# Static dielectric constant tensor:
#      x y z
#    x 2.000680 0.008470 -0.028370 
#    y 0.008470 1.927150 0.028290 
#    z -0.028370 0.028290 1.913800 
# 
# From -- ./inp_files/143743.got.cif
#   From: 2010.05.17/outbox.cif.g08.bks.cpg/sg2_72_cif.got.tgz:143743.got - 2010.06.03 11:33:40.
