data_PCOD9039782
_publ_section_title
;
Structure prediction by ZEFSAII (Michael W. Deem and Ramdas Pophale) SiO2 
 PCOD9039782
Probable space group: P -1
;
_chemical_formula_sum "Si O2"
_cell_formula_units_Z 12
_cell_length_a 11.845317
_cell_length_b 14.710856
_cell_length_c 15.122641
_cell_angle_alpha 19.842091
_cell_angle_beta 42.014282
_cell_angle_gamma 43.873245
_cell_volume 595.861456
_symmetry_space_group_name_H-M "P -1"
_symmetry_group_IT_number 2
_symmetry_cell_setting 'triclinic'
loop_
_space_group_symop_operation_xyz
x,y,z
-x,-y,-z
loop_
_atom_site_type_symbol
_atom_site_label
_atom_site_fract_x
_atom_site_fract_y
_atom_site_fract_z
Si Si1 0.640086 0.133939 0.739066
Si Si2 0.550952 0.616885 0.061989
Si Si3 0.552618 0.939598 0.425190
Si Si4 0.882436 0.764583 0.300511
Si Si5 0.884191 0.778522 0.804526
Si Si6 0.371806 0.460608 0.476760
O O1 0.538219 0.280200 0.581871
O O2 0.699421 0.362824 0.560198
O O3 0.786304 0.912565 0.824408
O O4 0.500000 0.000000 0.000000
O O5 0.552248 0.301731 0.327470
O O6 0.436456 0.645165 0.191545
O O7 0.732216 0.713573 0.888393
O O8 0.474800 0.798771 0.860061
O O9 0.748596 0.833439 0.394114
O O10 0.500000 0.000000 0.500000
O O11 0.765811 0.708256 0.334923
O O12 0.000000 0.500000 0.500000
O O13 0.000000 0.000000 0.000000
O O14 0.000000 0.000000 0.500000
O O15 0.000000 0.500000 0.000000
#
# Coordination Sequence:
#
# PCOD9039782 Si02
#       6
#     2   2   2   2   2   2
#     4  11  23  42  73  97 133 179 237 269 314 423
#     4  11  22  44  71  91 129 182 219 266 324 404
#     4  11  24  45  70  93 125 177 233 262 318 404
#     4  11  24  43  66  99 137 171 214 285 342 380
#     4  12  25  43  62 101 141 171 211 276 352 382
#     4  10  23  42  71 101 129 183 233 268 330 404
#
# _framework density 20.138909000000002
#
# number of rings (size 3 to 8) (size 9 to 14) (size 15 to 20)
#    0.000    1.000    1.667    6.500    4.667    0.000 
#    9.000    0.000    0.000    0.000    0.000    0.000 
#    0.000    0.000    0.000    0.000    0.000    0.000 
#
# Total GULP energy -67084.537031 kJ/mol
# GULP energy per Si atom -5590.378086 kJ/mol
# Density = 2.009307 g / cm^3
# Si number density = 20.138909 Si / 1000 Ang^3
#
#
#
# Elastic Constant Matrix: (Units=GPa)
#
#
# Indices 1 2 3 4 5 6 
#
# 1 107.7255 59.5445 49.0788 7.5633 -6.7606 10.1099
# 2 59.5445 173.5863 51.6286 -2.9613 1.4612 7.6791
# 3 49.0788 51.6286 147.2857 6.8218 -6.6976 0.0066
# 4 7.5633 -2.9613 6.8218 36.3890 -6.3001 -2.6409
# 5 -6.7606 1.4612 -6.6976 -6.3001 52.4529 1.4954
# 6 10.1099 7.6791 0.0066 -2.6409 1.4954 31.6206
#
#
#
# Elastic Compliance Matrix: (Units=1/GPa)
#
#
# Indices 1 2 3 4 5 6 
#
# 1 0.013187 -0.003528 -0.002985 -0.002521 0.001217 -0.003627
# 2 -0.003528 0.007486 -0.001547 0.001478 -0.000668 -0.000534
# 3 -0.002985 -0.001547 0.008394 -0.000888 0.000589 0.001226
# 4 -0.002521 0.001478 -0.000888 0.028996 0.002925 0.002731
# 5 0.001217 -0.000668 0.000589 0.002925 0.019693 -0.000914
# 6 -0.003627 -0.000534 0.001226 0.002731 -0.000914 0.033185
#
#
# Mechanical properties :
#
#
# Convention : Reuss Voigt Hill
#
# Bulk Modulus (GPa) = 77.24446 83.23347 80.23896
# Shear Modulus (GPa) = 38.05817 41.98221 40.02019
#
# Velocity S-wave (km/s) = 4.35188 4.57073 4.46265
# Velocity P-wave (km/s) = 7.98066 8.32315 8.15370
#
# Compressibility (1/GPa) = 0.01294591
#
# Stress axis : x y z
#
# Youngs Moduli (GPa) = 75.83297 133.58653 119.12758
#
# Poissons Ratio (x) = 0.47135 0.35560
# Poissons Ratio (y) = 0.26757 0.18430
# Poissons Ratio (z) = 0.22636 0.20667
#
# Static dielectric constant tensor:
#      x y z
#    x 1.714260 0.016520 -0.009290 
#    y 0.016520 1.726050 -0.037460 
#    z -0.009290 -0.037460 1.730310 
# 
# From -- ./inp_files/23031.got.cif
#   From: 2010.05.17/outbox.cif.g08.bks.cpg/sg2_12_cif.got.tgz:23031.got - 2010.06.03 11:33:40.
