data_PCOD9039532
_publ_section_title
;
Structure prediction by ZEFSAII (Michael W. Deem and Ramdas Pophale) SiO2 
 PCOD9039532
Probable space group: P -1
;
_chemical_formula_sum "Si O2"
_cell_formula_units_Z 16
_cell_length_a 8.907770
_cell_length_b 9.424243
_cell_length_c 15.147443
_cell_angle_alpha 75.773033
_cell_angle_beta 48.714692
_cell_angle_gamma 111.205097
_cell_volume 643.532855
_symmetry_space_group_name_H-M "P -1"
_symmetry_group_IT_number 2
_symmetry_cell_setting 'triclinic'
loop_
_space_group_symop_operation_xyz
x,y,z
-x,-y,-z
loop_
_atom_site_type_symbol
_atom_site_label
_atom_site_fract_x
_atom_site_fract_y
_atom_site_fract_z
Si Si1 0.388298 0.150466 0.554880
Si Si2 0.134005 0.313451 0.629090
Si Si3 0.736855 0.059612 0.965690
Si Si4 0.507724 0.368100 0.833402
Si Si5 0.250105 0.532193 0.938563
Si Si6 0.638304 0.285309 0.609701
Si Si7 0.629789 0.992550 0.743130
Si Si8 0.001219 0.684551 0.739165
O O1 0.371311 0.314937 0.520126
O O2 0.370746 0.124697 0.672303
O O3 0.697902 0.248018 0.392100
O O4 0.128174 0.916807 0.653422
O O5 0.175880 0.498175 0.548809
O O6 0.871265 0.111243 0.704850
O O7 0.035440 0.261221 0.776598
O O8 0.692714 0.863408 0.012417
O O9 0.651162 0.082117 0.089457
O O10 0.500000 0.000000 0.000000
O O11 0.330934 0.422408 0.878695
O O12 0.600581 0.343663 0.708959
O O13 0.773228 0.536543 0.771666
O O14 0.531229 0.783136 0.783050
O O15 0.000000 0.500000 0.000000
O O16 0.162116 0.444421 0.086936
O O17 0.736362 0.170499 0.605347
#
# Coordination Sequence:
#
# PCOD9039532 Si02
#       8
#     2   2   2   2   2   2   2   2
#     4  11  26  43  68 106 145 183 232 293 357 421
#     4  11  22  41  70  98 140 182 237 284 354 413
#     4   9  20  39  70 101 128 178 236 286 333 411
#     4  11  25  47  76 104 139 188 240 290 351 424
#     4  12  26  45  73 102 145 184 240 293 357 414
#     4  11  26  44  69 107 140 184 235 294 350 415
#     4  10  23  42  69 100 138 184 237 286 347 420
#     4  11  25  46  72 100 145 190 233 286 360 425
#
# _framework density 24.862756999999998
#
# number of rings (size 3 to 8) (size 9 to 14) (size 15 to 20)
#    0.000    1.250    0.000    4.875   10.500    1.000 
#    0.000    4.375    0.000    0.000    0.000    0.000 
#    0.000    0.000    0.000    0.000    0.000    0.000 
#
# Total GULP energy -89496.788366 kJ/mol
# GULP energy per Si atom -5593.549273 kJ/mol
# Density = 2.480617 g / cm^3
# Si number density = 24.862757 Si / 1000 Ang^3
#
#
#
# Elastic Constant Matrix: (Units=GPa)
#
#
# Indices 1 2 3 4 5 6 
#
# 1 48.1318 9.2251 13.3060 3.8471 -3.9643 -4.3482
# 2 9.2251 120.5593 31.3984 -24.3941 9.4388 -23.6636
# 3 13.3060 31.3984 99.2834 -20.6968 8.6188 -8.6507
# 4 3.8471 -24.3941 -20.6968 28.3137 -4.7628 3.2071
# 5 -3.9643 9.4388 8.6188 -4.7628 30.6559 -1.4981
# 6 -4.3482 -23.6636 -8.6507 3.2071 -1.4981 53.2679
#
#
#
# Elastic Compliance Matrix: (Units=1/GPa)
#
#
# Indices 1 2 3 4 5 6 
#
# 1 0.023426 -0.002420 -0.004274 -0.007836 0.003794 0.000721
# 2 -0.002420 0.011462 -0.000949 0.008699 -0.002020 0.004160
# 3 -0.004274 -0.000949 0.013065 0.008803 -0.002529 0.000750
# 4 -0.007836 0.008699 0.008803 0.050418 0.001748 0.001668
# 5 0.003794 -0.002020 -0.002529 0.001748 0.034709 -0.000128
# 6 0.000721 0.004160 0.000750 0.001668 -0.000128 0.020698
#
#
# Mechanical properties :
#
#
# Convention : Reuss Voigt Hill
#
# Bulk Modulus (GPa) = 30.61335 41.75928 36.18632
# Shear Modulus (GPa) = 27.78491 36.71717 32.25104
#
# Velocity S-wave (km/s) = 3.34658 3.84708 3.60552
# Velocity P-wave (km/s) = 5.22230 6.04696 5.64970
#
# Compressibility (1/GPa) = 0.03266548
#
# Stress axis : x y z
#
# Youngs Moduli (GPa) = 42.68809 87.24541 76.53931
#
# Poissons Ratio (x) = 0.21117 0.32714
# Poissons Ratio (y) = 0.10332 0.07265
# Poissons Ratio (z) = 0.18245 0.08281
#
# Static dielectric constant tensor:
#      x y z
#    x 2.021840 -0.028520 -0.100410 
#    y -0.028520 2.077760 0.158090 
#    z -0.100410 0.158090 2.184690 
# 
# From -- ./inp_files/556056.got.cif
#   From: 2010.05.17/outbox.cif.g08.bks.cpg/sg2_279_cif.got.tgz:556056.got - 2010.06.03 11:33:40.
