data_PCOD9039478
_publ_section_title
;
Structure prediction by ZEFSAII (Michael W. Deem and Ramdas Pophale) SiO2 
 PCOD9039478
Probable space group: P -1
;
_chemical_formula_sum "Si O2"
_cell_formula_units_Z 16
_cell_length_a 8.365347
_cell_length_b 18.642806
_cell_length_c 5.628833
_cell_angle_alpha 85.313941
_cell_angle_beta 95.704808
_cell_angle_gamma 127.949198
_cell_volume 688.558403
_symmetry_space_group_name_H-M "P -1"
_symmetry_group_IT_number 2
_symmetry_cell_setting 'triclinic'
loop_
_space_group_symop_operation_xyz
x,y,z
-x,-y,-z
loop_
_atom_site_type_symbol
_atom_site_label
_atom_site_fract_x
_atom_site_fract_y
_atom_site_fract_z
Si Si1 0.764919 0.073706 0.263443
Si Si2 0.398883 0.540139 0.363653
Si Si3 0.997733 0.612110 0.917765
Si Si4 0.484628 0.878181 0.468629
Si Si5 0.863703 0.215422 0.882555
Si Si6 0.826196 0.464402 0.291355
Si Si7 0.754543 0.817977 0.627387
Si Si8 0.704897 0.723626 0.150841
O O1 0.642521 0.100386 0.392229
O O2 0.996159 0.116361 0.362165
O O3 0.630945 0.965760 0.297623
O O4 0.785404 0.117846 0.999118
O O5 0.500000 0.500000 0.500000
O O6 0.185860 0.450523 0.269659
O O7 0.371747 0.586792 0.567380
O O8 0.526790 0.615626 0.163720
O O9 0.161854 0.596027 0.881090
O O10 0.890528 0.557254 0.158997
O O11 0.088677 0.715481 0.918375
O O12 0.304392 0.794976 0.306249
O O13 0.630919 0.859684 0.617570
O O14 0.080436 0.258675 0.787722
O O15 0.000000 0.500000 0.500000
O O16 0.690180 0.769977 0.369938
O O17 0.710040 0.763311 0.883492
#
# Coordination Sequence:
#
# PCOD9039478 Si02
#       8
#     2   2   2   2   2   2   2   2
#     4  10  24  47  72 107 147 187 242 309 366 454
#     4  11  25  41  70  99 139 196 242 293 363 433
#     4  10  23  42  68  97 137 189 236 298 363 421
#     4  11  24  46  76 106 140 194 243 300 384 441
#     4  11  24  44  71 102 145 189 245 305 368 442
#     4   9  21  42  61  95 134 179 235 293 344 423
#     4  11  26  49  75 112 150 194 241 311 368 441
#     4  11  27  47  70 108 156 188 250 308 362 437
#
# _framework density 23.236954000000001
#
# number of rings (size 3 to 8) (size 9 to 14) (size 15 to 20)
#    0.000    1.500    1.250    1.500    7.000    7.000 
#    0.000    1.875    0.000    0.000    0.000    0.000 
#    0.000    0.000    0.000    0.000    0.000    0.000 
#
# Total GULP energy -89298.395660 kJ/mol
# GULP energy per Si atom -5581.149729 kJ/mol
# Density = 2.318407 g / cm^3
# Si number density = 23.236954 Si / 1000 Ang^3
#
#
#
# Elastic Constant Matrix: (Units=GPa)
#
#
# Indices 1 2 3 4 5 6 
#
# 1 153.9214 46.6138 36.9684 -9.3856 18.4315 8.4024
# 2 46.6138 77.1864 21.9539 -8.2194 -1.4067 1.7165
# 3 36.9684 21.9539 78.2697 -1.5486 2.9621 0.5061
# 4 -9.3856 -8.2194 -1.5486 28.8821 6.1114 3.6659
# 5 18.4315 -1.4067 2.9621 6.1114 39.2468 -2.9603
# 6 8.4024 1.7165 0.5061 3.6659 -2.9603 17.6863
#
#
#
# Elastic Compliance Matrix: (Units=1/GPa)
#
#
# Indices 1 2 3 4 5 6 
#
# 1 0.009841 -0.004671 -0.003018 0.003623 -0.005564 -0.005818
# 2 -0.004671 0.016806 -0.002562 0.002493 0.002645 0.000587
# 3 -0.003018 -0.002562 0.014867 -0.001224 0.000515 0.001597
# 4 0.003623 0.002493 -0.001224 0.039733 -0.008582 -0.011600
# 5 -0.005564 0.002645 0.000515 -0.008582 0.030179 0.009202
# 6 -0.005818 0.000587 0.001597 -0.011600 0.009202 0.063147
#
#
# Mechanical properties :
#
#
# Convention : Reuss Voigt Hill
#
# Bulk Modulus (GPa) = 47.59460 57.82773 52.71117
# Shear Modulus (GPa) = 24.74287 30.75247 27.74767
#
# Velocity S-wave (km/s) = 3.26668 3.64184 3.45935
# Velocity P-wave (km/s) = 5.89534 6.52872 6.22010
#
# Compressibility (1/GPa) = 0.02101078
#
# Stress axis : x y z
#
# Youngs Moduli (GPa) = 101.61526 59.50279 67.26524
#
# Poissons Ratio (x) = 0.27794 0.20301
# Poissons Ratio (y) = 0.47464 0.17235
# Poissons Ratio (z) = 0.30668 0.15246
#
# Static dielectric constant tensor:
#      x y z
#    x 1.912440 0.000650 -0.029180 
#    y 0.000650 1.888720 -0.000850 
#    z -0.029180 -0.000850 1.837010 
# 
# From -- ./inp_files/47508.got.cif
#   From: 2010.05.17/outbox.cif.g08.bks.cpg/sg2_24_cif.got.tgz:47508.got - 2010.06.03 11:33:40.
