data_PCOD9039654
_publ_section_title
;
Structure prediction by ZEFSAII (Michael W. Deem and Ramdas Pophale) SiO2 
 PCOD9039654
Probable space group: P -1
;
_chemical_formula_sum "Si O2"
_cell_formula_units_Z 16
_cell_length_a 12.406389
_cell_length_b 14.218512
_cell_length_c 5.516470
_cell_angle_alpha 104.142332
_cell_angle_beta 82.991948
_cell_angle_gamma 53.050925
_cell_volume 707.262506
_symmetry_space_group_name_H-M "P -1"
_symmetry_group_IT_number 2
_symmetry_cell_setting 'triclinic'
loop_
_space_group_symop_operation_xyz
x,y,z
-x,-y,-z
loop_
_atom_site_type_symbol
_atom_site_label
_atom_site_fract_x
_atom_site_fract_y
_atom_site_fract_z
Si Si1 0.847021 0.940465 0.602785
Si Si2 0.590641 0.950231 0.691365
Si Si3 0.778444 0.196535 0.892453
Si Si4 0.526345 0.639145 0.669304
Si Si5 0.999688 0.201095 0.031864
Si Si6 0.996360 0.581626 0.845073
Si Si7 0.387012 0.604194 0.294204
Si Si8 0.750991 0.675663 0.650598
O O1 0.687366 0.989649 0.687796
O O2 0.904980 0.888145 0.282191
O O3 0.848547 0.053925 0.722746
O O4 0.927841 0.844809 0.751613
O O5 0.697242 0.794649 0.571716
O O6 0.500000 0.000000 0.500000
O O7 0.500000 0.000000 0.000000
O O8 0.759093 0.277339 0.716420
O O9 0.866478 0.205444 0.069612
O O10 0.616694 0.273229 0.074628
O O11 0.459607 0.654535 0.434303
O O12 0.621505 0.486097 0.592590
O O13 0.617625 0.681273 0.718474
O O14 0.960748 0.333893 0.058454
O O15 0.120556 0.468863 0.564730
O O16 0.831967 0.678947 0.854898
O O17 0.000000 0.500000 0.000000
O O18 0.500000 0.500000 0.000000
#
# Coordination Sequence:
#
# PCOD9039654 Si02
#       8
#     2   2   2   2   2   2   2   2
#     4  12  27  50  71 107 146 191 249 299 363 440
#     4  12  27  48  77 108 150 195 243 305 364 437
#     4  11  26  42  72 103 138 194 236 297 371 428
#     4  10  23  42  69  98 148 174 245 297 372 429
#     4  12  28  48  75 104 148 190 246 302 360 438
#     4  11  27  46  74 103 146 194 249 307 364 442
#     4   9  22  40  60 102 135 183 228 293 359 432
#     4  11  26  46  72 109 140 197 247 304 371 437
#
# _framework density 22.622436
#
# number of rings (size 3 to 8) (size 9 to 14) (size 15 to 20)
#    0.000    1.000    1.250    3.000   15.750    1.000 
#    0.000    0.000    0.000    0.000    0.000    0.000 
#    0.000    0.000    0.000    0.000    0.000    0.000 
#
# Total GULP energy -89371.700372 kJ/mol
# GULP energy per Si atom -5585.731273 kJ/mol
# Density = 2.257095 g / cm^3
# Si number density = 22.622436 Si / 1000 Ang^3
#
#
#
# Elastic Constant Matrix: (Units=GPa)
#
#
# Indices 1 2 3 4 5 6 
#
# 1 124.3093 14.2878 12.0041 -2.7705 11.5939 -0.9164
# 2 14.2878 97.8147 8.3539 -9.5786 16.2164 -0.7552
# 3 12.0041 8.3539 75.8772 -2.3060 -3.3523 -0.7916
# 4 -2.7705 -9.5786 -2.3060 39.1414 1.1520 19.2646
# 5 11.5939 16.2164 -3.3523 1.1520 27.3466 3.7910
# 6 -0.9164 -0.7552 -0.7916 19.2646 3.7910 33.7315
#
#
#
# Elastic Compliance Matrix: (Units=1/GPa)
#
#
# Indices 1 2 3 4 5 6 
#
# 1 0.008587 -0.000503 -0.001448 0.000298 -0.003591 0.000422
# 2 -0.000503 0.011922 -0.001449 0.003486 -0.007045 -0.000980
# 3 -0.001448 -0.001449 0.013718 0.000432 0.003186 -0.000355
# 4 0.000298 0.003486 0.000432 0.036694 -0.000807 -0.020770
# 5 -0.003591 -0.007045 0.003186 -0.000807 0.043328 -0.004589
# 6 0.000422 -0.000980 -0.000355 -0.020770 -0.004589 0.042005
#
#
# Mechanical properties :
#
#
# Convention : Reuss Voigt Hill
#
# Bulk Modulus (GPa) = 36.45963 40.81031 38.63497
# Shear Modulus (GPa) = 29.03653 37.60093 33.31873
#
# Velocity S-wave (km/s) = 3.58652 4.08132 3.84189
# Velocity P-wave (km/s) = 5.77083 6.34732 6.06592
#
# Compressibility (1/GPa) = 0.02742760
#
# Stress axis : x y z
#
# Youngs Moduli (GPa) = 116.45864 83.87538 72.89710
#
# Poissons Ratio (x) = 0.04218 0.10558
# Poissons Ratio (y) = 0.05856 0.10560
# Poissons Ratio (z) = 0.16867 0.12150
#
# Static dielectric constant tensor:
#      x y z
#    x 1.833000 -0.012650 0.000770 
#    y -0.012650 1.859000 -0.029520 
#    z 0.000770 -0.029520 1.927580 
# 
# From -- ./inp_files/78360.got.cif
#   From: 2010.05.17/outbox.cif.g08.bks.cpg/sg2_40_cif.got.tgz:78360.got - 2010.06.03 11:33:40.
