data_PCOD9039688
_publ_section_title
;
Structure prediction by ZEFSAII (Michael W. Deem and Ramdas Pophale) SiO2 
 PCOD9039688
Probable space group: P -1
;
_chemical_formula_sum "Si O2"
_cell_formula_units_Z 11
_cell_length_a 8.495403
_cell_length_b 8.124467
_cell_length_c 11.709710
_cell_angle_alpha 109.493859
_cell_angle_beta 41.078053
_cell_angle_gamma 88.220447
_cell_volume 445.481686
_symmetry_space_group_name_H-M "P -1"
_symmetry_group_IT_number 2
_symmetry_cell_setting 'triclinic'
loop_
_space_group_symop_operation_xyz
x,y,z
-x,-y,-z
loop_
_atom_site_type_symbol
_atom_site_label
_atom_site_fract_x
_atom_site_fract_y
_atom_site_fract_z
Si Si1 0.150009 0.776490 0.821239
Si Si2 0.352080 0.873838 0.527186
Si Si3 0.845480 0.002203 0.702938
Si Si4 0.500000 0.500000 0.000000
Si Si5 0.278363 0.495689 0.883803
Si Si6 0.757417 0.706386 0.843833
O O1 0.370717 0.756303 0.603908
O O2 0.293428 0.646356 0.820864
O O3 0.945990 0.722687 0.844959
O O4 0.000000 0.000000 0.000000
O O5 0.490921 0.721637 0.316219
O O6 0.044180 0.005711 0.693225
O O7 0.500000 0.000000 0.500000
O O8 0.782737 0.826795 0.747971
O O9 0.000000 0.000000 0.500000
O O10 0.553367 0.193642 0.910318
O O11 0.700862 0.455577 0.987885
O O12 0.246869 0.497498 0.225103
O O13 0.000000 0.500000 0.000000
#
# Coordination Sequence:
#
# PCOD9039688 Si02
#       6
#     2   2   2   1   2   2
#     4  11  25  47  77 106 150 199 251 318 384 455
#     4  11  26  45  72 110 145 200 255 309 384 456
#     4  10  23  42  70 100 151 187 254 305 369 458
#     4  12  26  44  76 108 154 200 252 310 388 456
#     4  12  26  47  73 106 155 195 252 311 378 456
#     4  10  24  44  68 109 144 199 252 302 387 451
#
# _framework density 24.692373
#
# number of rings (size 3 to 8) (size 9 to 14) (size 15 to 20)
#    0.000    1.091    1.818    2.727   12.727    0.000 
#    0.000    8.182    0.000    0.000    0.000    0.000 
#    0.000    0.000    0.000    0.000    0.000    0.000 
#
# Total GULP energy -61269.351248 kJ/mol
# GULP energy per Si atom -5569.941023 kJ/mol
# Density = 2.463617 g / cm^3
# Si number density = 24.692373 Si / 1000 Ang^3
#
#
#
# Elastic Constant Matrix: (Units=GPa)
#
#
# Indices 1 2 3 4 5 6 
#
# 1 128.1028 55.9503 11.1148 -24.7518 -5.3829 -13.2302
# 2 55.9503 91.7059 35.6996 -25.1217 3.0131 2.4745
# 3 11.1148 35.6996 89.7215 -21.5402 1.6434 -8.1953
# 4 -24.7518 -25.1217 -21.5402 54.1605 -4.6628 -1.6121
# 5 -5.3829 3.0131 1.6434 -4.6628 37.3502 -13.4645
# 6 -13.2302 2.4745 -8.1953 -1.6121 -13.4645 57.0811
#
#
#
# Elastic Compliance Matrix: (Units=1/GPa)
#
#
# Indices 1 2 3 4 5 6 
#
# 1 0.012433 -0.007979 0.002867 0.003652 0.004497 0.004803
# 2 -0.007979 0.019121 -0.006423 0.002216 -0.003725 -0.004416
# 3 0.002867 -0.006423 0.014720 0.004483 0.002176 0.003696
# 4 0.003652 0.002216 0.004483 0.023392 0.004165 0.003037
# 5 0.004497 -0.003725 0.002176 0.004165 0.031406 0.009042
# 6 0.004803 -0.004416 0.003696 0.003037 0.009042 0.021573
#
#
# Mechanical properties :
#
#
# Convention : Reuss Voigt Hill
#
# Bulk Modulus (GPa) = 43.09242 57.22884 50.16063
# Shear Modulus (GPa) = 32.58424 43.50275 38.04350
#
# Velocity S-wave (km/s) = 3.63658 4.20192 3.92943
# Velocity P-wave (km/s) = 5.92643 6.83875 6.39887
#
# Compressibility (1/GPa) = 0.02320594
#
# Stress axis : x y z
#
# Youngs Moduli (GPa) = 80.43306 52.29802 67.93466
#
# Poissons Ratio (x) = 0.41726 -0.19480
# Poissons Ratio (y) = 0.64174 0.43634
# Poissons Ratio (z) = -0.23064 0.33590
#
# Static dielectric constant tensor:
#      x y z
#    x 1.787710 -0.245960 -0.055140 
#    y -0.245960 1.324010 -0.253760 
#    z -0.055140 -0.253760 1.994530 
# 
# From -- ./inp_files/376796.got.cif
#   From: 2010.05.17/outbox.cif.g08.bks.cpg/sg2_189_cif.got.tgz:376796.got - 2010.06.03 11:33:40.
