data_PCOD9039558
_publ_section_title
;
Structure prediction by ZEFSAII (Michael W. Deem and Ramdas Pophale) SiO2 
 PCOD9039558
Probable space group: P -1
;
_chemical_formula_sum "Si O2"
_cell_formula_units_Z 14
_cell_length_a 15.882852
_cell_length_b 14.149911
_cell_length_c 9.778762
_cell_angle_alpha 36.195252
_cell_angle_beta 30.271034
_cell_angle_gamma 39.294923
_cell_volume 632.000650
_symmetry_space_group_name_H-M "P -1"
_symmetry_group_IT_number 2
_symmetry_cell_setting 'triclinic'
loop_
_space_group_symop_operation_xyz
x,y,z
-x,-y,-z
loop_
_atom_site_type_symbol
_atom_site_label
_atom_site_fract_x
_atom_site_fract_y
_atom_site_fract_z
Si Si1 0.995609 0.209304 0.578883
Si Si2 0.166339 0.846004 0.647609
Si Si3 0.033934 0.305948 0.700402
Si Si4 0.815905 0.588800 0.086147
Si Si5 0.574304 0.894740 0.651272
Si Si6 0.500925 0.135301 0.723974
Si Si7 0.280491 0.729103 0.344100
O O1 0.950980 0.230661 0.775825
O O2 0.830833 0.261283 0.649412
O O3 0.090131 0.024766 0.614278
O O4 0.126877 0.324121 0.228432
O O5 0.357581 0.775030 0.524195
O O6 0.182524 0.855618 0.450715
O O7 0.045007 0.734150 0.999683
O O8 0.234643 0.213004 0.521227
O O9 0.000000 0.500000 0.500000
O O10 0.687594 0.739344 0.171829
O O11 0.713555 0.447297 0.388396
O O12 0.000000 0.500000 0.000000
O O13 0.500000 0.000000 0.500000
O O14 0.566479 0.031359 0.619176
O O15 0.455196 0.777058 0.005911
O O16 0.500000 0.000000 0.000000
#
# Coordination Sequence:
#
# PCOD9039558 Si02
#       7
#     2   2   2   2   2   2   2
#     4  11  22  45  71 101 139 181 231 281 343 411
#     4  12  24  42  74 100 139 185 232 276 347 414
#     4  12  28  47  69 103 144 182 229 288 349 404
#     4  10  23  42  69 102 141 176 226 285 343 403
#     4  12  27  47  69 102 141 181 234 285 340 411
#     4  12  23  45  71 102 136 184 233 282 337 415
#     4  11  25  42  72 104 135 180 232 288 343 402
#
# _framework density 22.151876999999999
#
# number of rings (size 3 to 8) (size 9 to 14) (size 15 to 20)
#    0.000    0.571    4.286    2.571    4.000    6.286 
#    0.000    1.429    0.000    0.000    0.000    0.000 
#    0.000    0.000    0.000    0.000    0.000    0.000 
#
# Total GULP energy -78300.009857 kJ/mol
# GULP energy per Si atom -5592.857847 kJ/mol
# Density = 2.210146 g / cm^3
# Si number density = 22.151877 Si / 1000 Ang^3
#
#
#
# Elastic Constant Matrix: (Units=GPa)
#
#
# Indices 1 2 3 4 5 6 
#
# 1 88.9624 20.4756 24.7984 13.6467 2.3528 -0.5390
# 2 20.4756 124.5540 23.1517 11.5220 -7.8232 -13.4108
# 3 24.7984 23.1517 131.0302 7.9018 -8.6622 -6.7918
# 4 13.6467 11.5220 7.9018 39.8596 0.5742 -5.4839
# 5 2.3528 -7.8232 -8.6622 0.5742 32.9440 2.0273
# 6 -0.5390 -13.4108 -6.7918 -5.4839 2.0273 27.3800
#
#
#
# Elastic Compliance Matrix: (Units=1/GPa)
#
#
# Indices 1 2 3 4 5 6 
#
# 1 0.012813 -0.001662 -0.002108 -0.003698 -0.001695 -0.001700
# 2 -0.001662 0.009122 -0.000895 -0.001394 0.001840 0.003798
# 3 -0.002108 -0.000895 0.008429 -0.000535 0.002081 0.001350
# 4 -0.003698 -0.001394 -0.000535 0.027523 -0.000976 0.004696
# 5 -0.001695 0.001840 0.002081 -0.000976 0.031547 -0.001147
# 6 -0.001700 0.003798 0.001350 0.004696 -0.001147 0.039710
#
#
# Mechanical properties :
#
#
# Convention : Reuss Voigt Hill
#
# Bulk Modulus (GPa) = 47.54370 53.48867 50.51618
# Shear Modulus (GPa) = 34.36792 38.44476 36.40634
#
# Velocity S-wave (km/s) = 3.94314 4.17046 4.05839
# Velocity P-wave (km/s) = 6.49926 6.88397 6.69438
#
# Compressibility (1/GPa) = 0.02103328
#
# Stress axis : x y z
#
# Youngs Moduli (GPa) = 78.04777 109.63003 118.64235
#
# Poissons Ratio (x) = 0.18218 0.25015
# Poissons Ratio (y) = 0.12970 0.10614
# Poissons Ratio (z) = 0.16456 0.09807
#
# Static dielectric constant tensor:
#      x y z
#    x 1.971560 0.020320 0.003170 
#    y 0.020320 1.802310 -0.018220 
#    z 0.003170 -0.018220 1.845110 
# 
# From -- ./inp_files/158116.got.cif
#   From: 2010.05.17/outbox.cif.g08.bks.cpg/sg2_80_cif.got.tgz:158116.got - 2010.06.03 11:33:40.
