data_PCOD9039634
_publ_section_title
;
Structure prediction by ZEFSAII (Michael W. Deem and Ramdas Pophale) SiO2 
 PCOD9039634
Probable space group: P -1
;
_chemical_formula_sum "Si O2"
_cell_formula_units_Z 16
_cell_length_a 15.342867
_cell_length_b 8.687311
_cell_length_c 12.283916
_cell_angle_alpha 137.616940
_cell_angle_beta 106.811154
_cell_angle_gamma 48.755935
_cell_volume 764.095300
_symmetry_space_group_name_H-M "P -1"
_symmetry_group_IT_number 2
_symmetry_cell_setting 'triclinic'
loop_
_space_group_symop_operation_xyz
x,y,z
-x,-y,-z
loop_
_atom_site_type_symbol
_atom_site_label
_atom_site_fract_x
_atom_site_fract_y
_atom_site_fract_z
Si Si1 0.497401 0.766226 0.444698
Si Si2 0.219095 0.193683 0.633342
Si Si3 0.278877 0.420959 0.456818
Si Si4 0.825535 0.106794 0.727257
Si Si5 0.992626 0.450101 0.097303
Si Si6 0.876761 0.342438 0.681061
Si Si7 0.408760 0.703411 0.172769
Si Si8 0.071024 0.801861 0.763326
O O1 0.618174 0.574238 0.464476
O O2 0.487939 0.595369 0.256639
O O3 0.500000 0.000000 0.500000
O O4 0.368565 0.964125 0.569101
O O5 0.145625 0.265575 0.754395
O O6 0.157804 0.531395 0.741989
O O7 0.184870 0.066896 0.461655
O O8 0.237625 0.509150 0.363611
O O9 0.155094 0.666698 0.614038
O O10 0.334552 0.071335 0.318276
O O11 0.846085 0.303161 0.769643
O O12 0.697549 0.303733 0.851274
O O13 0.946412 0.873685 0.726310
O O14 0.087396 0.454446 0.196427
O O15 0.000000 0.500000 0.000000
O O16 0.030744 0.122219 0.952095
O O17 0.000000 0.000000 0.500000
O O18 0.500000 0.500000 0.000000
#
# Coordination Sequence:
#
# PCOD9039634 Si02
#       8
#     2   2   2   2   2   2   2   2
#     4   9  19  41  64  90 129 166 215 263 319 386
#     4  11  22  40  67  95 130 173 216 267 326 391
#     4  11  22  42  67  93 131 173 222 262 328 392
#     4  11  22  41  69  94 135 168 221 260 336 390
#     4  12  25  41  61 100 137 169 213 271 338 383
#     4  12  23  43  67  92 134 179 208 268 334 397
#     4  10  23  42  69  98 130 171 217 278 320 380
#     4  12  22  38  67 102 130 162 216 284 322 390
#
# _framework density 20.939796999999999
#
# number of rings (size 3 to 8) (size 9 to 14) (size 15 to 20)
#    0.000    1.000    7.500    0.750    1.750    3.000 
#    0.000    3.125    0.000    0.000    0.000    0.000 
#    0.000    0.000    0.000    0.000    0.000    0.000 
#
# Total GULP energy -89447.714474 kJ/mol
# GULP energy per Si atom -5590.482155 kJ/mol
# Density = 2.089214 g / cm^3
# Si number density = 20.939797 Si / 1000 Ang^3
#
#
#
# Elastic Constant Matrix: (Units=GPa)
#
#
# Indices 1 2 3 4 5 6 
#
# 1 134.1999 22.5387 50.8333 -4.3610 -26.8439 -29.3405
# 2 22.5387 66.2101 5.5946 -22.7956 -1.9760 -25.4655
# 3 50.8333 5.5946 92.3909 -0.7573 -19.0426 -13.4485
# 4 -4.3610 -22.7956 -0.7573 16.9203 9.1568 6.9254
# 5 -26.8439 -1.9760 -19.0426 9.1568 44.3619 -5.2260
# 6 -29.3405 -25.4655 -13.4485 6.9254 -5.2260 39.4387
#
#
#
# Elastic Compliance Matrix: (Units=1/GPa)
#
#
# Indices 1 2 3 4 5 6 
#
# 1 0.013101 -0.004399 -0.003773 -0.011528 0.009541 0.008908
# 2 -0.004399 0.038245 0.000016 0.051432 -0.010267 0.011036
# 3 -0.003773 0.000016 0.014497 -0.004701 0.005344 0.003681
# 4 -0.011528 0.051432 -0.004701 0.149470 -0.038535 -0.008323
# 5 0.009541 -0.010267 0.005344 -0.038535 0.039794 0.014331
# 6 0.008908 0.011036 0.003681 -0.008323 0.014331 0.043724
#
#
# Mechanical properties :
#
#
# Convention : Reuss Voigt Hill
#
# Bulk Modulus (GPa) = 20.18911 50.08159 35.13535
# Shear Modulus (GPa) = 15.07592 34.39981 24.73787
#
# Velocity S-wave (km/s) = 2.68613 4.05754 3.44085
# Velocity P-wave (km/s) = 4.39122 6.77646 5.70978
#
# Compressibility (1/GPa) = 0.04953166
#
# Stress axis : x y z
#
# Youngs Moduli (GPa) = 76.32997 26.14701 68.97826
#
# Poissons Ratio (x) = 0.11502 0.26027
# Poissons Ratio (y) = 0.33577 -0.00111
# Poissons Ratio (z) = 0.28800 -0.00042
#
# Static dielectric constant tensor:
#      x y z
#    x 1.774410 0.025230 0.014140 
#    y 0.025230 1.754270 -0.015850 
#    z 0.014140 -0.015850 1.756940 
# 
# From -- ./inp_files/271747.got.cif
#   From: 2010.05.17/outbox.cif.g08.bks.cpg/sg2_136_cif.got.tgz:271747.got - 2010.06.03 11:33:40.
