data_PCOD9039364
_publ_section_title
;
Structure prediction by ZEFSAII (Michael W. Deem and Ramdas Pophale) SiO2 
 PCOD9039364
Probable space group: P -1
;
_chemical_formula_sum "Si O2"
_cell_formula_units_Z 12
_cell_length_a 15.273156
_cell_length_b 7.251692
_cell_length_c 16.812575
_cell_angle_alpha 58.029496
_cell_angle_beta 163.660997
_cell_angle_gamma 117.404220
_cell_volume 435.370814
_symmetry_space_group_name_H-M "P -1"
_symmetry_group_IT_number 2
_symmetry_cell_setting 'triclinic'
loop_
_space_group_symop_operation_xyz
x,y,z
-x,-y,-z
loop_
_atom_site_type_symbol
_atom_site_label
_atom_site_fract_x
_atom_site_fract_y
_atom_site_fract_z
Si Si1 0.890897 0.682780 0.263491
Si Si2 0.455865 0.559186 0.097701
Si Si3 0.486771 0.434479 0.411786
Si Si4 0.221763 0.249714 0.089556
Si Si5 0.630182 0.074704 0.840646
Si Si6 0.329298 0.016729 0.743372
O O1 0.786640 0.407731 0.390051
O O2 0.818012 0.484375 0.190296
O O3 0.890195 0.892506 0.156071
O O4 0.641703 0.981673 0.782609
O O5 0.393129 0.422217 0.153039
O O6 0.586153 0.785768 0.026874
O O7 0.500000 0.500000 0.500000
O O8 0.338689 0.674175 0.189988
O O9 0.849968 0.330804 0.730877
O O10 0.287674 0.267637 0.236558
O O11 0.677232 0.934625 0.368822
O O12 0.493524 0.204035 0.882977
O O13 0.000000 0.000000 0.500000
#
# Coordination Sequence:
#
# PCOD9039364 Si02
#       6
#     2   2   2   2   2   2
#     4   9  23  39  63  94 125 173 219 264 324 375
#     4  11  21  42  67  91 129 175 214 266 321 386
#     4  12  26  44  70 100 131 171 218 274 331 391
#     4  11  23  44  68  96 135 172 217 268 331 390
#     4   9  23  41  67  96 132 174 218 264 330 386
#     4  10  23  42  68 101 133 174 224 271 323 387
#
# _framework density 27.562712000000001
#
# number of rings (size 3 to 8) (size 9 to 14) (size 15 to 20)
#    1.000    0.667    1.667    2.500    0.000   10.667 
#    0.000    1.667    0.000    0.000    0.000    0.000 
#    0.000    0.000    0.000    0.000    0.000    0.000 
#
# Total GULP energy -67202.602237 kJ/mol
# GULP energy per Si atom -5600.216853 kJ/mol
# Density = 2.749998 g / cm^3
# Si number density = 27.562712 Si / 1000 Ang^3
#
#
#
# Elastic Constant Matrix: (Units=GPa)
#
#
# Indices 1 2 3 4 5 6 
#
# 1 102.3037 13.6560 9.5797 0.2503 12.1399 -42.1557
# 2 13.6560 140.5475 26.5143 0.3883 -4.3352 -41.2191
# 3 9.5797 26.5143 109.1074 6.5069 6.6782 -10.8251
# 4 0.2503 0.3883 6.5069 35.6645 -4.6567 -11.2999
# 5 12.1399 -4.3352 6.6782 -4.6567 44.8131 5.0187
# 6 -42.1557 -41.2191 -10.8251 -11.2999 5.0187 49.0132
#
#
#
# Elastic Compliance Matrix: (Units=1/GPa)
#
#
# Indices 1 2 3 4 5 6 
#
# 1 0.019146 0.004550 -0.000545 0.006114 -0.006522 0.022251
# 2 0.004550 0.011082 -0.001917 0.004488 -0.000970 0.013944
# 3 -0.000545 -0.001917 0.009887 -0.002065 -0.001704 -0.000199
# 4 0.006114 0.004488 -0.002065 0.033568 0.000755 0.016239
# 5 -0.006522 -0.000970 -0.001704 0.000755 0.025353 -0.009223
# 6 0.022251 0.013944 -0.000199 0.016239 -0.009223 0.055911
#
#
# Mechanical properties :
#
#
# Convention : Reuss Voigt Hill
#
# Bulk Modulus (GPa) = 22.57792 50.16205 36.36999
# Shear Modulus (GPa) = 30.20524 46.04540 38.12532
#
# Velocity S-wave (km/s) = 3.31399 4.09169 3.72320
# Velocity P-wave (km/s) = 4.78044 6.36878 5.63090
#
# Compressibility (1/GPa) = 0.04429105
#
# Stress axis : x y z
#
# Youngs Moduli (GPa) = 52.22924 90.23964 101.14591
#
# Poissons Ratio (x) = -0.41060 0.05508
# Poissons Ratio (y) = -0.23765 0.19393
# Poissons Ratio (z) = 0.02844 0.17302
#
# Static dielectric constant tensor:
#      x y z
#    x 2.325920 0.052500 -0.027400 
#    y 0.052500 2.084130 -0.031030 
#    z -0.027400 -0.031030 2.122030 
# 
# From -- ./inp_files/285194.got.cif
#   From: 2010.05.17/outbox.cif.g08.bks.cpg/sg2_143_cif.got.tgz:285194.got - 2010.06.03 11:33:40.
