data_PCOD9039623
_publ_section_title
;
Structure prediction by ZEFSAII (Michael W. Deem and Ramdas Pophale) SiO2 
 PCOD9039623
Probable space group: P -1
;
_chemical_formula_sum "Si O2"
_cell_formula_units_Z 16
_cell_length_a 9.503244
_cell_length_b 10.384335
_cell_length_c 17.092234
_cell_angle_alpha 32.310335
_cell_angle_beta 70.908240
_cell_angle_gamma 62.103748
_cell_volume 788.423098
_symmetry_space_group_name_H-M "P -1"
_symmetry_group_IT_number 2
_symmetry_cell_setting 'triclinic'
loop_
_space_group_symop_operation_xyz
x,y,z
-x,-y,-z
loop_
_atom_site_type_symbol
_atom_site_label
_atom_site_fract_x
_atom_site_fract_y
_atom_site_fract_z
Si Si1 0.861895 0.132299 0.021987
Si Si2 0.469720 0.914738 0.462866
Si Si3 0.794774 0.467391 0.603480
Si Si4 0.799426 0.434006 0.142147
Si Si5 0.166607 0.757370 0.592682
Si Si6 0.111915 0.409868 0.647083
Si Si7 0.524819 0.570948 0.869616
Si Si8 0.060624 0.142660 0.126552
O O1 0.944192 0.230576 0.027041
O O2 0.822657 0.891268 0.185983
O O3 0.695239 0.365099 0.911582
O O4 0.000000 0.000000 0.000000
O O5 0.613048 0.639005 0.565865
O O6 0.305607 0.870935 0.506283
O O7 0.500000 0.000000 0.500000
O O8 0.476373 0.139851 0.288331
O O9 0.832711 0.561575 0.464566
O O10 0.917684 0.503228 0.626721
O O11 0.837467 0.160727 0.746886
O O12 0.815123 0.401672 0.248553
O O13 0.627724 0.438642 0.144750
O O14 0.942958 0.198534 0.194007
O O15 0.830408 0.687368 0.977722
O O16 0.165240 0.577196 0.612570
O O17 0.000000 0.000000 0.500000
O O18 0.500000 0.500000 0.000000
#
# Coordination Sequence:
#
# PCOD9039623 Si02
#       8
#     2   2   2   2   2   2   2   2
#     4  11  24  41  67 100 135 178 231 283 345 413
#     4  12  27  44  69 102 139 181 232 289 350 408
#     4  10  23  44  69  96 138 177 229 280 343 420
#     4  11  24  44  68 103 138 179 233 282 347 412
#     4  12  26  42  69  99 137 178 230 286 345 412
#     4  10  23  42  69  97 132 182 223 279 344 412
#     4  12  26  45  70 100 139 185 229 282 346 415
#     4  10  23  42  70  99 136 180 225 285 342 412
#
# _framework density 20.293672999999998
#
# number of rings (size 3 to 8) (size 9 to 14) (size 15 to 20)
#    0.000    1.000    2.500    3.000   10.500    2.500 
#    0.000    1.875    0.000    0.000    0.000    0.000 
#    0.000    0.000    0.000    0.000    0.000    0.000 
#
# Total GULP energy -89497.167201 kJ/mol
# GULP energy per Si atom -5593.572950 kJ/mol
# Density = 2.024748 g / cm^3
# Si number density = 20.293673 Si / 1000 Ang^3
#
#
#
# Elastic Constant Matrix: (Units=GPa)
#
#
# Indices 1 2 3 4 5 6 
#
# 1 143.9207 56.2137 42.2711 -28.4538 -8.9738 -11.1660
# 2 56.2137 85.4687 23.7097 -7.0720 -0.7537 0.9976
# 3 42.2711 23.7097 87.8132 -10.0209 1.5861 -6.0572
# 4 -28.4538 -7.0720 -10.0209 36.2366 -0.5643 8.2771
# 5 -8.9738 -0.7537 1.5861 -0.5643 26.5313 -4.3186
# 6 -11.1660 0.9976 -6.0572 8.2771 -4.3186 40.1698
#
#
#
# Elastic Compliance Matrix: (Units=1/GPa)
#
#
# Indices 1 2 3 4 5 6 
#
# 1 0.012357 -0.006612 -0.003291 0.007085 0.004689 0.002147
# 2 -0.006612 0.016332 -0.001570 -0.001945 -0.002095 -0.002305
# 3 -0.003291 -0.001570 0.013560 0.000638 -0.001818 0.000842
# 4 0.007085 -0.001945 0.000638 0.034056 0.002269 -0.004659
# 5 0.004689 -0.002095 -0.001818 0.002269 0.040178 0.004933
# 6 0.002147 -0.002305 0.000842 -0.004659 0.004933 0.027166
#
#
# Mechanical properties :
#
#
# Convention : Reuss Voigt Hill
#
# Bulk Modulus (GPa) = 51.80613 62.39906 57.10260
# Shear Modulus (GPa) = 28.89687 33.58808 31.24248
#
# Velocity S-wave (km/s) = 3.77760 4.07271 3.92793
# Velocity P-wave (km/s) = 6.67912 7.27535 6.98360
#
# Compressibility (1/GPa) = 0.01930274
#
# Stress axis : x y z
#
# Youngs Moduli (GPa) = 80.92461 61.22979 73.74744
#
# Poissons Ratio (x) = 0.40484 0.24272
# Poissons Ratio (y) = 0.53506 0.11578
# Poissons Ratio (z) = 0.26635 0.09612
#
# Static dielectric constant tensor:
#      x y z
#    x 1.697880 -0.012190 0.003050 
#    y -0.012190 1.733660 0.007710 
#    z 0.003050 0.007710 1.727730 
# 
# From -- ./inp_files/494244.got.cif
#   From: 2010.05.17/outbox.cif.g08.bks.cpg/sg2_248_cif.got.tgz:494244.got - 2010.06.03 11:33:40.
