data_PCOD9039714
_publ_section_title
;
Structure prediction by ZEFSAII (Michael W. Deem and Ramdas Pophale) SiO2 
 PCOD9039714
Probable space group: P -1
;
_chemical_formula_sum "Si O2"
_cell_formula_units_Z 16
_cell_length_a 5.659738
_cell_length_b 10.822196
_cell_length_c 11.586182
_cell_angle_alpha 107.110613
_cell_angle_beta 78.236606
_cell_angle_gamma 90.246548
_cell_volume 662.830650
_symmetry_space_group_name_H-M "P -1"
_symmetry_group_IT_number 2
_symmetry_cell_setting 'triclinic'
loop_
_space_group_symop_operation_xyz
x,y,z
-x,-y,-z
loop_
_atom_site_type_symbol
_atom_site_label
_atom_site_fract_x
_atom_site_fract_y
_atom_site_fract_z
Si Si1 0.677443 0.114610 0.033355
Si Si2 0.002071 0.207374 0.406089
Si Si3 0.113238 0.802555 0.213107
Si Si4 0.784105 0.491342 0.927511
Si Si5 0.775170 0.998286 0.220587
Si Si6 0.314738 0.338860 0.215073
Si Si7 0.724584 0.456099 0.547714
Si Si8 0.664286 0.990031 0.595030
O O1 0.541078 0.243638 0.134780
O O2 0.839981 0.054272 0.105723
O O3 0.767015 0.152386 0.908123
O O4 0.500000 0.000000 0.000000
O O5 0.152223 0.273491 0.308588
O O6 0.173035 0.143761 0.469697
O O7 0.782021 0.303120 0.494769
O O8 0.910470 0.081393 0.321590
O O9 0.163156 0.649487 0.175720
O O10 0.208659 0.882221 0.335665
O O11 0.839317 0.851849 0.216195
O O12 0.814182 0.615710 0.876866
O O13 0.500000 0.500000 0.000000
O O14 0.000000 0.500000 0.000000
O O15 0.498400 0.033770 0.283057
O O16 0.361818 0.476140 0.306913
O O17 0.500000 0.500000 0.500000
O O18 0.000000 0.500000 0.500000
O O19 0.500000 0.000000 0.500000
#
# Coordination Sequence:
#
# PCOD9039714 Si02
#       8
#     2   2   2   2   2   2   2   2
#     4  12  21  40  75 103 144 183 242 309 372 437
#     4  10  23  44  71 110 137 190 247 312 377 440
#     4  11  26  45  69 110 145 198 244 304 385 443
#     4  12  30  49  72 105 154 203 246 303 371 460
#     4  11  23  41  75 105 142 182 245 311 376 444
#     4  11  24  46  71 105 145 193 248 305 368 448
#     4  10  23  42  70 104 143 186 242 303 365 437
#     4  11  25  46  73 107 150 192 249 314 379 458
#
# _framework density 24.138894000000001
#
# number of rings (size 3 to 8) (size 9 to 14) (size 15 to 20)
#    0.000    1.000    3.750    1.875    7.000    6.000 
#    0.000    0.000    0.000    0.000    0.000    0.000 
#    0.000    0.000    0.000    0.000    0.000    0.000 
#
# Total GULP energy -89222.127623 kJ/mol
# GULP energy per Si atom -5576.382976 kJ/mol
# Density = 2.408395 g / cm^3
# Si number density = 24.138894 Si / 1000 Ang^3
#
#
#
# Elastic Constant Matrix: (Units=GPa)
#
#
# Indices 1 2 3 4 5 6 
#
# 1 77.0119 43.0271 37.4867 -4.7638 -1.0376 -27.6698
# 2 43.0271 151.5625 44.6648 -5.9085 5.0064 -41.4346
# 3 37.4867 44.6648 97.5469 -2.7798 -4.1922 -24.3244
# 4 -4.7638 -5.9085 -2.7798 44.0143 -5.2592 -7.4548
# 5 -1.0376 5.0064 -4.1922 -5.2592 43.3240 -7.0098
# 6 -27.6698 -41.4346 -24.3244 -7.4548 -7.0098 46.5079
#
#
#
# Elastic Compliance Matrix: (Units=1/GPa)
#
#
# Indices 1 2 3 4 5 6 
#
# 1 0.019388 -0.001865 -0.004312 0.003247 0.002023 0.008443
# 2 -0.001865 0.009643 -0.001939 0.002125 0.000013 0.006810
# 3 -0.004312 -0.001939 0.013757 0.000966 0.002115 0.003376
# 4 0.003247 0.002125 0.000966 0.025495 0.004492 0.009094
# 5 0.002023 0.000013 0.002115 0.004492 0.024980 0.006807
# 6 0.008443 0.006810 0.003376 0.009094 0.006807 0.036841
#
#
# Mechanical properties :
#
#
# Convention : Reuss Voigt Hill
#
# Bulk Modulus (GPa) = 37.65806 64.05317 50.85561
# Shear Modulus (GPa) = 32.21916 40.16545 36.19230
#
# Velocity S-wave (km/s) = 3.65737 4.08356 3.87633
# Velocity P-wave (km/s) = 5.78529 6.98762 6.41469
#
# Compressibility (1/GPa) = 0.02655474
#
# Stress axis : x y z
#
# Youngs Moduli (GPa) = 51.57934 103.70150 72.69243
#
# Poissons Ratio (x) = 0.19344 0.31342
# Poissons Ratio (y) = 0.09621 0.14097
# Poissons Ratio (z) = 0.22239 0.20111
#
# Static dielectric constant tensor:
#      x y z
#    x 2.116820 -0.047620 -0.032550 
#    y -0.047620 1.305950 0.326200 
#    z -0.032550 0.326200 1.735530 
# 
# From -- ./inp_files/365057.got.cif
#   From: 2010.05.17/outbox.cif.g08.bks.cpg/sg2_183_cif.got.tgz:365057.got - 2010.06.03 11:33:40.
