data_PCOD9039180
_publ_section_title
;
Structure prediction by ZEFSAII (Michael W. Deem and Ramdas Pophale) SiO2 
 PCOD9039180
Probable space group: P -1
;
_chemical_formula_sum "Si O2"
_cell_formula_units_Z 16
_cell_length_a 14.766198
_cell_length_b 14.950678
_cell_length_c 8.516333
_cell_angle_alpha 58.011661
_cell_angle_beta 91.329138
_cell_angle_gamma 139.900398
_cell_volume 734.246697
_symmetry_space_group_name_H-M "P -1"
_symmetry_group_IT_number 2
_symmetry_cell_setting 'triclinic'
loop_
_space_group_symop_operation_xyz
x,y,z
-x,-y,-z
loop_
_atom_site_type_symbol
_atom_site_label
_atom_site_fract_x
_atom_site_fract_y
_atom_site_fract_z
Si Si1 0.039718 0.963550 0.390045
Si Si2 0.621251 0.219069 0.219850
Si Si3 0.307110 0.056645 0.231429
Si Si4 0.395835 0.945772 0.897159
Si Si5 0.331655 0.398074 0.792809
Si Si6 0.738213 0.437819 0.307273
Si Si7 0.378086 0.475769 0.350903
Si Si8 0.060435 0.685234 0.311935
O O1 0.188905 0.019837 0.364295
O O2 0.146879 0.141455 0.090746
O O3 0.000000 0.000000 0.500000
O O4 0.825307 0.702603 0.571355
O O5 0.459369 0.141198 0.251509
O O6 0.689934 0.236731 0.044201
O O7 0.785457 0.435131 0.142186
O O8 0.500000 0.000000 0.500000
O O9 0.148894 0.824160 0.345153
O O10 0.446843 0.261154 0.920358
O O11 0.555251 0.179549 0.596941
O O12 0.234095 0.858073 0.032771
O O13 0.500000 0.000000 0.000000
O O14 0.318459 0.499649 0.771427
O O15 0.334163 0.413855 0.590117
O O16 0.530831 0.538163 0.704523
O O17 0.894560 0.583274 0.317094
O O18 0.000000 0.500000 0.500000
#
# Coordination Sequence:
#
# PCOD9039180 Si02
#       8
#     2   2   2   2   2   2   2   2
#     4  11  26  43  68 103 138 175 232 284 338 416
#     4  10  23  43  63  96 139 175 217 279 341 403
#     4  11  24  43  73  99 137 187 230 275 350 408
#     4  11  21  42  66  93 131 178 226 274 334 402
#     4  10  23  42  66  99 133 173 228 281 343 404
#     4  11  24  40  65  97 135 173 221 283 339 399
#     4  10  23  44  71  95 134 180 225 286 338 406
#     4  12  23  41  69 102 131 175 234 281 326 410
#
# _framework density 21.791041
#
# number of rings (size 3 to 8) (size 9 to 14) (size 15 to 20)
#    0.000    1.250    2.500    2.625    3.500    5.500 
#    2.250    0.000    0.000    0.000    0.000    0.000 
#    0.000    0.000    0.000    0.000    0.000    0.000 
#
# Total GULP energy -89373.117037 kJ/mol
# GULP energy per Si atom -5585.819815 kJ/mol
# Density = 2.174144 g / cm^3
# Si number density = 21.791041 Si / 1000 Ang^3
#
#
#
# Elastic Constant Matrix: (Units=GPa)
#
#
# Indices 1 2 3 4 5 6 
#
# 1 90.6997 -3.3616 17.1353 -1.5789 7.6900 -8.3709
# 2 -3.3616 53.1011 8.7327 -2.8390 4.5134 -13.2557
# 3 17.1353 8.7327 63.3491 -3.0560 -5.7940 -3.3420
# 4 -1.5789 -2.8390 -3.0560 24.5416 -1.3631 -3.0850
# 5 7.6900 4.5134 -5.7940 -1.3631 34.3151 1.9244
# 6 -8.3709 -13.2557 -3.3420 -3.0850 1.9244 34.0674
#
#
#
# Elastic Compliance Matrix: (Units=1/GPa)
#
#
# Indices 1 2 3 4 5 6 
#
# 1 0.012616 0.002875 -0.003915 0.000953 -0.004061 0.004150
# 2 0.002875 0.022609 -0.003647 0.003308 -0.004647 0.009708
# 3 -0.003915 -0.003647 0.017800 0.001699 0.004471 -0.000734
# 4 0.000953 0.003308 0.001699 0.042143 0.001007 0.005448
# 5 -0.004061 -0.004647 0.004471 0.001007 0.031686 -0.004066
# 6 0.004150 0.009708 -0.000734 0.005448 -0.004066 0.034802
#
#
# Mechanical properties :
#
#
# Convention : Reuss Voigt Hill
#
# Bulk Modulus (GPa) = 22.91056 28.01807 25.46432
# Shear Modulus (GPa) = 26.94246 30.89439 28.91842
#
# Velocity S-wave (km/s) = 3.52006 3.76940 3.64686
# Velocity P-wave (km/s) = 5.20170 5.64181 5.42622
#
# Compressibility (1/GPa) = 0.04364799
#
# Stress axis : x y z
#
# Youngs Moduli (GPa) = 79.26732 44.23002 56.18120
#
# Poissons Ratio (x) = -0.12714 0.21996
# Poissons Ratio (y) = -0.22786 0.20492
# Poissons Ratio (z) = 0.31035 0.16133
#
# Static dielectric constant tensor:
#      x y z
#    x 1.744200 -0.048760 0.018930 
#    y -0.048760 1.786740 0.030990 
#    z 0.018930 0.030990 1.788110 
# 
# From -- ./inp_files/312756.got.cif
#   From: 2010.05.17/outbox.cif.g08.bks.cpg/sg2_157_cif.got.tgz:312756.got - 2010.06.03 11:33:40.
