data_PCOD9039194
_publ_section_title
;
Structure prediction by ZEFSAII (Michael W. Deem and Ramdas Pophale) SiO2 
 PCOD9039194
Probable space group: P -1
;
_chemical_formula_sum "Si O2"
_cell_formula_units_Z 14
_cell_length_a 12.162600
_cell_length_b 11.157881
_cell_length_c 9.003381
_cell_angle_alpha 42.274070
_cell_angle_beta 48.737241
_cell_angle_gamma 61.849119
_cell_volume 617.501811
_symmetry_space_group_name_H-M "P -1"
_symmetry_group_IT_number 2
_symmetry_cell_setting 'triclinic'
loop_
_space_group_symop_operation_xyz
x,y,z
-x,-y,-z
loop_
_atom_site_type_symbol
_atom_site_label
_atom_site_fract_x
_atom_site_fract_y
_atom_site_fract_z
Si Si1 0.627762 0.885102 0.921409
Si Si2 0.587728 0.163384 0.346068
Si Si3 0.928853 0.248902 0.657109
Si Si4 0.957849 0.663738 0.194648
Si Si5 0.398962 0.710519 0.086918
Si Si6 0.638554 0.670883 0.393921
Si Si7 0.867875 0.055717 0.366929
O O1 0.775041 0.997425 0.647789
O O2 0.548497 0.808561 0.914808
O O3 0.656276 0.728015 0.155907
O O4 0.500000 0.000000 0.000000
O O5 0.496814 0.231897 0.502569
O O6 0.500000 0.000000 0.500000
O O7 0.741874 0.096387 0.323039
O O8 0.599421 0.314499 0.069290
O O9 0.957605 0.449081 0.383541
O O10 0.756832 0.195567 0.837505
O O11 0.967882 0.272992 0.774943
O O12 0.031998 0.104781 0.625769
O O13 0.789926 0.720738 0.296132
O O14 0.033985 0.763129 0.896066
O O15 0.387630 0.535929 0.357912
#
# Coordination Sequence:
#
# PCOD9039194 Si02
#       7
#     2   2   2   2   2   2   2
#     4  12  26  46  63  97 134 179 223 268 339 398
#     4  12  22  40  68 104 128 170 228 275 334 386
#     4  10  23  42  67 103 133 170 220 277 334 394
#     4  10  23  42  67 100 136 172 217 274 337 391
#     4  11  24  44  70  97 130 175 224 281 329 391
#     4  11  25  45  66  96 138 176 221 275 329 401
#     4  12  24  39  70  96 133 174 216 277 329 394
#
# _framework density 22.671997999999999
#
# number of rings (size 3 to 8) (size 9 to 14) (size 15 to 20)
#    0.000    0.857    4.286    2.143    4.000    1.714 
#    2.571    1.429    0.000    0.000    0.000    0.000 
#    0.000    0.000    0.000    0.000    0.000    0.000 
#
# Total GULP energy -78256.728029 kJ/mol
# GULP energy per Si atom -5589.766288 kJ/mol
# Density = 2.262040 g / cm^3
# Si number density = 22.671998 Si / 1000 Ang^3
#
#
#
# Elastic Constant Matrix: (Units=GPa)
#
#
# Indices 1 2 3 4 5 6 
#
# 1 64.0366 21.2285 20.7171 -3.2779 7.6488 -18.4211
# 2 21.2285 60.0890 26.0285 3.9945 2.3515 -33.3434
# 3 20.7171 26.0285 173.5486 8.1302 15.1066 -15.4769
# 4 -3.2779 3.9945 8.1302 24.1693 -7.3491 2.7599
# 5 7.6488 2.3515 15.1066 -7.3491 45.3657 5.1823
# 6 -18.4211 -33.3434 -15.4769 2.7599 5.1823 28.0660
#
#
#
# Elastic Compliance Matrix: (Units=1/GPa)
#
#
# Indices 1 2 3 4 5 6 
#
# 1 0.020660 0.003931 -0.000777 -0.001539 -0.005852 0.019033
# 2 0.003931 0.065610 0.000199 -0.025790 -0.018193 0.086532
# 3 -0.000777 0.000199 0.006679 -0.003868 -0.003231 0.004387
# 4 -0.001539 -0.025790 -0.003868 0.056729 0.016928 -0.042487
# 5 -0.005852 -0.018193 -0.003231 0.016928 0.031762 -0.034766
# 6 0.019033 0.086532 0.004387 -0.042487 -0.034766 0.163943
#
#
# Mechanical properties :
#
#
# Convention : Reuss Voigt Hill
#
# Bulk Modulus (GPa) = 10.03466 48.18029 29.10748
# Shear Modulus (GPa) = 13.44468 34.83353 24.13911
#
# Velocity S-wave (km/s) = 2.43782 3.92396 3.26653
# Velocity P-wave (km/s) = 3.51562 6.46739 5.20513
#
# Compressibility (1/GPa) = 0.09965456
#
# Stress axis : x y z
#
# Youngs Moduli (GPa) = 48.40318 15.24156 149.73210
#
# Poissons Ratio (x) = -0.05991 0.11633
# Poissons Ratio (y) = -0.19025 -0.02985
# Poissons Ratio (z) = 0.03760 -0.00304
#
# Static dielectric constant tensor:
#      x y z
#    x 1.865820 0.016260 0.001500 
#    y 0.016260 1.806690 -0.010830 
#    z 0.001500 -0.010830 1.930030 
# 
# From -- ./inp_files/154081.got.cif
#   From: 2010.05.17/outbox.cif.g08.bks.cpg/sg2_78_cif.got.tgz:154081.got - 2010.06.03 11:33:40.
