data_PCOD9039104
_publ_section_title
;
Structure prediction by ZEFSAII (Michael W. Deem and Ramdas Pophale) SiO2 
 PCOD9039104
Probable space group: P -1
;
_chemical_formula_sum "Si O2"
_cell_formula_units_Z 12
_cell_length_a 13.804520
_cell_length_b 15.073390
_cell_length_c 11.551975
_cell_angle_alpha 26.115730
_cell_angle_beta 148.541166
_cell_angle_gamma 150.329659
_cell_volume 493.638635
_symmetry_space_group_name_H-M "P -1"
_symmetry_group_IT_number 2
_symmetry_cell_setting 'triclinic'
loop_
_space_group_symop_operation_xyz
x,y,z
-x,-y,-z
loop_
_atom_site_type_symbol
_atom_site_label
_atom_site_fract_x
_atom_site_fract_y
_atom_site_fract_z
Si Si1 0.100484 0.558186 0.777802
Si Si2 0.127121 0.860300 0.658063
Si Si3 0.445068 0.105030 0.170053
Si Si4 0.211179 0.313580 0.811524
Si Si5 0.598750 0.766240 0.681707
Si Si6 0.190999 0.949244 0.873762
O O1 0.088091 0.643971 0.794852
O O2 0.342965 0.665836 0.869626
O O3 0.995044 0.673347 0.451761
O O4 0.971601 0.290575 0.956896
O O5 0.230253 0.891056 0.852392
O O6 0.267308 0.069489 0.474051
O O7 0.915377 0.882600 0.437032
O O8 0.500606 0.903113 0.496560
O O9 0.251970 0.122862 0.011445
O O10 0.385105 0.058836 0.027716
O O11 0.400079 0.549644 0.688463
O O12 0.257469 0.294224 0.015486
#
# Coordination Sequence:
#
# PCOD9039104 Si02
#       6
#     2   2   2   2   2   2
#     4  11  23  41  67  97 124 168 210 256 321 371
#     4  10  23  42  66  93 128 171 208 259 318 370
#     4  11  23  41  67  97 124 168 210 256 321 371
#     4  11  22  44  64  96 131 161 214 264 307 378
#     4  10  23  42  66  93 128 171 208 259 318 370
#     4  11  22  44  64  96 131 161 214 264 307 378
#
# _framework density 24.309280999999999
#
# number of rings (size 3 to 8) (size 9 to 14) (size 15 to 20)
#    0.000    1.333    3.333    2.000    0.000    5.333 
#    6.000    5.000    0.000    0.000    0.000    0.000 
#    0.000    0.000    0.000    0.000    0.000    0.000 
#
# Total GULP energy -67190.157339 kJ/mol
# GULP energy per Si atom -5599.179778 kJ/mol
# Density = 2.425395 g / cm^3
# Si number density = 24.309281 Si / 1000 Ang^3
#
#
#
# Elastic Constant Matrix: (Units=GPa)
#
#
# Indices 1 2 3 4 5 6 
#
# 1 43.9908 17.1604 9.7673 1.6662 2.1921 -5.7647
# 2 17.1604 95.7492 28.2953 22.7335 -1.5319 4.6748
# 3 9.7673 28.2953 73.9302 22.2562 7.1278 -4.5968
# 4 1.6662 22.7335 22.2562 43.9544 -8.7401 -1.5117
# 5 2.1921 -1.5319 7.1278 -8.7401 33.3004 0.9484
# 6 -5.7647 4.6748 -4.5968 -1.5117 0.9484 25.9467
#
#
#
# Elastic Compliance Matrix: (Units=1/GPa)
#
#
# Indices 1 2 3 4 5 6 
#
# 1 0.025911 -0.005069 -0.001730 0.002524 -0.001093 0.006550
# 2 -0.005069 0.013837 -0.003337 -0.005349 0.000410 -0.004537
# 3 -0.001730 -0.003337 0.018471 -0.008718 -0.006373 0.003214
# 4 0.002524 -0.005349 -0.008718 0.031828 0.009765 0.001477
# 5 -0.001093 0.000410 -0.006373 0.009765 0.034108 -0.002123
# 6 0.006550 -0.004537 0.003214 0.001477 -0.002123 0.041546
#
#
# Mechanical properties :
#
#
# Convention : Reuss Voigt Hill
#
# Bulk Modulus (GPa) = 26.35379 36.01292 31.18335
# Shear Modulus (GPa) = 25.17335 31.20346 28.18840
#
# Velocity S-wave (km/s) = 3.22148 3.58663 3.40895
# Velocity P-wave (km/s) = 4.97009 5.65672 5.32449
#
# Compressibility (1/GPa) = 0.03794521
#
# Stress axis : x y z
#
# Youngs Moduli (GPa) = 38.59397 72.27143 54.13935
#
# Poissons Ratio (x) = 0.36634 0.09367
# Poissons Ratio (y) = 0.19563 0.18068
# Poissons Ratio (z) = 0.06678 0.24120
#
# Static dielectric constant tensor:
#      x y z
#    x 1.942290 -0.043550 0.012500 
#    y -0.043550 1.909840 -0.017110 
#    z 0.012500 -0.017110 1.932720 
# 
# From -- ./inp_files/203484.got.cif
#   From: 2010.05.17/outbox.cif.g08.bks.cpg/sg2_102_cif.got.tgz:203484.got - 2010.06.03 11:33:40.
