data_PCOD9039971
_publ_section_title
;
Structure prediction by ZEFSAII (Michael W. Deem and Ramdas Pophale) SiO2 
 PCOD9039971
Probable space group: P -1
;
_chemical_formula_sum "Si O2"
_cell_formula_units_Z 16
_cell_length_a 16.257918
_cell_length_b 8.031365
_cell_length_c 11.871550
_cell_angle_alpha 65.802546
_cell_angle_beta 123.959409
_cell_angle_gamma 145.231457
_cell_volume 729.249424
_symmetry_space_group_name_H-M "P -1"
_symmetry_group_IT_number 2
_symmetry_cell_setting 'triclinic'
loop_
_space_group_symop_operation_xyz
x,y,z
-x,-y,-z
loop_
_atom_site_type_symbol
_atom_site_label
_atom_site_fract_x
_atom_site_fract_y
_atom_site_fract_z
Si Si1 0.135735 0.103999 0.718200
Si Si2 0.716563 0.107769 0.436595
Si Si3 0.498847 0.835326 0.134777
Si Si4 0.717042 0.991309 0.709266
Si Si5 0.964320 0.187865 0.518699
Si Si6 0.470025 0.504779 0.845490
Si Si7 0.840291 0.763849 0.868701
Si Si8 0.947879 0.582718 0.853778
O O1 0.024297 0.110883 0.664929
O O2 0.317984 0.417767 0.755776
O O3 0.073844 0.942106 0.597253
O O4 0.109101 0.902875 0.839766
O O5 0.876237 0.461084 0.468223
O O6 0.803406 0.048646 0.476459
O O7 0.591574 0.000009 0.278200
O O8 0.643040 0.959784 0.544368
O O9 0.574577 0.757275 0.167141
O O10 0.314477 0.520806 0.100534
O O11 0.500000 0.000000 0.000000
O O12 0.601836 0.780888 0.785988
O O13 0.801467 0.918853 0.764760
O O14 0.840555 0.324863 0.751221
O O15 0.500000 0.500000 0.000000
O O16 0.859874 0.626965 0.832344
O O17 0.000000 0.000000 0.000000
O O18 0.000000 0.500000 0.000000
#
# Coordination Sequence:
#
# PCOD9039971 Si02
#       8
#     2   2   2   2   2   2   2   2
#     4  11  23  44  68 105 136 189 239 288 361 424
#     4  11  23  48  71 104 143 188 244 299 363 431
#     4  11  28  46  73 102 138 191 238 296 368 439
#     4  11  25  47  71 107 144 192 239 302 362 420
#     4  10  23  42  73 103 139 186 235 300 354 428
#     4  11  26  45  70 102 147 188 234 300 362 425
#     4  11  26  45  69 108 141 189 238 301 356 423
#     4  12  24  42  72 102 142 186 243 292 352 432
#
# _framework density 21.940365
#
# number of rings (size 3 to 8) (size 9 to 14) (size 15 to 20)
#    0.000    1.000    3.750    1.500    7.000    4.000 
#    4.500    1.250    0.000    0.000    0.000    0.000 
#    0.000    0.000    0.000    0.000    0.000    0.000 
#
# Total GULP energy -89268.448832 kJ/mol
# GULP energy per Si atom -5579.278052 kJ/mol
# Density = 2.189043 g / cm^3
# Si number density = 21.940365 Si / 1000 Ang^3
#
#
#
# Elastic Constant Matrix: (Units=GPa)
#
#
# Indices 1 2 3 4 5 6 
#
# 1 87.5993 36.2601 28.7947 -4.9057 2.3619 -1.6410
# 2 36.2601 79.4671 46.9073 -5.0719 -1.4849 9.3328
# 3 28.7947 46.9073 145.0238 -4.2188 -7.3165 8.7580
# 4 -4.9057 -5.0719 -4.2188 37.3013 4.0937 -1.0381
# 5 2.3619 -1.4849 -7.3165 4.0937 30.2330 2.7359
# 6 -1.6410 9.3328 8.7580 -1.0381 2.7359 36.2675
#
#
#
# Elastic Compliance Matrix: (Units=1/GPa)
#
#
# Indices 1 2 3 4 5 6 
#
# 1 0.014551 -0.006274 -0.001096 0.001246 -0.002126 0.002734
# 2 -0.006274 0.018640 -0.004484 0.001031 0.000544 -0.004009
# 3 -0.001096 -0.004484 0.008738 -0.000027 0.002089 -0.001164
# 4 0.001246 0.001031 -0.000027 0.027558 -0.003864 0.000878
# 5 -0.002126 0.000544 0.002089 -0.003864 0.034611 -0.003462
# 6 0.002734 -0.004009 -0.001164 0.000878 -0.003462 0.029296
#
#
# Mechanical properties :
#
#
# Convention : Reuss Voigt Hill
#
# Bulk Modulus (GPa) = 54.87853 59.55715 57.21784
# Shear Modulus (GPa) = 30.64176 34.10226 32.37201
#
# Velocity S-wave (km/s) = 3.74116 3.94676 3.84533
# Velocity P-wave (km/s) = 6.61276 6.92626 6.77133
#
# Compressibility (1/GPa) = 0.01822206
#
# Stress axis : x y z
#
# Youngs Moduli (GPa) = 68.72313 53.64804 114.43982
#
# Poissons Ratio (x) = 0.33658 0.12543
# Poissons Ratio (y) = 0.43116 0.51313
# Poissons Ratio (z) = 0.07532 0.24055
#
# Static dielectric constant tensor:
#      x y z
#    x 1.844200 -0.002870 -0.005670 
#    y -0.002870 1.831130 -0.013720 
#    z -0.005670 -0.013720 1.821930 
# 
# From -- ./inp_files/462002.got.cif
#   From: 2010.05.17/outbox.cif.g08.bks.cpg/sg2_232_cif.got.tgz:462002.got - 2010.06.03 11:33:40.
