data_PCOD9039576
_publ_section_title
;
Structure prediction by ZEFSAII (Michael W. Deem and Ramdas Pophale) SiO2 
 PCOD9039576
Probable space group: P -1
;
_chemical_formula_sum "Si O2"
_cell_formula_units_Z 14
_cell_length_a 20.708212
_cell_length_b 10.756747
_cell_length_c 12.545390
_cell_angle_alpha 23.651363
_cell_angle_beta 146.860723
_cell_angle_gamma 147.143832
_cell_volume 577.894506
_symmetry_space_group_name_H-M "P -1"
_symmetry_group_IT_number 2
_symmetry_cell_setting 'triclinic'
loop_
_space_group_symop_operation_xyz
x,y,z
-x,-y,-z
loop_
_atom_site_type_symbol
_atom_site_label
_atom_site_fract_x
_atom_site_fract_y
_atom_site_fract_z
Si Si1 0.234589 0.969289 0.632029
Si Si2 0.636144 0.274374 0.473294
Si Si3 0.087651 0.347157 0.808539
Si Si4 0.778717 0.780763 0.105907
Si Si5 0.422427 0.254101 0.494677
Si Si6 0.985158 0.853419 0.712722
Si Si7 0.446684 0.237376 0.885291
O O1 0.151504 0.591519 0.800389
O O2 0.289035 0.085713 0.497675
O O3 0.146510 0.161225 0.405538
O O4 0.351363 0.028823 0.826843
O O5 0.686851 0.451920 0.292240
O O6 0.627626 0.575241 0.296648
O O7 0.500000 0.000000 0.500000
O O8 0.724017 0.079876 0.791818
O O9 0.188112 0.295566 0.906607
O O10 0.000000 0.500000 0.500000
O O11 0.000000 0.000000 0.000000
O O12 0.905363 0.908794 0.249504
O O13 0.500000 0.500000 0.500000
O O14 0.441008 0.478852 0.240480
O O15 0.495550 0.993633 0.787582
O O16 0.000000 0.000000 0.500000
O O17 0.000000 0.500000 0.000000
#
# Coordination Sequence:
#
# PCOD9039576 Si02
#       7
#     2   2   2   2   2   2   2
#     4  11  25  45  74 101 142 186 240 296 365 421
#     4  12  28  48  77 104 152 195 241 300 370 437
#     4  12  28  47  73 107 146 193 242 294 366 440
#     4  12  26  51  70 109 150 190 249 301 359 443
#     4  10  23  42  69 105 141 177 235 300 359 421
#     4  12  27  45  76 106 142 191 242 302 368 429
#     4  11  24  45  70 109 139 186 243 297 357 429
#
# _framework density 24.225873
#
# number of rings (size 3 to 8) (size 9 to 14) (size 15 to 20)
#    0.000    0.571    1.429    6.429    6.000    8.000 
#    0.000    0.000    0.000    0.000    0.000    0.000 
#    0.000    0.000    0.000    0.000    0.000    0.000 
#
# Total GULP energy -78551.362326 kJ/mol
# GULP energy per Si atom -5610.811595 kJ/mol
# Density = 2.417073 g / cm^3
# Si number density = 24.225873 Si / 1000 Ang^3
#
#
#
# Elastic Constant Matrix: (Units=GPa)
#
#
# Indices 1 2 3 4 5 6 
#
# 1 89.4662 44.0199 27.6381 3.2159 -2.2565 18.0997
# 2 44.0199 122.5061 51.8683 -12.3721 1.8015 -0.0062
# 3 27.6381 51.8683 144.8318 -4.0994 -4.7786 8.8751
# 4 3.2159 -12.3721 -4.0994 36.6532 16.0109 -4.6822
# 5 -2.2565 1.8015 -4.7786 16.0109 38.6263 -3.5801
# 6 18.0997 -0.0062 8.8751 -4.6822 -3.5801 41.1681
#
#
#
# Elastic Compliance Matrix: (Units=1/GPa)
#
#
# Indices 1 2 3 4 5 6 
#
# 1 0.016174 -0.006243 -0.000465 -0.005789 0.002890 -0.007419
# 2 -0.006243 0.012604 -0.003501 0.006543 -0.003734 0.003921
# 3 -0.000465 -0.003501 0.008363 -0.001045 0.001456 -0.001591
# 4 -0.005789 0.006543 -0.001045 0.037505 -0.015794 0.005663
# 5 0.002890 -0.003734 0.001456 -0.015794 0.032911 -0.000519
# 6 -0.007419 0.003921 -0.001591 0.005663 -0.000519 0.028495
#
#
# Mechanical properties :
#
#
# Convention : Reuss Voigt Hill
#
# Bulk Modulus (GPa) = 59.79069 67.09521 63.44295
# Shear Modulus (GPa) = 30.85595 38.84136 34.84866
#
# Velocity S-wave (km/s) = 3.57273 4.00847 3.79686
# Velocity P-wave (km/s) = 6.46168 7.01281 6.74288
#
# Compressibility (1/GPa) = 0.01672501
#
# Stress axis : x y z
#
# Youngs Moduli (GPa) = 61.82613 79.33908 119.57426
#
# Poissons Ratio (x) = 0.49528 0.05557
# Poissons Ratio (y) = 0.38596 0.41862
# Poissons Ratio (z) = 0.02873 0.27776
#
# Static dielectric constant tensor:
#      x y z
#    x 1.934220 0.004760 0.004960 
#    y 0.004760 1.930530 0.011360 
#    z 0.004960 0.011360 1.891270 
# 
# From -- ./inp_files/541038.got.cif
#   From: 2010.05.17/outbox.cif.g08.bks.cpg/sg2_271_cif.got.tgz:541038.got - 2010.06.03 11:33:40.
