data_PCOD9039399
_publ_section_title
;
Structure prediction by ZEFSAII (Michael W. Deem and Ramdas Pophale) SiO2 
 PCOD9039399
Probable space group: P -1
;
_chemical_formula_sum "Si O2"
_cell_formula_units_Z 12
_cell_length_a 8.249941
_cell_length_b 15.329311
_cell_length_c 20.402098
_cell_angle_alpha 17.092488
_cell_angle_beta 139.943171
_cell_angle_gamma 130.173375
_cell_volume 434.015637
_symmetry_space_group_name_H-M "P -1"
_symmetry_group_IT_number 2
_symmetry_cell_setting 'triclinic'
loop_
_space_group_symop_operation_xyz
x,y,z
-x,-y,-z
loop_
_atom_site_type_symbol
_atom_site_label
_atom_site_fract_x
_atom_site_fract_y
_atom_site_fract_z
Si Si1 0.176760 0.592506 0.669001
Si Si2 0.647631 0.558446 0.743473
Si Si3 0.555337 0.750064 0.886611
Si Si4 0.830866 0.349865 0.655565
Si Si5 0.005481 0.864861 0.675031
Si Si6 0.716307 0.135881 0.946583
O O1 0.428450 0.496692 0.763585
O O2 0.922355 0.603981 0.538049
O O3 0.183157 0.378335 0.890328
O O4 0.169379 0.898711 0.489611
O O5 0.772223 0.301989 0.907927
O O6 0.911594 0.578392 0.845862
O O7 0.485946 0.931710 0.394994
O O8 0.318973 0.806422 0.827877
O O9 0.500000 0.500000 0.000000
O O10 0.493971 0.551988 0.390552
O O11 0.000000 0.000000 0.000000
O O12 0.006108 0.186011 0.761211
O O13 0.000000 0.000000 0.500000
O O14 0.500000 0.000000 0.000000
#
# Coordination Sequence:
#
# PCOD9039399 Si02
#       6
#     2   2   2   2   2   2
#     4  12  25  46  71 106 143 191 252 304 379 458
#     4  11  25  46  74 103 147 192 249 314 376 453
#     4  11  24  45  69 105 148 191 245 311 381 451
#     4  12  29  49  81 110 155 202 259 319 381 458
#     4  10  23  42  68 103 139 184 242 304 375 437
#     4  12  27  53  74 114 153 200 258 316 383 450
#
# _framework density 27.648772000000001
#
# number of rings (size 3 to 8) (size 9 to 14) (size 15 to 20)
#    0.000    0.667    5.000    2.500    7.000    2.000 
#    0.000    0.000    0.000    0.000    0.000    0.000 
#    0.000    0.000    0.000    0.000    0.000    0.000 
#
# Total GULP energy -66968.384490 kJ/mol
# GULP energy per Si atom -5580.698708 kJ/mol
# Density = 2.758584 g / cm^3
# Si number density = 27.648772 Si / 1000 Ang^3
#
#
#
# Elastic Constant Matrix: (Units=GPa)
#
#
# Indices 1 2 3 4 5 6 
#
# 1 95.9401 29.7168 19.8478 7.4936 10.0540 -6.1749
# 2 29.7168 191.4825 26.4122 -12.8144 0.8969 -36.7985
# 3 19.8478 26.4122 116.5514 9.7389 -7.0031 -17.5278
# 4 7.4936 -12.8144 9.7389 34.1458 -5.0584 4.3611
# 5 10.0540 0.8969 -7.0031 -5.0584 44.7301 -6.4870
# 6 -6.1749 -36.7985 -17.5278 4.3611 -6.4870 44.7038
#
#
#
# Elastic Compliance Matrix: (Units=1/GPa)
#
#
# Indices 1 2 3 4 5 6 
#
# 1 0.011937 -0.001985 -0.001630 -0.003300 -0.003387 -0.000794
# 2 -0.001985 0.006739 -0.000593 0.002684 0.001241 0.004959
# 3 -0.001630 -0.000593 0.009927 -0.002859 0.002156 0.003771
# 4 -0.003300 0.002684 -0.002859 0.032630 0.003637 -0.002022
# 5 -0.003387 0.001241 0.002156 0.003637 0.024509 0.004601
# 6 -0.000794 0.004959 0.003771 -0.002022 0.004601 0.028685
#
#
# Mechanical properties :
#
#
# Convention : Reuss Voigt Hill
#
# Bulk Modulus (GPa) = 49.53785 61.76975 55.65380
# Shear Modulus (GPa) = 38.58829 46.58244 42.58536
#
# Velocity S-wave (km/s) = 3.73991 4.10908 3.92883
# Velocity P-wave (km/s) = 6.05020 6.70090 6.38385
#
# Compressibility (1/GPa) = 0.02018658
#
# Stress axis : x y z
#
# Youngs Moduli (GPa) = 83.77402 148.38740 100.73163
#
# Poissons Ratio (x) = 0.29459 0.16419
# Poissons Ratio (y) = 0.16631 0.05975
# Poissons Ratio (z) = 0.13655 0.08801
#
# Static dielectric constant tensor:
#      x y z
#    x 1.687240 -0.783600 -1.614290 
#    y -0.783600 1.001160 -2.197760 
#    z -1.614290 -2.197760 -2.247470 
# 
# From -- ./inp_files/590208.got.cif
#   From: 2010.05.17/outbox.cif.g08.bks.cpg/sg2_296_cif.got.tgz:590208.got - 2010.06.03 11:33:40.
