data_PCOD9039404
_publ_section_title
;
Structure prediction by ZEFSAII (Michael W. Deem and Ramdas Pophale) SiO2 
 PCOD9039404
Probable space group: P -1
;
_chemical_formula_sum "Si O2"
_cell_formula_units_Z 16
_cell_length_a 11.638470
_cell_length_b 5.385727
_cell_length_c 12.577810
_cell_angle_alpha 85.054741
_cell_angle_beta 121.220168
_cell_angle_gamma 99.610381
_cell_volume 664.761040
_symmetry_space_group_name_H-M "P -1"
_symmetry_group_IT_number 2
_symmetry_cell_setting 'triclinic'
loop_
_space_group_symop_operation_xyz
x,y,z
-x,-y,-z
loop_
_atom_site_type_symbol
_atom_site_label
_atom_site_fract_x
_atom_site_fract_y
_atom_site_fract_z
Si Si1 0.967729 0.283481 0.579369
Si Si2 0.217396 0.116789 0.638112
Si Si3 0.141701 0.021881 0.215887
Si Si4 0.100100 0.340824 0.985591
Si Si5 0.495547 0.996466 0.801435
Si Si6 0.225722 0.410193 0.423909
Si Si7 0.602011 0.500437 0.948192
Si Si8 0.584396 0.195259 0.613272
O O1 0.884272 0.397967 0.625858
O O2 0.000000 0.500000 0.500000
O O3 0.111972 0.192765 0.671438
O O4 0.869204 0.075045 0.476351
O O5 0.336216 0.986968 0.750419
O O6 0.258727 0.343331 0.564349
O O7 0.155196 0.183066 0.325006
O O8 0.269783 0.877219 0.282612
O O9 0.163156 0.206039 0.118783
O O10 0.999980 0.851785 0.127308
O O11 0.232527 0.450135 0.975433
O O12 0.000000 0.500000 0.000000
O O13 0.573405 0.213506 0.903967
O O14 0.505059 0.132736 0.686192
O O15 0.550051 0.728844 0.845567
O O16 0.363100 0.537647 0.427598
O O17 0.500000 0.500000 0.000000
O O18 0.500000 0.000000 0.500000
#
# Coordination Sequence:
#
# PCOD9039404 Si02
#       8
#     2   2   2   2   2   2   2   2
#     4   9  20  41  63  94 153 191 247 298 369 453
#     4  10  23  42  68 103 148 205 240 311 380 478
#     4  11  23  43  71 111 143 197 251 321 391 454
#     4  11  25  49  79 105 149 198 265 333 390 457
#     4  12  27  50  79 106 156 201 257 321 405 469
#     4  11  22  40  67 110 151 189 255 308 382 473
#     4  12  29  56  79 113 153 205 271 335 404 475
#     4  12  26  43  74 113 159 200 249 314 398 485
#
# _framework density 24.068798999999999
#
# number of rings (size 3 to 8) (size 9 to 14) (size 15 to 20)
#    0.000    1.000    1.250    4.875    7.000    1.000 
#   11.250    0.000    0.000    0.000    0.000    0.000 
#    0.000    0.000    0.000    0.000    0.000    0.000 
#
# Total GULP energy -89274.742374 kJ/mol
# GULP energy per Si atom -5579.671398 kJ/mol
# Density = 2.401402 g / cm^3
# Si number density = 24.068799 Si / 1000 Ang^3
#
#
#
# Elastic Constant Matrix: (Units=GPa)
#
#
# Indices 1 2 3 4 5 6 
#
# 1 162.2395 25.6544 26.9266 1.3941 24.6472 -4.8498
# 2 25.6544 54.2885 5.0060 -3.5602 5.3253 6.8944
# 3 26.9266 5.0060 44.3536 11.8983 6.3837 8.9927
# 4 1.3941 -3.5602 11.8983 31.5244 -4.6057 0.3686
# 5 24.6472 5.3253 6.3837 -4.6057 42.8881 -7.6920
# 6 -4.8498 6.8944 8.9927 0.3686 -7.6920 39.2426
#
#
#
# Elastic Compliance Matrix: (Units=1/GPa)
#
#
# Indices 1 2 3 4 5 6 
#
# 1 0.007959 -0.003257 -0.004569 0.000532 -0.003075 0.001995
# 2 -0.003257 0.020779 0.000063 0.002336 -0.001244 -0.004333
# 3 -0.004569 0.000063 0.030972 -0.012085 -0.004815 -0.008503
# 4 0.000532 0.002336 -0.012085 0.037331 0.005787 0.003208
# 5 -0.003075 -0.001244 -0.004815 0.005787 0.027709 0.006319
# 6 0.001995 -0.004333 -0.008503 0.003208 0.006319 0.029647
#
#
# Mechanical properties :
#
#
# Convention : Reuss Voigt Hill
#
# Bulk Modulus (GPa) = 22.63271 41.78397 32.20834
# Shear Modulus (GPa) = 27.07809 36.28399 31.68104
#
# Velocity S-wave (km/s) = 3.35778 3.88688 3.63198
# Velocity P-wave (km/s) = 4.94537 6.12713 5.56769
#
# Compressibility (1/GPa) = 0.04418383
#
# Stress axis : x y z
#
# Youngs Moduli (GPa) = 125.64093 48.12592 32.28752
#
# Poissons Ratio (x) = 0.15673 0.14753
# Poissons Ratio (y) = 0.40918 -0.00203
# Poissons Ratio (z) = 0.57407 -0.00303
#
# Static dielectric constant tensor:
#      x y z
#    x 2.057100 0.014420 -0.066620 
#    y 0.014420 2.029540 -0.074630 
#    z -0.066620 -0.074630 1.905740 
# 
# From -- ./inp_files/410635.got.cif
#   From: 2010.05.17/outbox.cif.g08.bks.cpg/sg2_206_cif.got.tgz:410635.got - 2010.06.03 11:33:40.
