data_PCOD9039494
_publ_section_title
;
Structure prediction by ZEFSAII (Michael W. Deem and Ramdas Pophale) SiO2 
 PCOD9039494
Probable space group: P -1
;
_chemical_formula_sum "Si O2"
_cell_formula_units_Z 12
_cell_length_a 10.296428
_cell_length_b 20.315673
_cell_length_c 7.547004
_cell_angle_alpha 51.542702
_cell_angle_beta 38.775977
_cell_angle_gamma 30.810744
_cell_volume 500.793680
_symmetry_space_group_name_H-M "P -1"
_symmetry_group_IT_number 2
_symmetry_cell_setting 'triclinic'
loop_
_space_group_symop_operation_xyz
x,y,z
-x,-y,-z
loop_
_atom_site_type_symbol
_atom_site_label
_atom_site_fract_x
_atom_site_fract_y
_atom_site_fract_z
Si Si1 0.158053 0.147574 0.073537
Si Si2 0.441664 0.357496 0.618300
Si Si3 0.724893 0.408848 0.698228
Si Si4 0.498227 0.299218 0.039126
Si Si5 0.852753 0.863066 0.315494
Si Si6 0.862630 0.661769 0.312908
O O1 0.822282 0.225818 0.392963
O O2 0.096595 0.151009 0.925174
O O3 0.210131 0.231420 0.897231
O O4 0.500000 0.000000 0.000000
O O5 0.391839 0.473440 0.476904
O O6 0.353086 0.344959 0.922131
O O7 0.214465 0.390381 0.650906
O O8 0.497939 0.397550 0.938705
O O9 0.046306 0.262633 0.523860
O O10 0.820436 0.409683 0.793175
O O11 0.875801 0.162574 0.845941
O O12 0.363346 0.288068 0.362244
O O13 0.500000 0.000000 0.500000
#
# Coordination Sequence:
#
# PCOD9039494 Si02
#       6
#     2   2   2   2   2   2
#     4  11  25  45  69  97 135 179 227 277 343 403
#     4  12  23  44  70 104 133 179 227 276 336 407
#     4   9  23  41  70  97 141 179 219 276 339 396
#     4  10  23  42  68  98 139 175 224 276 335 396
#     4   9  19  42  64  92 132 177 217 269 329 390
#     4  11  23  44  67 102 137 174 222 288 333 399
#
# _framework density 23.961963999999998
#
# number of rings (size 3 to 8) (size 9 to 14) (size 15 to 20)
#    1.000    0.667    1.667    2.000    0.000   10.000 
#    3.000    4.167    0.000    0.000    0.000    0.000 
#    0.000    0.000    0.000    0.000    0.000    0.000 
#
# Total GULP energy -66950.576413 kJ/mol
# GULP energy per Si atom -5579.214701 kJ/mol
# Density = 2.390743 g / cm^3
# Si number density = 23.961964 Si / 1000 Ang^3
#
#
#
# Elastic Constant Matrix: (Units=GPa)
#
#
# Indices 1 2 3 4 5 6 
#
# 1 85.4923 17.4725 36.6856 22.9280 -1.9126 -14.2807
# 2 17.4725 128.9873 26.1678 24.1783 -7.9951 -20.3630
# 3 36.6856 26.1678 86.0630 17.9158 -7.8239 -6.3471
# 4 22.9280 24.1783 17.9158 30.4867 -1.2594 -0.5192
# 5 -1.9126 -7.9951 -7.8239 -1.2594 43.0516 2.9694
# 6 -14.2807 -20.3630 -6.3471 -0.5192 2.9694 36.2709
#
#
#
# Elastic Compliance Matrix: (Units=1/GPa)
#
#
# Indices 1 2 3 4 5 6 
#
# 1 0.017912 0.001942 -0.005304 -0.011800 -0.000642 0.007098
# 2 0.001942 0.010485 -0.001666 -0.008649 0.001053 0.006150
# 3 -0.005304 -0.001666 0.015290 -0.003595 0.002168 -0.000577
# 4 -0.011800 -0.008649 -0.003595 0.050461 -0.000662 -0.009354
# 5 -0.000642 0.001053 0.002168 -0.000662 0.023856 -0.001244
# 6 0.007098 0.006150 -0.000577 -0.009354 -0.001244 0.033685
#
#
# Mechanical properties :
#
#
# Convention : Reuss Voigt Hill
#
# Bulk Modulus (GPa) = 29.73476 51.24383 40.48929
# Shear Modulus (GPa) = 28.90936 36.64295 32.77615
#
# Velocity S-wave (km/s) = 3.47719 3.91476 3.70245
# Velocity P-wave (km/s) = 5.34390 6.47037 5.93393
#
# Compressibility (1/GPa) = 0.03363068
#
# Stress axis : x y z
#
# Youngs Moduli (GPa) = 55.82809 95.37514 65.40236
#
# Poissons Ratio (x) = -0.18526 0.34692
# Poissons Ratio (y) = -0.10844 0.10898
# Poissons Ratio (z) = 0.29613 0.15892
#
# Static dielectric constant tensor:
#      x y z
#    x 1.932700 -0.034350 -0.041570 
#    y -0.034350 2.004820 0.050760 
#    z -0.041570 0.050760 1.993200 
# 
# From -- ./inp_files/283559.got.cif
#   From: 2010.05.17/outbox.cif.g08.bks.cpg/sg2_142_cif.got.tgz:283559.got - 2010.06.03 11:33:40.
