data_PCOD9039071
_publ_section_title
;
Structure prediction by ZEFSAII (Michael W. Deem and Ramdas Pophale) SiO2 
 PCOD9039071
Probable space group: P -1
;
_chemical_formula_sum "Si O2"
_cell_formula_units_Z 16
_cell_length_a 6.416681
_cell_length_b 16.464571
_cell_length_c 11.141156
_cell_angle_alpha 130.382820
_cell_angle_beta 70.879342
_cell_angle_gamma 126.991460
_cell_volume 712.367415
_symmetry_space_group_name_H-M "P -1"
_symmetry_group_IT_number 2
_symmetry_cell_setting 'triclinic'
loop_
_space_group_symop_operation_xyz
x,y,z
-x,-y,-z
loop_
_atom_site_type_symbol
_atom_site_label
_atom_site_fract_x
_atom_site_fract_y
_atom_site_fract_z
Si Si1 0.900820 0.116211 0.754013
Si Si2 0.451496 0.073158 0.975311
Si Si3 0.395374 0.708254 0.499183
Si Si4 0.932616 0.527795 0.230854
Si Si5 0.007966 0.097021 0.457106
Si Si6 0.800046 0.596496 0.073745
Si Si7 0.503642 0.670277 0.701791
Si Si8 0.914093 0.170142 0.296328
O O1 0.659102 0.100121 0.857233
O O2 0.841379 0.072859 0.584615
O O3 0.116718 0.264662 0.850403
O O4 0.000939 0.029121 0.701348
O O5 0.170203 0.963229 0.873113
O O6 0.485685 0.202679 0.136847
O O7 0.500000 0.000000 0.000000
O O8 0.684785 0.797583 0.476170
O O9 0.412330 0.640940 0.551667
O O10 0.304421 0.798914 0.652574
O O11 0.181082 0.621418 0.357411
O O12 0.854926 0.589754 0.198689
O O13 0.687641 0.442948 0.283135
O O14 0.016400 0.440802 0.064887
O O15 0.929476 0.152031 0.416985
O O16 0.500000 0.500000 0.000000
O O17 0.806813 0.714998 0.691523
#
# Coordination Sequence:
#
# PCOD9039071 Si02
#       8
#     2   2   2   2   2   2   2   2
#     4  11  22  44  68  95 133 173 212 276 332 381
#     4  12  22  42  66  95 133 169 213 272 328 388
#     4  11  22  44  66  96 140 170 215 280 320 390
#     4  11  25  43  66  98 130 177 227 263 325 394
#     4  10  23  42  66 103 129 168 224 265 333 397
#     4  11  25  45  66  95 135 175 219 277 320 388
#     4  11  24  42  67  98 133 175 223 265 328 395
#     4  11  23  41  68  96 131 174 213 274 331 385
#
# _framework density 22.460318999999998
#
# number of rings (size 3 to 8) (size 9 to 14) (size 15 to 20)
#    0.000    1.000    3.750    3.000    0.000    5.000 
#    4.500    0.000    0.000    0.000    0.000    0.000 
#    0.000    0.000    0.000    0.000    0.000    0.000 
#
# Total GULP energy -89496.577227 kJ/mol
# GULP energy per Si atom -5593.536077 kJ/mol
# Density = 2.240920 g / cm^3
# Si number density = 22.460319 Si / 1000 Ang^3
#
#
#
# Elastic Constant Matrix: (Units=GPa)
#
#
# Indices 1 2 3 4 5 6 
#
# 1 51.3652 31.5819 21.1969 -10.0003 9.0799 12.6026
# 2 31.5819 126.9850 26.6849 -7.6288 15.5155 1.7528
# 3 21.1969 26.6849 91.4366 -0.8283 10.0532 2.6387
# 4 -10.0003 -7.6288 -0.8283 41.9467 4.1516 -4.7726
# 5 9.0799 15.5155 10.0532 4.1516 44.1899 3.3507
# 6 12.6026 1.7528 2.6387 -4.7726 3.3507 11.3375
#
#
#
# Elastic Compliance Matrix: (Units=1/GPa)
#
#
# Indices 1 2 3 4 5 6 
#
# 1 0.035249 -0.006883 -0.004972 0.003176 -0.001322 -0.035233
# 2 -0.006883 0.010144 -0.001293 0.001307 -0.002559 0.007690
# 3 -0.004972 -0.001293 0.012544 -0.000682 -0.001540 0.002975
# 4 0.003176 0.001307 -0.000682 0.026210 -0.004076 0.008665
# 5 -0.001322 -0.002559 -0.001540 -0.004076 0.025056 -0.006898
# 6 -0.035233 0.007690 0.002975 0.008665 -0.006898 0.131172
#
#
# Mechanical properties :
#
#
# Convention : Reuss Voigt Hill
#
# Bulk Modulus (GPa) = 31.60609 47.63490 39.62050
# Shear Modulus (GPa) = 18.03643 32.18304 25.10974
#
# Velocity S-wave (km/s) = 2.83686 3.78945 3.34722
# Velocity P-wave (km/s) = 4.98326 6.35619 5.71113
#
# Compressibility (1/GPa) = 0.03163947
#
# Stress axis : x y z
#
# Youngs Moduli (GPa) = 28.36988 98.58420 79.72071
#
# Poissons Ratio (x) = 0.67857 0.39635
# Poissons Ratio (y) = 0.19527 0.10311
# Poissons Ratio (z) = 0.14105 0.12751
#
# Static dielectric constant tensor:
#      x y z
#    x 1.800760 -0.004690 0.002600 
#    y -0.004690 1.792130 0.010290 
#    z 0.002600 0.010290 1.894920 
# 
# From -- ./inp_files/78630.got.cif
#   From: 2010.05.17/outbox.cif.g08.bks.cpg/sg2_40_cif.got.tgz:78630.got - 2010.06.03 11:33:40.
