data_PCOD9039698
_publ_section_title
;
Structure prediction by ZEFSAII (Michael W. Deem and Ramdas Pophale) SiO2 
 PCOD9039698
Probable space group: P -1
;
_chemical_formula_sum "Si O2"
_cell_formula_units_Z 12
_cell_length_a 10.179704
_cell_length_b 8.269753
_cell_length_c 7.923598
_cell_angle_alpha 126.276675
_cell_angle_beta 85.339807
_cell_angle_gamma 106.639347
_cell_volume 511.858958
_symmetry_space_group_name_H-M "P -1"
_symmetry_group_IT_number 2
_symmetry_cell_setting 'triclinic'
loop_
_space_group_symop_operation_xyz
x,y,z
-x,-y,-z
loop_
_atom_site_type_symbol
_atom_site_label
_atom_site_fract_x
_atom_site_fract_y
_atom_site_fract_z
Si Si1 0.342230 0.282697 0.305513
Si Si2 0.079859 0.715998 0.226689
Si Si3 0.163934 0.470108 0.655847
Si Si4 0.433764 0.588340 0.904054
Si Si5 0.879247 0.085568 0.005190
Si Si6 0.387038 0.942654 0.331864
O O1 0.238691 0.412666 0.450241
O O2 0.477280 0.409310 0.270747
O O3 0.369126 0.154209 0.385396
O O4 0.261413 0.099303 0.072236
O O5 0.240400 0.777354 0.302660
O O6 0.978448 0.701942 0.384957
O O7 0.093328 0.881646 0.178212
O O8 0.000000 0.500000 0.000000
O O9 0.274177 0.481517 0.803687
O O10 0.134811 0.695415 0.787106
O O11 0.500000 0.500000 0.000000
O O12 0.437372 0.822048 0.101643
O O13 0.000000 0.000000 0.000000
O O14 0.500000 0.000000 0.500000
#
# Coordination Sequence:
#
# PCOD9039698 Si02
#       6
#     2   2   2   2   2   2
#     4  11  25  46  67 101 148 185 235 295 355 420
#     4   9  19  43  71  96 142 180 232 289 353 415
#     4  11  23  45  71 101 142 183 234 294 350 433
#     4  12  25  44  70 101 144 190 235 295 355 422
#     4  10  23  42  70 102 138 185 232 295 357 416
#     4  11  23  44  72 106 139 189 240 292 356 424
#
# _framework density 23.443959
#
# number of rings (size 3 to 8) (size 9 to 14) (size 15 to 20)
#    0.000    1.333    5.000    2.000    2.333    3.333 
#    3.000    0.000    0.000    0.000    0.000    0.000 
#    0.000    0.000    0.000    0.000    0.000    0.000 
#
# Total GULP energy -67029.202521 kJ/mol
# GULP energy per Si atom -5585.766877 kJ/mol
# Density = 2.339060 g / cm^3
# Si number density = 23.443959 Si / 1000 Ang^3
#
#
#
# Elastic Constant Matrix: (Units=GPa)
#
#
# Indices 1 2 3 4 5 6 
#
# 1 173.3917 73.1858 48.7071 0.0979 -3.0907 21.5918
# 2 73.1858 69.6814 37.5805 9.3287 -9.0167 14.7701
# 3 48.7071 37.5805 98.5676 7.7697 -29.4533 14.6138
# 4 0.0979 9.3287 7.7697 30.6535 0.3139 -6.5897
# 5 -3.0907 -9.0167 -29.4533 0.3139 60.7432 0.5757
# 6 21.5918 14.7701 14.6138 -6.5897 0.5757 52.0128
#
#
#
# Elastic Compliance Matrix: (Units=1/GPa)
#
#
# Indices 1 2 3 4 5 6 
#
# 1 0.011111 -0.011273 -0.002092 0.003881 -0.002140 -0.000308
# 2 -0.011273 0.030837 -0.004256 -0.009164 0.002026 -0.004065
# 3 -0.002092 -0.004256 0.015513 -0.003296 0.006827 -0.002775
# 4 0.003881 -0.009164 -0.003296 0.037712 -0.003020 0.006729
# 5 -0.002140 0.002026 0.006827 -0.003020 0.020002 -0.002209
# 6 -0.000308 -0.004065 -0.002775 0.006729 -0.002209 0.022165
#
#
# Mechanical properties :
#
#
# Convention : Reuss Voigt Hill
#
# Bulk Modulus (GPa) = 45.00689 73.39861 59.20275
# Shear Modulus (GPa) = 27.77968 40.82640 34.30304
#
# Velocity S-wave (km/s) = 3.44603 4.17759 3.82932
# Velocity P-wave (km/s) = 5.92223 7.39228 6.69771
#
# Compressibility (1/GPa) = 0.02221882
#
# Stress axis : x y z
#
# Youngs Moduli (GPa) = 90.00073 32.42894 64.46117
#
# Poissons Ratio (x) = 0.36556 0.13487
# Poissons Ratio (y) = 1.01454 0.27436
# Poissons Ratio (z) = 0.18830 0.13803
#
# Static dielectric constant tensor:
#      x y z
#    x 2.055560 0.082740 0.091880 
#    y 0.082740 1.910200 0.048910 
#    z 0.091880 0.048910 2.005160 
# 
# From -- ./inp_files/160327.got.cif
#   From: 2010.05.17/outbox.cif.g08.bks.cpg/sg2_81_cif.got.tgz:160327.got - 2010.06.03 11:33:40.
