data_PCOD9039331
_publ_section_title
;
Structure prediction by ZEFSAII (Michael W. Deem and Ramdas Pophale) SiO2 
 PCOD9039331
Probable space group: P -1
;
_chemical_formula_sum "Si O2"
_cell_formula_units_Z 16
_cell_length_a 12.158358
_cell_length_b 12.568201
_cell_length_c 11.938159
_cell_angle_alpha 25.658615
_cell_angle_beta 123.750693
_cell_angle_gamma 119.937561
_cell_volume 656.778990
_symmetry_space_group_name_H-M "P -1"
_symmetry_group_IT_number 2
_symmetry_cell_setting 'triclinic'
loop_
_space_group_symop_operation_xyz
x,y,z
-x,-y,-z
loop_
_atom_site_type_symbol
_atom_site_label
_atom_site_fract_x
_atom_site_fract_y
_atom_site_fract_z
Si Si1 0.009319 0.634840 0.558329
Si Si2 0.403013 0.815071 0.061489
Si Si3 0.151930 0.945979 0.907260
Si Si4 0.154071 0.747952 0.318480
Si Si5 0.937647 0.632698 0.946882
Si Si6 0.476878 0.766375 0.788833
Si Si7 0.677114 0.920511 0.459910
Si Si8 0.553841 0.480519 0.304592
O O1 0.100703 0.782772 0.381007
O O2 0.947593 0.420807 0.650144
O O3 0.092020 0.544803 0.796678
O O4 0.881389 0.773161 0.407163
O O5 0.281489 0.788021 0.102419
O O6 0.334592 0.957407 0.783832
O O7 0.490092 0.590848 0.277183
O O8 0.500000 0.000000 0.000000
O O9 0.039252 0.813760 0.895675
O O10 0.154735 0.973500 0.018781
O O11 0.300503 0.632517 0.511187
O O12 0.809431 0.774543 0.697087
O O13 0.000000 0.500000 0.000000
O O14 0.500000 0.000000 0.500000
O O15 0.337343 0.850393 0.681075
O O16 0.500000 0.500000 0.000000
O O17 0.556867 0.715060 0.998478
O O18 0.554086 0.730502 0.585890
#
# Coordination Sequence:
#
# PCOD9039331 Si02
#       8
#     2   2   2   2   2   2   2   2
#     4  10  23  43  66  96 134 177 239 289 361 429
#     4  11  24  41  67 100 138 185 238 302 366 432
#     4  11  23  43  67  95 135 185 234 300 356 429
#     4  10  23  42  67  98 133 178 233 296 361 431
#     4  11  25  43  67  99 139 189 238 299 356 436
#     4  11  24  46  69 101 146 192 240 294 365 437
#     4  11  25  43  67 106 142 186 246 297 363 441
#     4  11  24  41  68 103 141 185 236 299 360 436
#
# _framework density 24.361315000000001
#
# number of rings (size 3 to 8) (size 9 to 14) (size 15 to 20)
#    0.000    1.250    1.250    3.375    1.750   10.000 
#    0.000    0.000    0.000    0.000    0.000    0.000 
#    0.000    0.000    0.000    0.000    0.000    0.000 
#
# Total GULP energy -89219.146587 kJ/mol
# GULP energy per Si atom -5576.196662 kJ/mol
# Density = 2.430587 g / cm^3
# Si number density = 24.361315 Si / 1000 Ang^3
#
#
#
# Elastic Constant Matrix: (Units=GPa)
#
#
# Indices 1 2 3 4 5 6 
#
# 1 94.1416 40.9910 47.9601 14.6385 29.8191 -16.3761
# 2 40.9910 90.0224 20.3548 -6.6352 9.4906 -20.7364
# 3 47.9601 20.3548 116.2442 3.8777 34.0637 -11.2460
# 4 14.6385 -6.6352 3.8777 38.9192 -2.3221 6.4763
# 5 29.8191 9.4906 34.0637 -2.3221 54.8949 -2.2990
# 6 -16.3761 -20.7364 -11.2460 6.4763 -2.2990 45.6122
#
#
#
# Elastic Compliance Matrix: (Units=1/GPa)
#
#
# Indices 1 2 3 4 5 6 
#
# 1 0.020620 -0.007428 -0.004305 -0.009700 -0.007490 0.003965
# 2 -0.007428 0.015537 0.000055 0.004905 0.001681 0.003799
# 3 -0.004305 0.000055 0.011965 -0.000062 -0.005049 0.001184
# 4 -0.009700 0.004905 -0.000062 0.031424 0.005560 -0.005449
# 5 -0.007490 0.001681 -0.005049 0.005560 0.025250 -0.002686
# 6 0.003965 0.003799 0.001184 -0.005449 -0.002686 0.026005
#
#
# Mechanical properties :
#
#
# Convention : Reuss Voigt Hill
#
# Bulk Modulus (GPa) = 40.37567 57.66888 49.02228
# Shear Modulus (GPa) = 30.78610 40.62543 35.70577
#
# Velocity S-wave (km/s) = 3.55875 4.08808 3.83257
# Velocity P-wave (km/s) = 5.78757 6.78284 6.30487
#
# Compressibility (1/GPa) = 0.02476739
#
# Stress axis : x y z
#
# Youngs Moduli (GPa) = 48.49715 64.36076 83.57651
#
# Poissons Ratio (x) = 0.47806 0.35979
# Poissons Ratio (y) = 0.36023 -0.00461
# Poissons Ratio (z) = 0.20877 -0.00355
#
# Static dielectric constant tensor:
#      x y z
#    x 2.249190 -0.189440 0.089340 
#    y -0.189440 2.120640 -0.237280 
#    z 0.089340 -0.237280 2.285310 
# 
# From -- ./inp_files/427293.got.cif
#   From: 2010.05.17/outbox.cif.g08.bks.cpg/sg2_214_cif.got.tgz:427293.got - 2010.06.03 11:33:40.
