data_PCOD9039040
_publ_section_title
;
Structure prediction by ZEFSAII (Michael W. Deem and Ramdas Pophale) SiO2 
 PCOD9039040
Probable space group: P -1
;
_chemical_formula_sum "Si O2"
_cell_formula_units_Z 16
_cell_length_a 17.050515
_cell_length_b 5.565924
_cell_length_c 22.419502
_cell_angle_alpha 109.179218
_cell_angle_beta 158.703431
_cell_angle_gamma 81.420097
_cell_volume 649.041873
_symmetry_space_group_name_H-M "P -1"
_symmetry_group_IT_number 2
_symmetry_cell_setting 'triclinic'
loop_
_space_group_symop_operation_xyz
x,y,z
-x,-y,-z
loop_
_atom_site_type_symbol
_atom_site_label
_atom_site_fract_x
_atom_site_fract_y
_atom_site_fract_z
Si Si1 0.766331 0.090035 0.079475
Si Si2 0.867013 0.687955 0.440963
Si Si3 0.201714 0.172133 0.470045
Si Si4 0.927043 0.804822 0.084144
Si Si5 0.180954 0.650422 0.358921
Si Si6 0.711964 0.854701 0.725863
Si Si7 0.322635 0.556422 0.231573
Si Si8 0.360362 0.254714 0.831664
O O1 0.925721 0.066037 0.244659
O O2 0.954058 0.383452 0.204505
O O3 0.730521 0.860605 0.985255
O O4 0.525108 0.094431 0.929544
O O5 0.760966 0.653533 0.429118
O O6 0.666961 0.634819 0.244127
O O7 0.000000 0.500000 0.500000
O O8 0.081109 0.019548 0.624990
O O9 0.395132 0.363164 0.572610
O O10 0.250112 0.894857 0.479744
O O11 0.083665 0.753464 0.241310
O O12 0.800379 0.548970 0.927961
O O13 0.103561 0.080172 0.192626
O O14 0.422757 0.651346 0.503929
O O15 0.785882 0.704588 0.819817
O O16 0.709376 0.164938 0.752995
O O17 0.500000 0.500000 0.000000
#
# Coordination Sequence:
#
# PCOD9039040 Si02
#       8
#     2   2   2   2   2   2   2   2
#     4  11  24  42  68  97 139 180 235 298 361 431
#     4  11  26  45  74 105 140 186 236 298 373 444
#     4  10  23  44  64  98 136 182 232 295 362 439
#     4  11  26  39  66 102 135 186 240 299 357 432
#     4  10  23  42  65  98 135 190 234 296 362 424
#     4  11  24  46  67  98 144 193 244 298 364 430
#     4  11  25  43  69 100 142 192 239 304 362 430
#     4  11  26  47  72 108 142 187 239 302 368 450
#
# _framework density 24.651723
#
# number of rings (size 3 to 8) (size 9 to 14) (size 15 to 20)
#    0.000    1.250    1.250    2.625    7.000    5.500 
#    0.000    0.000    0.000    0.000    0.000    0.000 
#    0.000    0.000    0.000    0.000    0.000    0.000 
#
# Total GULP energy -89428.662186 kJ/mol
# GULP energy per Si atom -5589.291387 kJ/mol
# Density = 2.459561 g / cm^3
# Si number density = 24.651723 Si / 1000 Ang^3
#
#
#
# Elastic Constant Matrix: (Units=GPa)
#
#
# Indices 1 2 3 4 5 6 
#
# 1 78.4762 26.4092 15.7008 -3.4630 -11.9320 -4.7089
# 2 26.4092 65.6043 10.1795 1.9206 -7.4605 -0.3410
# 3 15.7008 10.1795 103.4648 -0.1687 -8.2921 -14.4054
# 4 -3.4630 1.9206 -0.1687 48.3997 -5.0839 9.1674
# 5 -11.9320 -7.4605 -8.2921 -5.0839 39.7580 -1.7468
# 6 -4.7089 -0.3410 -14.4054 9.1674 -1.7468 31.7600
#
#
#
# Elastic Compliance Matrix: (Units=1/GPa)
#
#
# Indices 1 2 3 4 5 6 
#
# 1 0.015625 -0.005712 -0.001319 0.001445 0.003590 0.001437
# 2 -0.005712 0.017850 -0.000889 -0.000842 0.001310 -0.000744
# 3 -0.001319 -0.000889 0.010795 -0.000782 0.001809 0.005016
# 4 0.001445 -0.000842 -0.000782 0.022296 0.002681 -0.006438
# 5 0.003590 0.001310 0.001809 0.002681 0.027288 0.002094
# 6 0.001437 -0.000744 0.005016 -0.006438 0.002094 0.035940
#
#
# Mechanical properties :
#
#
# Convention : Reuss Voigt Hill
#
# Bulk Modulus (GPa) = 35.17463 39.12492 37.14978
# Shear Modulus (GPa) = 32.23533 37.00058 34.61795
#
# Velocity S-wave (km/s) = 3.62004 3.87839 3.75144
# Velocity P-wave (km/s) = 5.63671 5.99678 5.81953
#
# Compressibility (1/GPa) = 0.02842958
#
# Stress axis : x y z
#
# Youngs Moduli (GPa) = 64.00171 56.02290 92.63641
#
# Poissons Ratio (x) = 0.31998 0.12217
# Poissons Ratio (y) = 0.36555 0.08239
# Poissons Ratio (z) = 0.08441 0.04983
#
# Static dielectric constant tensor:
#      x y z
#    x 1.940890 0.015830 0.003120 
#    y 0.015830 1.999380 0.052620 
#    z 0.003120 0.052620 2.003820 
# 
# From -- ./inp_files/53629.got.cif
#   From: 2010.05.17/outbox.cif.g08.bks.cpg/sg2_27_cif.got.tgz:53629.got - 2010.06.03 11:33:40.
