data_PCOD9039295
_publ_section_title
;
Structure prediction by ZEFSAII (Michael W. Deem and Ramdas Pophale) SiO2 
 PCOD9039295
Probable space group: P -1
;
_chemical_formula_sum "Si O2"
_cell_formula_units_Z 14
_cell_length_a 14.912846
_cell_length_b 15.517430
_cell_length_c 10.078913
_cell_angle_alpha 38.975915
_cell_angle_beta 140.364370
_cell_angle_gamma 152.215557
_cell_volume 656.335947
_symmetry_space_group_name_H-M "P -1"
_symmetry_group_IT_number 2
_symmetry_cell_setting 'triclinic'
loop_
_space_group_symop_operation_xyz
x,y,z
-x,-y,-z
loop_
_atom_site_type_symbol
_atom_site_label
_atom_site_fract_x
_atom_site_fract_y
_atom_site_fract_z
Si Si1 0.627974 0.957173 0.157108
Si Si2 0.023115 0.953361 0.936244
Si Si3 0.399718 0.078406 0.300155
Si Si4 0.605345 0.756355 0.634100
Si Si5 0.949900 0.609688 0.881313
Si Si6 0.591608 0.356556 0.948601
Si Si7 0.702202 0.622377 0.382783
O O1 0.852494 0.164531 0.140970
O O2 0.621084 0.846848 0.404005
O O3 0.528753 0.825499 0.071321
O O4 0.500000 0.000000 0.000000
O O5 0.796400 0.787110 0.825489
O O6 0.140814 0.151181 0.749639
O O7 0.176970 0.934627 0.152735
O O8 0.000000 0.000000 0.000000
O O9 0.385512 0.128752 0.372410
O O10 0.500000 0.000000 0.500000
O O11 0.535980 0.273951 0.132292
O O12 0.393500 0.530077 0.664712
O O13 0.821824 0.503013 0.996202
O O14 0.806513 0.593263 0.637878
O O15 0.000000 0.500000 0.000000
O O16 0.493459 0.435948 0.715944
#
# Coordination Sequence:
#
# PCOD9039295 Si02
#       7
#     2   2   2   2   2   2   2
#     4  12  23  41  69  96 130 172 223 265 334 384
#     4   9  21  39  64  94 125 177 214 265 322 386
#     4  10  23  42  67  95 135 169 218 274 328 385
#     4  11  22  42  70  91 132 181 213 268 328 392
#     4  12  24  40  68  97 132 173 216 271 331 392
#     4  11  25  42  65 101 133 170 218 277 321 389
#     4  11  23  42  65  99 134 167 227 269 324 388
#
# _framework density 21.330541
#
# number of rings (size 3 to 8) (size 9 to 14) (size 15 to 20)
#    0.000    1.143    4.286    1.286    0.000    8.000 
#    0.000    1.429    0.000   12.857    0.000    0.000 
#    0.000    0.000    0.000    0.000    0.000    0.000 
#
# Total GULP energy -78239.089292 kJ/mol
# GULP energy per Si atom -5588.506378 kJ/mol
# Density = 2.128199 g / cm^3
# Si number density = 21.330541 Si / 1000 Ang^3
#
#
#
# Elastic Constant Matrix: (Units=GPa)
#
#
# Indices 1 2 3 4 5 6 
#
# 1 69.7008 7.9997 2.3667 -5.4000 13.7176 19.8240
# 2 7.9997 100.4218 3.6326 16.1830 1.7626 9.8053
# 3 2.3667 3.6326 65.4203 -2.3863 23.7130 14.9405
# 4 -5.4000 16.1830 -2.3863 20.9988 4.7670 5.1853
# 5 13.7176 1.7626 23.7130 4.7670 48.3193 -1.3357
# 6 19.8240 9.8053 14.9405 5.1853 -1.3357 35.7792
#
#
#
# Elastic Compliance Matrix: (Units=1/GPa)
#
#
# Indices 1 2 3 4 5 6 
#
# 1 0.023784 -0.002881 0.009151 0.017149 -0.013361 -0.019194
# 2 -0.002881 0.011893 -0.002058 -0.010922 0.002496 0.000872
# 3 0.009151 -0.002058 0.026090 0.015355 -0.017347 -0.018274
# 4 0.017149 -0.010922 0.015355 0.072673 -0.019844 -0.024193
# 5 -0.013361 0.002496 -0.017347 -0.019844 0.035370 0.018159
# 6 -0.019194 0.000872 -0.018274 -0.024193 0.018159 0.050160
#
#
# Mechanical properties :
#
#
# Convention : Reuss Voigt Hill
#
# Bulk Modulus (GPa) = 14.24666 29.28230 21.76448
# Shear Modulus (GPa) = 21.28177 35.78908 28.53542
#
# Velocity S-wave (km/s) = 3.16209 4.10058 3.66153
# Velocity P-wave (km/s) = 4.47496 6.01476 5.30106
#
# Compressibility (1/GPa) = 0.07019188
#
# Stress axis : x y z
#
# Youngs Moduli (GPa) = 42.04507 84.08263 38.32853
#
# Poissons Ratio (x) = 0.24221 -0.35076
# Poissons Ratio (y) = 0.12111 0.07890
# Poissons Ratio (z) = -0.38477 0.17308
#
# Static dielectric constant tensor:
#      x y z
#    x 1.821160 0.021150 -0.021480 
#    y 0.021150 1.837540 -0.016700 
#    z -0.021480 -0.016700 1.773330 
# 
# From -- ./inp_files/273137.got.cif
#   From: 2010.05.17/outbox.cif.g08.bks.cpg/sg2_137_cif.got.tgz:273137.got - 2010.06.03 11:33:40.
