data_PCOD9039809
_publ_section_title
;
Structure prediction by ZEFSAII (Michael W. Deem and Ramdas Pophale) SiO2 
 PCOD9039809
Probable space group: P -1
;
_chemical_formula_sum "Si O2"
_cell_formula_units_Z 12
_cell_length_a 7.799624
_cell_length_b 20.466881
_cell_length_c 4.787107
_cell_angle_alpha 112.171929
_cell_angle_beta 92.335880
_cell_angle_gamma 41.549301
_cell_volume 431.517312
_symmetry_space_group_name_H-M "P -1"
_symmetry_group_IT_number 2
_symmetry_cell_setting 'triclinic'
loop_
_space_group_symop_operation_xyz
x,y,z
-x,-y,-z
loop_
_atom_site_type_symbol
_atom_site_label
_atom_site_fract_x
_atom_site_fract_y
_atom_site_fract_z
Si Si1 0.688684 0.011956 0.355330
Si Si2 0.285776 0.874912 0.065087
Si Si3 0.179345 0.496163 0.685879
Si Si4 0.224432 0.573410 0.285867
Si Si5 0.609872 0.251881 0.605622
Si Si6 0.888013 0.823315 0.739256
O O1 0.646289 0.069318 0.730935
O O2 0.395023 0.102988 0.324371
O O3 0.948684 0.973785 0.189122
O O4 0.806243 0.894305 0.125513
O O5 0.381961 0.782583 0.142441
O O6 0.435190 0.801048 0.678886
O O7 0.299464 0.504046 0.453214
O O8 0.391813 0.382048 0.706595
O O9 0.000000 0.500000 0.500000
O O10 0.039633 0.591359 0.067640
O O11 0.064741 0.694639 0.576663
O O12 0.500000 0.500000 0.000000
O O13 0.909025 0.189505 0.441084
#
# Coordination Sequence:
#
# PCOD9039809 Si02
#       6
#     2   2   2   2   2   2
#     4   9  22  44  69 103 141 183 242 292 358 422
#     4  10  23  43  70  99 136 185 231 293 355 423
#     4  12  28  47  73 109 145 191 246 299 362 434
#     4  12  26  48  76 108 145 191 241 300 368 431
#     4  11  24  43  70  99 141 183 233 294 356 422
#     4  10  23  42  71 103 141 185 234 299 356 429
#
# _framework density 27.808848999999999
#
# number of rings (size 3 to 8) (size 9 to 14) (size 15 to 20)
#    0.000    1.333    1.667    2.000    4.667    8.000 
#    0.000    6.667    0.000    0.000    0.000    0.000 
#    0.000    0.000    0.000    0.000    0.000    0.000 
#
# Total GULP energy -67281.231505 kJ/mol
# GULP energy per Si atom -5606.769292 kJ/mol
# Density = 2.774555 g / cm^3
# Si number density = 27.808849 Si / 1000 Ang^3
#
#
#
# Elastic Constant Matrix: (Units=GPa)
#
#
# Indices 1 2 3 4 5 6 
#
# 1 163.5567 52.2922 58.9022 1.1041 23.4946 -1.4585
# 2 52.2922 162.6816 75.9014 13.7858 0.9203 19.6244
# 3 58.9022 75.9014 129.2416 8.8109 35.6535 9.9429
# 4 1.1041 13.7858 8.8109 53.9503 11.9160 7.0852
# 5 23.4946 0.9203 35.6535 11.9160 61.9651 -11.9699
# 6 -1.4585 19.6244 9.9429 7.0852 -11.9699 48.1096
#
#
#
# Elastic Compliance Matrix: (Units=1/GPa)
#
#
# Indices 1 2 3 4 5 6 
#
# 1 0.007657 -0.001576 -0.002246 0.000858 -0.001595 0.000816
# 2 -0.001576 0.009701 -0.005793 -0.002165 0.003910 -0.001516
# 3 -0.002246 -0.005793 0.014588 0.001368 -0.008296 -0.002985
# 4 0.000858 -0.002165 0.001368 0.020633 -0.005793 -0.003854
# 5 -0.001595 0.003910 -0.008296 -0.005793 0.023899 0.006871
# 6 0.000816 -0.001516 -0.002985 -0.003854 0.006871 0.024323
#
#
# Mechanical properties :
#
#
# Convention : Reuss Voigt Hill
#
# Bulk Modulus (GPa) = 78.63651 92.18573 85.41112
# Shear Modulus (GPa) = 40.23494 50.69726 45.46610
#
# Velocity S-wave (km/s) = 3.80786 4.27437 4.04784
# Velocity P-wave (km/s) = 6.90449 7.58828 7.25445
#
# Compressibility (1/GPa) = 0.01271674
#
# Stress axis : x y z
#
# Youngs Moduli (GPa) = 130.59584 103.08576 68.54804
#
# Poissons Ratio (x) = 0.16243 0.15393
# Poissons Ratio (y) = 0.20578 0.39713
# Poissons Ratio (z) = 0.29326 0.59722
#
# Static dielectric constant tensor:
#      x y z
#    x 2.275190 -0.019890 0.013770 
#    y -0.019890 2.182000 0.015440 
#    z 0.013770 0.015440 2.149560 
# 
# From -- ./inp_files/54566.got.cif
#   From: 2010.05.17/outbox.cif.g08.bks.cpg/sg2_28_cif.got.tgz:54566.got - 2010.06.03 11:33:40.
