data_PCOD9039248
_publ_section_title
;
Structure prediction by ZEFSAII (Michael W. Deem and Ramdas Pophale) SiO2 
 PCOD9039248
Probable space group: P -1
;
_chemical_formula_sum "Si O2"
_cell_formula_units_Z 16
_cell_length_a 10.391394
_cell_length_b 10.580331
_cell_length_c 8.001823
_cell_angle_alpha 71.469807
_cell_angle_beta 131.725852
_cell_angle_gamma 96.490796
_cell_volume 616.497048
_symmetry_space_group_name_H-M "P -1"
_symmetry_group_IT_number 2
_symmetry_cell_setting 'triclinic'
loop_
_space_group_symop_operation_xyz
x,y,z
-x,-y,-z
loop_
_atom_site_type_symbol
_atom_site_label
_atom_site_fract_x
_atom_site_fract_y
_atom_site_fract_z
Si Si1 0.555903 0.707022 0.878828
Si Si2 0.055597 0.444282 0.258410
Si Si3 0.702705 0.403241 0.096269
Si Si4 0.035551 0.993696 0.341788
Si Si5 0.727922 0.870435 0.722963
Si Si6 0.688970 0.129737 0.805014
Si Si7 0.587707 0.727626 0.262971
Si Si8 0.921839 0.269664 0.734897
O O1 0.586616 0.778114 0.702407
O O2 0.669573 0.560887 0.037772
O O3 0.614214 0.775201 0.073452
O O4 0.361697 0.676450 0.767498
O O5 0.897633 0.368668 0.216955
O O6 0.072029 0.571434 0.341583
O O7 0.000000 0.500000 0.000000
O O8 0.556505 0.374260 0.848107
O O9 0.200488 0.069414 0.408433
O O10 0.000000 0.000000 0.500000
O O11 0.062086 0.844864 0.346442
O O12 0.860933 0.073827 0.080658
O O13 0.761725 0.652813 0.529176
O O14 0.674100 0.005859 0.723778
O O15 0.903168 0.784432 0.985275
O O16 0.520388 0.162758 0.759465
O O17 0.754928 0.252197 0.711342
#
# Coordination Sequence:
#
# PCOD9039248 Si02
#       8
#     2   2   2   2   2   2   2   2
#     4   9  19  42  65  99 144 199 250 306 366 442
#     4  12  24  41  74 107 150 202 247 310 376 447
#     4   9  21  42  65 102 145 194 252 307 356 438
#     4   9  19  39  70 115 147 190 253 312 379 446
#     4   9  17  38  74  97 142 198 240 305 383 430
#     4   9  19  38  67 103 150 190 239 316 363 444
#     4  10  23  42  67 107 149 196 252 302 378 442
#     4   9  19  38  66 106 145 194 242 307 368 443
#
# _framework density 25.953088000000001
#
# number of rings (size 3 to 8) (size 9 to 14) (size 15 to 20)
#    0.750    1.750    1.250    2.250    0.000    3.000 
#    4.500    6.250    0.000    4.500    3.250    0.000 
#    0.000    0.125    0.000    0.000    0.000    0.000 
#
# Total GULP energy -89471.109551 kJ/mol
# GULP energy per Si atom -5591.944347 kJ/mol
# Density = 2.589402 g / cm^3
# Si number density = 25.953088 Si / 1000 Ang^3
#
#
#
# Elastic Constant Matrix: (Units=GPa)
#
#
# Indices 1 2 3 4 5 6 
#
# 1 204.6390 67.6690 78.2392 5.3721 14.0359 6.3976
# 2 67.6690 85.0348 32.2807 0.2955 4.3488 0.1679
# 3 78.2392 32.2807 102.8877 -4.7152 15.4076 6.7372
# 4 5.3721 0.2955 -4.7152 30.4404 -2.6328 9.3554
# 5 14.0359 4.3488 15.4076 -2.6328 65.1225 -4.3555
# 6 6.3976 0.1679 6.7372 9.3554 -4.3555 53.4169
#
#
#
# Elastic Compliance Matrix: (Units=1/GPa)
#
#
# Indices 1 2 3 4 5 6 
#
# 1 0.008469 -0.004825 -0.004965 -0.002249 -0.000420 -0.000013
# 2 -0.004825 0.016141 -0.001483 0.000284 0.000371 0.000695
# 3 -0.004965 -0.001483 0.014601 0.003587 -0.002278 -0.002056
# 4 -0.002249 0.000284 0.003587 0.035825 0.000637 -0.006406
# 5 -0.000420 0.000371 -0.002278 0.000637 0.016089 0.001537
# 6 -0.000013 0.000695 -0.002056 -0.006406 0.001537 0.020227
#
#
# Mechanical properties :
#
#
# Convention : Reuss Voigt Hill
#
# Bulk Modulus (GPa) = 60.01159 83.21548 71.61353
# Shear Modulus (GPa) = 35.85428 44.08746 39.97087
#
# Velocity S-wave (km/s) = 3.72089 4.12604 3.92869
# Velocity P-wave (km/s) = 6.45239 7.40489 6.94499
#
# Compressibility (1/GPa) = 0.01666345
#
# Stress axis : x y z
#
# Youngs Moduli (GPa) = 118.07923 61.95289 68.48980
#
# Poissons Ratio (x) = 0.29893 0.34008
# Poissons Ratio (y) = 0.56974 0.10158
# Poissons Ratio (z) = 0.58632 0.09189
#
# Static dielectric constant tensor:
#      x y z
#    x 2.035910 0.047010 -0.041180 
#    y 0.047010 1.975440 0.097570 
#    z -0.041180 0.097570 2.213920 
# 
# From -- ./inp_files/258655.got.cif
#   From: 2010.05.17/outbox.cif.g08.bks.cpg/sg2_130_cif.got.tgz:258655.got - 2010.06.03 11:33:40.
