data_PCOD9039815
_publ_section_title
;
Structure prediction by ZEFSAII (Michael W. Deem and Ramdas Pophale) SiO2 
 PCOD9039815
Probable space group: P -1
;
_chemical_formula_sum "Si O2"
_cell_formula_units_Z 12
_cell_length_a 14.726009
_cell_length_b 12.249486
_cell_length_c 6.945027
_cell_angle_alpha 136.040608
_cell_angle_beta 120.003907
_cell_angle_gamma 31.488468
_cell_volume 431.282644
_symmetry_space_group_name_H-M "P -1"
_symmetry_group_IT_number 2
_symmetry_cell_setting 'triclinic'
loop_
_space_group_symop_operation_xyz
x,y,z
-x,-y,-z
loop_
_atom_site_type_symbol
_atom_site_label
_atom_site_fract_x
_atom_site_fract_y
_atom_site_fract_z
Si Si1 0.366380 0.263038 0.725858
Si Si2 0.572742 0.768241 0.639685
Si Si3 0.787319 0.979095 0.405891
Si Si4 0.974576 0.647489 0.839067
Si Si5 0.348706 0.561404 0.351470
Si Si6 0.021194 0.791418 0.763537
O O1 0.417236 0.367491 0.001488
O O2 0.511992 0.957970 0.608690
O O3 0.179469 0.435386 0.845744
O O4 0.236755 0.481998 0.637332
O O5 0.412468 0.832373 0.505892
O O6 0.686353 0.516662 0.609254
O O7 0.500000 0.000000 0.000000
O O8 0.795818 0.143600 0.530645
O O9 0.930960 0.808838 0.515294
O O10 0.848153 0.781032 0.054135
O O11 0.907923 0.880656 0.945907
O O12 0.000000 0.500000 0.500000
O O13 0.500000 0.500000 0.500000
O O14 0.000000 0.000000 0.000000
#
# Coordination Sequence:
#
# PCOD9039815 Si02
#       6
#     2   2   2   2   2   2
#     4  11  26  45  69 101 142 185 231 284 353 421
#     4  10  24  43  68 103 135 180 231 282 346 412
#     4  11  24  44  73 100 138 179 236 287 354 416
#     4  11  27  46  67 102 145 185 234 295 356 417
#     4  10  23  42  71 104 136 176 231 289 345 413
#     4  11  24  44  71 103 140 181 235 292 350 422
#
# _framework density 27.823979000000001
#
# number of rings (size 3 to 8) (size 9 to 14) (size 15 to 20)
#    0.000    1.333    0.000    4.000    7.000    9.333 
#    3.000    0.000    0.000    0.000    0.000    0.000 
#    0.000    0.000    0.000    0.000    0.000    0.000 
#
# Total GULP energy -67004.512666 kJ/mol
# GULP energy per Si atom -5583.709389 kJ/mol
# Density = 2.776065 g / cm^3
# Si number density = 27.823979 Si / 1000 Ang^3
#
#
#
# Elastic Constant Matrix: (Units=GPa)
#
#
# Indices 1 2 3 4 5 6 
#
# 1 102.8534 42.0119 70.5459 -8.7150 -11.9927 -5.2739
# 2 42.0119 163.4463 45.8734 -9.1621 -11.0224 17.4124
# 3 70.5459 45.8734 182.5033 -29.0377 -4.7445 2.4926
# 4 -8.7150 -9.1621 -29.0377 54.1296 11.8094 9.7807
# 5 -11.9927 -11.0224 -4.7445 11.8094 58.3621 -12.8724
# 6 -5.2739 17.4124 2.4926 9.7807 -12.8724 58.1075
#
#
#
# Elastic Compliance Matrix: (Units=1/GPa)
#
#
# Indices 1 2 3 4 5 6 
#
# 1 0.014875 -0.002574 -0.005432 -0.002321 0.003368 0.003491
# 2 -0.002574 0.007288 -0.000656 0.000914 0.000051 -0.002532
# 3 -0.005432 -0.000656 0.008394 0.004231 -0.001804 -0.001768
# 4 -0.002321 0.000914 0.004231 0.022855 -0.005867 -0.005813
# 5 0.003368 0.000051 -0.001804 -0.005867 0.020161 0.005822
# 6 0.003491 -0.002532 -0.001768 -0.005813 0.005822 0.020629
#
#
# Mechanical properties :
#
#
# Convention : Reuss Voigt Hill
#
# Bulk Modulus (GPa) = 75.56241 85.07395 80.31818
# Shear Modulus (GPa) = 43.12691 53.47796 48.30243
#
# Velocity S-wave (km/s) = 3.94126 4.38883 4.17105
# Velocity P-wave (km/s) = 6.92298 7.50497 7.21984
#
# Compressibility (1/GPa) = 0.01323409
#
# Stress axis : x y z
#
# Youngs Moduli (GPa) = 67.22751 137.20821 119.12714
#
# Poissons Ratio (x) = 0.35312 0.64713
# Poissons Ratio (y) = 0.17302 0.07813
# Poissons Ratio (z) = 0.36520 0.08998
#
# Static dielectric constant tensor:
#      x y z
#    x 2.077280 0.124850 -0.101940 
#    y 0.124850 2.500430 -0.221870 
#    z -0.101940 -0.221870 2.130210 
# 
# From -- ./inp_files/108375.got.cif
#   From: 2010.05.17/outbox.cif.g08.bks.cpg/sg2_55_cif.got.tgz:108375.got - 2010.06.03 11:33:40.
