data_PCOD9039724
_publ_section_title
;
Structure prediction by ZEFSAII (Michael W. Deem and Ramdas Pophale) SiO2 
 PCOD9039724
Probable space group: P -1
;
_chemical_formula_sum "Si O2"
_cell_formula_units_Z 12
_cell_length_a 4.847169
_cell_length_b 9.763779
_cell_length_c 9.482418
_cell_angle_alpha 90.650962
_cell_angle_beta 80.185027
_cell_angle_gamma 104.147320
_cell_volume 428.575420
_symmetry_space_group_name_H-M "P -1"
_symmetry_group_IT_number 2
_symmetry_cell_setting 'triclinic'
loop_
_space_group_symop_operation_xyz
x,y,z
-x,-y,-z
loop_
_atom_site_type_symbol
_atom_site_label
_atom_site_fract_x
_atom_site_fract_y
_atom_site_fract_z
Si Si1 0.110892 0.359051 0.283442
Si Si2 0.500000 0.500000 0.000000
Si Si3 0.705654 0.985866 0.107787
Si Si4 0.314781 0.472400 0.688367
Si Si5 0.184511 0.164258 0.649811
Si Si6 0.353695 0.097508 0.343258
Si Si7 0.000000 0.500000 0.000000
O O1 0.174354 0.403147 0.112197
O O2 0.811236 0.395718 0.340620
O O3 0.343968 0.479752 0.349541
O O4 0.199525 0.216850 0.303707
O O5 0.301956 0.622373 0.024602
O O6 0.640435 0.097503 0.231168
O O7 0.680084 0.852296 0.211203
O O8 0.500000 0.000000 0.000000
O O9 0.000000 0.000000 0.000000
O O10 0.168537 0.324296 0.633442
O O11 0.262380 0.459264 0.864064
O O12 0.378030 0.124308 0.507991
O O13 0.877759 0.051461 0.665329
#
# Coordination Sequence:
#
# PCOD9039724 Si02
#       7
#     2   1   2   2   2   2   1
#     4  10  23  42  70 106 151 200 255 318 385 466
#     4   8  16  34  58  90 132 182 228 296 364 426
#     4  12  27  50  77 114 154 206 270 330 393 470
#     4  10  23  42  70 106 151 200 255 318 385 466
#     4  11  27  51  79 115 163 212 263 325 404 483
#     4  11  27  51  79 115 163 212 263 325 404 483
#     4   8  16  34  58  90 132 182 228 296 364 426
#
# _framework density 27.999739999999999
#
# number of rings (size 3 to 8) (size 9 to 14) (size 15 to 20)
#    0.000    1.667    1.667    0.500    4.667    9.333 
#    0.000    0.000    0.000    0.000    0.000    0.000 
#    0.000    0.000    0.000    0.000    0.000    0.000 
#
# Total GULP energy -66951.140462 kJ/mol
# GULP energy per Si atom -5579.261705 kJ/mol
# Density = 2.793601 g / cm^3
# Si number density = 27.999740 Si / 1000 Ang^3
#
#
#
# Elastic Constant Matrix: (Units=GPa)
#
#
# Indices 1 2 3 4 5 6 
#
# 1 275.1416 34.6636 60.7585 2.6282 -2.5261 -6.4876
# 2 34.6636 135.0013 39.9376 8.2506 3.9623 -13.7601
# 3 60.7585 39.9376 181.7231 -14.3910 -26.5731 -7.7854
# 4 2.6282 8.2506 -14.3910 37.9074 -15.3150 5.2491
# 5 -2.5261 3.9623 -26.5731 -15.3150 35.1630 5.9299
# 6 -6.4876 -13.7601 -7.7854 5.2491 5.9299 34.3109
#
#
#
# Elastic Compliance Matrix: (Units=1/GPa)
#
#
# Indices 1 2 3 4 5 6 
#
# 1 0.004057 -0.000316 -0.001645 -0.001674 -0.001785 0.000832
# 2 -0.000316 0.009813 -0.003582 -0.007500 -0.008047 0.005601
# 3 -0.001645 -0.003582 0.009230 0.009703 0.012029 -0.003217
# 4 -0.001674 -0.007500 0.009703 0.045912 0.030311 -0.013385
# 5 -0.001785 -0.008047 0.012029 0.030311 0.054006 -0.014806
# 6 0.000832 0.005601 -0.003217 -0.013385 -0.014806 0.035426
#
#
# Mechanical properties :
#
#
# Convention : Reuss Voigt Hill
#
# Bulk Modulus (GPa) = 83.22933 95.84281 89.53607
# Shear Modulus (GPa) = 28.81291 51.91002 40.36146
#
# Velocity S-wave (km/s) = 3.21135 4.31042 3.80082
# Velocity P-wave (km/s) = 6.59848 7.68617 7.16300
#
# Compressibility (1/GPa) = 0.01201500
#
# Stress axis : x y z
#
# Youngs Moduli (GPa) = 246.50565 101.90073 108.34747
#
# Poissons Ratio (x) = 0.03215 0.17823
# Poissons Ratio (y) = 0.07778 0.38809
# Poissons Ratio (z) = 0.40549 0.36500
#
# Static dielectric constant tensor:
#      x y z
#    x 2.327030 0.019310 0.128210 
#    y 0.019310 2.149050 -0.053520 
#    z 0.128210 -0.053520 2.355370 
# 
# From -- ./inp_files/129738.got.cif
#   From: 2010.05.17/outbox.cif.g08.bks.cpg/sg2_65_cif.got.tgz:129738.got - 2010.06.03 11:33:40.
