data_PCOD9039506
_publ_section_title
;
Structure prediction by ZEFSAII (Michael W. Deem and Ramdas Pophale) SiO2 
 PCOD9039506
Probable space group: P -1
;
_chemical_formula_sum "Si O2"
_cell_formula_units_Z 14
_cell_length_a 8.103805
_cell_length_b 12.084561
_cell_length_c 17.394339
_cell_angle_alpha 148.982366
_cell_angle_beta 41.767133
_cell_angle_gamma 124.557934
_cell_volume 571.702145
_symmetry_space_group_name_H-M "P -1"
_symmetry_group_IT_number 2
_symmetry_cell_setting 'triclinic'
loop_
_space_group_symop_operation_xyz
x,y,z
-x,-y,-z
loop_
_atom_site_type_symbol
_atom_site_label
_atom_site_fract_x
_atom_site_fract_y
_atom_site_fract_z
Si Si1 0.055770 0.032794 0.090047
Si Si2 0.873977 0.664550 0.293583
Si Si3 0.124604 0.963288 0.598889
Si Si4 0.330200 0.567037 0.198159
Si Si5 0.565447 0.314915 0.431818
Si Si6 0.183565 0.264402 0.890856
Si Si7 0.463764 0.940190 0.132650
O O1 0.864199 0.259507 0.313095
O O2 0.954546 0.852990 0.066790
O O3 0.353665 0.018701 0.975822
O O4 0.000000 0.000000 0.000000
O O5 0.866598 0.903735 0.404467
O O6 0.609932 0.636989 0.404384
O O7 0.081479 0.607054 0.255201
O O8 0.979520 0.491867 0.086913
O O9 0.246571 0.091846 0.697297
O O10 0.831738 0.000778 0.747904
O O11 0.249203 0.712818 0.389462
O O12 0.554168 0.664521 0.139261
O O13 0.439362 0.313929 0.029618
O O14 0.500000 0.500000 0.500000
O O15 0.497889 0.098218 0.286413
#
# Coordination Sequence:
#
# PCOD9039506 Si02
#       7
#     2   2   2   2   2   2   2
#     4  10  23  42  68  99 135 182 229 283 344 410
#     4  12  23  41  74 105 135 186 240 287 339 411
#     4  12  27  44  70 104 147 182 230 289 358 410
#     4  12  25  44  75 103 138 184 239 288 339 412
#     4  11  22  42  72 107 137 176 238 292 341 410
#     4  12  26  46  68 104 147 184 227 292 353 414
#     4  11  24  45  71 101 141 179 236 287 346 409
#
# _framework density 24.488275000000002
#
# number of rings (size 3 to 8) (size 9 to 14) (size 15 to 20)
#    0.000    0.571    2.857    6.857    4.000    0.571 
#    0.000    0.714    0.000    0.000    0.000    0.000 
#    0.000    0.000    0.000    0.000    0.000    0.000 
#
# Total GULP energy -78402.887800 kJ/mol
# GULP energy per Si atom -5600.206271 kJ/mol
# Density = 2.443254 g / cm^3
# Si number density = 24.488275 Si / 1000 Ang^3
#
#
#
# Elastic Constant Matrix: (Units=GPa)
#
#
# Indices 1 2 3 4 5 6 
#
# 1 37.8492 18.0495 22.5176 -5.6718 10.2355 8.1807
# 2 18.0495 137.7714 41.6496 -14.4205 -15.0363 8.6817
# 3 22.5176 41.6496 167.0480 1.5730 0.3819 1.9698
# 4 -5.6718 -14.4205 1.5730 60.6030 11.0255 -11.4046
# 5 10.2355 -15.0363 0.3819 11.0255 41.4064 -6.5370
# 6 8.1807 8.6817 1.9698 -11.4046 -6.5370 15.6368
#
#
#
# Elastic Compliance Matrix: (Units=1/GPa)
#
#
# Indices 1 2 3 4 5 6 
#
# 1 0.040387 -0.004107 -0.004114 0.001234 -0.015543 -0.023928
# 2 -0.004107 0.008848 -0.001669 0.001016 0.003948 -0.000163
# 3 -0.004114 -0.001669 0.006938 -0.000738 0.000863 0.002028
# 4 0.001234 0.001016 -0.000738 0.019714 -0.003303 0.011881
# 5 -0.015543 0.003948 0.000863 -0.003303 0.033018 0.017225
# 6 -0.023928 -0.000163 0.002028 0.011881 0.017225 0.092171
#
#
# Mechanical properties :
#
#
# Convention : Reuss Voigt Hill
#
# Bulk Modulus (GPa) = 27.47755 56.34467 41.91111
# Shear Modulus (GPa) = 21.46041 40.89268 31.17655
#
# Velocity S-wave (km/s) = 2.96354 4.09086 3.57195
# Velocity P-wave (km/s) = 4.79115 6.73590 5.84497
#
# Compressibility (1/GPa) = 0.03639334
#
# Stress axis : x y z
#
# Youngs Moduli (GPa) = 24.76057 113.01385 144.13137
#
# Poissons Ratio (x) = 0.46412 0.59296
# Poissons Ratio (y) = 0.10168 0.24059
# Poissons Ratio (z) = 0.10187 0.18865
#
# Static dielectric constant tensor:
#      x y z
#    x 2.047090 -0.013020 -0.005890 
#    y -0.013020 1.945570 0.001180 
#    z -0.005890 0.001180 2.001600 
# 
# From -- ./inp_files/461856.got.cif
#   From: 2010.05.17/outbox.cif.g08.bks.cpg/sg2_231_cif.got.tgz:461856.got - 2010.06.03 11:33:40.
