data_PCOD9039932
_publ_section_title
;
Structure prediction by ZEFSAII (Michael W. Deem and Ramdas Pophale) SiO2 
 PCOD9039932
Probable space group: P -1
;
_chemical_formula_sum "Si O2"
_cell_formula_units_Z 12
_cell_length_a 13.653441
_cell_length_b 9.977291
_cell_length_c 7.721977
_cell_angle_alpha 65.845199
_cell_angle_beta 140.696679
_cell_angle_gamma 135.659756
_cell_volume 440.294438
_symmetry_space_group_name_H-M "P -1"
_symmetry_group_IT_number 2
_symmetry_cell_setting 'triclinic'
loop_
_space_group_symop_operation_xyz
x,y,z
-x,-y,-z
loop_
_atom_site_type_symbol
_atom_site_label
_atom_site_fract_x
_atom_site_fract_y
_atom_site_fract_z
Si Si1 0.029509 0.802918 0.502602
Si Si2 0.856947 0.549685 0.752710
Si Si3 0.799926 0.806853 0.656288
Si Si4 0.410501 0.547869 0.008448
Si Si5 0.442896 0.041475 0.117133
Si Si6 0.380127 0.108774 0.361942
O O1 0.911411 0.669073 0.585839
O O2 0.839032 0.639176 0.198704
O O3 0.085176 0.008254 0.422869
O O4 0.263897 0.885202 0.812056
O O5 0.890030 0.702974 0.851680
O O6 0.615148 0.333108 0.543297
O O7 0.000000 0.500000 0.000000
O O8 0.768698 0.873248 0.756247
O O9 0.565642 0.630309 0.340974
O O10 0.436583 0.734592 0.894021
O O11 0.500000 0.500000 0.000000
O O12 0.320721 0.013474 0.141010
O O13 0.588352 0.006290 0.403753
#
# Coordination Sequence:
#
# PCOD9039932 Si02
#       6
#     2   2   2   2   2   2
#     4  11  23  44  72 104 136 190 235 275 352 426
#     4  12  23  44  75 101 138 188 233 282 350 422
#     4  11  26  45  72 107 143 176 239 295 339 409
#     4  11  22  41  72  98 138 188 230 278 348 417
#     4  10  23  42  72  96 142 189 230 277 360 412
#     4  11  23  46  70 104 146 180 233 297 346 404
#
# _framework density 27.254487999999998
#
# number of rings (size 3 to 8) (size 9 to 14) (size 15 to 20)
#    0.000    1.000    5.000    1.000    2.333    2.667 
#    3.000    2.500    0.000    0.000    0.000    0.000 
#    0.000    0.000    0.000    0.000    0.000    0.000 
#
# Total GULP energy -67242.656235 kJ/mol
# GULP energy per Si atom -5603.554686 kJ/mol
# Density = 2.719246 g / cm^3
# Si number density = 27.254488 Si / 1000 Ang^3
#
#
#
# Elastic Constant Matrix: (Units=GPa)
#
#
# Indices 1 2 3 4 5 6 
#
# 1 124.8197 47.7853 35.8906 -20.6560 -20.2316 -13.0469
# 2 47.7853 169.9630 80.3245 -28.0195 14.8399 1.4601
# 3 35.8906 80.3245 128.8801 -2.5598 11.8983 5.2368
# 4 -20.6560 -28.0195 -2.5598 63.4735 4.4201 12.6278
# 5 -20.2316 14.8399 11.8983 4.4201 49.6658 -4.7619
# 6 -13.0469 1.4601 5.2368 12.6278 -4.7619 43.3158
#
#
#
# Elastic Compliance Matrix: (Units=1/GPa)
#
#
# Indices 1 2 3 4 5 6 
#
# 1 0.011234 -0.002423 -0.002324 0.001259 0.006133 0.004053
# 2 -0.002423 0.009911 -0.005038 0.004007 -0.003288 -0.001984
# 3 -0.002324 -0.005038 0.011778 -0.002030 -0.002237 -0.001608
# 4 0.001259 0.004007 -0.002030 0.019081 -0.002408 -0.005338
# 5 0.006133 -0.003288 -0.002237 -0.002408 0.024909 0.005669
# 6 0.004053 -0.001984 -0.001608 -0.005338 0.005669 0.026748
#
#
# Mechanical properties :
#
#
# Convention : Reuss Voigt Hill
#
# Bulk Modulus (GPa) = 74.89759 83.51819 79.20789
# Shear Modulus (GPa) = 39.15996 48.60185 43.88090
#
# Velocity S-wave (km/s) = 3.79466 4.22745 4.01689
# Velocity P-wave (km/s) = 6.83665 7.38504 7.11613
#
# Compressibility (1/GPa) = 0.01335157
#
# Stress axis : x y z
#
# Youngs Moduli (GPa) = 89.01914 100.90193 84.90311
#
# Poissons Ratio (x) = 0.24445 0.19735
# Poissons Ratio (y) = 0.21566 0.42777
# Poissons Ratio (z) = 0.20691 0.50838
#
# Static dielectric constant tensor:
#      x y z
#    x 2.233490 0.004660 0.040790 
#    y 0.004660 2.063880 0.057430 
#    z 0.040790 0.057430 2.162410 
# 
# From -- ./inp_files/295090.got.cif
#   From: 2010.05.17/outbox.cif.g08.bks.cpg/sg2_148_cif.got.tgz:295090.got - 2010.06.03 11:33:40.
