data_PCOD9039123
_publ_section_title
;
Structure prediction by ZEFSAII (Michael W. Deem and Ramdas Pophale) SiO2 
 PCOD9039123
Probable space group: P -1
;
_chemical_formula_sum "Si O2"
_cell_formula_units_Z 16
_cell_length_a 11.878119
_cell_length_b 12.401039
_cell_length_c 14.421071
_cell_angle_alpha 55.803889
_cell_angle_beta 30.698970
_cell_angle_gamma 36.622901
_cell_volume 586.951824
_symmetry_space_group_name_H-M "P -1"
_symmetry_group_IT_number 2
_symmetry_cell_setting 'triclinic'
loop_
_space_group_symop_operation_xyz
x,y,z
-x,-y,-z
loop_
_atom_site_type_symbol
_atom_site_label
_atom_site_fract_x
_atom_site_fract_y
_atom_site_fract_z
Si Si1 0.929321 0.392550 0.557820
Si Si2 0.923527 0.709866 0.147800
Si Si3 0.194010 0.308378 0.114671
Si Si4 0.089794 0.783649 0.180377
Si Si5 0.584971 0.090808 0.128833
Si Si6 0.781901 0.077805 0.404880
Si Si7 0.456167 0.480668 0.421311
Si Si8 0.677317 0.178470 0.705593
O O1 0.782161 0.368127 0.755145
O O2 0.296789 0.182486 0.362709
O O3 0.000000 0.500000 0.500000
O O4 0.710454 0.494354 0.570275
O O5 0.993836 0.733069 0.189077
O O6 0.551454 0.814060 0.357482
O O7 0.151301 0.485014 0.069501
O O8 0.893437 0.853997 0.038874
O O9 0.424224 0.155581 0.109961
O O10 0.831340 0.410205 0.348496
O O11 0.387547 0.207067 0.928740
O O12 0.791930 0.000229 0.336543
O O13 0.322140 0.799225 0.975501
O O14 0.754790 0.245729 0.339248
O O15 0.119199 0.887103 0.311423
O O16 0.497310 0.615413 0.311189
O O17 0.000000 0.000000 0.500000
#
# Coordination Sequence:
#
# PCOD9039123 Si02
#       8
#     2   2   2   2   2   2   2   2
#     4  11  22  38  63  92 135 182 217 256 311 376
#     4  11  24  40  64  96 138 178 215 254 324 384
#     4  10  23  44  63  95 131 166 217 273 316 395
#     4  12  22  39  61  96 136 179 216 254 307 387
#     4  11  22  38  59  91 132 175 217 259 310 371
#     4  11  22  44  66  93 134 169 215 270 315 392
#     4  10  23  42  66  95 132 171 212 268 324 380
#     4  12  26  47  72  94 123 168 220 280 341 382
#
# _framework density 27.259478000000001
#
# number of rings (size 3 to 8) (size 9 to 14) (size 15 to 20)
#    0.000    1.000    3.750    3.750    3.500    4.000 
#    0.000    2.500    0.000    0.000    0.000    0.000 
#    0.000    0.000    0.000    0.000    0.000    0.000 
#
# Total GULP energy -89641.800081 kJ/mol
# GULP energy per Si atom -5602.612505 kJ/mol
# Density = 2.719743 g / cm^3
# Si number density = 27.259478 Si / 1000 Ang^3
#
#
#
# Elastic Constant Matrix: (Units=GPa)
#
#
# Indices 1 2 3 4 5 6 
#
# 1 72.0883 45.0979 13.8532 -0.4660 13.0356 2.7987
# 2 45.0979 166.3361 27.8358 -5.8210 22.3005 3.5943
# 3 13.8532 27.8358 150.0080 -18.8143 8.0287 -6.9691
# 4 -0.4660 -5.8210 -18.8143 35.4203 5.2195 3.7236
# 5 13.0356 22.3005 8.0287 5.2195 33.5585 0.0883
# 6 2.7987 3.5943 -6.9691 3.7236 0.0883 38.6863
#
#
#
# Elastic Compliance Matrix: (Units=1/GPa)
#
#
# Indices 1 2 3 4 5 6 
#
# 1 0.017259 -0.004032 -0.000704 -0.000142 -0.003832 -0.000978
# 2 -0.004032 0.007782 -0.000726 0.001452 -0.003656 -0.000694
# 3 -0.000704 -0.000726 0.007506 0.003989 -0.001663 0.001090
# 4 -0.000142 0.001452 0.003989 0.031850 -0.006811 -0.002456
# 5 -0.003832 -0.003656 -0.001663 -0.006811 0.035172 0.000893
# 6 -0.000978 -0.000694 0.001090 -0.002456 0.000893 0.026415
#
#
# Mechanical properties :
#
#
# Convention : Reuss Voigt Hill
#
# Bulk Modulus (GPa) = 46.24474 62.44514 54.34494
# Shear Modulus (GPa) = 34.69426 41.64271 38.16849
#
# Velocity S-wave (km/s) = 3.57142 3.91275 3.74597
# Velocity P-wave (km/s) = 5.83165 6.58560 6.22006
#
# Compressibility (1/GPa) = 0.02162408
#
# Stress axis : x y z
#
# Youngs Moduli (GPa) = 57.93948 128.49355 133.22609
#
# Poissons Ratio (x) = 0.51805 0.09378
# Poissons Ratio (y) = 0.23360 0.09676
# Poissons Ratio (z) = 0.04078 0.09332
#
# Static dielectric constant tensor:
#      x y z
#    x 2.124760 0.020030 0.001370 
#    y 0.020030 2.092800 -0.006960 
#    z 0.001370 -0.006960 2.166180 
# 
# From -- ./inp_files/534110.got.cif
#   From: 2010.05.17/outbox.cif.g08.bks.cpg/sg2_268_cif.got.tgz:534110.got - 2010.06.03 11:33:40.
