data_PCOD9039750
_publ_section_title
;
Structure prediction by ZEFSAII (Michael W. Deem and Ramdas Pophale) SiO2 
 PCOD9039750
Probable space group: P -1
;
_chemical_formula_sum "Si O2"
_cell_formula_units_Z 16
_cell_length_a 9.062621
_cell_length_b 11.772799
_cell_length_c 8.961180
_cell_angle_alpha 105.719318
_cell_angle_beta 121.537853
_cell_angle_gamma 65.072436
_cell_volume 737.381132
_symmetry_space_group_name_H-M "P -1"
_symmetry_group_IT_number 2
_symmetry_cell_setting 'triclinic'
loop_
_space_group_symop_operation_xyz
x,y,z
-x,-y,-z
loop_
_atom_site_type_symbol
_atom_site_label
_atom_site_fract_x
_atom_site_fract_y
_atom_site_fract_z
Si Si1 0.542972 0.706402 0.252665
Si Si2 0.345500 0.057054 0.565553
Si Si3 0.569423 0.102519 0.157064
Si Si4 0.127776 0.570229 0.156510
Si Si5 0.468312 0.371617 0.117297
Si Si6 0.333314 0.516248 0.536407
Si Si7 0.887714 0.187784 0.909042
Si Si8 0.040633 0.906623 0.771900
O O1 0.627372 0.816274 0.315605
O O2 0.640902 0.609076 0.400126
O O3 0.331169 0.774315 0.210087
O O4 0.538214 0.639681 0.067923
O O5 0.133273 0.093267 0.417121
O O6 0.500000 0.000000 0.500000
O O7 0.393307 0.948520 0.675162
O O8 0.437138 0.246990 0.121838
O O9 0.760913 0.110181 0.197881
O O10 0.500000 0.000000 0.000000
O O11 0.315847 0.499447 0.139049
O O12 0.162249 0.555016 0.346571
O O13 0.054928 0.714233 0.122422
O O14 0.000000 0.500000 0.000000
O O15 0.650788 0.383530 0.296923
O O16 0.500000 0.500000 0.500000
O O17 0.980419 0.047973 0.852458
O O18 0.933886 0.186838 0.107883
#
# Coordination Sequence:
#
# PCOD9039750 Si02
#       8
#     2   2   2   2   2   2   2   2
#     4  12  22  46  68 103 136 181 241 279 357 414
#     4  12  27  42  71 104 143 187 232 294 351 429
#     4  12  26  47  70 105 138 186 238 291 361 413
#     4  11  27  44  68 104 138 182 231 295 353 419
#     4  11  24  44  72  97 134 181 233 289 345 417
#     4  10  23  42  70  97 129 183 228 279 347 417
#     4  11  23  44  70  99 141 183 234 286 356 415
#     4  11  26  44  71 102 143 186 231 298 344 431
#
# _framework density 21.698415000000001
#
# number of rings (size 3 to 8) (size 9 to 14) (size 15 to 20)
#    0.000    0.750    6.250    0.750   10.500    0.000 
#    2.250    0.625    0.000    0.000    0.000    0.000 
#    0.000    0.000    0.000    0.000    0.000    0.000 
#
# Total GULP energy -89385.782123 kJ/mol
# GULP energy per Si atom -5586.611383 kJ/mol
# Density = 2.164903 g / cm^3
# Si number density = 21.698415 Si / 1000 Ang^3
#
#
#
# Elastic Constant Matrix: (Units=GPa)
#
#
# Indices 1 2 3 4 5 6 
#
# 1 35.5363 2.9668 36.4052 -3.9264 1.7833 3.7263
# 2 2.9668 93.5081 24.7493 -13.2910 -13.1497 19.8510
# 3 36.4052 24.7493 136.6207 -14.1184 -14.2020 17.3794
# 4 -3.9264 -13.2910 -14.1184 43.8715 12.6115 -14.1619
# 5 1.7833 -13.1497 -14.2020 12.6115 39.1170 -2.5602
# 6 3.7263 19.8510 17.3794 -14.1619 -2.5602 29.7637
#
#
#
# Elastic Compliance Matrix: (Units=1/GPa)
#
#
# Indices 1 2 3 4 5 6 
#
# 1 0.040296 0.000852 -0.011523 0.002590 -0.006452 0.001793
# 2 0.000852 0.013146 -0.001252 0.000183 0.003358 -0.007767
# 3 -0.011523 -0.001252 0.011557 -0.000235 0.004099 -0.004230
# 4 0.002590 0.000183 -0.000235 0.029790 -0.008889 0.013101
# 5 -0.006452 0.003358 0.004099 -0.008889 0.030989 -0.005389
# 6 0.001793 -0.007767 -0.004230 0.013101 -0.005389 0.046793
#
#
# Mechanical properties :
#
#
# Convention : Reuss Voigt Hill
#
# Bulk Modulus (GPa) = 24.30076 43.76753 34.03414
# Shear Modulus (GPa) = 23.79429 35.98671 29.89050
#
# Velocity S-wave (km/s) = 3.31507 4.07688 3.71555
# Velocity P-wave (km/s) = 5.08690 6.50968 5.84177
#
# Compressibility (1/GPa) = 0.04115098
#
# Stress axis : x y z
#
# Youngs Moduli (GPa) = 24.81649 76.06955 86.52939
#
# Poissons Ratio (x) = -0.06477 0.99708
# Poissons Ratio (y) = -0.02113 0.10836
# Poissons Ratio (z) = 0.28596 0.09526
#
# Static dielectric constant tensor:
#      x y z
#    x 1.965650 -0.065430 0.134070 
#    y -0.065430 1.802430 -0.041510 
#    z 0.134070 -0.041510 1.905470 
# 
# From -- ./inp_files/188788.got.cif
#   From: 2010.05.17/outbox.cif.g08.bks.cpg/sg2_95_cif.got.tgz:188788.got - 2010.06.03 11:33:40.
