data_PCOD9039678
_publ_section_title
;
Structure prediction by ZEFSAII (Michael W. Deem and Ramdas Pophale) SiO2 
 PCOD9039678
Probable space group: P -1
;
_chemical_formula_sum "Si O2"
_cell_formula_units_Z 14
_cell_length_a 8.246771
_cell_length_b 7.641983
_cell_length_c 9.359895
_cell_angle_alpha 93.234279
_cell_angle_beta 73.123887
_cell_angle_gamma 95.366394
_cell_volume 561.733797
_symmetry_space_group_name_H-M "P -1"
_symmetry_group_IT_number 2
_symmetry_cell_setting 'triclinic'
loop_
_space_group_symop_operation_xyz
x,y,z
-x,-y,-z
loop_
_atom_site_type_symbol
_atom_site_label
_atom_site_fract_x
_atom_site_fract_y
_atom_site_fract_z
Si Si1 0.813927 0.936741 0.997499
Si Si2 0.737542 0.868689 0.697876
Si Si3 0.866180 0.608710 0.450361
Si Si4 0.602226 0.012407 0.315359
Si Si5 0.849705 0.580255 0.127561
Si Si6 0.596911 0.294585 0.559716
Si Si7 0.518523 0.517865 0.829537
O O1 0.795104 0.737162 0.048260
O O2 0.688383 0.028121 0.139998
O O3 0.802206 0.958276 0.832038
O O4 0.000000 0.000000 0.000000
O O5 0.861968 0.792314 0.546196
O O6 0.598052 0.978086 0.664917
O O7 0.633637 0.691437 0.770686
O O8 0.913984 0.629713 0.272904
O O9 0.684070 0.486854 0.494011
O O10 0.000000 0.500000 0.500000
O O11 0.669467 0.165558 0.414479
O O12 0.591855 0.817743 0.382892
O O13 0.670741 0.464586 0.181723
O O14 0.000000 0.500000 0.000000
O O15 0.603297 0.353100 0.728533
O O16 0.500000 0.500000 0.000000
#
# Coordination Sequence:
#
# PCOD9039678 Si02
#       7
#     2   2   2   2   2   2   2
#     4  12  28  46  65 102 146 178 220 283 349 409
#     4  11  24  44  72 100 129 184 231 278 336 405
#     4  11  26  45  71 101 137 174 238 284 337 397
#     4  11  23  44  71  99 141 176 228 274 347 410
#     4  12  26  45  69 103 138 180 225 283 345 401
#     4  10  23  42  70 100 134 176 226 283 335 392
#     4  11  21  43  71  98 136 174 237 280 326 404
#
# _framework density 24.922837000000001
#
# number of rings (size 3 to 8) (size 9 to 14) (size 15 to 20)
#    0.000    0.857    2.857    3.000   10.000    3.429 
#    0.000    1.429    0.000    0.000    0.000    0.000 
#    0.000    0.000    0.000    0.000    0.000    0.000 
#
# Total GULP energy -78006.718540 kJ/mol
# GULP energy per Si atom -5571.908467 kJ/mol
# Density = 2.486611 g / cm^3
# Si number density = 24.922837 Si / 1000 Ang^3
#
#
#
# Elastic Constant Matrix: (Units=GPa)
#
#
# Indices 1 2 3 4 5 6 
#
# 1 89.4814 -4.9881 51.9644 17.4978 18.4492 -10.5777
# 2 -4.9881 75.7796 22.6181 19.3387 12.4073 3.2797
# 3 51.9644 22.6181 253.0512 33.4333 23.8751 -18.7618
# 4 17.4978 19.3387 33.4333 38.6704 -6.2794 -1.4430
# 5 18.4492 12.4073 23.8751 -6.2794 35.8064 3.7037
# 6 -10.5777 3.2797 -18.7618 -1.4430 3.7037 42.4712
#
#
#
# Elastic Compliance Matrix: (Units=1/GPa)
#
#
# Indices 1 2 3 4 5 6 
#
# 1 0.017904 0.006738 -0.001019 -0.012629 -0.013534 0.004240
# 2 0.006738 0.019535 0.000155 -0.015043 -0.013072 0.000867
# 3 -0.001019 0.000155 0.005351 -0.004837 -0.004183 0.002299
# 4 -0.012629 -0.015043 -0.004837 0.046948 0.023652 -0.004588
# 5 -0.013534 -0.013072 -0.004183 0.023652 0.047145 -0.007517
# 6 0.004240 0.000867 0.002299 -0.004588 -0.007517 0.026049
#
#
# Mechanical properties :
#
#
# Convention : Reuss Voigt Hill
#
# Bulk Modulus (GPa) = 18.33562 61.94457 40.14010
# Shear Modulus (GPa) = 29.52230 46.63746 38.07988
#
# Velocity S-wave (km/s) = 3.44546 4.33052 3.91309
# Velocity P-wave (km/s) = 4.81676 7.06491 6.04625
#
# Compressibility (1/GPa) = 0.05453866
#
# Stress axis : x y z
#
# Youngs Moduli (GPa) = 55.85336 51.19047 186.87337
#
# Poissons Ratio (x) = -0.34492 0.19043
# Poissons Ratio (y) = -0.37634 -0.02903
# Poissons Ratio (z) = 0.05692 -0.00795
#
# Static dielectric constant tensor:
#      x y z
#    x 1.929820 -0.142760 -0.031180 
#    y -0.142760 3.732670 -0.659240 
#    z -0.031180 -0.659240 2.290720 
# 
# From -- ./inp_files/155564.got.cif
#   From: 2010.05.17/outbox.cif.g08.bks.cpg/sg2_78_cif.got.tgz:155564.got - 2010.06.03 11:33:40.
