data_PCOD9039382
_publ_section_title
;
Structure prediction by ZEFSAII (Michael W. Deem and Ramdas Pophale) SiO2 
 PCOD9039382
Probable space group: P -1
;
_chemical_formula_sum "Si O2"
_cell_formula_units_Z 16
_cell_length_a 8.442823
_cell_length_b 15.831745
_cell_length_c 12.404784
_cell_angle_alpha 152.220280
_cell_angle_beta 96.477115
_cell_angle_gamma 71.067447
_cell_volume 671.456560
_symmetry_space_group_name_H-M "P -1"
_symmetry_group_IT_number 2
_symmetry_cell_setting 'triclinic'
loop_
_space_group_symop_operation_xyz
x,y,z
-x,-y,-z
loop_
_atom_site_type_symbol
_atom_site_label
_atom_site_fract_x
_atom_site_fract_y
_atom_site_fract_z
Si Si1 0.951500 0.332413 0.863055
Si Si2 0.985434 0.265811 0.049442
Si Si3 0.324360 0.074377 0.638725
Si Si4 0.690597 0.325128 0.266481
Si Si5 0.648364 0.157523 0.415566
Si Si6 0.961440 0.365252 0.495173
Si Si7 0.751368 0.468916 0.801192
Si Si8 0.625091 0.943154 0.841368
O O1 0.785457 0.382812 0.828951
O O2 0.139351 0.124331 0.618827
O O3 0.000000 0.500000 0.000000
O O4 0.937751 0.322049 0.980530
O O5 0.078829 0.398573 0.251760
O O6 0.801042 0.333037 0.178273
O O7 0.145774 0.026672 0.808186
O O8 0.356776 0.899091 0.526031
O O9 0.500000 0.000000 0.500000
O O10 0.298242 0.291253 0.933970
O O11 0.500000 0.500000 0.500000
O O12 0.836318 0.300441 0.343118
O O13 0.648427 0.138367 0.030703
O O14 0.620869 0.385408 0.649517
O O15 0.484437 0.129987 0.326095
O O16 0.927309 0.350361 0.603056
O O17 0.168965 0.233119 0.327640
O O18 0.500000 0.000000 0.000000
#
# Coordination Sequence:
#
# PCOD9039382 Si02
#       8
#     2   2   2   2   2   2   2   2
#     4   9  19  42  69  99 140 183 233 282 357 421
#     4  11  22  44  71 103 141 189 237 295 358 425
#     4  10  23  42  68 101 143 179 237 295 346 427
#     4  12  26  44  70 103 140 187 241 295 363 427
#     4  11  24  45  68 102 142 186 239 290 351 425
#     4  12  23  44  72 100 143 185 234 302 357 425
#     4  11  23  44  72 102 143 189 235 289 362 422
#     4  12  26  45  67 102 142 186 243 294 355 427
#
# _framework density 23.828793000000001
#
# number of rings (size 3 to 8) (size 9 to 14) (size 15 to 20)
#    0.000    1.000    3.750    4.500    1.750    2.500 
#    2.250    0.000    0.000    0.000    0.000    0.000 
#    0.000    0.000    0.000    0.000    0.000    0.000 
#
# Total GULP energy -89204.332125 kJ/mol
# GULP energy per Si atom -5575.270758 kJ/mol
# Density = 2.377456 g / cm^3
# Si number density = 23.828793 Si / 1000 Ang^3
#
#
#
# Elastic Constant Matrix: (Units=GPa)
#
#
# Indices 1 2 3 4 5 6 
#
# 1 137.5845 31.4126 50.8520 -7.3550 5.9708 9.5218
# 2 31.4126 70.8725 12.6329 -18.0739 -0.5344 6.8196
# 3 50.8520 12.6329 71.5110 -5.5943 9.0565 20.9089
# 4 -7.3550 -18.0739 -5.5943 19.8899 14.1881 5.8137
# 5 5.9708 -0.5344 9.0565 14.1881 64.3168 -0.4320
# 6 9.5218 6.8196 20.9089 5.8137 -0.4320 26.0616
#
#
#
# Elastic Compliance Matrix: (Units=1/GPa)
#
#
# Indices 1 2 3 4 5 6 
#
# 1 0.011258 -0.005719 -0.009814 -0.007177 0.001919 0.006890
# 2 -0.005719 0.026269 0.009496 0.036805 -0.008846 -0.020760
# 3 -0.009814 0.009496 0.032428 0.031076 -0.010647 -0.032025
# 4 -0.007177 0.036805 0.031076 0.131235 -0.032769 -0.061759
# 5 0.001919 -0.008846 -0.010647 -0.032769 0.024144 0.017866
# 6 0.006890 -0.020760 -0.032025 -0.061759 0.017866 0.081052
#
#
# Mechanical properties :
#
#
# Convention : Reuss Voigt Hill
#
# Bulk Modulus (GPa) = 17.27710 52.19589 34.73649
# Shear Modulus (GPa) = 14.80366 34.39168 24.59767
#
# Velocity S-wave (km/s) = 2.49519 3.80318 3.21638
# Velocity P-wave (km/s) = 3.94558 6.42165 5.32941
#
# Compressibility (1/GPa) = 0.05788010
#
# Stress axis : x y z
#
# Youngs Moduli (GPa) = 88.82901 38.06760 30.83729
#
# Poissons Ratio (x) = 0.21772 0.30264
# Poissons Ratio (y) = 0.50803 -0.29283
# Poissons Ratio (z) = 0.87178 -0.36149
#
# Static dielectric constant tensor:
#      x y z
#    x 1.916550 -0.024650 0.029070 
#    y -0.024650 1.922830 0.002680 
#    z 0.029070 0.002680 1.996770 
# 
# From -- ./inp_files/400041.got.cif
#   From: 2010.05.17/outbox.cif.g08.bks.cpg/sg2_201_cif.got.tgz:400041.got - 2010.06.03 11:33:40.
