data_PCOD9039310
_publ_section_title
;
Structure prediction by ZEFSAII (Michael W. Deem and Ramdas Pophale) SiO2 
 PCOD9039310
Probable space group: P -1
;
_chemical_formula_sum "Si O2"
_cell_formula_units_Z 16
_cell_length_a 24.720148
_cell_length_b 11.828835
_cell_length_c 24.898514
_cell_angle_alpha 147.042503
_cell_angle_beta 168.479903
_cell_angle_gamma 30.640702
_cell_volume 740.479549
_symmetry_space_group_name_H-M "P -1"
_symmetry_group_IT_number 2
_symmetry_cell_setting 'triclinic'
loop_
_space_group_symop_operation_xyz
x,y,z
-x,-y,-z
loop_
_atom_site_type_symbol
_atom_site_label
_atom_site_fract_x
_atom_site_fract_y
_atom_site_fract_z
Si Si1 0.869876 0.911380 0.056825
Si Si2 0.563033 0.638335 0.467264
Si Si3 0.967788 0.467043 0.337115
Si Si4 0.174599 0.165894 0.742180
Si Si5 0.546951 0.608973 0.143440
Si Si6 0.136315 0.585943 0.945397
Si Si7 0.539726 0.337645 0.423817
Si Si8 0.918838 0.938323 0.782391
O O1 0.172666 0.870232 0.364737
O O2 0.750937 0.719213 0.880724
O O3 0.925006 0.943094 0.059697
O O4 0.615766 0.129888 0.915964
O O5 0.863367 0.658485 0.749116
O O6 0.590936 0.456340 0.467699
O O7 0.348178 0.871341 0.374696
O O8 0.417166 0.567193 0.245543
O O9 0.919233 0.684176 0.342472
O O10 0.130610 0.462905 0.549449
O O11 0.156663 0.239916 0.399824
O O12 0.650479 0.455702 0.030582
O O13 0.134768 0.357905 0.825360
O O14 0.000000 0.000000 0.500000
O O15 0.500000 0.000000 0.000000
O O16 0.500000 0.500000 0.000000
O O17 0.098948 0.775864 0.939818
O O18 0.500000 0.500000 0.500000
#
# Coordination Sequence:
#
# PCOD9039310 Si02
#       8
#     2   2   2   2   2   2   2   2
#     4  11  24  43  68  96 126 179 227 264 323 391
#     4  12  25  42  66  97 141 168 212 269 336 386
#     4  10  23  42  67  97 122 172 221 263 322 396
#     4  11  23  46  71  92 130 174 220 262 323 401
#     4  11  23  43  65  97 129 161 221 282 325 366
#     4  11  26  44  64 106 129 166 220 275 332 382
#     4  12  25  43  65  94 136 183 220 254 319 407
#     4  10  23  42  73  92 134 171 220 272 324 396
#
# _framework density 21.607617999999999
#
# number of rings (size 3 to 8) (size 9 to 14) (size 15 to 20)
#    0.000    1.000    1.250    5.250    1.750    7.000 
#   13.500    0.000    0.000    0.000    0.000    0.000 
#    0.000    0.000    0.000    0.000    0.000    0.000 
#
# Total GULP energy -89404.539427 kJ/mol
# GULP energy per Si atom -5587.783714 kJ/mol
# Density = 2.155844 g / cm^3
# Si number density = 21.607618 Si / 1000 Ang^3
#
#
#
# Elastic Constant Matrix: (Units=GPa)
#
#
# Indices 1 2 3 4 5 6 
#
# 1 76.1423 28.8480 -1.9898 -10.2822 -8.3753 18.6729
# 2 28.8480 96.9146 12.8695 -3.3251 2.2215 12.2146
# 3 -1.9898 12.8695 85.0619 -8.3992 1.0585 12.4762
# 4 -10.2822 -3.3251 -8.3992 30.7625 5.2702 3.0233
# 5 -8.3753 2.2215 1.0585 5.2702 27.9342 -5.2986
# 6 18.6729 12.2146 12.4762 3.0233 -5.2986 38.5419
#
#
#
# Elastic Compliance Matrix: (Units=1/GPa)
#
#
# Indices 1 2 3 4 5 6 
#
# 1 0.018267 -0.004597 0.003005 0.006780 0.002836 -0.008508
# 2 -0.004597 0.012145 -0.001720 -0.000124 -0.002522 -0.001402
# 3 0.003005 -0.001720 0.013505 0.005364 -0.001610 -0.005924
# 4 0.006780 -0.000124 0.005364 0.038320 -0.007090 -0.008962
# 5 0.002836 -0.002522 -0.001610 -0.007090 0.039370 0.005915
# 6 -0.008508 -0.001402 -0.005924 -0.008962 0.005915 0.033946
#
#
# Mechanical properties :
#
#
# Convention : Reuss Voigt Hill
#
# Bulk Modulus (GPa) = 26.81406 37.50824 32.16115
# Shear Modulus (GPa) = 28.63541 34.00712 31.32127
#
# Velocity S-wave (km/s) = 3.64434 3.97148 3.81142
# Velocity P-wave (km/s) = 5.49043 6.19893 5.85540
#
# Compressibility (1/GPa) = 0.03729386
#
# Stress axis : x y z
#
# Youngs Moduli (GPa) = 54.74269 82.33618 74.04506
#
# Poissons Ratio (x) = 0.37847 -0.22249
# Poissons Ratio (y) = 0.25163 0.12737
# Poissons Ratio (z) = -0.16449 0.14164
#
# Static dielectric constant tensor:
#      x y z
#    x 1.796750 -0.020290 0.010290 
#    y -0.020290 1.775420 -0.043700 
#    z 0.010290 -0.043700 1.674950 
# 
# From -- ./inp_files/621272.got.cif
#   From: 2010.05.17/outbox.cif.g08.bks.cpg/sg2_311_cif.got.tgz:621272.got - 2010.06.03 11:33:40.
