data_PCOD9039138
_publ_section_title
;
Structure prediction by ZEFSAII (Michael W. Deem and Ramdas Pophale) SiO2 
 PCOD9039138
Probable space group: P -1
;
_chemical_formula_sum "Si O2"
_cell_formula_units_Z 16
_cell_length_a 15.915116
_cell_length_b 6.659766
_cell_length_c 14.177375
_cell_angle_alpha 80.882980
_cell_angle_beta 48.579830
_cell_angle_gamma 48.113395
_cell_volume 722.879152
_symmetry_space_group_name_H-M "P -1"
_symmetry_group_IT_number 2
_symmetry_cell_setting 'triclinic'
loop_
_space_group_symop_operation_xyz
x,y,z
-x,-y,-z
loop_
_atom_site_type_symbol
_atom_site_label
_atom_site_fract_x
_atom_site_fract_y
_atom_site_fract_z
Si Si1 0.325336 0.473619 0.312579
Si Si2 0.240274 0.455271 0.166144
Si Si3 0.143827 0.850995 0.593889
Si Si4 0.435279 0.741736 0.449246
Si Si5 0.437145 0.537085 0.939059
Si Si6 0.356642 0.226618 0.795824
Si Si7 0.164972 0.259257 0.090267
Si Si8 0.221478 0.344720 0.681796
O O1 0.287143 0.425746 0.242934
O O2 0.167575 0.716396 0.483325
O O3 0.409649 0.580983 0.227583
O O4 0.471594 0.135337 0.278074
O O5 0.221663 0.256168 0.152478
O O6 0.376879 0.388688 0.004158
O O7 0.050998 0.814326 0.269057
O O8 0.277002 0.852765 0.505548
O O9 0.202400 0.602960 0.644435
O O10 0.500000 0.500000 0.500000
O O11 0.583094 0.624457 0.278827
O O12 0.362374 0.037046 0.537083
O O13 0.500000 0.500000 0.000000
O O14 0.271324 0.908634 0.013947
O O15 0.274510 0.260794 0.757141
O O16 0.223202 0.354888 0.967582
O O17 0.963243 0.501266 0.212980
#
# Coordination Sequence:
#
# PCOD9039138 Si02
#       8
#     2   2   2   2   2   2   2   2
#     4  10  23  42  66  96 133 172 216 273 319 385
#     4  11  23  44  65  97 133 174 220 262 328 390
#     4  12  23  42  67  98 133 169 218 267 330 391
#     4  12  24  42  67  97 129 177 216 265 327 388
#     4   9  21  40  64  91 129 175 212 265 319 376
#     4  11  24  43  67  99 130 171 218 272 323 385
#     4  11  24  43  68  97 133 172 217 270 326 388
#     4  12  23  46  66  97 137 167 216 275 329 384
#
# _framework density 22.133713
#
# number of rings (size 3 to 8) (size 9 to 14) (size 15 to 20)
#    0.000    1.000    5.000    1.875    1.750    4.500 
#    2.250    2.500    0.000    0.000    0.000    0.000 
#    0.000    0.000    0.000    0.000    0.000    0.000 
#
# Total GULP energy -89447.548852 kJ/mol
# GULP energy per Si atom -5590.471803 kJ/mol
# Density = 2.208334 g / cm^3
# Si number density = 22.133713 Si / 1000 Ang^3
#
#
#
# Elastic Constant Matrix: (Units=GPa)
#
#
# Indices 1 2 3 4 5 6 
#
# 1 128.5659 3.6344 7.8208 -12.6788 -2.6408 -7.3735
# 2 3.6344 50.7804 -1.6050 -5.9398 -1.4005 -15.2283
# 3 7.8208 -1.6050 62.6348 -11.4713 -8.0786 -1.1916
# 4 -12.6788 -5.9398 -11.4713 33.4370 1.8008 -0.1159
# 5 -2.6408 -1.4005 -8.0786 1.8008 37.7635 -4.3645
# 6 -7.3735 -15.2283 -1.1916 -0.1159 -4.3645 27.0816
#
#
#
# Elastic Compliance Matrix: (Units=1/GPa)
#
#
# Indices 1 2 3 4 5 6 
#
# 1 0.008255 0.000588 -0.000307 0.003101 0.000697 0.002690
# 2 0.000588 0.024825 0.002180 0.005277 0.002876 0.014701
# 3 -0.000307 0.002180 0.017733 0.006156 0.003857 0.002570
# 4 0.003101 0.005277 0.006156 0.034115 0.000603 0.004325
# 5 0.000697 0.002876 0.003857 0.000603 0.028186 0.006521
# 6 0.002690 0.014701 0.002570 0.004325 0.006521 0.047107
#
#
# Mechanical properties :
#
#
# Convention : Reuss Voigt Hill
#
# Bulk Modulus (GPa) = 17.94199 29.07573 23.50886
# Shear Modulus (GPa) = 28.75606 35.13183 31.94395
#
# Velocity S-wave (km/s) = 3.60835 3.98836 3.80310
# Velocity P-wave (km/s) = 5.04817 5.86296 5.47075
#
# Compressibility (1/GPa) = 0.05573518
#
# Stress axis : x y z
#
# Youngs Moduli (GPa) = 121.14526 40.28252 56.39054
#
# Poissons Ratio (x) = -0.02370 0.01729
# Poissons Ratio (y) = -0.07126 -0.12291
# Poissons Ratio (z) = 0.03715 -0.08780
#
# Static dielectric constant tensor:
#      x y z
#    x 1.826210 0.030630 -0.005230 
#    y 0.030630 1.800940 -0.026680 
#    z -0.005230 -0.026680 1.822460 
# 
# From -- ./inp_files/68480.got.cif
#   From: 2010.05.17/outbox.cif.g08.bks.cpg/sg2_35_cif.got.tgz:68480.got - 2010.06.03 11:33:40.
