data_PCOD9039547
_publ_section_title
;
Structure prediction by ZEFSAII (Michael W. Deem and Ramdas Pophale) SiO2 
 PCOD9039547
Probable space group: P -1
;
_chemical_formula_sum "Si O2"
_cell_formula_units_Z 14
_cell_length_a 8.206202
_cell_length_b 8.646677
_cell_length_c 9.258399
_cell_angle_alpha 85.615441
_cell_angle_beta 113.996132
_cell_angle_gamma 103.294106
_cell_volume 583.974349
_symmetry_space_group_name_H-M "P -1"
_symmetry_group_IT_number 2
_symmetry_cell_setting 'triclinic'
loop_
_space_group_symop_operation_xyz
x,y,z
-x,-y,-z
loop_
_atom_site_type_symbol
_atom_site_label
_atom_site_fract_x
_atom_site_fract_y
_atom_site_fract_z
Si Si1 0.204036 0.405831 0.708354
Si Si2 0.373718 0.821183 0.456916
Si Si3 0.921589 0.274302 0.397004
Si Si4 0.566279 0.607325 0.691461
Si Si5 0.853927 0.145655 0.076636
Si Si6 0.824926 0.385526 0.859362
Si Si7 0.218606 0.199257 0.007265
O O1 0.093915 0.547725 0.669463
O O2 0.397670 0.483095 0.706141
O O3 0.216285 0.325613 0.871594
O O4 0.094659 0.284928 0.560867
O O5 0.250928 0.794040 0.558940
O O6 0.507386 0.696925 0.527196
O O7 0.229199 0.752771 0.279258
O O8 0.500000 0.000000 0.500000
O O9 0.923057 0.176407 0.260584
O O10 0.731453 0.519104 0.748092
O O11 0.627020 0.740028 0.825619
O O12 0.755865 0.964961 0.036514
O O13 0.741009 0.274068 0.973333
O O14 0.026072 0.174608 0.025687
O O15 0.000000 0.500000 0.000000
#
# Coordination Sequence:
#
# PCOD9039547 Si02
#       7
#     2   2   2   2   2   2   2
#     4  10  23  42  69 101 140 184 236 296 348 432
#     4  11  26  49  73 108 148 187 235 306 361 425
#     4  10  24  43  71 100 141 186 237 286 369 427
#     4  11  24  42  73 106 143 185 248 292 351 430
#     4  11  25  41  69 100 139 187 234 295 354 429
#     4  12  25  45  76 104 141 194 243 289 356 431
#     4  11  23  43  65 102 141 182 239 293 358 411
#
# _framework density 23.973656999999999
#
# number of rings (size 3 to 8) (size 9 to 14) (size 15 to 20)
#    0.000    1.143    1.429    3.429    6.000    5.143 
#    0.000    4.286    0.000    0.000    0.000    0.000 
#    0.000    0.000    0.000    0.000    0.000    0.000 
#
# Total GULP energy -78189.460970 kJ/mol
# GULP energy per Si atom -5584.961498 kJ/mol
# Density = 2.391909 g / cm^3
# Si number density = 23.973657 Si / 1000 Ang^3
#
#
#
# Elastic Constant Matrix: (Units=GPa)
#
#
# Indices 1 2 3 4 5 6 
#
# 1 51.8743 29.5697 36.3413 1.4187 6.3086 12.5658
# 2 29.5697 109.2832 44.9380 32.1922 5.1714 20.1775
# 3 36.3413 44.9380 178.1756 34.6215 10.2141 7.6525
# 4 1.4187 32.1922 34.6215 43.8776 -5.0486 -2.8212
# 5 6.3086 5.1714 10.2141 -5.0486 35.8164 1.6087
# 6 12.5658 20.1775 7.6525 -2.8212 1.6087 23.4839
#
#
#
# Elastic Compliance Matrix: (Units=1/GPa)
#
#
# Indices 1 2 3 4 5 6 
#
# 1 0.028120 -0.006217 -0.005179 0.007139 -0.001254 -0.007074
# 2 -0.006217 0.017400 0.000336 -0.014013 -0.002895 -0.013218
# 3 -0.005179 0.000336 0.008068 -0.006768 -0.002355 -0.000798
# 4 0.007139 -0.014013 -0.006768 0.040010 0.007675 0.014706
# 5 -0.001254 -0.002895 -0.002355 0.007675 0.030188 0.002780
# 6 -0.007074 -0.013218 -0.000798 0.014706 0.002780 0.059561
#
#
# Mechanical properties :
#
#
# Convention : Reuss Voigt Hill
#
# Bulk Modulus (GPa) = 31.77711 62.33681 47.05696
# Shear Modulus (GPa) = 23.15281 35.86783 29.51032
#
# Velocity S-wave (km/s) = 3.11104 3.87219 3.51229
# Velocity P-wave (km/s) = 5.11747 6.78605 6.00995
#
# Compressibility (1/GPa) = 0.03146919
#
# Stress axis : x y z
#
# Youngs Moduli (GPa) = 35.56162 57.47155 123.94029
#
# Poissons Ratio (x) = 0.35728 0.64190
# Poissons Ratio (y) = 0.22107 -0.04165
# Poissons Ratio (z) = 0.18418 -0.01931
#
# Static dielectric constant tensor:
#      x y z
#    x 2.024310 -0.108560 0.049470 
#    y -0.108560 1.997560 -0.025110 
#    z 0.049470 -0.025110 1.918030 
# 
# From -- ./inp_files/158994.got.cif
#   From: 2010.05.17/outbox.cif.g08.bks.cpg/sg2_80_cif.got.tgz:158994.got - 2010.06.03 11:33:40.
