data_PCOD9039106
_publ_section_title
;
Structure prediction by ZEFSAII (Michael W. Deem and Ramdas Pophale) SiO2 
 PCOD9039106
Probable space group: P -1
;
_chemical_formula_sum "Si O2"
_cell_formula_units_Z 16
_cell_length_a 16.022346
_cell_length_b 13.732723
_cell_length_c 14.631585
_cell_angle_alpha 122.880201
_cell_angle_beta 31.509673
_cell_angle_gamma 146.146145
_cell_volume 772.000026
_symmetry_space_group_name_H-M "P -1"
_symmetry_group_IT_number 2
_symmetry_cell_setting 'triclinic'
loop_
_space_group_symop_operation_xyz
x,y,z
-x,-y,-z
loop_
_atom_site_type_symbol
_atom_site_label
_atom_site_fract_x
_atom_site_fract_y
_atom_site_fract_z
Si Si1 0.578858 0.823333 0.982808
Si Si2 0.949258 0.132703 0.971347
Si Si3 0.751907 0.682477 0.786716
Si Si4 0.820061 0.152651 0.809647
Si Si5 0.877631 0.553176 0.147117
Si Si6 0.038499 0.412478 0.567191
Si Si7 0.538496 0.886940 0.397885
Si Si8 0.677874 0.840640 0.425587
O O1 0.268706 0.703842 0.214180
O O2 0.726936 0.950039 0.006519
O O3 0.592239 0.693135 0.888650
O O4 0.769668 0.990847 0.805967
O O5 0.813700 0.038748 0.150330
O O6 0.049855 0.322419 0.943948
O O7 0.221742 0.213745 0.747647
O O8 0.864949 0.627229 0.615191
O O9 0.500000 0.500000 0.000000
O O10 0.043923 0.922276 0.673653
O O11 0.945406 0.284352 0.851330
O O12 0.022054 0.322033 0.627039
O O13 0.500000 0.000000 0.000000
O O14 0.541999 0.333643 0.378703
O O15 0.000000 0.500000 0.000000
O O16 0.278584 0.658349 0.476184
O O17 0.550705 0.844882 0.467612
O O18 0.500000 0.000000 0.500000
#
# Coordination Sequence:
#
# PCOD9039106 Si02
#       8
#     2   2   2   2   2   2   2   2
#     4   9  22  43  67  96 131 172 229 271 325 401
#     4  10  23  42  66  93 133 178 217 278 333 392
#     4  11  26  43  69  98 130 180 228 269 332 402
#     4   9  20  40  64  95 132 170 219 276 330 393
#     4  11  22  40  68  96 131 174 224 273 330 401
#     4  11  23  43  70  93 135 176 220 279 334 393
#     4  12  26  42  65 101 132 173 222 277 344 398
#     4  11  24  45  65  96 136 170 227 276 335 405
#
# _framework density 20.725387999999999
#
# number of rings (size 3 to 8) (size 9 to 14) (size 15 to 20)
#    0.000    1.500    1.250    3.000    8.750    1.500 
#    0.000    0.000    0.000    0.000    0.000    0.000 
#    0.000    0.000    0.000    0.000    0.000    0.000 
#
# Total GULP energy -89157.514367 kJ/mol
# GULP energy per Si atom -5572.344648 kJ/mol
# Density = 2.067822 g / cm^3
# Si number density = 20.725388 Si / 1000 Ang^3
#
#
#
# Elastic Constant Matrix: (Units=GPa)
#
#
# Indices 1 2 3 4 5 6 
#
# 1 29.8752 7.1135 -27.2289 -12.0087 -17.0795 -12.1805
# 2 7.1135 122.9347 20.5561 -10.9508 -26.2279 -19.4105
# 3 -27.2289 20.5561 17.7668 -21.5434 -40.9394 13.0040
# 4 -12.0087 -10.9508 -21.5434 30.0038 -29.1572 6.3865
# 5 -17.0795 -26.2279 -40.9394 -29.1572 3.3534 15.3275
# 6 -12.1805 -19.4105 13.0040 6.3865 15.3275 23.4563
#
#
#
# Elastic Compliance Matrix: (Units=1/GPa)
#
#
# Indices 1 2 3 4 5 6 
#
# 1 0.034711 -0.000534 -0.001165 -0.005076 -0.012389 0.027706
# 2 -0.000534 0.011828 -0.005796 0.002940 0.004984 0.008666
# 3 -0.001165 -0.005796 0.010955 -0.010419 -0.015791 0.001680
# 4 -0.005076 0.002940 -0.010419 0.017026 -0.006899 0.005446
# 5 -0.012389 0.004984 -0.015791 -0.006899 0.008417 0.002824
# 6 0.027706 0.008666 0.001680 0.005446 0.002824 0.059932
#
#
# Mechanical properties :
#
#
# Convention : Reuss Voigt Hill
#
# Bulk Modulus (GPa) = 23.52793 19.05091 21.28942
# Shear Modulus (GPa) = 29.06482 22.70510 25.88496
#
# Velocity S-wave (km/s) = 3.74890 3.31346 3.53788
# Velocity P-wave (km/s) = 5.48779 4.88372 5.19454
#
# Compressibility (1/GPa) = 0.04250267
#
# Stress axis : x y z
#
# Youngs Moduli (GPa) = 28.80935 84.54373 91.27951
#
# Poissons Ratio (x) = 0.04517 0.10638
# Poissons Ratio (y) = 0.01539 0.52907
# Poissons Ratio (z) = 0.03358 0.49003
#
# Static dielectric constant tensor:
#      x y z
#    x 1.788110 -0.008820 0.010880 
#    y -0.008820 1.734930 -0.000580 
#    z 0.010880 -0.000580 1.776260 
# 
# From -- ./inp_files/216726.got.cif
#   From: 2010.05.17/outbox.cif.g08.bks.cpg/sg2_109_cif.got.tgz:216726.got - 2010.06.03 11:33:40.
