data_PCOD9039992
_publ_section_title
;
Structure prediction by ZEFSAII (Michael W. Deem and Ramdas Pophale) SiO2 
 PCOD9039992
Probable space group: P -1
;
_chemical_formula_sum "Si O2"
_cell_formula_units_Z 12
_cell_length_a 6.530416
_cell_length_b 9.019709
_cell_length_c 11.515734
_cell_angle_alpha 126.008631
_cell_angle_beta 88.475300
_cell_angle_gamma 104.141273
_cell_volume 526.117966
_symmetry_space_group_name_H-M "P -1"
_symmetry_group_IT_number 2
_symmetry_cell_setting 'triclinic'
loop_
_space_group_symop_operation_xyz
x,y,z
-x,-y,-z
loop_
_atom_site_type_symbol
_atom_site_label
_atom_site_fract_x
_atom_site_fract_y
_atom_site_fract_z
Si Si1 0.499862 0.228337 0.986056
Si Si2 0.386806 0.778456 0.273535
Si Si3 0.786368 0.172450 0.156351
Si Si4 0.771173 0.880999 0.495733
Si Si5 0.742668 0.568801 0.749339
Si Si6 0.763693 0.505106 0.465544
O O1 0.584351 0.294023 0.888132
O O2 0.300335 0.038941 0.889538
O O3 0.683297 0.172007 0.030790
O O4 0.417754 0.372170 0.133499
O O5 0.604700 0.820142 0.363792
O O6 0.217494 0.618095 0.277473
O O7 0.319449 0.973510 0.359192
O O8 0.695148 0.313207 0.302587
O O9 0.040343 0.260357 0.186137
O O10 0.787245 0.697180 0.481553
O O11 0.000000 0.000000 0.500000
O O12 0.653400 0.512778 0.595393
O O13 0.000000 0.500000 0.500000
#
# Coordination Sequence:
#
# PCOD9039992 Si02
#       6
#     2   2   2   2   2   2
#     4  11  25  42  67 101 139 177 226 279 338 406
#     4  11  27  42  68 105 138 177 230 278 344 406
#     4  10  24  42  67 100 134 177 231 275 339 400
#     4  11  25  44  70 102 140 179 223 286 344 401
#     4  11  24  44  69  98 136 182 224 281 336 401
#     4  10  23  42  73  98 130 180 232 275 330 405
#
# _framework density 22.808574
#
# number of rings (size 3 to 8) (size 9 to 14) (size 15 to 20)
#    0.000    1.333    0.000    4.000   14.000    3.333 
#    0.000    0.000    0.000    0.000    0.000    0.000 
#    0.000    0.000    0.000    0.000    0.000    0.000 
#
# Total GULP energy -67155.337923 kJ/mol
# GULP energy per Si atom -5596.278160 kJ/mol
# Density = 2.275666 g / cm^3
# Si number density = 22.808574 Si / 1000 Ang^3
#
#
#
# Elastic Constant Matrix: (Units=GPa)
#
#
# Indices 1 2 3 4 5 6 
#
# 1 63.7807 15.8625 14.7217 -6.6882 -7.5668 1.1035
# 2 15.8625 121.7133 41.1432 -4.9796 -8.7196 -2.5295
# 3 14.7217 41.1432 123.5209 -17.2936 -25.8812 5.8760
# 4 -6.6882 -4.9796 -17.2936 41.7763 8.3843 -4.1230
# 5 -7.5668 -8.7196 -25.8812 8.3843 42.9030 10.0452
# 6 1.1035 -2.5295 5.8760 -4.1230 10.0452 39.8237
#
#
#
# Elastic Compliance Matrix: (Units=1/GPa)
#
#
# Indices 1 2 3 4 5 6 
#
# 1 0.016707 -0.001739 -0.000714 0.001687 0.002021 -0.000803
# 2 -0.001739 0.009487 -0.003152 -0.000227 -0.000522 0.001224
# 3 -0.000714 -0.003152 0.011011 0.002540 0.006101 -0.003081
# 4 0.001687 -0.000227 0.002540 0.026396 -0.004158 0.003346
# 5 0.002021 -0.000522 0.006101 -0.004158 0.030166 -0.009029
# 6 -0.000803 0.001224 -0.003081 0.003346 -0.009029 0.028289
#
#
# Mechanical properties :
#
#
# Convention : Reuss Voigt Hill
#
# Bulk Modulus (GPa) = 38.46977 50.27442 44.37209
# Shear Modulus (GPa) = 35.22837 40.71976 37.97406
#
# Velocity S-wave (km/s) = 3.93431 4.22984 4.08475
# Velocity P-wave (km/s) = 6.12710 6.77829 6.46090
#
# Compressibility (1/GPa) = 0.02599444
#
# Stress axis : x y z
#
# Youngs Moduli (GPa) = 59.85684 105.40832 90.81543
#
# Poissons Ratio (x) = 0.18328 0.06486
# Poissons Ratio (y) = 0.10408 0.28627
# Poissons Ratio (z) = 0.04275 0.33226
#
# Static dielectric constant tensor:
#      x y z
#    x 1.945860 -0.010340 -0.010580 
#    y -0.010340 1.818790 0.011600 
#    z -0.010580 0.011600 1.847100 
# 
# From -- ./inp_files/26146.got.cif
#   From: 2010.05.17/outbox.cif.g08.bks.cpg/sg2_14_cif.got.tgz:26146.got - 2010.06.03 11:33:40.
