data_PCOD9039984
_publ_section_title
;
Structure prediction by ZEFSAII (Michael W. Deem and Ramdas Pophale) SiO2 
 PCOD9039984
Probable space group: P -1
;
_chemical_formula_sum "Si O2"
_cell_formula_units_Z 16
_cell_length_a 10.645550
_cell_length_b 12.106795
_cell_length_c 9.427884
_cell_angle_alpha 141.763984
_cell_angle_beta 106.503369
_cell_angle_gamma 57.917312
_cell_volume 616.305040
_symmetry_space_group_name_H-M "P -1"
_symmetry_group_IT_number 2
_symmetry_cell_setting 'triclinic'
loop_
_space_group_symop_operation_xyz
x,y,z
-x,-y,-z
loop_
_atom_site_type_symbol
_atom_site_label
_atom_site_fract_x
_atom_site_fract_y
_atom_site_fract_z
Si Si1 0.748849 0.669217 0.598907
Si Si2 0.472387 0.490269 0.644885
Si Si3 0.728409 0.379135 0.839914
Si Si4 0.858884 0.919131 0.038048
Si Si5 0.052121 0.773180 0.682893
Si Si6 0.717354 0.765281 0.376807
Si Si7 0.708435 0.115930 0.820916
Si Si8 0.939903 0.742599 0.200121
O O1 0.597779 0.658706 0.517675
O O2 0.807076 0.643201 0.427697
O O3 0.857701 0.477042 0.545748
O O4 0.741617 0.868676 0.869854
O O5 0.500000 0.500000 0.500000
O O6 0.621674 0.409830 0.706212
O O7 0.357346 0.716912 0.905093
O O8 0.687502 0.600769 0.121226
O O9 0.701478 0.253690 0.825838
O O10 0.906110 0.252795 0.721913
O O11 0.885980 0.828635 0.112478
O O12 0.009339 0.803492 0.867539
O O13 0.839672 0.145641 0.257306
O O14 0.801544 0.832502 0.356185
O O15 0.885840 0.934182 0.724886
O O16 0.614080 0.996664 0.646842
O O17 0.000000 0.500000 0.000000
#
# Coordination Sequence:
#
# PCOD9039984 Si02
#       8
#     2   2   2   2   2   2   2   2
#     4  12  26  45  79 110 152 204 245 305 393 437
#     4  12  30  54  77 104 149 212 258 314 370 453
#     4  11  25  53  73 105 163 201 250 305 371 464
#     4  11  22  41  69 112 155 188 238 309 371 446
#     4  11  23  41  78 115 153 187 251 316 378 449
#     4  11  26  46  79 117 148 201 244 319 384 450
#     4  12  25  49  76 113 147 200 257 300 387 451
#     4  10  23  42  73 116 149 192 245 307 388 433
#
# _framework density 25.961169000000002
#
# number of rings (size 3 to 8) (size 9 to 14) (size 15 to 20)
#    0.000    0.750    3.750    3.750    7.000    1.000 
#    6.750    0.625    0.000    0.000    0.000    0.000 
#    0.000    0.000    0.000    0.000    0.000    0.000 
#
# Total GULP energy -89404.405709 kJ/mol
# GULP energy per Si atom -5587.775357 kJ/mol
# Density = 2.590208 g / cm^3
# Si number density = 25.961169 Si / 1000 Ang^3
#
#
#
# Elastic Constant Matrix: (Units=GPa)
#
#
# Indices 1 2 3 4 5 6 
#
# 1 97.8864 63.5048 75.6223 -14.0156 42.3739 6.6112
# 2 63.5048 196.6656 91.8007 -31.0152 10.5802 28.4684
# 3 75.6223 91.8007 127.0753 -9.0738 35.5188 20.2528
# 4 -14.0156 -31.0152 -9.0738 59.9104 0.0061 9.3549
# 5 42.3739 10.5802 35.5188 0.0061 41.4663 2.8530
# 6 6.6112 28.4684 20.2528 9.3549 2.8530 44.3887
#
#
#
# Elastic Compliance Matrix: (Units=1/GPa)
#
#
# Indices 1 2 3 4 5 6 
#
# 1 0.029062 -0.004267 -0.008470 0.002831 -0.021565 0.003062
# 2 -0.004267 0.009999 -0.005614 0.004032 0.006927 -0.004511
# 3 -0.008470 -0.005614 0.019030 -0.001518 -0.005998 -0.003115
# 4 0.002831 0.004032 -0.001518 0.020216 -0.002181 -0.006435
# 5 -0.021565 0.006927 -0.005998 -0.002181 0.049607 -0.001223
# 6 0.003062 -0.004511 -0.003115 -0.006435 -0.001223 0.027821
#
#
# Mechanical properties :
#
#
# Convention : Reuss Voigt Hill
#
# Bulk Modulus (GPa) = 46.75391 98.16476 72.45934
# Shear Modulus (GPa) = 25.05428 41.86637 33.46033
#
# Velocity S-wave (km/s) = 3.10992 4.02014 3.59397
# Velocity P-wave (km/s) = 5.56271 7.70993 6.72260
#
# Compressibility (1/GPa) = 0.02138859
#
# Stress axis : x y z
#
# Youngs Moduli (GPa) = 34.40974 100.00866 52.54890
#
# Poissons Ratio (x) = 0.42675 0.44510
# Poissons Ratio (y) = 0.14683 0.29499
# Poissons Ratio (z) = 0.29146 0.56141
#
# Static dielectric constant tensor:
#      x y z
#    x 2.190190 -0.016420 -0.015640 
#    y -0.016420 2.048400 0.038480 
#    z -0.015640 0.038480 2.183170 
# 
# From -- ./inp_files/260645.got.cif
#   From: 2010.05.17/outbox.cif.g08.bks.cpg/sg2_131_cif.got.tgz:260645.got - 2010.06.03 11:33:40.
