data_PCOD9039546
_publ_section_title
;
Structure prediction by ZEFSAII (Michael W. Deem and Ramdas Pophale) SiO2 
 PCOD9039546
Probable space group: P -1
;
_chemical_formula_sum "Si O2"
_cell_formula_units_Z 14
_cell_length_a 7.980123
_cell_length_b 19.258031
_cell_length_c 5.577994
_cell_angle_alpha 101.787377
_cell_angle_beta 57.760602
_cell_angle_gamma 125.161661
_cell_volume 586.164156
_symmetry_space_group_name_H-M "P -1"
_symmetry_group_IT_number 2
_symmetry_cell_setting 'triclinic'
loop_
_space_group_symop_operation_xyz
x,y,z
-x,-y,-z
loop_
_atom_site_type_symbol
_atom_site_label
_atom_site_fract_x
_atom_site_fract_y
_atom_site_fract_z
Si Si1 0.106272 0.169427 0.778628
Si Si2 0.465821 0.810394 0.231774
Si Si3 0.618395 0.996851 0.155068
Si Si4 0.719627 0.464204 0.224449
Si Si5 0.182747 0.471104 0.304276
Si Si6 0.972039 0.716034 0.799503
Si Si7 0.602947 0.722779 0.755243
O O1 0.344800 0.191088 0.744285
O O2 0.190877 0.185958 0.452923
O O3 0.041069 0.239127 0.920554
O O4 0.889785 0.079141 0.978521
O O5 0.225504 0.782820 0.530824
O O6 0.588054 0.906276 0.112637
O O7 0.415314 0.740014 0.023649
O O8 0.500000 0.000000 0.500000
O O9 0.500000 0.000000 0.000000
O O10 0.712671 0.514231 0.495092
O O11 0.552057 0.363012 0.344511
O O12 0.654747 0.475250 0.010236
O O13 0.000000 0.500000 0.000000
O O14 0.057383 0.373917 0.242619
O O15 0.000000 0.500000 0.500000
O O16 0.754440 0.705154 0.806882
#
# Coordination Sequence:
#
# PCOD9039546 Si02
#       7
#     2   2   2   2   2   2   2
#     4  11  27  46  75 112 146 194 250 303 372 442
#     4  11  25  47  78 105 151 197 244 303 371 446
#     4  12  27  51  79 112 153 194 244 301 375 443
#     4  10  23  43  68 100 145 187 248 296 366 429
#     4  10  23  42  69 101 139 194 244 297 366 431
#     4  11  25  46  72 106 150 191 250 309 372 436
#     4  11  27  44  73 110 144 198 250 309 367 443
#
# _framework density 23.884094000000001
#
# number of rings (size 3 to 8) (size 9 to 14) (size 15 to 20)
#    0.000    1.143    1.429    3.000   14.000    2.857 
#    0.000    0.000    0.000    0.000    0.000    0.000 
#    0.000    0.000    0.000    0.000    0.000    0.000 
#
# Total GULP energy -78193.393302 kJ/mol
# GULP energy per Si atom -5585.242379 kJ/mol
# Density = 2.382973 g / cm^3
# Si number density = 23.884094 Si / 1000 Ang^3
#
#
#
# Elastic Constant Matrix: (Units=GPa)
#
#
# Indices 1 2 3 4 5 6 
#
# 1 49.8041 15.7189 30.7128 4.6142 -1.7144 -4.8182
# 2 15.7189 116.3347 14.1348 -7.0597 -7.3349 -14.4809
# 3 30.7128 14.1348 120.8742 -4.8450 -3.7826 -1.0674
# 4 4.6142 -7.0597 -4.8450 45.6830 -3.4167 -8.8727
# 5 -1.7144 -7.3349 -3.7826 -3.4167 42.8977 -3.3567
# 6 -4.8182 -14.4809 -1.0674 -8.8727 -3.3567 39.4860
#
#
#
# Elastic Compliance Matrix: (Units=1/GPa)
#
#
# Indices 1 2 3 4 5 6 
#
# 1 0.025191 -0.002729 -0.006215 -0.003422 -0.000193 0.001120
# 2 -0.002729 0.009791 -0.000243 0.002702 0.002075 0.004035
# 3 -0.006215 -0.000243 0.009969 0.001673 0.000711 -0.000141
# 4 -0.003422 0.002702 0.001673 0.024275 0.002901 0.006320
# 5 -0.000193 0.002075 0.000711 0.002901 0.024223 0.003468
# 6 0.001120 0.004035 -0.000141 0.006320 0.003468 0.028653
#
#
# Mechanical properties :
#
#
# Convention : Reuss Voigt Hill
#
# Bulk Modulus (GPa) = 37.62579 45.34955 41.48767
# Shear Modulus (GPa) = 33.48171 40.70977 37.09574
#
# Velocity S-wave (km/s) = 3.74818 4.13300 3.94529
# Velocity P-wave (km/s) = 5.87533 6.46562 6.17753
#
# Compressibility (1/GPa) = 0.02657751
#
# Stress axis : x y z
#
# Youngs Moduli (GPa) = 39.69606 102.13351 100.31403
#
# Poissons Ratio (x) = 0.27874 0.62346
# Poissons Ratio (y) = 0.10834 0.02434
# Poissons Ratio (z) = 0.24671 0.02478
#
# Static dielectric constant tensor:
#      x y z
#    x 1.657640 0.020470 0.025550 
#    y 0.020470 1.913870 -0.011300 
#    z 0.025550 -0.011300 1.925200 
# 
# From -- ./inp_files/48110.got.cif
#   From: 2010.05.17/outbox.cif.g08.bks.cpg/sg2_25_cif.got.tgz:48110.got - 2010.06.03 11:33:40.
