data_PCOD9039378
_publ_section_title
;
Structure prediction by ZEFSAII (Michael W. Deem and Ramdas Pophale) SiO2 
 PCOD9039378
Probable space group: P -1
;
_chemical_formula_sum "Si O2"
_cell_formula_units_Z 12
_cell_length_a 11.720765
_cell_length_b 19.399852
_cell_length_c 4.864606
_cell_angle_alpha 62.901608
_cell_angle_beta 54.256547
_cell_angle_gamma 35.347844
_cell_volume 518.878617
_symmetry_space_group_name_H-M "P -1"
_symmetry_group_IT_number 2
_symmetry_cell_setting 'triclinic'
loop_
_space_group_symop_operation_xyz
x,y,z
-x,-y,-z
loop_
_atom_site_type_symbol
_atom_site_label
_atom_site_fract_x
_atom_site_fract_y
_atom_site_fract_z
Si Si1 0.812966 0.542366 0.375393
Si Si2 0.578340 0.393083 0.260094
Si Si3 0.126871 0.283267 0.516184
Si Si4 0.866975 0.257643 0.619356
Si Si5 0.612432 0.783601 0.257729
Si Si6 0.098332 0.005925 0.601063
O O1 0.627446 0.571761 0.427241
O O2 0.690842 0.665505 0.460542
O O3 0.940351 0.424953 0.586363
O O4 0.000000 0.500000 0.000000
O O5 0.721876 0.350920 0.402070
O O6 0.500000 0.500000 0.000000
O O7 0.715483 0.289781 0.022457
O O8 0.258012 0.211294 0.738379
O O9 0.008472 0.262818 0.566450
O O10 0.300304 0.243090 0.125468
O O11 0.009967 0.129998 0.522516
O O12 0.357443 0.898209 0.426313
O O13 0.000000 0.000000 0.500000
O O14 0.000000 0.000000 0.000000
#
# Coordination Sequence:
#
# PCOD9039378 Si02
#       6
#     2   2   2   2   2   2
#     4  10  23  42  68 101 141 180 230 290 349 415
#     4  12  25  44  73 105 142 182 235 292 360 420
#     4  11  24  41  66 100 138 176 230 284 354 413
#     4  12  26  45  71 104 141 183 236 295 348 422
#     4  11  24  42  66  98 137 183 227 280 350 414
#     4  12  26  47  71  99 138 185 240 290 347 420
#
# _framework density 23.126794
#
# number of rings (size 3 to 8) (size 9 to 14) (size 15 to 20)
#    0.000    0.667    1.667    6.000    0.000    6.667 
#    0.000    0.000    0.000    0.000    0.000    0.000 
#    0.000    0.000    0.000    0.000    0.000    0.000 
#
# Total GULP energy -67148.803731 kJ/mol
# GULP energy per Si atom -5595.733644 kJ/mol
# Density = 2.307416 g / cm^3
# Si number density = 23.126794 Si / 1000 Ang^3
#
#
#
# Elastic Constant Matrix: (Units=GPa)
#
#
# Indices 1 2 3 4 5 6 
#
# 1 149.6311 67.7498 27.4176 1.5050 -0.2556 -17.1843
# 2 67.7498 139.9380 29.3269 25.8036 -9.3259 -2.3732
# 3 27.4176 29.3269 95.1001 17.6102 0.0755 -10.0496
# 4 1.5050 25.8036 17.6102 34.7015 -4.6378 -3.0124
# 5 -0.2556 -9.3259 0.0755 -4.6378 50.0010 -1.3101
# 6 -17.1843 -2.3732 -10.0496 -3.0124 -1.3101 39.5561
#
#
#
# Elastic Compliance Matrix: (Units=1/GPa)
#
#
# Indices 1 2 3 4 5 6 
#
# 1 0.009710 -0.005152 -0.001644 0.004524 -0.000389 0.003823
# 2 -0.005152 0.011292 -0.000799 -0.007795 0.001297 -0.002314
# 3 -0.001644 -0.000799 0.012477 -0.005582 -0.000643 0.001961
# 4 0.004524 -0.007795 -0.005582 0.037802 0.002163 0.003030
# 5 -0.000389 0.001297 -0.000643 0.002163 0.020457 0.000588
# 6 0.003823 -0.002314 0.001961 0.003030 0.000588 0.027551
#
#
# Mechanical properties :
#
#
# Convention : Reuss Voigt Hill
#
# Bulk Modulus (GPa) = 54.67650 70.40641 62.54146
# Shear Modulus (GPa) = 35.56810 42.19669 38.88239
#
# Velocity S-wave (km/s) = 3.92594 4.27614 4.10478
# Velocity P-wave (km/s) = 6.65162 7.40880 7.04040
#
# Compressibility (1/GPa) = 0.01828939
#
# Stress axis : x y z
#
# Youngs Moduli (GPa) = 102.98879 88.55657 80.14687
#
# Poissons Ratio (x) = 0.45621 0.13177
# Poissons Ratio (y) = 0.53056 0.06405
# Poissons Ratio (z) = 0.16932 0.07077
#
# Static dielectric constant tensor:
#      x y z
#    x 1.863360 0.044800 -0.029240 
#    y 0.044800 1.949290 -0.029230 
#    z -0.029240 -0.029230 1.886600 
# 
# From -- ./inp_files/23323.got.cif
#   From: 2010.05.17/outbox.cif.g08.bks.cpg/sg2_12_cif.got.tgz:23323.got - 2010.06.03 11:33:40.
