data_PCOD9039657
_publ_section_title
;
Structure prediction by ZEFSAII (Michael W. Deem and Ramdas Pophale) SiO2 
 PCOD9039657
Probable space group: P -1
;
_chemical_formula_sum "Si O2"
_cell_formula_units_Z 16
_cell_length_a 24.069080
_cell_length_b 9.655990
_cell_length_c 8.079151
_cell_angle_alpha 92.577113
_cell_angle_beta 56.038570
_cell_angle_gamma 139.689276
_cell_volume 709.394012
_symmetry_space_group_name_H-M "P -1"
_symmetry_group_IT_number 2
_symmetry_cell_setting 'triclinic'
loop_
_space_group_symop_operation_xyz
x,y,z
-x,-y,-z
loop_
_atom_site_type_symbol
_atom_site_label
_atom_site_fract_x
_atom_site_fract_y
_atom_site_fract_z
Si Si1 0.231378 0.878922 0.686500
Si Si2 0.442688 0.751650 0.504438
Si Si3 0.363632 0.652257 0.259055
Si Si4 0.052534 0.813829 0.932610
Si Si5 0.372583 0.181015 0.792419
Si Si6 0.449781 0.519950 0.952248
Si Si7 0.073631 0.049347 0.596388
Si Si8 0.847386 0.857162 0.886726
O O1 0.169788 0.906800 0.710989
O O2 0.240062 0.916021 0.872020
O O3 0.397331 0.152556 0.372475
O O4 0.112441 0.546415 0.820602
O O5 0.363165 0.639948 0.457544
O O6 0.561667 0.849619 0.275629
O O7 0.500000 0.000000 0.500000
O O8 0.325993 0.473247 0.812543
O O9 0.207059 0.404563 0.426347
O O10 0.386490 0.539802 0.142580
O O11 0.500000 0.000000 0.000000
O O12 0.067370 0.952648 0.770563
O O13 0.089127 0.932361 0.061637
O O14 0.500000 0.500000 0.500000
O O15 0.346733 0.237107 0.989926
O O16 0.500000 0.500000 0.000000
O O17 0.110437 0.034720 0.366136
O O18 0.921171 0.844353 0.802555
#
# Coordination Sequence:
#
# PCOD9039657 Si02
#       8
#     2   2   2   2   2   2   2   2
#     4  10  25  42  70 100 132 182 231 279 351 410
#     4  12  26  44  70 105 141 180 235 295 346 414
#     4  12  27  42  69 106 141 180 236 292 347 413
#     4  11  23  48  69  98 141 177 231 287 340 425
#     4  10  23  42  69  99 132 184 226 276 353 409
#     4  11  22  44  69  99 142 177 228 287 343 414
#     4  11  26  44  70  97 137 185 228 280 355 410
#     4  11  25  45  69  98 136 185 229 279 351 420
#
# _framework density 22.554462000000001
#
# number of rings (size 3 to 8) (size 9 to 14) (size 15 to 20)
#    0.000    1.000    2.500    3.375   12.250    0.000 
#    2.250    1.250    0.000    0.000    0.000    0.000 
#    0.000    0.000    0.000    0.000    0.000    0.000 
#
# Total GULP energy -89465.959489 kJ/mol
# GULP energy per Si atom -5591.622468 kJ/mol
# Density = 2.250313 g / cm^3
# Si number density = 22.554462 Si / 1000 Ang^3
#
#
#
# Elastic Constant Matrix: (Units=GPa)
#
#
# Indices 1 2 3 4 5 6 
#
# 1 65.7634 22.5704 4.0896 3.9664 -7.5605 5.4268
# 2 22.5704 171.5745 29.9551 10.8816 1.8887 9.3715
# 3 4.0896 29.9551 54.5275 11.1539 -14.9767 -1.6590
# 4 3.9664 10.8816 11.1539 31.6695 6.7276 -0.3735
# 5 -7.5605 1.8887 -14.9767 6.7276 28.4286 6.7332
# 6 5.4268 9.3715 -1.6590 -0.3735 6.7332 34.5216
#
#
#
# Elastic Compliance Matrix: (Units=1/GPa)
#
#
# Indices 1 2 3 4 5 6 
#
# 1 0.017347 -0.002444 0.003049 -0.004195 0.008219 -0.003566
# 2 -0.002444 0.007053 -0.004710 0.000251 -0.003401 -0.001091
# 3 0.003049 -0.004710 0.028772 -0.013129 0.019821 -0.001826
# 4 -0.004195 0.000251 -0.013129 0.040643 -0.018622 0.004032
# 5 0.008219 -0.003401 0.019821 -0.018622 0.054881 -0.010322
# 6 -0.003566 -0.001091 -0.001826 0.004032 -0.010322 0.031793
#
#
# Mechanical properties :
#
#
# Convention : Reuss Voigt Hill
#
# Bulk Modulus (GPa) = 22.24107 45.01064 33.62586
# Shear Modulus (GPa) = 24.54729 34.60729 29.57729
#
# Velocity S-wave (km/s) = 3.30260 3.92138 3.62522
# Velocity P-wave (km/s) = 4.94220 6.36417 5.69772
#
# Compressibility (1/GPa) = 0.04496186
#
# Stress axis : x y z
#
# Youngs Moduli (GPa) = 57.64569 141.77727 34.75553
#
# Poissons Ratio (x) = 0.34650 -0.10595
# Poissons Ratio (y) = 0.14088 0.16370
# Poissons Ratio (z) = -0.17574 0.66780
#
# Static dielectric constant tensor:
#      x y z
#    x 1.855320 0.006570 -0.005300 
#    y 0.006570 1.838920 0.017590 
#    z -0.005300 0.017590 1.932190 
# 
# From -- ./inp_files/352238.got.cif
#   From: 2010.05.17/outbox.cif.g08.bks.cpg/sg2_177_cif.got.tgz:352238.got - 2010.06.03 11:33:40.
