data_PCOD9039874
_publ_section_title
;
Structure prediction by ZEFSAII (Michael W. Deem and Ramdas Pophale) SiO2 
 PCOD9039874
Probable space group: P -1
;
_chemical_formula_sum "Si O2"
_cell_formula_units_Z 14
_cell_length_a 14.778223
_cell_length_b 11.748487
_cell_length_c 9.204994
_cell_angle_alpha 130.995113
_cell_angle_beta 119.996032
_cell_angle_gamma 28.775370
_cell_volume 568.141655
_symmetry_space_group_name_H-M "P -1"
_symmetry_group_IT_number 2
_symmetry_cell_setting 'triclinic'
loop_
_space_group_symop_operation_xyz
x,y,z
-x,-y,-z
loop_
_atom_site_type_symbol
_atom_site_label
_atom_site_fract_x
_atom_site_fract_y
_atom_site_fract_z
Si Si1 0.529909 0.569570 0.448805
Si Si2 0.937669 0.753480 0.079403
Si Si3 0.888385 0.352348 0.558616
Si Si4 0.288416 0.126268 0.780375
Si Si5 0.594374 0.928513 0.673996
Si Si6 0.936373 0.114223 0.880918
Si Si7 0.494969 0.633033 0.986585
O O1 0.500000 0.500000 0.500000
O O2 0.707518 0.462268 0.534372
O O3 0.567269 0.400056 0.218485
O O4 0.353081 0.898271 0.553870
O O5 0.743906 0.901546 0.103777
O O6 0.027299 0.699393 0.262078
O O7 0.950711 0.882546 0.095757
O O8 0.086044 0.455775 0.876606
O O9 0.792176 0.600020 0.590280
O O10 0.029042 0.075763 0.347853
O O11 0.449786 0.048136 0.788377
O O12 0.500000 0.000000 0.500000
O O13 0.620899 0.076216 0.825488
O O14 0.712265 0.425001 0.960615
O O15 0.000000 0.000000 0.000000
O O16 0.500000 0.500000 0.000000
#
# Coordination Sequence:
#
# PCOD9039874 Si02
#       7
#     2   2   2   2   2   2   2
#     4  11  23  39  67  98 138 179 232 279 343 420
#     4  11  23  44  72 104 141 183 238 296 353 426
#     4  11  25  42  71 102 137 185 239 289 355 412
#     4  10  23  42  71  98 145 183 234 288 360 409
#     4  11  24  46  71 104 147 187 238 296 351 424
#     4  12  24  45  71 103 140 184 235 296 355 419
#     4  12  25  45  68  99 142 187 230 287 355 420
#
# _framework density 24.641743000000002
#
# number of rings (size 3 to 8) (size 9 to 14) (size 15 to 20)
#    0.000    0.857    1.429    6.429    2.000    1.143 
#    2.571    1.429    0.000    0.000    0.000    0.000 
#    0.000    0.000    0.000    0.000    0.000    0.000 
#
# Total GULP energy -78231.173198 kJ/mol
# GULP energy per Si atom -5587.940943 kJ/mol
# Density = 2.458566 g / cm^3
# Si number density = 24.641743 Si / 1000 Ang^3
#
#
#
# Elastic Constant Matrix: (Units=GPa)
#
#
# Indices 1 2 3 4 5 6 
#
# 1 149.0695 27.2475 49.8691 -14.7364 16.7082 32.5666
# 2 27.2475 67.1636 43.7730 -0.7289 8.8506 23.4291
# 3 49.8691 43.7730 114.0270 -3.2393 27.3960 22.5413
# 4 -14.7364 -0.7289 -3.2393 46.0370 13.1650 8.8993
# 5 16.7082 8.8506 27.3960 13.1650 44.8174 9.1943
# 6 32.5666 23.4291 22.5413 8.8993 9.1943 52.3957
#
#
#
# Elastic Compliance Matrix: (Units=1/GPa)
#
#
# Indices 1 2 3 4 5 6 
#
# 1 0.009324 -0.000130 -0.002349 0.004452 -0.002279 -0.005083
# 2 -0.000130 0.021960 -0.007310 0.000740 0.001391 -0.006964
# 3 -0.002349 -0.007310 0.014502 0.002307 -0.007088 -0.000658
# 4 0.004452 0.000740 0.002307 0.027497 -0.009850 -0.007032
# 5 -0.002279 0.001391 -0.007088 -0.009850 0.030065 0.000241
# 6 -0.005083 -0.006964 -0.000658 -0.007032 0.000241 0.026794
#
#
# Mechanical properties :
#
#
# Convention : Reuss Voigt Hill
#
# Bulk Modulus (GPa) = 38.15630 63.55991 50.85810
# Shear Modulus (GPa) = 31.55492 42.60805 37.08148
#
# Velocity S-wave (km/s) = 3.58236 4.16276 3.88341
# Velocity P-wave (km/s) = 5.71219 6.99674 6.38684
#
# Compressibility (1/GPa) = 0.02620799
#
# Stress axis : x y z
#
# Youngs Moduli (GPa) = 107.25285 45.53808 68.95642
#
# Poissons Ratio (x) = 0.00592 0.16198
# Poissons Ratio (y) = 0.01394 0.50405
# Poissons Ratio (z) = 0.25193 0.33287
#
# Static dielectric constant tensor:
#      x y z
#    x 2.813180 -0.380960 0.011430 
#    y -0.380960 2.189100 0.026260 
#    z 0.011430 0.026260 1.893910 
# 
# From -- ./inp_files/218385.got.cif
#   From: 2010.05.17/outbox.cif.g08.bks.cpg/sg2_110_cif.got.tgz:218385.got - 2010.06.03 11:33:40.
