data_PCOD9039603
_publ_section_title
;
Structure prediction by ZEFSAII (Michael W. Deem and Ramdas Pophale) SiO2 
 PCOD9039603
Probable space group: P -1
;
_chemical_formula_sum "Si O2"
_cell_formula_units_Z 16
_cell_length_a 9.068624
_cell_length_b 11.999321
_cell_length_c 15.350205
_cell_angle_alpha 68.096827
_cell_angle_beta 118.284695
_cell_angle_gamma 59.357179
_cell_volume 740.139509
_symmetry_space_group_name_H-M "P -1"
_symmetry_group_IT_number 2
_symmetry_cell_setting 'triclinic'
loop_
_space_group_symop_operation_xyz
x,y,z
-x,-y,-z
loop_
_atom_site_type_symbol
_atom_site_label
_atom_site_fract_x
_atom_site_fract_y
_atom_site_fract_z
Si Si1 0.867231 0.860845 0.462569
Si Si2 0.545845 0.504473 0.723554
Si Si3 0.577935 0.228829 0.629929
Si Si4 0.991047 0.182759 0.795775
Si Si5 0.730507 0.764294 0.593705
Si Si6 0.239130 0.382541 0.178483
Si Si7 0.890835 0.710409 0.337878
Si Si8 0.588375 0.194616 0.832834
O O1 0.935069 0.726015 0.599576
O O2 0.789154 0.827418 0.366159
O O3 0.177743 0.745186 0.557886
O O4 0.571922 0.120392 0.327249
O O5 0.711959 0.416417 0.701495
O O6 0.708197 0.506954 0.827016
O O7 0.587215 0.338017 0.804463
O O8 0.829649 0.177709 0.693301
O O9 0.470841 0.203336 0.533058
O O10 0.699309 0.099601 0.792700
O O11 0.260258 0.480756 0.501821
O O12 0.190252 0.151657 0.802947
O O13 0.197968 0.997306 0.981230
O O14 0.866027 0.609410 0.759071
O O15 0.500000 0.000000 0.500000
O O16 0.000000 0.500000 0.000000
O O17 0.742822 0.670400 0.293845
#
# Coordination Sequence:
#
# PCOD9039603 Si02
#       8
#     2   2   2   2   2   2   2   2
#     4  11  23  44  70  97 131 179 222 270 325 404
#     4  11  23  44  68  96 137 175 224 262 330 402
#     4  11  20  40  65  95 131 177 220 264 334 396
#     4  11  25  38  66 104 137 172 216 279 334 380
#     4  10  23  42  69  95 128 178 225 265 328 400
#     4  11  27  47  71  97 131 172 222 284 333 388
#     4  12  22  40  67  99 137 174 223 269 331 395
#     4  11  23  40  66 100 136 176 212 279 330 384
#
# _framework density 21.617546999999998
#
# number of rings (size 3 to 8) (size 9 to 14) (size 15 to 20)
#    0.000    1.000    3.750    4.500    3.500    2.000 
#    4.500    0.625    0.000    0.000    0.000    0.000 
#    0.000    0.000    0.000    0.000    0.000    0.000 
#
# Total GULP energy -89368.480829 kJ/mol
# GULP energy per Si atom -5585.530052 kJ/mol
# Density = 2.156834 g / cm^3
# Si number density = 21.617547 Si / 1000 Ang^3
#
#
#
# Elastic Constant Matrix: (Units=GPa)
#
#
# Indices 1 2 3 4 5 6 
#
# 1 124.4853 39.9508 33.8599 19.7420 -12.4651 8.1276
# 2 39.9508 105.5709 24.4449 23.8504 -6.4794 11.3361
# 3 33.8599 24.4449 95.8177 29.0783 -15.0424 5.3018
# 4 19.7420 23.8504 29.0783 31.1702 -2.5159 9.4554
# 5 -12.4651 -6.4794 -15.0424 -2.5159 39.8533 8.0526
# 6 8.1276 11.3361 5.3018 9.4554 8.0526 39.6994
#
#
#
# Elastic Compliance Matrix: (Units=1/GPa)
#
#
# Indices 1 2 3 4 5 6 
#
# 1 0.009987 -0.002643 -0.001829 -0.002141 0.002061 -0.000954
# 2 -0.002643 0.012322 0.000333 -0.007533 0.001121 -0.001455
# 3 -0.001829 0.000333 0.015814 -0.013640 0.004488 0.000506
# 4 -0.002141 -0.007533 -0.013640 0.054225 -0.001983 -0.008102
# 5 0.002061 0.001121 0.004488 -0.001983 0.028845 -0.006720
# 6 -0.000954 -0.001455 0.000506 -0.008102 -0.006720 0.029025
#
#
# Mechanical properties :
#
#
# Convention : Reuss Voigt Hill
#
# Bulk Modulus (GPa) = 33.50587 58.04280 45.77433
# Shear Modulus (GPa) = 29.68326 37.31914 33.50120
#
# Velocity S-wave (km/s) = 3.70957 4.15943 3.94092
# Velocity P-wave (km/s) = 5.82073 7.06936 6.47522
#
# Compressibility (1/GPa) = 0.02984552
#
# Stress axis : x y z
#
# Youngs Moduli (GPa) = 100.13000 81.15276 63.23600
#
# Poissons Ratio (x) = 0.21451 0.11564
# Poissons Ratio (y) = 0.26467 -0.02106
# Poissons Ratio (z) = 0.18310 -0.02703
#
# Static dielectric constant tensor:
#      x y z
#    x 1.847590 -0.022220 -0.044830 
#    y -0.022220 1.779280 -0.007230 
#    z -0.044830 -0.007230 1.838720 
# 
# From -- ./inp_files/500301.got.cif
#   From: 2010.05.17/outbox.cif.g08.bks.cpg/sg2_251_cif.got.tgz:500301.got - 2010.06.03 11:33:40.
