data_PCOD9039599
_publ_section_title
;
Structure prediction by ZEFSAII (Michael W. Deem and Ramdas Pophale) SiO2 
 PCOD9039599
Probable space group: P -1
;
_chemical_formula_sum "Si O2"
_cell_formula_units_Z 14
_cell_length_a 8.727031
_cell_length_b 11.574320
_cell_length_c 9.159529
_cell_angle_alpha 98.957153
_cell_angle_beta 111.236196
_cell_angle_gamma 123.632048
_cell_volume 637.872557
_symmetry_space_group_name_H-M "P -1"
_symmetry_group_IT_number 2
_symmetry_cell_setting 'triclinic'
loop_
_space_group_symop_operation_xyz
x,y,z
-x,-y,-z
loop_
_atom_site_type_symbol
_atom_site_label
_atom_site_fract_x
_atom_site_fract_y
_atom_site_fract_z
Si Si1 0.741778 0.883836 0.370353
Si Si2 0.460560 0.770118 0.518325
Si Si3 0.173420 0.735079 0.833201
Si Si4 0.000897 0.573722 0.164763
Si Si5 0.280533 0.360629 0.819437
Si Si6 0.700547 0.538375 0.485482
Si Si7 0.480615 0.993361 0.216007
O O1 0.631752 0.796669 0.468602
O O2 0.705240 0.772123 0.209940
O O3 0.631369 0.955110 0.308569
O O4 0.000000 0.000000 0.500000
O O5 0.372226 0.632277 0.574178
O O6 0.559657 0.933172 0.655224
O O7 0.245094 0.696875 0.334911
O O8 0.145395 0.583037 0.817207
O O9 0.363368 0.860595 0.811640
O O10 0.932577 0.659919 0.676508
O O11 0.262912 0.840491 0.032232
O O12 0.904414 0.657841 0.157734
O O13 0.000000 0.500000 0.000000
O O14 0.269038 0.398305 0.654459
O O15 0.500000 0.500000 0.000000
O O16 0.500000 0.500000 0.500000
#
# Coordination Sequence:
#
# PCOD9039599 Si02
#       7
#     2   2   2   2   2   2   2
#     4  12  25  42  62  97 142 177 214 280 341 401
#     4  11  23  42  68  96 127 181 231 274 330 400
#     4  10  23  42  69  94 131 177 225 283 325 402
#     4  11  23  42  71  98 132 175 234 280 328 398
#     4  12  25  43  68 103 133 173 220 281 342 392
#     4  11  23  44  70  97 136 173 228 285 336 390
#     4  11  23  42  67  97 135 179 227 269 338 407
#
# _framework density 21.947958
#
# number of rings (size 3 to 8) (size 9 to 14) (size 15 to 20)
#    0.000    0.857    1.429    6.429    2.000    4.571 
#    0.000    0.714    0.000    0.000    0.000    0.000 
#    0.000    0.000    0.000    0.000    0.000    0.000 
#
# Total GULP energy -78226.782650 kJ/mol
# GULP energy per Si atom -5587.627332 kJ/mol
# Density = 2.189800 g / cm^3
# Si number density = 21.947958 Si / 1000 Ang^3
#
#
#
# Elastic Constant Matrix: (Units=GPa)
#
#
# Indices 1 2 3 4 5 6 
#
# 1 116.7394 13.4784 40.3610 15.2027 -14.1191 -4.7991
# 2 13.4784 64.7958 11.1648 14.1618 -2.7334 1.0911
# 3 40.3610 11.1648 123.7562 31.4822 1.7503 -10.0894
# 4 15.2027 14.1618 31.4822 44.3427 -0.4399 -1.8887
# 5 -14.1191 -2.7334 1.7503 -0.4399 41.9926 10.7944
# 6 -4.7991 1.0911 -10.0894 -1.8887 10.7944 36.1889
#
#
#
# Elastic Compliance Matrix: (Units=1/GPa)
#
#
# Indices 1 2 3 4 5 6 
#
# 1 0.010328 -0.001245 -0.003125 -0.000914 0.003668 -0.000606
# 2 -0.001245 0.016842 0.000056 -0.005034 0.000930 -0.001197
# 3 -0.003125 0.000056 0.011081 -0.006708 -0.002357 0.003026
# 4 -0.000914 -0.005034 -0.006708 0.029222 0.000034 -0.000325
# 5 0.003668 0.000930 -0.002357 0.000034 0.027354 -0.008356
# 6 -0.000606 -0.001197 0.003026 -0.000325 -0.008356 0.030908
#
#
# Mechanical properties :
#
#
# Convention : Reuss Voigt Hill
#
# Bulk Modulus (GPa) = 33.75632 48.36664 41.06148
# Shear Modulus (GPa) = 34.66535 40.52400 37.59467
#
# Velocity S-wave (km/s) = 3.97852 4.30160 4.14321
# Velocity P-wave (km/s) = 6.04304 6.83787 6.45271
#
# Compressibility (1/GPa) = 0.02962408
#
# Stress axis : x y z
#
# Youngs Moduli (GPa) = 96.82499 59.37540 90.24480
#
# Poissons Ratio (x) = 0.07393 0.28198
# Poissons Ratio (y) = 0.12057 -0.00509
# Poissons Ratio (z) = 0.30254 -0.00335
#
# Static dielectric constant tensor:
#      x y z
#    x 1.639120 -0.042050 -0.056050 
#    y -0.042050 1.869190 -0.041910 
#    z -0.056050 -0.041910 1.791530 
# 
# From -- ./inp_files/157457.got.cif
#   From: 2010.05.17/outbox.cif.g08.bks.cpg/sg2_79_cif.got.tgz:157457.got - 2010.06.03 11:33:40.
