data_PCOD9039299
_publ_section_title
;
Structure prediction by ZEFSAII (Michael W. Deem and Ramdas Pophale) SiO2 
 PCOD9039299
Probable space group: P -1
;
_chemical_formula_sum "Si O2"
_cell_formula_units_Z 15
_cell_length_a 14.812006
_cell_length_b 5.472310
_cell_length_c 9.479552
_cell_angle_alpha 89.447021
_cell_angle_beta 117.547924
_cell_angle_gamma 113.701356
_cell_volume 608.917709
_symmetry_space_group_name_H-M "P -1"
_symmetry_group_IT_number 2
_symmetry_cell_setting 'triclinic'
loop_
_space_group_symop_operation_xyz
x,y,z
-x,-y,-z
loop_
_atom_site_type_symbol
_atom_site_label
_atom_site_fract_x
_atom_site_fract_y
_atom_site_fract_z
Si Si1 0.062606 0.792998 0.668650
Si Si2 0.124650 0.035817 0.416655
Si Si3 0.500000 0.000000 0.500000
Si Si4 0.960837 0.617414 0.100790
Si Si5 0.350353 0.035122 0.567174
Si Si6 0.393128 0.747693 0.856872
Si Si7 0.761670 0.682410 0.036991
Si Si8 0.529323 0.594658 0.748802
O O1 0.091725 0.817214 0.524090
O O2 0.068133 0.575727 0.781008
O O3 0.156746 0.078808 0.800674
O O4 0.936504 0.778293 0.587392
O O5 0.064020 0.893291 0.229463
O O6 0.258975 0.150194 0.496077
O O7 0.359461 0.875777 0.439196
O O8 0.487804 0.202684 0.369882
O O9 0.848306 0.653000 0.990835
O O10 0.000000 0.500000 0.000000
O O11 0.481669 0.284982 0.653119
O O12 0.339397 0.866703 0.700703
O O13 0.304631 0.583192 0.912925
O O14 0.445843 0.565171 0.820012
O O15 0.500000 0.000000 0.000000
O O16 0.658891 0.716163 0.890179
#
# Coordination Sequence:
#
# PCOD9039299 Si02
#       8
#     2   2   1   2   2   2   2   2
#     4  10  23  43  68  96 133 171 229 280 339 390
#     4  10  23  42  67  96 127 177 222 280 335 398
#     4  10  26  42  58  94 132 182 224 258 332 406
#     4  11  26  44  67  98 135 179 229 278 337 399
#     4  11  23  41  66  92 137 174 222 271 334 397
#     4  11  23  39  65 104 131 167 222 274 338 399
#     4  11  24  40  69 101 134 175 221 283 338 395
#     4  11  24  41  65  96 135 174 221 275 337 402
#
# _framework density 24.633872
#
# number of rings (size 3 to 8) (size 9 to 14) (size 15 to 20)
#    0.000    1.333    1.333    2.800    3.733    9.600 
#    0.000    0.000    0.000    0.000    0.000    0.000 
#    0.000    0.000    0.000    0.000    0.000    0.000 
#
# Total GULP energy -83719.898614 kJ/mol
# GULP energy per Si atom -5581.326574 kJ/mol
# Density = 2.457780 g / cm^3
# Si number density = 24.633872 Si / 1000 Ang^3
#
#
#
# Elastic Constant Matrix: (Units=GPa)
#
#
# Indices 1 2 3 4 5 6 
#
# 1 146.1105 -2.1871 61.3488 7.2590 27.4738 -7.7238
# 2 -2.1871 65.3128 14.6098 -15.0539 9.7038 6.7912
# 3 61.3488 14.6098 61.0153 -1.9438 12.1914 -2.0517
# 4 7.2590 -15.0539 -1.9438 41.5701 -3.6346 3.3157
# 5 27.4738 9.7038 12.1914 -3.6346 45.3518 -5.1149
# 6 -7.7238 6.7912 -2.0517 3.3157 -5.1149 20.6851
#
#
#
# Elastic Compliance Matrix: (Units=1/GPa)
#
#
# Indices 1 2 3 4 5 6 
#
# 1 0.013940 0.003658 -0.013809 -0.002369 -0.005519 0.001649
# 2 0.003658 0.020244 -0.007614 0.006569 -0.004911 -0.008303
# 3 -0.013809 -0.007614 0.031837 0.001228 0.001614 0.000704
# 4 -0.002369 0.006569 0.001228 0.027566 0.001112 -0.007063
# 5 -0.005519 -0.004911 0.001614 0.001112 0.026794 0.006159
# 6 0.001649 -0.008303 0.000704 -0.007063 0.006159 0.054411
#
#
# Mechanical properties :
#
#
# Convention : Reuss Voigt Hill
#
# Bulk Modulus (GPa) = 32.79697 46.66459 39.73078
# Shear Modulus (GPa) = 22.67728 34.76589 28.72158
#
# Velocity S-wave (km/s) = 3.03739 3.76081 3.41829
# Velocity P-wave (km/s) = 5.06395 6.15164 5.63410
#
# Compressibility (1/GPa) = 0.03049062
#
# Stress axis : x y z
#
# Youngs Moduli (GPa) = 71.73751 49.39832 31.40963
#
# Poissons Ratio (x) = -0.18071 0.43374
# Poissons Ratio (y) = -0.26243 0.23916
# Poissons Ratio (z) = 0.99063 0.37612
#
# Static dielectric constant tensor:
#      x y z
#    x 1.676900 0.172670 0.325920 
#    y 0.172670 1.827300 -0.219920 
#    z 0.325920 -0.219920 1.790130 
# 
# From -- ./inp_files/67890.got.cif
#   From: 2010.05.17/outbox.cif.g08.bks.cpg/sg2_34_cif.got.tgz:67890.got - 2010.06.03 11:33:40.
