data_PCOD9039869
_publ_section_title
;
Structure prediction by ZEFSAII (Michael W. Deem and Ramdas Pophale) SiO2 
 PCOD9039869
Probable space group: P -1
;
_chemical_formula_sum "Si O2"
_cell_formula_units_Z 16
_cell_length_a 9.441055
_cell_length_b 17.667998
_cell_length_c 13.479392
_cell_angle_alpha 23.332485
_cell_angle_beta 78.894763
_cell_angle_gamma 90.469184
_cell_volume 768.440038
_symmetry_space_group_name_H-M "P -1"
_symmetry_group_IT_number 2
_symmetry_cell_setting 'triclinic'
loop_
_space_group_symop_operation_xyz
x,y,z
-x,-y,-z
loop_
_atom_site_type_symbol
_atom_site_label
_atom_site_fract_x
_atom_site_fract_y
_atom_site_fract_z
Si Si1 0.264665 0.436615 0.759792
Si Si2 0.305461 0.827143 0.839916
Si Si3 0.933559 0.059489 0.339790
Si Si4 0.216066 0.242132 0.797212
Si Si5 0.305942 0.885713 0.176848
Si Si6 0.400031 0.459530 0.308286
Si Si7 0.376251 0.263332 0.341490
Si Si8 0.890556 0.243556 0.842650
O O1 0.297608 0.419514 0.659546
O O2 0.247690 0.653001 0.514773
O O3 0.413963 0.454055 0.784276
O O4 0.096234 0.223475 0.062307
O O5 0.178584 0.818376 0.782753
O O6 0.434158 0.083650 0.523176
O O7 0.371997 0.656483 0.034887
O O8 0.202131 0.785944 0.006043
O O9 0.803234 0.844270 0.557022
O O10 0.000000 0.000000 0.500000
O O11 0.287387 0.349331 0.552077
O O12 0.021865 0.155991 0.930123
O O13 0.257112 0.047657 0.044090
O O14 0.228797 0.850826 0.120123
O O15 0.500000 0.000000 0.000000
O O16 0.361664 0.290229 0.428141
O O17 0.500000 0.500000 0.000000
O O18 0.000000 0.500000 0.500000
#
# Coordination Sequence:
#
# PCOD9039869 Si02
#       8
#     2   2   2   2   2   2   2   2
#     4  12  25  45  64 103 143 178 224 287 333 401
#     4  10  23  42  71  98 135 177 226 272 351 395
#     4  10  23  49  72  91 135 178 223 293 340 388
#     4  12  24  41  69 101 143 185 226 266 345 408
#     4  12  26  39  64  99 142 185 225 270 337 404
#     4  12  24  40  75 100 139 182 225 275 340 411
#     4  10  24  46  70  98 132 173 234 283 333 402
#     4  12  21  43  66  95 143 182 216 279 332 411
#
# _framework density 20.821404999999999
#
# number of rings (size 3 to 8) (size 9 to 14) (size 15 to 20)
#    0.750    0.000    5.000    2.250    1.750    1.500 
#    0.000    0.625    0.000    0.000    0.000    0.000 
#    0.000    0.000    0.000    0.000    0.000    0.000 
#
# Total GULP energy -89381.978924 kJ/mol
# GULP energy per Si atom -5586.373683 kJ/mol
# Density = 2.077401 g / cm^3
# Si number density = 20.821405 Si / 1000 Ang^3
#
#
#
# Elastic Constant Matrix: (Units=GPa)
#
#
# Indices 1 2 3 4 5 6 
#
# 1 153.3705 35.0431 28.3171 -17.5301 15.3106 18.6041
# 2 35.0431 60.7742 15.8190 -15.8550 6.5892 14.3430
# 3 28.3171 15.8190 113.5787 -5.3677 2.7778 2.9840
# 4 -17.5301 -15.8550 -5.3677 29.0280 -2.1539 1.5348
# 5 15.3106 6.5892 2.7778 -2.1539 46.1587 -10.1064
# 6 18.6041 14.3430 2.9840 1.5348 -10.1064 36.6171
#
#
#
# Elastic Compliance Matrix: (Units=1/GPa)
#
#
# Indices 1 2 3 4 5 6 
#
# 1 0.008576 -0.002205 -0.001461 0.003698 -0.003238 -0.004423
# 2 -0.002205 0.024014 -0.001886 0.011643 -0.004180 -0.009774
# 3 -0.001461 -0.001886 0.009392 -0.000192 0.000360 0.000823
# 4 0.003698 0.011643 -0.000192 0.043273 -0.002833 -0.009019
# 5 -0.003238 -0.004180 0.000360 -0.002833 0.025458 0.010398
# 6 -0.004423 -0.009774 0.000823 -0.009019 0.010398 0.036566
#
#
# Mechanical properties :
#
#
# Convention : Reuss Voigt Hill
#
# Bulk Modulus (GPa) = 32.38486 54.00908 43.19697
# Shear Modulus (GPa) = 29.64277 38.93035 34.28656
#
# Velocity S-wave (km/s) = 3.77725 4.32873 4.06235
# Velocity P-wave (km/s) = 5.88310 7.13998 6.54180
#
# Compressibility (1/GPa) = 0.03087863
#
# Stress axis : x y z
#
# Youngs Moduli (GPa) = 116.60185 41.64261 106.47570
#
# Poissons Ratio (x) = 0.09183 0.15555
# Poissons Ratio (y) = 0.25712 0.20077
# Poissons Ratio (z) = 0.17034 0.07852
#
# Static dielectric constant tensor:
#      x y z
#    x 1.752030 -0.006940 0.018710 
#    y -0.006940 1.752120 0.011500 
#    z 0.018710 0.011500 1.794620 
# 
# From -- ./inp_files/507811.got.cif
#   From: 2010.05.17/outbox.cif.g08.bks.cpg/sg2_254_cif.got.tgz:507811.got - 2010.06.03 11:33:40.
