data_PCOD9039877
_publ_section_title
;
Structure prediction by ZEFSAII (Michael W. Deem and Ramdas Pophale) SiO2 
 PCOD9039877
Probable space group: P -1
;
_chemical_formula_sum "Si O2"
_cell_formula_units_Z 14
_cell_length_a 29.204296
_cell_length_b 14.983194
_cell_length_c 24.068323
_cell_angle_alpha 158.917258
_cell_angle_beta 10.195048
_cell_angle_gamma 160.374775
_cell_volume 622.865856
_symmetry_space_group_name_H-M "P -1"
_symmetry_group_IT_number 2
_symmetry_cell_setting 'triclinic'
loop_
_space_group_symop_operation_xyz
x,y,z
-x,-y,-z
loop_
_atom_site_type_symbol
_atom_site_label
_atom_site_fract_x
_atom_site_fract_y
_atom_site_fract_z
Si Si1 0.206324 0.288476 0.207142
Si Si2 0.604279 0.185607 0.428964
Si Si3 0.960079 0.766840 0.366906
Si Si4 0.464617 0.081168 0.408811
Si Si5 0.231887 0.972725 0.342012
Si Si6 0.491981 0.349950 0.350263
Si Si7 0.926887 0.039138 0.289568
O O1 0.099132 0.277885 0.265209
O O2 0.500000 0.500000 0.000000
O O3 0.962276 0.278564 0.535876
O O4 0.283696 0.021352 0.959940
O O5 0.430710 0.108555 0.532640
O O6 0.682752 0.496141 0.534014
O O7 0.500000 0.000000 0.500000
O O8 0.876981 0.123223 0.052252
O O9 0.980625 0.940150 0.388759
O O10 0.199565 0.650243 0.018076
O O11 0.000000 0.000000 0.500000
O O12 0.531405 0.367845 0.467700
O O13 0.200100 0.901550 0.582136
O O14 0.358924 0.191963 0.363074
O O15 0.500000 0.000000 0.000000
O O16 0.323932 0.165770 0.493870
#
# Coordination Sequence:
#
# PCOD9039877 Si02
#       7
#     2   2   2   2   2   2   2
#     4  10  25  44  67 102 143 179 234 292 353 426
#     4  11  26  44  63 102 141 184 238 290 354 427
#     4  12  24  41  69 100 140 181 231 296 346 418
#     4  11  22  43  73  96 133 185 230 295 346 416
#     4  11  23  43  67 101 139 183 229 285 355 413
#     4  11  22  41  70 105 131 171 242 285 347 415
#     4  10  23  42  71  99 131 179 234 286 350 417
#
# _framework density 22.476749999999999
#
# number of rings (size 3 to 8) (size 9 to 14) (size 15 to 20)
#    0.000    1.143    4.286    1.286    2.000    5.143 
#    2.571    0.000    0.000    0.000    0.000    0.000 
#    0.000    0.000    0.000    0.000    0.000    0.000 
#
# Total GULP energy -77950.731405 kJ/mol
# GULP energy per Si atom -5567.909386 kJ/mol
# Density = 2.242559 g / cm^3
# Si number density = 22.476750 Si / 1000 Ang^3
#
#
#
# Elastic Constant Matrix: (Units=GPa)
#
#
# Indices 1 2 3 4 5 6 
#
# 1 814.0453 928.2007 81.7268 -510.3060 -62.7052 -929.1557
# 2 928.2007 1366.5985 103.9584 -735.1700 -78.3752-1391.4523
# 3 81.7268 103.9584 79.0365 -29.3639 -3.6706 -63.9392
# 4 -510.3060 -735.1700 -29.3639 452.5858 52.2864 797.3071
# 5 -62.7052 -78.3752 -3.6706 52.2864 52.6617 111.0808
# 6 -929.1557-1391.4523 -63.9392 797.3071 111.0808 1577.9668
#
#
#
# Elastic Compliance Matrix: (Units=1/GPa)
#
#
# Indices 1 2 3 4 5 6 
#
# 1 0.005863 -0.003830 -0.001111 0.002526 0.001556 -0.001357
# 2 -0.003830 0.014887 -0.007245 0.006464 -0.005580 0.007705
# 3 -0.001111 -0.007245 0.018455 -0.006501 0.002331 -0.003174
# 4 0.002526 0.006464 -0.006501 0.026699 -0.000568 -0.006526
# 5 0.001556 -0.005580 0.002331 -0.000568 0.024551 -0.005352
# 6 -0.001357 0.007705 -0.003174 -0.006526 -0.005352 0.010175
#
#
# Mechanical properties :
#
#
# Convention : Reuss Voigt Hill
#
# Bulk Modulus (GPa) = 67.41487 498.60580 283.01033
# Shear Modulus (GPa) = 38.47750 493.02915 265.75332
#
# Velocity S-wave (km/s) = 4.14198 14.82656 10.88538
# Velocity P-wave (km/s) = 7.27550 22.70277 16.85747
#
# Compressibility (1/GPa) = 0.01483352
#
# Stress axis : x y z
#
# Youngs Moduli (GPa) = 170.57273 67.17152 54.18451
#
# Poissons Ratio (x) = 0.25729 0.06018
# Poissons Ratio (y) = 0.65336 0.39256
# Poissons Ratio (z) = 0.18943 0.48665
#
# Static dielectric constant tensor:
#      x y z
#    x 1.954450 -0.008790 0.044590 
#    y -0.008790 1.905850 -0.009080 
#    z 0.044590 -0.009080 1.803870 
# 
# From -- ./inp_files/614537.got.cif
#   From: 2010.05.17/outbox.cif.g08.bks.cpg/sg2_308_cif.got.tgz:614537.got - 2010.06.03 11:33:40.
