data_PCOD9039964
_publ_section_title
;
Structure prediction by ZEFSAII (Michael W. Deem and Ramdas Pophale) SiO2 
 PCOD9039964
Probable space group: P -1
;
_chemical_formula_sum "Si O2"
_cell_formula_units_Z 14
_cell_length_a 23.435689
_cell_length_b 11.851965
_cell_length_c 6.001651
_cell_angle_alpha 121.367349
_cell_angle_beta 68.160810
_cell_angle_gamma 154.149645
_cell_volume 599.441125
_symmetry_space_group_name_H-M "P -1"
_symmetry_group_IT_number 2
_symmetry_cell_setting 'triclinic'
loop_
_space_group_symop_operation_xyz
x,y,z
-x,-y,-z
loop_
_atom_site_type_symbol
_atom_site_label
_atom_site_fract_x
_atom_site_fract_y
_atom_site_fract_z
Si Si1 0.405177 0.528007 0.141204
Si Si2 0.015330 0.317536 0.688756
Si Si3 0.110724 0.687377 0.332474
Si Si4 0.132724 0.341470 0.244394
Si Si5 0.622007 0.301817 0.001280
Si Si6 0.805718 0.743296 0.573500
Si Si7 0.417014 0.280620 0.601974
O O1 0.254590 0.265064 0.178840
O O2 0.507407 0.698317 0.371699
O O3 0.432655 0.705477 0.122155
O O4 0.408058 0.393519 0.882208
O O5 0.893391 0.176309 0.637276
O O6 0.076875 0.518427 0.009997
O O7 0.095119 0.416865 0.457464
O O8 0.953729 0.067354 0.621706
O O9 0.000000 0.500000 0.500000
O O10 0.262472 0.946301 0.444418
O O11 0.191422 0.385064 0.425995
O O12 0.259837 0.570229 0.128673
O O13 0.000000 0.000000 0.000000
O O14 0.707610 0.551022 0.309000
O O15 0.500000 0.000000 0.000000
O O16 0.500000 0.500000 0.500000
#
# Coordination Sequence:
#
# PCOD9039964 Si02
#       7
#     2   2   2   2   2   2   2
#     4  10  23  42  73 102 138 192 238 296 360 444
#     4  11  24  44  72 105 142 184 244 286 368 432
#     4  11  26  45  69 105 146 187 226 307 357 427
#     4  11  25  44  75 107 134 192 244 298 358 439
#     4  11  25  47  69 104 148 188 239 303 368 422
#     4  11  23  46  72  99 141 189 235 298 364 433
#     4  11  23  46  72 104 140 185 245 290 369 435
#
# _framework density 23.355089
#
# number of rings (size 3 to 8) (size 9 to 14) (size 15 to 20)
#    0.000    1.143    1.429    3.857    4.000    5.714 
#   15.429    0.000    0.000    0.000    0.000    0.000 
#    0.000    0.000    0.000    0.000    0.000    0.000 
#
# Total GULP energy -78147.728023 kJ/mol
# GULP energy per Si atom -5581.980573 kJ/mol
# Density = 2.330193 g / cm^3
# Si number density = 23.355089 Si / 1000 Ang^3
#
#
#
# Elastic Constant Matrix: (Units=GPa)
#
#
# Indices 1 2 3 4 5 6 
#
# 1 119.8858 38.5863 39.7752 -3.7646 6.2301 14.1239
# 2 38.5863 139.4851 42.9750 -14.7060 -1.4118 10.0054
# 3 39.7752 42.9750 99.2574 -12.8458 -17.4661 13.1714
# 4 -3.7646 -14.7060 -12.8458 27.9641 6.9489 -1.0927
# 5 6.2301 -1.4118 -17.4661 6.9489 45.4858 -6.5575
# 6 14.1239 10.0054 13.1714 -1.0927 -6.5575 37.4384
#
#
#
# Elastic Compliance Matrix: (Units=1/GPa)
#
#
# Indices 1 2 3 4 5 6 
#
# 1 0.010625 -0.001646 -0.003814 -0.000476 -0.003305 -0.002820
# 2 -0.001646 0.008918 -0.002861 0.003429 -0.001246 -0.000874
# 3 -0.003814 -0.002861 0.014426 0.003241 0.005209 -0.001865
# 4 -0.000476 0.003429 0.003241 0.040156 -0.004945 -0.001571
# 5 -0.003305 -0.001246 0.005209 -0.004945 0.025747 0.004113
# 6 -0.002820 -0.000874 -0.001865 -0.001571 0.004113 0.029338
#
#
# Mechanical properties :
#
#
# Convention : Reuss Voigt Hill
#
# Bulk Modulus (GPa) = 57.71516 66.81125 62.26321
# Shear Modulus (GPa) = 32.97546 37.99711 35.48629
#
# Velocity S-wave (km/s) = 3.76163 4.03790 3.90221
# Velocity P-wave (km/s) = 6.60546 7.09988 6.85713
#
# Compressibility (1/GPa) = 0.01732647
#
# Stress axis : x y z
#
# Youngs Moduli (GPa) = 94.11397 112.13805 69.32089
#
# Poissons Ratio (x) = 0.18453 0.26442
# Poissons Ratio (y) = 0.15487 0.19833
# Poissons Ratio (z) = 0.35900 0.32084
#
# Static dielectric constant tensor:
#      x y z
#    x 1.819470 -0.069210 0.022290 
#    y -0.069210 1.836250 -0.047480 
#    z 0.022290 -0.047480 1.998210 
# 
# From -- ./inp_files/123499.got.cif
#   From: 2010.05.17/outbox.cif.g08.bks.cpg/sg2_62_cif.got.tgz:123499.got - 2010.06.03 11:33:40.
