data_PCOD9039176
_publ_section_title
;
Structure prediction by ZEFSAII (Michael W. Deem and Ramdas Pophale) SiO2 
 PCOD9039176
Probable space group: P -1
;
_chemical_formula_sum "Si O2"
_cell_formula_units_Z 16
_cell_length_a 21.989304
_cell_length_b 9.521606
_cell_length_c 9.724963
_cell_angle_alpha 56.020824
_cell_angle_beta 124.972801
_cell_angle_gamma 155.256031
_cell_volume 693.987097
_symmetry_space_group_name_H-M "P -1"
_symmetry_group_IT_number 2
_symmetry_cell_setting 'triclinic'
loop_
_space_group_symop_operation_xyz
x,y,z
-x,-y,-z
loop_
_atom_site_type_symbol
_atom_site_label
_atom_site_fract_x
_atom_site_fract_y
_atom_site_fract_z
Si Si1 0.704265 0.785250 0.156336
Si Si2 0.730350 0.619684 0.024916
Si Si3 0.469663 0.647206 0.303947
Si Si4 0.962161 0.740529 0.037917
Si Si5 0.811284 0.391943 0.302443
Si Si6 0.477508 0.318838 0.353705
Si Si7 0.210510 0.710005 0.174263
Si Si8 0.993507 0.191785 0.407865
O O1 0.577003 0.572909 0.216328
O O2 0.660014 0.573097 0.090442
O O3 0.827740 0.930775 0.324632
O O4 0.761812 0.064933 0.999461
O O5 0.615347 0.384108 0.879767
O O6 0.779720 0.530818 0.180416
O O7 0.881857 0.013884 0.957158
O O8 0.411864 0.356769 0.321896
O O9 0.442887 0.611015 0.451683
O O10 0.647070 0.992672 0.323487
O O11 0.892620 0.501873 0.206057
O O12 0.839295 0.518006 0.882667
O O13 0.000000 0.000000 0.000000
O O14 0.920487 0.583606 0.466658
O O15 0.351318 0.956331 0.318614
O O16 0.074996 0.443270 0.249025
O O17 0.000000 0.000000 0.500000
#
# Coordination Sequence:
#
# PCOD9039176 Si02
#       8
#     2   2   2   2   2   2   2   2
#     4  12  25  43  71 106 133 181 229 280 340 402
#     4  11  23  42  68  98 140 173 228 281 337 404
#     4  11  24  46  64  98 138 175 229 280 337 400
#     4  10  23  42  66  99 132 176 223 274 337 400
#     4  11  23  44  66  96 134 189 217 278 345 397
#     4  11  26  44  69  98 137 179 226 286 332 404
#     4  12  23  47  71  98 136 184 226 280 341 402
#     4  12  24  45  68  99 141 173 227 283 336 402
#
# _framework density 23.055184000000001
#
# number of rings (size 3 to 8) (size 9 to 14) (size 15 to 20)
#    0.000    0.750    5.000    2.625    3.500    0.000 
#    0.000    2.500    0.000    0.000    0.000    0.000 
#    0.000    0.000    0.000    0.000    0.000    0.000 
#
# Total GULP energy -89431.622590 kJ/mol
# GULP energy per Si atom -5589.476412 kJ/mol
# Density = 2.300271 g / cm^3
# Si number density = 23.055184 Si / 1000 Ang^3
#
#
#
# Elastic Constant Matrix: (Units=GPa)
#
#
# Indices 1 2 3 4 5 6 
#
# 1 56.9553 19.2421 35.9349 7.2924 -25.4316 -2.0139
# 2 19.2421 84.4878 38.8996 16.9773 -18.6088 -5.0193
# 3 35.9349 38.8996 118.8854 35.7168 -31.9865 -0.2124
# 4 7.2924 16.9773 35.7168 51.8620 0.0845 -15.2443
# 5 -25.4316 -18.6088 -31.9865 0.0845 45.5756 2.1594
# 6 -2.0139 -5.0193 -0.2124 -15.2443 2.1594 30.5126
#
#
#
# Elastic Compliance Matrix: (Units=1/GPa)
#
#
# Indices 1 2 3 4 5 6 
#
# 1 0.025563 -0.001435 -0.004483 0.000169 0.010496 0.000762
# 2 -0.001435 0.014690 -0.002766 -0.002458 0.003220 0.000846
# 3 -0.004483 -0.002766 0.016478 -0.011938 0.008296 -0.007188
# 4 0.000169 -0.002458 -0.011938 0.033256 -0.010148 0.016857
# 5 0.010496 0.003220 0.008296 -0.010148 0.035252 -0.006285
# 6 0.000762 0.000846 -0.007188 0.016857 -0.006285 0.041779
#
#
# Mechanical properties :
#
#
# Convention : Reuss Voigt Hill
#
# Bulk Modulus (GPa) = 25.40538 49.83130 37.61834
# Shear Modulus (GPa) = 25.31563 36.67351 30.99457
#
# Velocity S-wave (km/s) = 3.31727 3.99266 3.67054
# Velocity P-wave (km/s) = 5.07106 6.55103 5.85797
#
# Compressibility (1/GPa) = 0.03936174
#
# Stress axis : x y z
#
# Youngs Moduli (GPa) = 39.11978 68.07310 60.68881
#
# Poissons Ratio (x) = 0.09769 0.27205
# Poissons Ratio (y) = 0.05614 0.16789
# Poissons Ratio (z) = 0.17537 0.18832
#
# Static dielectric constant tensor:
#      x y z
#    x 1.863220 -0.010960 -0.007120 
#    y -0.010960 1.931560 -0.015850 
#    z -0.007120 -0.015850 1.896900 
# 
# From -- ./inp_files/343440.got.cif
#   From: 2010.05.17/outbox.cif.g08.bks.cpg/sg2_172_cif.got.tgz:343440.got - 2010.06.03 11:33:40.
