data_PCOD9039162
_publ_section_title
;
Structure prediction by ZEFSAII (Michael W. Deem and Ramdas Pophale) SiO2 
 PCOD9039162
Probable space group: P -1
;
_chemical_formula_sum "Si O2"
_cell_formula_units_Z 14
_cell_length_a 19.024160
_cell_length_b 7.513483
_cell_length_c 17.677257
_cell_angle_alpha 133.067606
_cell_angle_beta 23.228628
_cell_angle_gamma 117.681862
_cell_volume 600.426535
_symmetry_space_group_name_H-M "P -1"
_symmetry_group_IT_number 2
_symmetry_cell_setting 'triclinic'
loop_
_space_group_symop_operation_xyz
x,y,z
-x,-y,-z
loop_
_atom_site_type_symbol
_atom_site_label
_atom_site_fract_x
_atom_site_fract_y
_atom_site_fract_z
Si Si1 0.993060 0.240356 0.020794
Si Si2 0.496669 0.356645 0.385277
Si Si3 0.323245 0.334068 0.793731
Si Si4 0.139161 0.185878 0.205774
Si Si5 0.769484 0.216755 0.482655
Si Si6 0.333239 0.700208 0.003312
Si Si7 0.618880 0.528601 0.961204
O O1 0.120856 0.372591 0.964747
O O2 0.093194 0.059308 0.790468
O O3 0.749664 0.520022 0.341782
O O4 0.000000 0.000000 0.000000
O O5 0.500000 0.500000 0.500000
O O6 0.575249 0.498850 0.290187
O O7 0.677926 0.017378 0.097634
O O8 0.278828 0.465687 0.959902
O O9 0.500000 0.000000 0.500000
O O10 0.210034 0.984344 0.153460
O O11 0.196364 0.424192 0.232054
O O12 0.924140 0.251364 0.396015
O O13 0.598724 0.514013 0.688611
O O14 0.591980 0.211985 0.707521
O O15 0.281407 0.741728 0.155980
O O16 0.500000 0.500000 0.000000
#
# Coordination Sequence:
#
# PCOD9039162 Si02
#       7
#     2   2   2   2   2   2   2
#     4  12  22  35  65  93 130 185 215 254 330 386
#     4  11  24  35  57  96 128 174 215 253 321 386
#     4  11  20  37  58  85 133 171 212 263 307 386
#     4  11  23  45  67  95 141 170 217 280 325 395
#     4  10  23  42  66  98 134 175 225 264 326 400
#     4   9  23  44  62  99 132 167 224 270 324 393
#     4  10  25  48  73  96 127 172 225 285 341 382
#
# _framework density 23.316756999999999
#
# number of rings (size 3 to 8) (size 9 to 14) (size 15 to 20)
#    0.857    0.571    4.286    0.857    6.000    4.000 
#    2.571    0.714    0.000    0.000    0.000    0.000 
#    0.000    0.000    0.000    0.000    0.000    0.000 
#
# Total GULP energy -77978.946526 kJ/mol
# GULP energy per Si atom -5569.924752 kJ/mol
# Density = 2.326369 g / cm^3
# Si number density = 23.316757 Si / 1000 Ang^3
#
#
#
# Elastic Constant Matrix: (Units=GPa)
#
#
# Indices 1 2 3 4 5 6 
#
# 1 170.0980 58.3014 36.9310 -19.0222 -26.1930 13.6650
# 2 58.3014 77.0043 48.4503 -22.1899 -15.9700 6.1113
# 3 36.9310 48.4503 102.3567 -20.1005 -40.5125 12.2825
# 4 -19.0222 -22.1899 -20.1005 36.8258 17.5648 -9.3673
# 5 -26.1930 -15.9700 -40.5125 17.5648 51.4748 -13.7847
# 6 13.6650 6.1113 12.2825 -9.3673 -13.7847 32.2425
#
#
#
# Elastic Compliance Matrix: (Units=1/GPa)
#
#
# Indices 1 2 3 4 5 6 
#
# 1 0.008398 -0.006723 0.001436 -0.000874 0.003150 -0.001739
# 2 -0.006723 0.026350 -0.010995 0.010186 -0.006816 0.002089
# 3 0.001436 -0.010995 0.019322 -0.001699 0.012872 -0.000876
# 4 -0.000874 0.010186 -0.001699 0.038221 -0.010090 0.005878
# 5 0.003150 -0.006816 0.012872 -0.010090 0.034308 0.006789
# 6 -0.001739 0.002089 -0.000876 0.005878 0.006789 0.036300
#
#
# Mechanical properties :
#
#
# Convention : Reuss Voigt Hill
#
# Bulk Modulus (GPa) = 46.49600 70.75826 58.62713
# Shear Modulus (GPa) = 24.67521 37.82704 31.25113
#
# Velocity S-wave (km/s) = 3.25662 4.03216 3.66496
# Velocity P-wave (km/s) = 5.84167 7.21735 6.56564
#
# Compressibility (1/GPa) = 0.02150723
#
# Stress axis : x y z
#
# Youngs Moduli (GPa) = 119.06895 37.95061 51.75346
#
# Poissons Ratio (x) = 0.25512 -0.07431
# Poissons Ratio (y) = 0.80044 0.56904
# Poissons Ratio (z) = -0.17097 0.41728
#
# Static dielectric constant tensor:
#      x y z
#    x 1.950060 0.126430 0.235920 
#    y 0.126430 1.906770 0.157870 
#    z 0.235920 0.157870 2.057930 
# 
# From -- ./inp_files/601054.got.cif
#   From: 2010.05.17/outbox.cif.g08.bks.cpg/sg2_301_cif.got.tgz:601054.got - 2010.06.03 11:33:40.
