data_PCOD9039393
_publ_section_title
;
Structure prediction by ZEFSAII (Michael W. Deem and Ramdas Pophale) SiO2 
 PCOD9039393
Probable space group: P -1
;
_chemical_formula_sum "Si O2"
_cell_formula_units_Z 16
_cell_length_a 11.856216
_cell_length_b 11.128974
_cell_length_c 9.883596
_cell_angle_alpha 85.846468
_cell_angle_beta 125.440257
_cell_angle_gamma 128.486635
_cell_volume 741.743227
_symmetry_space_group_name_H-M "P -1"
_symmetry_group_IT_number 2
_symmetry_cell_setting 'triclinic'
loop_
_space_group_symop_operation_xyz
x,y,z
-x,-y,-z
loop_
_atom_site_type_symbol
_atom_site_label
_atom_site_fract_x
_atom_site_fract_y
_atom_site_fract_z
Si Si1 0.913948 0.992603 0.799689
Si Si2 0.097063 0.356699 0.833368
Si Si3 0.332291 0.795540 0.409486
Si Si4 0.214059 0.623903 0.072913
Si Si5 0.572645 0.824618 0.766770
Si Si6 0.376339 0.486320 0.794300
Si Si7 0.944048 0.852715 0.570742
Si Si8 0.289765 0.905561 0.927499
O O1 0.702310 0.903585 0.714169
O O2 0.903381 0.885261 0.686741
O O3 0.050862 0.186729 0.827561
O O4 0.000000 0.000000 0.000000
O O5 0.883664 0.281556 0.718070
O O6 0.201850 0.447397 0.757070
O O7 0.236414 0.508001 0.028821
O O8 0.350799 0.733629 0.287535
O O9 0.365233 0.743083 0.573779
O O10 0.500000 0.000000 0.500000
O O11 0.221654 0.737551 0.961346
O O12 0.000000 0.500000 0.000000
O O13 0.529493 0.668956 0.812504
O O14 0.666469 0.972204 0.930454
O O15 0.252288 0.328004 0.616240
O O16 0.500000 0.500000 0.000000
O O17 0.125744 0.869558 0.720232
O O18 0.000000 0.000000 0.500000
O O19 0.500000 0.000000 0.000000
#
# Coordination Sequence:
#
# PCOD9039393 Si02
#       8
#     2   2   2   2   2   2   2   2
#     4  12  24  46  76 101 146 197 250 301 364 450
#     4  11  24  45  71 100 146 194 235 311 368 433
#     4  11  22  41  70 108 142 183 243 304 370 443
#     4  10  23  42  68 102 143 185 236 299 364 438
#     4  12  25  43  72 107 146 186 247 308 367 437
#     4  12  28  48  67 106 149 190 252 308 369 445
#     4  12  28  49  79 107 150 204 251 302 388 447
#     4  12  26  46  74 110 148 193 247 307 375 449
#
# _framework density 21.570808
#
# number of rings (size 3 to 8) (size 9 to 14) (size 15 to 20)
#    0.000    0.500    5.000    3.000    5.250    3.000 
#    0.000    0.000    0.000    0.000    0.000    0.000 
#    0.000    0.000    0.000    0.000    0.000    0.000 
#
# Total GULP energy -89306.320738 kJ/mol
# GULP energy per Si atom -5581.645046 kJ/mol
# Density = 2.152171 g / cm^3
# Si number density = 21.570808 Si / 1000 Ang^3
#
#
#
# Elastic Constant Matrix: (Units=GPa)
#
#
# Indices 1 2 3 4 5 6 
#
# 1 97.5186 23.9938 40.6209 16.7706 -15.0141 9.4924
# 2 23.9938 108.4041 24.8730 4.6658 1.9000 9.0665
# 3 40.6209 24.8730 144.1012 7.0285 -6.3358 -17.3752
# 4 16.7706 4.6658 7.0285 39.8587 -14.7280 -6.1324
# 5 -15.0141 1.9000 -6.3358 -14.7280 44.4126 1.4603
# 6 9.4924 9.0665 -17.3752 -6.1324 1.4603 32.8858
#
#
#
# Elastic Compliance Matrix: (Units=1/GPa)
#
#
# Indices 1 2 3 4 5 6 
#
# 1 0.014423 -0.001435 -0.004300 -0.005191 0.002837 -0.007133
# 2 -0.001435 0.010346 -0.001813 -0.001407 -0.001535 -0.003590
# 3 -0.004300 -0.001813 0.009231 0.001537 0.000224 0.006895
# 4 -0.005191 -0.001407 0.001537 0.031666 0.008755 0.008215
# 5 0.002837 -0.001535 0.000224 0.008755 0.026470 0.000180
# 6 -0.007133 -0.003590 0.006895 0.008215 0.000180 0.038624
#
#
# Mechanical properties :
#
#
# Convention : Reuss Voigt Hill
#
# Bulk Modulus (GPa) = 52.90167 58.77772 55.83970
# Shear Modulus (GPa) = 32.86079 40.80049 36.83064
#
# Velocity S-wave (km/s) = 3.90730 4.35382 4.13659
# Velocity P-wave (km/s) = 6.70327 7.25136 6.98270
#
# Compressibility (1/GPa) = 0.01890299
#
# Stress axis : x y z
#
# Youngs Moduli (GPa) = 69.33540 96.65431 108.33210
#
# Poissons Ratio (x) = 0.13873 0.46583
# Poissons Ratio (y) = 0.09952 0.19641
# Poissons Ratio (z) = 0.29815 0.17523
#
# Static dielectric constant tensor:
#      x y z
#    x 1.952480 0.003760 0.114260 
#    y 0.003760 1.770650 0.064500 
#    z 0.114260 0.064500 1.805110 
# 
# From -- ./inp_files/262598.got.cif
#   From: 2010.05.17/outbox.cif.g08.bks.cpg/sg2_132_cif.got.tgz:262598.got - 2010.06.03 11:33:40.
