data_PCOD9039498
_publ_section_title
;
Structure prediction by ZEFSAII (Michael W. Deem and Ramdas Pophale) SiO2 
 PCOD9039498
Probable space group: P -1
;
_chemical_formula_sum "Si O2"
_cell_formula_units_Z 15
_cell_length_a 6.148565
_cell_length_b 9.957860
_cell_length_c 10.832938
_cell_angle_alpha 85.695866
_cell_angle_beta 89.224422
_cell_angle_gamma 78.017212
_cell_volume 646.979663
_symmetry_space_group_name_H-M "P -1"
_symmetry_group_IT_number 2
_symmetry_cell_setting 'triclinic'
loop_
_space_group_symop_operation_xyz
x,y,z
-x,-y,-z
loop_
_atom_site_type_symbol
_atom_site_label
_atom_site_fract_x
_atom_site_fract_y
_atom_site_fract_z
Si Si1 0.230481 0.822607 0.858904
Si Si2 0.500000 0.000000 0.000000
Si Si3 0.624798 0.566322 0.829933
Si Si4 0.702200 0.586575 0.243480
Si Si5 0.939891 0.597081 0.610917
Si Si6 0.856861 0.708532 0.011541
Si Si7 0.386464 0.200876 0.549751
Si Si8 0.798488 0.061251 0.406949
O O1 0.442163 0.707172 0.826403
O O2 0.123101 0.885418 0.726115
O O3 0.069538 0.751399 0.947146
O O4 0.307775 0.941696 0.927473
O O5 0.337686 0.155021 0.998304
O O6 0.495088 0.442029 0.840044
O O7 0.752620 0.555495 0.700640
O O8 0.789779 0.589200 0.935347
O O9 0.615462 0.688721 0.349514
O O10 0.837086 0.441490 0.307032
O O11 0.867071 0.655149 0.155170
O O12 0.819187 0.742123 0.545456
O O13 0.000000 0.500000 0.500000
O O14 0.617271 0.172663 0.475494
O O15 0.339104 0.058636 0.613268
O O16 0.000000 0.000000 0.500000
#
# Coordination Sequence:
#
# PCOD9039498 Si02
#       8
#     2   1   2   2   2   2   2   2
#     4  11  24  45  71 106 142 186 240 293 364 428
#     4  10  24  44  72  98 142 190 228 300 350 424
#     4  11  24  42  69  99 145 187 233 297 358 421
#     4  11  25  44  69 102 143 190 242 292 353 430
#     4  10  23  42  68  98 141 182 236 293 351 423
#     4  11  25  44  70 105 143 186 242 291 361 425
#     4  10  24  45  67 104 136 182 242 290 357 425
#     4  11  25  42  75 101 138 185 234 300 363 427
#
# _framework density 23.184654999999999
#
# number of rings (size 3 to 8) (size 9 to 14) (size 15 to 20)
#    0.000    1.333    1.333    2.400    3.733   10.667 
#    0.000    0.000    0.000    0.000    0.000    0.000 
#    0.000    0.000    0.000    0.000    0.000    0.000 
#
# Total GULP energy -83614.439454 kJ/mol
# GULP energy per Si atom -5574.295964 kJ/mol
# Density = 2.313189 g / cm^3
# Si number density = 23.184655 Si / 1000 Ang^3
#
#
#
# Elastic Constant Matrix: (Units=GPa)
#
#
# Indices 1 2 3 4 5 6 
#
# 1 80.2503 56.9768 56.3676 16.3225 16.8195 5.6275
# 2 56.9768 99.4103 58.8855 17.6726 -4.9887 -1.5008
# 3 56.3676 58.8855 121.0516 5.4853 -7.5895 16.8785
# 4 16.3225 17.6726 5.4853 26.3004 -0.3152 3.6554
# 5 16.8195 -4.9887 -7.5895 -0.3152 36.2106 0.3954
# 6 5.6275 -1.5008 16.8785 3.6554 0.3954 45.9338
#
#
#
# Elastic Compliance Matrix: (Units=1/GPa)
#
#
# Indices 1 2 3 4 5 6 
#
# 1 0.036928 -0.013228 -0.011633 -0.011924 -0.021522 0.000452
# 2 -0.013228 0.021656 -0.004190 -0.005965 0.008151 0.004272
# 3 -0.011633 -0.004190 0.016676 0.007423 0.008446 -0.005503
# 4 -0.011924 -0.005965 0.007423 0.048714 0.006756 -0.005396
# 5 -0.021522 0.008151 0.008446 0.006756 0.040577 -0.001087
# 6 0.000452 0.004272 -0.005503 -0.005396 -0.001087 0.024315
#
#
# Mechanical properties :
#
#
# Convention : Reuss Voigt Hill
#
# Bulk Modulus (GPa) = 58.27482 71.68580 64.98031
# Shear Modulus (GPa) = 19.78730 30.25445 25.02088
#
# Velocity S-wave (km/s) = 2.92458 3.61631 3.28868
# Velocity P-wave (km/s) = 6.04929 6.95870 6.51987
#
# Compressibility (1/GPa) = 0.01716007
#
# Stress axis : x y z
#
# Youngs Moduli (GPa) = 27.07975 46.17558 59.96536
#
# Poissons Ratio (x) = 0.61080 0.69757
# Poissons Ratio (y) = 0.35821 0.25123
# Poissons Ratio (z) = 0.31502 0.19346
#
# Static dielectric constant tensor:
#      x y z
#    x 1.922780 0.015240 0.040890 
#    y 0.015240 1.864090 -0.022450 
#    z 0.040890 -0.022450 1.856150 
# 
# From -- ./inp_files/360624.got.cif
#   From: 2010.05.17/outbox.cif.g08.bks.cpg/sg2_181_cif.got.tgz:360624.got - 2010.06.03 11:33:40.
