data_PCOD9039945
_publ_section_title
;
Structure prediction by ZEFSAII (Michael W. Deem and Ramdas Pophale) SiO2 
 PCOD9039945
Probable space group: P -1
;
_chemical_formula_sum "Si O2"
_cell_formula_units_Z 16
_cell_length_a 12.443925
_cell_length_b 9.111873
_cell_length_c 17.847300
_cell_angle_alpha 28.727981
_cell_angle_beta 132.195149
_cell_angle_gamma 123.039574
_cell_volume 715.154580
_symmetry_space_group_name_H-M "P -1"
_symmetry_group_IT_number 2
_symmetry_cell_setting 'triclinic'
loop_
_space_group_symop_operation_xyz
x,y,z
-x,-y,-z
loop_
_atom_site_type_symbol
_atom_site_label
_atom_site_fract_x
_atom_site_fract_y
_atom_site_fract_z
Si Si1 0.146480 0.622201 0.073395
Si Si2 0.312215 0.431941 0.873261
Si Si3 0.661710 0.007269 0.603172
Si Si4 0.636552 0.436995 0.535880
Si Si5 0.118496 0.640054 0.547062
Si Si6 0.629626 0.116368 0.178935
Si Si7 0.169830 0.915685 0.103783
Si Si8 0.086229 0.789543 0.814699
O O1 0.215333 0.771902 0.108406
O O2 0.998976 0.507407 0.088416
O O3 0.246643 0.328257 0.216963
O O4 0.103087 0.857216 0.880897
O O5 0.202901 0.473550 0.732461
O O6 0.344583 0.749106 0.786033
O O7 0.472518 0.254940 0.011565
O O8 0.245346 0.226825 0.997654
O O9 0.637436 0.143570 0.613765
O O10 0.755317 0.240066 0.498755
O O11 0.500000 0.000000 0.500000
O O12 0.500000 0.500000 0.500000
O O13 0.775052 0.341012 0.695616
O O14 0.642842 0.748844 0.353615
O O15 0.000000 0.500000 0.500000
O O16 0.020584 0.946954 0.393923
O O17 0.756309 0.225236 0.139447
O O18 0.000000 0.000000 0.000000
#
# Coordination Sequence:
#
# PCOD9039945 Si02
#       8
#     2   2   2   2   2   2   2   2
#     4  10  24  45  72 108 148 191 249 301 366 452
#     4  11  27  45  75 105 152 190 248 310 375 445
#     4  11  27  44  77 107 144 201 244 308 374 440
#     4  12  27  48  72 105 152 190 251 304 368 449
#     4  11  25  46  68 105 145 191 250 305 370 446
#     4  11  26  47  72 111 145 198 243 312 376 441
#     4  12  27  44  74 109 147 196 241 299 372 437
#     4  10  23  42  72  98 147 188 242 297 372 433
#
# _framework density 22.372785
#
# number of rings (size 3 to 8) (size 9 to 14) (size 15 to 20)
#    0.000    1.000    1.250    3.000   17.500    0.500 
#    0.000    1.875    0.000    0.000    0.000    0.000 
#    0.000    0.000    0.000    0.000    0.000    0.000 
#
# Total GULP energy -89390.759327 kJ/mol
# GULP energy per Si atom -5586.922458 kJ/mol
# Density = 2.232186 g / cm^3
# Si number density = 22.372785 Si / 1000 Ang^3
#
#
#
# Elastic Constant Matrix: (Units=GPa)
#
#
# Indices 1 2 3 4 5 6 
#
# 1 127.3195 17.9518 42.7215 -0.1979 22.7189 28.9392
# 2 17.9518 102.2097 42.4053 6.3829 7.7326 -3.9724
# 3 42.7215 42.4053 138.6529 16.5041 13.1114 5.0823
# 4 -0.1979 6.3829 16.5041 34.3418 1.1360 10.4164
# 5 22.7189 7.7326 13.1114 1.1360 29.6504 8.0425
# 6 28.9392 -3.9724 5.0823 10.4164 8.0425 40.6851
#
#
#
# Elastic Compliance Matrix: (Units=1/GPa)
#
#
# Indices 1 2 3 4 5 6 
#
# 1 0.011860 -0.000997 -0.003059 0.004391 -0.005417 -0.008204
# 2 -0.000997 0.011534 -0.002987 -0.001549 -0.001660 0.002933
# 3 -0.003059 -0.002987 0.009701 -0.004739 -0.001582 0.002198
# 4 0.004391 -0.001549 -0.004739 0.035292 0.001016 -0.011919
# 5 -0.005417 -0.001660 -0.001582 0.001016 0.040139 -0.004306
# 6 -0.008204 0.002933 0.002198 -0.011919 -0.004306 0.034329
#
#
# Mechanical properties :
#
#
# Convention : Reuss Voigt Hill
#
# Bulk Modulus (GPa) = 52.60416 63.81549 58.20982
# Shear Modulus (GPa) = 30.62290 38.60903 34.61596
#
# Velocity S-wave (km/s) = 3.70368 4.15868 3.93776
# Velocity P-wave (km/s) = 6.46941 7.18645 6.83734
#
# Compressibility (1/GPa) = 0.01900990
#
# Stress axis : x y z
#
# Youngs Moduli (GPa) = 84.32016 86.69771 103.07879
#
# Poissons Ratio (x) = 0.08645 0.31531
# Poissons Ratio (y) = 0.08408 0.30785
# Poissons Ratio (z) = 0.25793 0.25893
#
# Static dielectric constant tensor:
#      x y z
#    x 1.808770 -0.032000 -0.026130 
#    y -0.032000 1.952780 0.069580 
#    z -0.026130 0.069580 1.914160 
# 
# From -- ./inp_files/566376.got.cif
#   From: 2010.05.17/outbox.cif.g08.bks.cpg/sg2_284_cif.got.tgz:566376.got - 2010.06.03 11:33:40.
