data_PCOD9039610
_publ_section_title
;
Structure prediction by ZEFSAII (Michael W. Deem and Ramdas Pophale) SiO2 
 PCOD9039610
Probable space group: P -1
;
_chemical_formula_sum "Si O2"
_cell_formula_units_Z 16
_cell_length_a 18.749049
_cell_length_b 17.124586
_cell_length_c 6.759341
_cell_angle_alpha 136.994022
_cell_angle_beta 45.028809
_cell_angle_gamma 152.085473
_cell_volume 680.410278
_symmetry_space_group_name_H-M "P -1"
_symmetry_group_IT_number 2
_symmetry_cell_setting 'triclinic'
loop_
_space_group_symop_operation_xyz
x,y,z
-x,-y,-z
loop_
_atom_site_type_symbol
_atom_site_label
_atom_site_fract_x
_atom_site_fract_y
_atom_site_fract_z
Si Si1 0.806192 0.127202 0.848091
Si Si2 0.378961 0.952074 0.299229
Si Si3 0.607701 0.744223 0.682072
Si Si4 0.403330 0.676561 0.258563
Si Si5 0.899178 0.875887 0.277281
Si Si6 0.049697 0.195876 0.332524
Si Si7 0.183891 0.658318 0.467855
Si Si8 0.613397 0.502471 0.692690
O O1 0.729224 0.069014 0.674783
O O2 0.984520 0.251436 0.674274
O O3 0.715942 0.949565 0.815919
O O4 0.789915 0.228060 0.194192
O O5 0.275971 0.780505 0.319105
O O6 0.481651 0.118814 0.548893
O O7 0.500000 0.000000 0.000000
O O8 0.721088 0.733322 0.426449
O O9 0.477302 0.624445 0.549878
O O10 0.512584 0.677441 0.943070
O O11 0.259990 0.603636 0.282256
O O12 0.354171 0.576605 0.372843
O O13 0.939929 0.801117 0.922476
O O14 0.000000 0.000000 0.500000
O O15 0.923740 0.994959 0.282959
O O16 0.213367 0.299613 0.298137
O O17 0.000000 0.500000 0.500000
O O18 0.500000 0.500000 0.000000
#
# Coordination Sequence:
#
# PCOD9039610 Si02
#       8
#     2   2   2   2   2   2   2   2
#     4  11  24  45  73 102 143 190 231 289 362 435
#     4  12  24  46  79 102 143 191 245 291 356 440
#     4  11  24  44  71 102 134 191 238 294 352 425
#     4  12  27  44  74 101 143 192 238 290 362 426
#     4  10  23  42  69  95 139 184 242 293 358 419
#     4  10  25  42  66 101 140 185 236 290 356 425
#     4  12  29  47  71 115 150 183 241 302 362 436
#     4  12  27  47  69 103 145 183 244 302 349 414
#
# _framework density 23.515225000000001
#
# number of rings (size 3 to 8) (size 9 to 14) (size 15 to 20)
#    0.000    0.750    5.000    1.125    7.000    2.000 
#    0.000    0.000    0.000    0.000    0.000    0.000 
#    0.000    0.000    0.000    0.000    0.000    0.000 
#
# Total GULP energy -89423.461604 kJ/mol
# GULP energy per Si atom -5588.966350 kJ/mol
# Density = 2.346170 g / cm^3
# Si number density = 23.515225 Si / 1000 Ang^3
#
#
#
# Elastic Constant Matrix: (Units=GPa)
#
#
# Indices 1 2 3 4 5 6 
#
# 1 75.2994 29.7059 1.9612 -18.6178 9.9736 2.9554
# 2 29.7059 105.6808 27.9613 -10.7134 -1.2682 15.9297
# 3 1.9612 27.9613 115.3541 -33.3274 3.9677 10.2089
# 4 -18.6178 -10.7134 -33.3274 31.7585 9.6124 -4.8527
# 5 9.9736 -1.2682 3.9677 9.6124 32.7697 -0.7368
# 6 2.9554 15.9297 10.2089 -4.8527 -0.7368 41.2885
#
#
#
# Elastic Compliance Matrix: (Units=1/GPa)
#
#
# Indices 1 2 3 4 5 6 
#
# 1 0.025090 -0.007267 0.009932 0.028168 -0.017348 0.001553
# 2 -0.007267 0.012720 -0.004923 -0.007364 0.005372 -0.003940
# 3 0.009932 -0.004923 0.017987 0.027021 -0.013325 -0.000321
# 4 0.028168 -0.007364 0.027021 0.085668 -0.037179 0.003549
# 5 -0.017348 0.005372 -0.013325 -0.037179 0.048500 -0.001040
# 6 0.001553 -0.003940 -0.000321 0.003549 -0.001040 0.026106
#
#
# Mechanical properties :
#
#
# Convention : Reuss Voigt Hill
#
# Bulk Modulus (GPa) = 19.50070 46.17678 32.83874
# Shear Modulus (GPa) = 21.03670 36.94373 28.99022
#
# Velocity S-wave (km/s) = 2.99423 3.96795 3.51497
# Velocity P-wave (km/s) = 4.50163 6.37750 5.51984
#
# Compressibility (1/GPa) = 0.05128022
#
# Stress axis : x y z
#
# Youngs Moduli (GPa) = 39.85679 78.61898 55.59573
#
# Poissons Ratio (x) = 0.57134 -0.55219
# Poissons Ratio (y) = 0.28965 0.27371
# Poissons Ratio (z) = -0.39587 0.38705
#
# Static dielectric constant tensor:
#      x y z
#    x 1.904300 0.001020 -0.048130 
#    y 0.001020 1.918210 0.024940 
#    z -0.048130 0.024940 1.988750 
# 
# From -- ./inp_files/47861.got.cif
#   From: 2010.05.17/outbox.cif.g08.bks.cpg/sg2_24_cif.got.tgz:47861.got - 2010.06.03 11:33:40.
