data_PCOD9039147
_publ_section_title
;
Structure prediction by ZEFSAII (Michael W. Deem and Ramdas Pophale) SiO2 
 PCOD9039147
Probable space group: P -1
;
_chemical_formula_sum "Si O2"
_cell_formula_units_Z 16
_cell_length_a 21.003516
_cell_length_b 8.481372
_cell_length_c 12.585635
_cell_angle_alpha 71.906391
_cell_angle_beta 139.881371
_cell_angle_gamma 138.452093
_cell_volume 757.456917
_symmetry_space_group_name_H-M "P -1"
_symmetry_group_IT_number 2
_symmetry_cell_setting 'triclinic'
loop_
_space_group_symop_operation_xyz
x,y,z
-x,-y,-z
loop_
_atom_site_type_symbol
_atom_site_label
_atom_site_fract_x
_atom_site_fract_y
_atom_site_fract_z
Si Si1 0.649839 0.061204 0.489765
Si Si2 0.401720 0.142342 0.758464
Si Si3 0.357489 0.933631 0.112368
Si Si4 0.967670 0.773244 0.736578
Si Si5 0.800321 0.712997 0.226179
Si Si6 0.820850 0.165066 0.886278
Si Si7 0.839568 0.401219 0.291346
Si Si8 0.697018 0.635278 0.352513
O O1 0.477206 0.940110 0.293434
O O2 0.823902 0.423457 0.617643
O O3 0.675914 0.996064 0.645240
O O4 0.639309 0.929363 0.402447
O O5 0.319251 0.192892 0.690915
O O6 0.318235 0.870141 0.771394
O O7 0.612319 0.444101 0.982101
O O8 0.503668 0.279976 0.198523
O O9 0.243840 0.837489 0.087666
O O10 0.236121 0.727579 0.897463
O O11 0.839811 0.753446 0.590913
O O12 0.082643 0.973395 0.736548
O O13 0.112631 0.925802 0.978381
O O14 0.889435 0.660996 0.323850
O O15 0.756382 0.671451 0.301979
O O16 0.000000 0.500000 0.000000
O O17 0.000000 0.500000 0.500000
#
# Coordination Sequence:
#
# PCOD9039147 Si02
#       8
#     2   2   2   2   2   2   2   2
#     4  10  23  45  69  93 131 173 226 268 314 386
#     4  12  24  42  64 100 134 172 219 264 322 389
#     4  11  22  43  68  97 130 174 219 264 332 392
#     4  10  23  42  66  97 129 176 213 267 324 382
#     4  12  23  43  64  99 143 172 210 263 331 395
#     4  10  23  42  71  94 124 172 225 274 321 381
#     4  12  26  38  66 104 134 171 215 270 327 392
#     4  11  24  40  67  97 140 174 210 262 331 397
#
# _framework density 21.123314000000001
#
# number of rings (size 3 to 8) (size 9 to 14) (size 15 to 20)
#    0.000    1.000    2.500    4.500    7.000    0.000 
#    0.000    3.125    2.750    0.000    0.000    0.000 
#    0.000    0.000    0.000    0.000    0.000    0.000 
#
# Total GULP energy -89467.606487 kJ/mol
# GULP energy per Si atom -5591.725405 kJ/mol
# Density = 2.107524 g / cm^3
# Si number density = 21.123314 Si / 1000 Ang^3
#
#
#
# Elastic Constant Matrix: (Units=GPa)
#
#
# Indices 1 2 3 4 5 6 
#
# 1 95.4894 34.2988 46.0571 -12.7641 -6.8704 9.5380
# 2 34.2988 72.2702 33.0541 -12.9840 4.1626 9.3647
# 3 46.0571 33.0541 148.9142 -24.9868 -1.9628 1.5046
# 4 -12.7641 -12.9840 -24.9868 30.1455 8.0764 5.5494
# 5 -6.8704 4.1626 -1.9628 8.0764 34.1713 -2.7474
# 6 9.5380 9.3647 1.5046 5.5494 -2.7474 36.9476
#
#
#
# Elastic Compliance Matrix: (Units=1/GPa)
#
#
# Indices 1 2 3 4 5 6 
#
# 1 0.014355 -0.005116 -0.003086 0.000937 0.002933 -0.002206
# 2 -0.005116 0.019225 -0.001483 0.007302 -0.005584 -0.005004
# 3 -0.003086 -0.001483 0.008969 0.005877 -0.001328 -0.000174
# 4 0.000937 0.007302 0.005877 0.046754 -0.012239 -0.010264
# 5 0.002933 -0.005584 -0.001328 -0.012239 0.033758 0.005061
# 6 -0.002206 -0.005004 -0.000174 -0.010264 0.005061 0.030828
#
#
# Mechanical properties :
#
#
# Convention : Reuss Voigt Hill
#
# Bulk Modulus (GPa) = 43.14155 60.38822 51.76489
# Shear Modulus (GPa) = 27.62647 33.80379 30.71513
#
# Velocity S-wave (km/s) = 3.62037 4.00472 3.81739
# Velocity P-wave (km/s) = 6.15988 7.07349 6.63243
#
# Compressibility (1/GPa) = 0.02317951
#
# Stress axis : x y z
#
# Youngs Moduli (GPa) = 69.66137 52.01522 111.49235
#
# Poissons Ratio (x) = 0.26612 0.34408
# Poissons Ratio (y) = 0.35640 0.16532
# Poissons Ratio (z) = 0.21498 0.07713
#
# Static dielectric constant tensor:
#      x y z
#    x 1.716560 0.002370 0.028830 
#    y 0.002370 1.761450 -0.005580 
#    z 0.028830 -0.005580 1.828600 
# 
# From -- ./inp_files/319200.got.cif
#   From: 2010.05.17/outbox.cif.g08.bks.cpg/sg2_160_cif.got.tgz:319200.got - 2010.06.03 11:33:40.
