data_PCOD9039330
_publ_section_title
;
Structure prediction by ZEFSAII (Michael W. Deem and Ramdas Pophale) SiO2 
 PCOD9039330
Probable space group: P -1
;
_chemical_formula_sum "Si O2"
_cell_formula_units_Z 16
_cell_length_a 9.136624
_cell_length_b 7.254891
_cell_length_c 13.179329
_cell_angle_alpha 125.112163
_cell_angle_beta 92.764687
_cell_angle_gamma 108.487614
_cell_volume 647.106456
_symmetry_space_group_name_H-M "P -1"
_symmetry_group_IT_number 2
_symmetry_cell_setting 'triclinic'
loop_
_space_group_symop_operation_xyz
x,y,z
-x,-y,-z
loop_
_atom_site_type_symbol
_atom_site_label
_atom_site_fract_x
_atom_site_fract_y
_atom_site_fract_z
Si Si1 0.610785 0.760397 0.800713
Si Si2 0.020015 0.393589 0.852806
Si Si3 0.187722 0.455677 0.378741
Si Si4 0.174573 0.817065 0.707170
Si Si5 0.546238 0.163741 0.380014
Si Si6 0.254913 0.396820 0.698299
Si Si7 0.773535 0.056489 0.583817
Si Si8 0.136257 0.922801 0.944902
O O1 0.751034 0.681538 0.744927
O O2 0.550281 0.858826 0.733156
O O3 0.449428 0.529201 0.758643
O O4 0.699735 0.972294 0.952521
O O5 0.171476 0.354668 0.793872
O O6 0.041452 0.630355 0.862177
O O7 0.871782 0.152884 0.724308
O O8 0.000000 0.500000 0.000000
O O9 0.336509 0.554346 0.494075
O O10 0.183716 0.698775 0.404688
O O11 0.011705 0.298330 0.369720
O O12 0.318698 0.937243 0.670697
O O13 0.211340 0.598659 0.696026
O O14 0.182288 0.999256 0.855567
O O15 0.413870 0.048055 0.424515
O O16 0.200753 0.152429 0.547814
O O17 0.000000 0.000000 0.000000
#
# Coordination Sequence:
#
# PCOD9039330 Si02
#       8
#     2   2   2   2   2   2   2   2
#     4  11  23  41  71  95 134 174 226 273 328 400
#     4  11  24  43  65  97 133 176 222 271 330 403
#     4  12  22  43  66  96 139 173 216 280 334 389
#     4  10  23  42  67  98 133 173 228 271 328 397
#     4  11  25  40  64 103 129 171 225 275 329 388
#     4  10  23  42  68  98 131 177 224 270 340 393
#     4  12  23  43  69  97 140 176 217 276 344 395
#     4  11  21  44  67  93 129 180 217 268 333 395
#
# _framework density 24.725453999999999
#
# number of rings (size 3 to 8) (size 9 to 14) (size 15 to 20)
#    0.000    1.000    5.000    2.250    1.750    5.500 
#    2.250    0.000    0.000    3.000    0.000    0.000 
#    0.000    0.000    0.000    0.000    0.000    0.000 
#
# Total GULP energy -89282.585647 kJ/mol
# GULP energy per Si atom -5580.161603 kJ/mol
# Density = 2.466918 g / cm^3
# Si number density = 24.725454 Si / 1000 Ang^3
#
#
#
# Elastic Constant Matrix: (Units=GPa)
#
#
# Indices 1 2 3 4 5 6 
#
# 1 139.8002 20.7913 51.1947 4.0591 -7.7684 31.2587
# 2 20.7913 47.3275 10.1525 -4.1567 -7.8092 3.1926
# 3 51.1947 10.1525 155.9936 -13.8903 4.2943 13.5369
# 4 4.0591 -4.1567 -13.8903 34.7087 6.8527 -3.7197
# 5 -7.7684 -7.8092 4.2943 6.8527 60.3638 -9.8027
# 6 31.2587 3.1926 13.5369 -3.7197 -9.8027 34.0679
#
#
#
# Elastic Compliance Matrix: (Units=1/GPa)
#
#
# Indices 1 2 3 4 5 6 
#
# 1 0.010896 -0.003889 -0.002900 -0.003872 0.000104 -0.008873
# 2 -0.003889 0.023415 -0.000284 0.002899 0.002636 0.002562
# 3 -0.002900 -0.000284 0.007783 0.003661 -0.001448 -0.000422
# 4 -0.003872 0.002899 0.003661 0.032203 -0.003327 0.004385
# 5 0.000104 0.002636 -0.001448 -0.003327 0.018232 0.005116
# 6 -0.008873 0.002562 -0.000422 0.004385 0.005116 0.039373
#
#
# Mechanical properties :
#
#
# Convention : Reuss Voigt Hill
#
# Bulk Modulus (GPa) = 35.78147 56.37760 46.07953
# Shear Modulus (GPa) = 32.18215 43.22694 37.70455
#
# Velocity S-wave (km/s) = 3.61166 4.18578 3.90927
# Velocity P-wave (km/s) = 5.64757 6.79793 6.24928
#
# Compressibility (1/GPa) = 0.02794743
#
# Stress axis : x y z
#
# Youngs Moduli (GPa) = 91.77889 42.70680 128.48019
#
# Poissons Ratio (x) = 0.16608 0.37264
# Poissons Ratio (y) = 0.35690 0.03654
# Poissons Ratio (z) = 0.26619 0.01215
#
# Static dielectric constant tensor:
#      x y z
#    x 2.018910 -0.023550 -0.078150 
#    y -0.023550 2.028400 -0.071450 
#    z -0.078150 -0.071450 2.140090 
# 
# From -- ./inp_files/493883.got.cif
#   From: 2010.05.17/outbox.cif.g08.bks.cpg/sg2_247_cif.got.tgz:493883.got - 2010.06.03 11:33:40.
