data_PCOD9039939
_publ_section_title
;
Structure prediction by ZEFSAII (Michael W. Deem and Ramdas Pophale) SiO2 
 PCOD9039939
Probable space group: P -1
;
_chemical_formula_sum "Si O2"
_cell_formula_units_Z 15
_cell_length_a 9.169834
_cell_length_b 9.955375
_cell_length_c 11.009718
_cell_angle_alpha 59.080988
_cell_angle_beta 47.627441
_cell_angle_gamma 54.718516
_cell_volume 593.070036
_symmetry_space_group_name_H-M "P -1"
_symmetry_group_IT_number 2
_symmetry_cell_setting 'triclinic'
loop_
_space_group_symop_operation_xyz
x,y,z
-x,-y,-z
loop_
_atom_site_type_symbol
_atom_site_label
_atom_site_fract_x
_atom_site_fract_y
_atom_site_fract_z
Si Si1 0.813180 0.309123 0.919978
Si Si2 0.621306 0.668965 0.943688
Si Si3 0.094388 0.302105 0.557986
Si Si4 0.574694 0.712428 0.421695
Si Si5 0.020012 0.153466 0.120878
Si Si6 0.171889 0.008879 0.494791
Si Si7 0.500000 0.000000 0.000000
Si Si8 0.714369 0.489140 0.227988
O O1 0.578265 0.308522 0.041568
O O2 0.918795 0.260656 0.752759
O O3 0.797715 0.500781 0.866986
O O4 0.941949 0.189326 0.010050
O O5 0.603537 0.596241 0.122993
O O6 0.618467 0.850067 0.899413
O O7 0.295356 0.255095 0.555511
O O8 0.149689 0.196463 0.452998
O O9 0.000000 0.500000 0.500000
O O10 0.720360 0.611838 0.276243
O O11 0.442457 0.602470 0.595926
O O12 0.402801 0.882400 0.387611
O O13 0.266892 0.047187 0.044002
O O14 0.937196 0.342907 0.138450
O O15 0.885474 0.065878 0.313423
O O16 0.000000 0.000000 0.500000
#
# Coordination Sequence:
#
# PCOD9039939 Si02
#       8
#     2   2   2   2   2   2   1   2
#     4  10  24  47  70  91 141 184 224 277 347 405
#     4  10  23  43  66  99 132 181 223 281 337 408
#     4  12  27  42  70 106 138 178 230 282 343 411
#     4  10  23  42  72  98 133 182 228 282 336 409
#     4  10  25  45  69 101 136 183 228 281 342 406
#     4  11  27  47  70 100 142 181 228 285 344 404
#     4  12  26  36  66 102 140 166 232 282 330 400
#     4   9  21  43  71  96 137 179 227 275 351 405
#
# _framework density 25.292121999999999
#
# number of rings (size 3 to 8) (size 9 to 14) (size 15 to 20)
#    0.000    1.600    0.000    2.000   13.067    4.267 
#    0.000    0.000    0.000    0.000    0.000    0.000 
#    0.000    0.000    0.000    0.000    0.000    0.000 
#
# Total GULP energy -83771.064119 kJ/mol
# GULP energy per Si atom -5584.737608 kJ/mol
# Density = 2.523456 g / cm^3
# Si number density = 25.292122 Si / 1000 Ang^3
#
#
#
# Elastic Constant Matrix: (Units=GPa)
#
#
# Indices 1 2 3 4 5 6 
#
# 1 131.7025 52.9227 -12.2255 8.3021 -1.1358 -18.8643
# 2 52.9227 121.9342 13.1731 19.3072 17.4773 13.8885
# 3 -12.2255 13.1731 55.4645 1.6226 11.5717 -9.2127
# 4 8.3021 19.3072 1.6226 49.7422 -0.7750 7.3886
# 5 -1.1358 17.4773 11.5717 -0.7750 27.4250 11.8316
# 6 -18.8643 13.8885 -9.2127 7.3886 11.8316 51.7532
#
#
#
# Elastic Compliance Matrix: (Units=1/GPa)
#
#
# Indices 1 2 3 4 5 6 
#
# 1 0.011681 -0.006214 0.005493 -0.000810 -0.001026 0.007254
# 2 -0.006214 0.013122 -0.004221 -0.003253 -0.004782 -0.004980
# 3 0.005493 -0.004221 0.024554 -0.001829 -0.012032 0.010518
# 4 -0.000810 -0.003253 -0.001829 0.022254 0.005217 -0.004118
# 5 -0.001026 -0.004782 -0.012032 0.005217 0.050529 -0.013529
# 6 0.007254 -0.004980 0.010518 -0.004118 -0.013529 0.028856
#
#
# Mechanical properties :
#
#
# Convention : Reuss Voigt Hill
#
# Bulk Modulus (GPa) = 25.33327 46.31576 35.82451
# Shear Modulus (GPa) = 28.72951 42.79948 35.76449
#
# Velocity S-wave (km/s) = 3.37398 4.11811 3.76447
# Velocity P-wave (km/s) = 5.02159 6.40030 5.75240
#
# Compressibility (1/GPa) = 0.03947379
#
# Stress axis : x y z
#
# Youngs Moduli (GPa) = 85.60858 76.20744 40.72712
#
# Poissons Ratio (x) = 0.47357 -0.22373
# Poissons Ratio (y) = 0.53199 0.17189
# Poissons Ratio (z) = -0.47027 0.32164
#
# Static dielectric constant tensor:
#      x y z
#    x 3.062830 -0.551400 -0.542240 
#    y -0.551400 2.342550 0.232820 
#    z -0.542240 0.232820 2.276480 
# 
# From -- ./inp_files/378178.got.cif
#   From: 2010.05.17/outbox.cif.g08.bks.cpg/sg2_190_cif.got.tgz:378178.got - 2010.06.03 11:33:40.
