data_PCOD9039756
_publ_section_title
;
Structure prediction by ZEFSAII (Michael W. Deem and Ramdas Pophale) SiO2 
 PCOD9039756
Probable space group: P -1
;
_chemical_formula_sum "Si O2"
_cell_formula_units_Z 16
_cell_length_a 9.685874
_cell_length_b 11.042355
_cell_length_c 9.124354
_cell_angle_alpha 87.773293
_cell_angle_beta 50.850680
_cell_angle_gamma 75.813866
_cell_volume 724.963965
_symmetry_space_group_name_H-M "P -1"
_symmetry_group_IT_number 2
_symmetry_cell_setting 'triclinic'
loop_
_space_group_symop_operation_xyz
x,y,z
-x,-y,-z
loop_
_atom_site_type_symbol
_atom_site_label
_atom_site_fract_x
_atom_site_fract_y
_atom_site_fract_z
Si Si1 0.303941 0.040638 0.725006
Si Si2 0.170303 0.534425 0.816226
Si Si3 0.642257 0.158224 0.065100
Si Si4 0.065805 0.198925 0.129982
Si Si5 0.531117 0.458803 0.148745
Si Si6 0.169364 0.438139 0.498185
Si Si7 0.765550 0.825468 0.679463
Si Si8 0.019029 0.046297 0.675864
O O1 0.141465 0.089091 0.715222
O O2 0.500000 0.000000 0.500000
O O3 0.290557 0.915165 0.825179
O O4 0.232171 0.142344 0.902650
O O5 0.335104 0.501267 0.826619
O O6 0.183095 0.459032 0.659884
O O7 0.096874 0.684373 0.825737
O O8 0.000000 0.500000 0.000000
O O9 0.593317 0.306758 0.112734
O O10 0.455971 0.117127 0.157050
O O11 0.802623 0.120959 0.837166
O O12 0.157858 0.235639 0.213387
O O13 0.978896 0.091917 0.259383
O O14 0.324641 0.502636 0.342827
O O15 0.500000 0.500000 0.000000
O O16 0.211319 0.289354 0.444011
O O17 0.000000 0.500000 0.500000
O O18 0.878948 0.921364 0.539869
#
# Coordination Sequence:
#
# PCOD9039756 Si02
#       8
#     2   2   2   2   2   2   2   2
#     4  11  22  43  68  98 135 183 229 288 354 421
#     4  12  26  44  72 103 141 192 235 292 356 424
#     4  10  23  42  70  97 144 175 232 297 349 423
#     4  11  25  44  68 101 145 179 241 288 351 431
#     4  11  25  43  70 104 139 182 241 293 355 422
#     4  11  24  46  70  98 144 187 237 296 349 418
#     4  11  24  44  69 105 138 188 231 293 360 413
#     4  11  23  43  72  99 136 185 230 292 360 419
#
# _framework density 22.070063999999999
#
# number of rings (size 3 to 8) (size 9 to 14) (size 15 to 20)
#    0.000    1.000    2.500    4.500    7.000    2.000 
#    2.250    1.250    0.000    0.000    0.000    0.000 
#    0.000    0.000    0.000    0.000    0.000    0.000 
#
# Total GULP energy -89106.543123 kJ/mol
# GULP energy per Si atom -5569.158945 kJ/mol
# Density = 2.201983 g / cm^3
# Si number density = 22.070064 Si / 1000 Ang^3
#
#
#
# Elastic Constant Matrix: (Units=GPa)
#
#
# Indices 1 2 3 4 5 6 
#
# 1 174.8337 25.5414 81.4234 -2.7520 1.1163 -4.2215
# 2 25.5414 43.7123 0.0293 3.7208 9.6518 9.0339
# 3 81.4234 0.0293 153.2083 -7.4983 9.3098 17.7785
# 4 -2.7520 3.7208 -7.4983 28.1633 2.9456 3.8267
# 5 1.1163 9.6518 9.3098 2.9456 53.4472 -3.1852
# 6 -4.2215 9.0339 17.7785 3.8267 -3.1852 30.5598
#
#
#
# Elastic Compliance Matrix: (Units=1/GPa)
#
#
# Indices 1 2 3 4 5 6 
#
# 1 0.010107 -0.008117 -0.006533 -0.001078 0.002931 0.008037
# 2 -0.008117 0.032518 0.006527 -0.000468 -0.007724 -0.015278
# 3 -0.006533 0.006527 0.011609 0.003410 -0.003873 -0.010416
# 4 -0.001078 -0.000468 0.003410 0.037637 -0.002980 -0.007018
# 5 0.002931 -0.007724 -0.003873 -0.002980 0.021332 0.007538
# 6 0.008037 -0.015278 -0.010416 -0.007018 0.007538 0.046074
#
#
# Mechanical properties :
#
#
# Convention : Reuss Voigt Hill
#
# Bulk Modulus (GPa) = 26.32466 65.08252 45.70359
# Shear Modulus (GPa) = 26.56956 40.08476 33.32716
#
# Velocity S-wave (km/s) = 3.47345 4.26637 3.89017
# Velocity P-wave (km/s) = 5.29529 7.33637 6.39775
#
# Compressibility (1/GPa) = 0.03798720
#
# Stress axis : x y z
#
# Youngs Moduli (GPa) = 98.94563 30.75182 86.14096
#
# Poissons Ratio (x) = 0.24962 0.56277
# Poissons Ratio (y) = 0.80318 -0.56226
# Poissons Ratio (z) = 0.64642 -0.20072
#
# Static dielectric constant tensor:
#      x y z
#    x 1.805870 -0.023100 -0.067230 
#    y -0.023100 1.652540 -0.082970 
#    z -0.067230 -0.082970 1.732680 
# 
# From -- ./inp_files/187234.got.cif
#   From: 2010.05.17/outbox.cif.g08.bks.cpg/sg2_94_cif.got.tgz:187234.got - 2010.06.03 11:33:40.
