data_PCOD9039548
_publ_section_title
;
Structure prediction by ZEFSAII (Michael W. Deem and Ramdas Pophale) SiO2 
 PCOD9039548
Probable space group: P -1
;
_chemical_formula_sum "Si O2"
_cell_formula_units_Z 14
_cell_length_a 10.430197
_cell_length_b 9.052116
_cell_length_c 13.133978
_cell_angle_alpha 46.283442
_cell_angle_beta 138.511449
_cell_angle_gamma 118.557167
_cell_volume 591.710879
_symmetry_space_group_name_H-M "P -1"
_symmetry_group_IT_number 2
_symmetry_cell_setting 'triclinic'
loop_
_space_group_symop_operation_xyz
x,y,z
-x,-y,-z
loop_
_atom_site_type_symbol
_atom_site_label
_atom_site_fract_x
_atom_site_fract_y
_atom_site_fract_z
Si Si1 0.698511 0.169144 0.637561
Si Si2 0.990133 0.820501 0.885456
Si Si3 0.933384 0.558464 0.548236
Si Si4 0.638596 0.326204 0.722178
Si Si5 0.710358 0.999172 0.179076
Si Si6 0.651406 0.599012 0.775165
Si Si7 0.693884 0.398973 0.110614
O O1 0.819917 0.370587 0.611788
O O2 0.616002 0.142283 0.715969
O O3 0.523248 0.229042 0.427111
O O4 0.842481 0.983623 0.776013
O O5 0.846966 0.680633 0.807303
O O6 0.130191 0.928798 0.840420
O O7 0.129445 0.705563 0.106323
O O8 0.000000 0.500000 0.500000
O O9 0.124604 0.584703 0.715476
O O10 0.796925 0.771387 0.370718
O O11 0.500000 0.500000 0.500000
O O12 0.590581 0.399360 0.774281
O O13 0.690251 0.165072 0.179472
O O14 0.500000 0.000000 0.000000
O O15 0.704749 0.533711 0.950987
O O16 0.500000 0.500000 0.000000
#
# Coordination Sequence:
#
# PCOD9039548 Si02
#       7
#     2   2   2   2   2   2   2
#     4  11  24  44  73 105 146 190 240 300 367 433
#     4  12  24  44  74 104 147 189 243 301 362 435
#     4  12  25  48  73 103 145 194 244 304 365 433
#     4  10  23  42  69 101 141 188 235 295 361 428
#     4  12  27  48  73 107 148 196 249 301 363 439
#     4  11  24  47  70 107 143 186 243 303 365 430
#     4  12  27  48  76 106 145 198 245 304 369 439
#
# _framework density 23.660204
#
# number of rings (size 3 to 8) (size 9 to 14) (size 15 to 20)
#    0.000    0.571    2.857    5.143    4.000    0.000 
#    0.000    0.000    0.000    0.000    0.000    0.000 
#    0.000    0.000    0.000    0.000    0.000    0.000 
#
# Total GULP energy -78138.561786 kJ/mol
# GULP energy per Si atom -5581.325842 kJ/mol
# Density = 2.360635 g / cm^3
# Si number density = 23.660204 Si / 1000 Ang^3
#
#
#
# Elastic Constant Matrix: (Units=GPa)
#
#
# Indices 1 2 3 4 5 6 
#
# 1 85.5607 47.1378 38.9688 7.1659 7.3672 -8.9257
# 2 47.1378 134.2561 88.2713 -2.1507 5.9277 -13.6196
# 3 38.9688 88.2713 237.5684 13.6467 27.5547 -14.5442
# 4 7.1659 -2.1507 13.6467 49.1068 -14.6097 14.1255
# 5 7.3672 5.9277 27.5547 -14.6097 43.1897 -1.3272
# 6 -8.9257 -13.6196 -14.5442 14.1255 -1.3272 52.0779
#
#
#
# Elastic Compliance Matrix: (Units=1/GPa)
#
#
# Indices 1 2 3 4 5 6 
#
# 1 0.015354 -0.005193 0.000191 -0.004212 -0.003380 0.002383
# 2 -0.005193 0.011905 -0.004080 0.003207 0.002949 0.000289
# 3 0.000191 -0.004080 0.006617 -0.004049 -0.005009 0.001784
# 4 -0.004212 0.003207 -0.004049 0.028272 0.012168 -0.008372
# 5 -0.003380 0.002949 -0.005009 0.012168 0.030522 -0.003729
# 6 0.002383 0.000289 0.001784 -0.008372 -0.003729 0.022360
#
#
# Mechanical properties :
#
#
# Convention : Reuss Voigt Hill
#
# Bulk Modulus (GPa) = 63.64883 89.57120 76.61002
# Shear Modulus (GPa) = 36.11900 47.74204 41.93052
#
# Velocity S-wave (km/s) = 3.91138 4.49689 4.21431
# Velocity P-wave (km/s) = 6.88172 8.05619 7.49201
#
# Compressibility (1/GPa) = 0.01571121
#
# Stress axis : x y z
#
# Youngs Moduli (GPa) = 65.13001 84.00012 151.13117
#
# Poissons Ratio (x) = 0.43619 -0.02882
# Poissons Ratio (y) = 0.33820 0.61663
# Poissons Ratio (z) = -0.01242 0.34273
#
# Static dielectric constant tensor:
#      x y z
#    x 2.043170 0.003080 -0.049710 
#    y 0.003080 1.936950 -0.020390 
#    z -0.049710 -0.020390 1.862000 
# 
# From -- ./inp_files/515141.got.cif
#   From: 2010.05.17/outbox.cif.g08.bks.cpg/sg2_258_cif.got.tgz:515141.got - 2010.06.03 11:33:40.
