data_PCOD9039873
_publ_section_title
;
Structure prediction by ZEFSAII (Michael W. Deem and Ramdas Pophale) SiO2 
 PCOD9039873
Probable space group: P -1
;
_chemical_formula_sum "Si O2"
_cell_formula_units_Z 16
_cell_length_a 5.269137
_cell_length_b 15.039249
_cell_length_c 14.679998
_cell_angle_alpha 137.757426
_cell_angle_beta 62.173630
_cell_angle_gamma 109.231519
_cell_volume 691.364564
_symmetry_space_group_name_H-M "P -1"
_symmetry_group_IT_number 2
_symmetry_cell_setting 'triclinic'
loop_
_space_group_symop_operation_xyz
x,y,z
-x,-y,-z
loop_
_atom_site_type_symbol
_atom_site_label
_atom_site_fract_x
_atom_site_fract_y
_atom_site_fract_z
Si Si1 0.729032 0.650952 0.244466
Si Si2 0.488818 0.775511 0.939544
Si Si3 0.322968 0.050445 0.478440
Si Si4 0.303016 0.142351 0.226880
Si Si5 0.251684 0.471535 0.220852
Si Si6 0.950485 0.635848 0.995868
Si Si7 0.812719 0.555869 0.489713
Si Si8 0.701949 0.000629 0.198505
O O1 0.737104 0.790970 0.398299
O O2 0.407885 0.605683 0.279519
O O3 0.904211 0.513435 0.134859
O O4 0.815502 0.674925 0.143769
O O5 0.530970 0.842365 0.885455
O O6 0.619508 0.626880 0.799698
O O7 0.172318 0.744704 0.007054
O O8 0.667767 0.862485 0.046251
O O9 0.516922 0.002501 0.323820
O O10 0.500000 0.000000 0.500000
O O11 0.000000 0.000000 0.500000
O O12 0.184279 0.286877 0.384005
O O13 0.531419 0.097807 0.230837
O O14 0.028141 0.047488 0.193479
O O15 0.284269 0.388750 0.060102
O O16 0.938967 0.506195 0.334477
O O17 0.500000 0.500000 0.500000
O O18 0.000000 0.500000 0.500000
#
# Coordination Sequence:
#
# PCOD9039873 Si02
#       8
#     2   2   2   2   2   2   2   2
#     4  10  24  44  66 106 135 179 236 292 351 405
#     4  11  25  43  68 104 137 190 235 278 355 412
#     4  12  28  48  75 101 139 186 233 286 349 420
#     4  12  26  46  70 103 143 184 234 286 347 413
#     4  11  24  40  73  98 139 181 230 292 346 416
#     4  10  23  42  71  98 141 178 233 293 347 412
#     4  12  25  44  69 101 138 178 232 283 344 412
#     4  12  28  46  72 102 143 186 232 290 341 418
#
# _framework density 23.142637000000001
#
# number of rings (size 3 to 8) (size 9 to 14) (size 15 to 20)
#    0.000    0.750    1.250    4.875   10.500    0.000 
#    0.000    0.000    0.000    0.000    0.000    0.000 
#    0.000    0.000    0.000    0.000    0.000    0.000 
#
# Total GULP energy -89450.732669 kJ/mol
# GULP energy per Si atom -5590.670792 kJ/mol
# Density = 2.308996 g / cm^3
# Si number density = 23.142637 Si / 1000 Ang^3
#
#
#
# Elastic Constant Matrix: (Units=GPa)
#
#
# Indices 1 2 3 4 5 6 
#
# 1 82.8320 35.5041 -4.0260 -7.2095 5.4637 7.8644
# 2 35.5041 132.7400 24.6769 -22.3804 1.8557 17.6134
# 3 -4.0260 24.6769 62.0926 -17.5417 3.0410 -1.9492
# 4 -7.2095 -22.3804 -17.5417 55.9988 3.1282 6.5256
# 5 5.4637 1.8557 3.0410 3.1282 31.9093 -1.8983
# 6 7.8644 17.6134 -1.9492 6.5256 -1.8983 43.0790
#
#
#
# Elastic Compliance Matrix: (Units=1/GPa)
#
#
# Indices 1 2 3 4 5 6 
#
# 1 0.014336 -0.003941 0.003018 0.001511 -0.002734 -0.001219
# 2 -0.003941 0.010311 -0.003641 0.002959 -0.000113 -0.004114
# 3 0.003018 -0.003641 0.019322 0.005021 -0.002583 0.000938
# 4 0.001511 0.002959 0.005021 0.021535 -0.003298 -0.004666
# 5 -0.002734 -0.000113 -0.002583 -0.003298 0.032523 0.002361
# 6 -0.001219 -0.004114 0.000938 -0.004666 0.002361 0.025971
#
#
# Mechanical properties :
#
#
# Convention : Reuss Voigt Hill
#
# Bulk Modulus (GPa) = 28.70150 43.33052 36.01601
# Shear Modulus (GPa) = 34.54468 40.96472 37.75470
#
# Velocity S-wave (km/s) = 3.86772 4.21182 4.04343
# Velocity P-wave (km/s) = 5.68987 6.51279 6.11519
#
# Compressibility (1/GPa) = 0.03484139
#
# Stress axis : x y z
#
# Youngs Moduli (GPa) = 69.75431 96.98557 51.75407
#
# Poissons Ratio (x) = 0.38221 -0.15620
# Poissons Ratio (y) = 0.27490 0.18844
# Poissons Ratio (z) = -0.21053 0.35313
#
# Static dielectric constant tensor:
#      x y z
#    x 1.914140 -0.057560 -0.008060 
#    y -0.057560 1.852800 0.013990 
#    z -0.008060 0.013990 1.847820 
# 
# From -- ./inp_files/123771.got.cif
#   From: 2010.05.17/outbox.cif.g08.bks.cpg/sg2_62_cif.got.tgz:123771.got - 2010.06.03 11:33:40.
