data_PCOD9039898
_publ_section_title
;
Structure prediction by ZEFSAII (Michael W. Deem and Ramdas Pophale) SiO2 
 PCOD9039898
Probable space group: P -1
;
_chemical_formula_sum "Si O2"
_cell_formula_units_Z 14
_cell_length_a 22.098481
_cell_length_b 8.713232
_cell_length_c 11.479125
_cell_angle_alpha 40.945273
_cell_angle_beta 30.672355
_cell_angle_gamma 32.406450
_cell_volume 600.817609
_symmetry_space_group_name_H-M "P -1"
_symmetry_group_IT_number 2
_symmetry_cell_setting 'triclinic'
loop_
_space_group_symop_operation_xyz
x,y,z
-x,-y,-z
loop_
_atom_site_type_symbol
_atom_site_label
_atom_site_fract_x
_atom_site_fract_y
_atom_site_fract_z
Si Si1 0.414771 0.662135 0.722969
Si Si2 0.610293 0.529106 0.871246
Si Si3 0.925310 0.687373 0.796339
Si Si4 0.740247 0.486464 0.270450
Si Si5 0.814922 0.968351 0.292270
Si Si6 0.113430 0.810086 0.556109
Si Si7 0.547315 0.061380 0.768953
O O1 0.567850 0.627993 0.493573
O O2 0.278852 0.937602 0.726264
O O3 0.451072 0.401292 0.726841
O O4 0.376629 0.598783 0.948355
O O5 0.762283 0.375177 0.641201
O O6 0.540057 0.866627 0.800028
O O7 0.500000 0.500000 0.000000
O O8 0.981962 0.787609 0.750849
O O9 0.922033 0.874264 0.586863
O O10 0.776988 0.715518 0.050791
O O11 0.039970 0.345635 0.783425
O O12 0.810805 0.235183 0.198115
O O13 0.822233 0.322905 0.348593
O O14 0.714068 0.948257 0.563647
O O15 0.500000 0.000000 0.000000
#
# Coordination Sequence:
#
# PCOD9039898 Si02
#       7
#     2   2   2   2   2   2   2
#     4  10  23  42  72 102 135 174 225 298 347 395
#     4  11  21  41  67  99 134 175 232 279 340 409
#     4  11  26  47  68  98 145 188 229 280 340 420
#     4  11  23  46  71 104 139 178 237 283 346 412
#     4  11  23  45  69 102 137 176 234 285 346 405
#     4  11  25  46  70  99 143 187 229 282 344 412
#     4   9  19  38  62  93 133 169 213 280 336 393
#
# _framework density 23.301580000000001
#
# number of rings (size 3 to 8) (size 9 to 14) (size 15 to 20)
#    0.000    1.429    2.857    2.571    0.000    6.286 
#    5.143    2.143    0.000    0.000    0.000    0.000 
#    0.000    0.000    0.000    0.000    0.000    0.000 
#
# Total GULP energy -78236.889534 kJ/mol
# GULP energy per Si atom -5588.349252 kJ/mol
# Density = 2.324854 g / cm^3
# Si number density = 23.301580 Si / 1000 Ang^3
#
#
#
# Elastic Constant Matrix: (Units=GPa)
#
#
# Indices 1 2 3 4 5 6 
#
# 1 96.5185 37.9609 44.7433 -16.5784 -6.7139 1.8642
# 2 37.9609 81.2582 40.0180 -1.3716 -6.9780 -0.8194
# 3 44.7433 40.0180 108.7971 -26.2116 -13.3520 -1.3861
# 4 -16.5784 -1.3716 -26.2116 36.1103 6.5486 -2.4497
# 5 -6.7139 -6.9780 -13.3520 6.5486 39.4913 -14.5215
# 6 1.8642 -0.8194 -1.3861 -2.4497 -14.5215 29.5590
#
#
#
# Elastic Compliance Matrix: (Units=1/GPa)
#
#
# Indices 1 2 3 4 5 6 
#
# 1 0.014596 -0.005273 -0.003130 0.004267 -0.000650 -0.001179
# 2 -0.005273 0.017534 -0.005511 -0.005996 0.001655 0.000876
# 3 -0.003130 -0.005511 0.015096 0.008931 0.003254 0.003091
# 4 0.004267 -0.005996 0.008931 0.036520 -0.002762 0.001653
# 5 -0.000650 0.001655 0.003254 -0.002762 0.033033 0.016239
# 6 -0.001179 0.000876 0.003091 0.001653 0.016239 0.042189
#
#
# Mechanical properties :
#
#
# Convention : Reuss Voigt Hill
#
# Bulk Modulus (GPa) = 51.55192 59.11313 55.33252
# Shear Modulus (GPa) = 25.87163 31.95556 28.91359
#
# Velocity S-wave (km/s) = 3.33572 3.70725 3.52638
# Velocity P-wave (km/s) = 6.08341 6.61428 6.35439
#
# Compressibility (1/GPa) = 0.01939792
#
# Stress axis : x y z
#
# Youngs Moduli (GPa) = 68.51212 57.03359 66.24211
#
# Poissons Ratio (x) = 0.30073 0.20734
# Poissons Ratio (y) = 0.36126 0.36506
# Poissons Ratio (z) = 0.21444 0.31431
#
# Static dielectric constant tensor:
#      x y z
#    x 1.868430 0.003190 -0.002460 
#    y 0.003190 1.950070 -0.024620 
#    z -0.002460 -0.024620 1.945850 
# 
# From -- ./inp_files/474384.got.cif
#   From: 2010.05.17/outbox.cif.g08.bks.cpg/sg2_238_cif.got.tgz:474384.got - 2010.06.03 11:33:40.
