data_PCOD9039442
_publ_section_title
;
Structure prediction by ZEFSAII (Michael W. Deem and Ramdas Pophale) SiO2 
 PCOD9039442
Probable space group: P -1
;
_chemical_formula_sum "Si O2"
_cell_formula_units_Z 16
_cell_length_a 8.683819
_cell_length_b 22.856393
_cell_length_c 15.776591
_cell_angle_alpha 17.680800
_cell_angle_beta 50.662223
_cell_angle_gamma 53.890958
_cell_volume 734.124348
_symmetry_space_group_name_H-M "P -1"
_symmetry_group_IT_number 2
_symmetry_cell_setting 'triclinic'
loop_
_space_group_symop_operation_xyz
x,y,z
-x,-y,-z
loop_
_atom_site_type_symbol
_atom_site_label
_atom_site_fract_x
_atom_site_fract_y
_atom_site_fract_z
Si Si1 0.944325 0.280936 0.711832
Si Si2 0.803732 0.320070 0.888086
Si Si3 0.045002 0.849692 0.291003
Si Si4 0.363033 0.871399 0.288846
Si Si5 0.394971 0.448837 0.897772
Si Si6 0.923334 0.706729 0.905048
Si Si7 0.093573 0.067023 0.237851
Si Si8 0.725176 0.572308 0.844328
O O1 0.794621 0.294568 0.824617
O O2 0.087244 0.472808 0.410775
O O3 0.869714 0.255220 0.676669
O O4 0.053059 0.080433 0.960538
O O5 0.586185 0.323567 0.998978
O O6 0.939367 0.157853 0.101829
O O7 0.817291 0.764386 0.500987
O O8 0.166691 0.807279 0.391056
O O9 0.455181 0.678011 0.557150
O O10 0.284444 0.998276 0.217188
O O11 0.500000 0.000000 0.000000
O O12 0.255732 0.403643 0.928824
O O13 0.274350 0.403440 0.088234
O O14 0.856010 0.776511 0.923443
O O15 0.989492 0.886818 0.573107
O O16 0.117658 0.585183 0.015824
O O17 0.500000 0.500000 0.000000
#
# Coordination Sequence:
#
# PCOD9039442 Si02
#       8
#     2   2   2   2   2   2   2   2
#     4  10  23  42  68  94 140 169 234 271 332 401
#     4  11  24  44  68  99 137 184 215 286 335 401
#     4  11  22  44  68 100 128 183 225 279 330 401
#     4  12  25  43  70  98 138 182 222 278 338 403
#     4  12  25  43  69 102 136 171 236 274 338 403
#     4  11  24  45  70  99 137 178 220 291 330 406
#     4  11  24  46  68  95 140 179 225 272 350 390
#     4  12  24  44  73 101 136 178 226 282 340 401
#
# _framework density 21.794671999999998
#
# number of rings (size 3 to 8) (size 9 to 14) (size 15 to 20)
#    0.000    0.750    3.750    4.125    1.750    2.500 
#    4.500    1.250    0.000    0.000    0.000    0.000 
#    0.000    0.000    0.000    0.000    0.000    0.000 
#
# Total GULP energy -89465.528869 kJ/mol
# GULP energy per Si atom -5591.595554 kJ/mol
# Density = 2.174507 g / cm^3
# Si number density = 21.794672 Si / 1000 Ang^3
#
#
#
# Elastic Constant Matrix: (Units=GPa)
#
#
# Indices 1 2 3 4 5 6 
#
# 1 48.9087 19.3155 1.1346 -6.8079 -5.9140 2.1880
# 2 19.3155 157.9530 17.9267 -5.3165 -7.6724 27.2848
# 3 1.1346 17.9267 70.9538 -1.0418 2.0017 -8.4492
# 4 -6.8079 -5.3165 -1.0418 33.4796 2.3316 2.6674
# 5 -5.9140 -7.6724 2.0017 2.3316 21.6311 -1.3379
# 6 2.1880 27.2848 -8.4492 2.6674 -1.3379 34.4168
#
#
#
# Elastic Compliance Matrix: (Units=1/GPa)
#
#
# Indices 1 2 3 4 5 6 
#
# 1 0.022527 -0.002507 0.000253 0.003811 0.004867 0.000511
# 2 -0.002507 0.008354 -0.002968 0.001161 0.001982 -0.007205
# 3 0.000253 -0.002968 0.015620 -0.000280 -0.002021 0.006114
# 4 0.003811 0.001161 -0.000280 0.031265 -0.002122 -0.003737
# 5 0.004867 0.001982 -0.002021 -0.002122 0.048659 -0.000321
# 6 0.000511 -0.007205 0.006114 -0.003737 -0.000321 0.036513
#
#
# Mechanical properties :
#
#
# Convention : Reuss Voigt Hill
#
# Bulk Modulus (GPa) = 27.73337 39.39656 33.56496
# Shear Modulus (GPa) = 26.96850 33.86807 30.41828
#
# Velocity S-wave (km/s) = 3.52147 3.94631 3.73993
# Velocity P-wave (km/s) = 5.41173 6.23538 5.83810
#
# Compressibility (1/GPa) = 0.03605764
#
# Stress axis : x y z
#
# Youngs Moduli (GPa) = 44.39203 119.69885 64.01895
#
# Poissons Ratio (x) = 0.30009 -0.01618
# Poissons Ratio (y) = 0.11129 0.18998
# Poissons Ratio (z) = -0.01122 0.35521
#
# Static dielectric constant tensor:
#      x y z
#    x 1.791500 0.030000 0.019660 
#    y 0.030000 1.766820 -0.010360 
#    z 0.019660 -0.010360 1.832140 
# 
# From -- ./inp_files/262563.got.cif
#   From: 2010.05.17/outbox.cif.g08.bks.cpg/sg2_132_cif.got.tgz:262563.got - 2010.06.03 11:33:40.
