data_PCOD9039777
_publ_section_title
;
Structure prediction by ZEFSAII (Michael W. Deem and Ramdas Pophale) SiO2 
 PCOD9039777
Probable space group: P -1
;
_chemical_formula_sum "Si O2"
_cell_formula_units_Z 13
_cell_length_a 12.320377
_cell_length_b 12.113122
_cell_length_c 11.688517
_cell_angle_alpha 35.708686
_cell_angle_beta 35.514081
_cell_angle_gamma 33.296253
_cell_volume 506.667732
_symmetry_space_group_name_H-M "P -1"
_symmetry_group_IT_number 2
_symmetry_cell_setting 'triclinic'
loop_
_space_group_symop_operation_xyz
x,y,z
-x,-y,-z
loop_
_atom_site_type_symbol
_atom_site_label
_atom_site_fract_x
_atom_site_fract_y
_atom_site_fract_z
Si Si1 0.145409 0.989075 0.780232
Si Si2 0.717882 0.260187 0.509806
Si Si3 0.318874 0.493900 0.004606
Si Si4 0.500000 0.000000 0.000000
Si Si5 0.741897 0.662067 0.570076
Si Si6 0.970896 0.683267 0.960827
Si Si7 0.235937 0.670302 0.340951
O O1 0.280791 0.101193 0.606003
O O2 0.966767 0.138727 0.714056
O O3 0.289532 0.733772 0.842623
O O4 0.000000 0.000000 0.000000
O O5 0.500000 0.500000 0.500000
O O6 0.641632 0.084873 0.735610
O O7 0.871557 0.234332 0.294805
O O8 0.826730 0.276900 0.519015
O O9 0.094827 0.556880 0.077763
O O10 0.532913 0.341495 0.872166
O O11 0.348134 0.385996 0.195057
O O12 0.715658 0.862883 0.020604
O O13 0.710816 0.562922 0.562375
O O14 0.000000 0.500000 0.500000
O O15 0.000000 0.500000 0.000000
#
# Coordination Sequence:
#
# PCOD9039777 Si02
#       7
#     2   2   2   1   2   2   2
#     4  11  24  43  67 102 139 186 238 291 357 427
#     4  12  25  51  72 111 149 195 242 301 370 427
#     4  12  24  47  70 104 142 186 237 299 357 428
#     4  12  26  48  76 108 144 196 246 298 360 442
#     4  10  23  42  71 100 138 187 233 295 354 424
#     4  12  27  47  79 107 151 194 243 303 368 434
#     4  11  24  47  72 101 146 184 239 297 350 436
#
# _framework density 25.657841000000001
#
# number of rings (size 3 to 8) (size 9 to 14) (size 15 to 20)
#    0.000    0.615    6.154    1.846    4.308    0.615 
#    5.538    0.000    0.000    0.000    0.000    0.000 
#    0.000    0.000    0.000    0.000    0.000    0.000 
#
# Total GULP energy -72473.151310 kJ/mol
# GULP energy per Si atom -5574.857793 kJ/mol
# Density = 2.559944 g / cm^3
# Si number density = 25.657841 Si / 1000 Ang^3
#
#
#
# Elastic Constant Matrix: (Units=GPa)
#
#
# Indices 1 2 3 4 5 6 
#
# 1 122.3596 25.1501 44.2872 1.8005 0.5430 -13.4690
# 2 25.1501 98.1405 27.2400 -3.0485 -16.8943 -1.1756
# 3 44.2872 27.2400 136.3345 -8.5355 -8.2209 5.4070
# 4 1.8005 -3.0485 -8.5355 48.1302 -1.8274 -11.1525
# 5 0.5430 -16.8943 -8.2209 -1.8274 38.7716 12.4793
# 6 -13.4690 -1.1756 5.4070 -11.1525 12.4793 44.0518
#
#
#
# Elastic Compliance Matrix: (Units=1/GPa)
#
#
# Indices 1 2 3 4 5 6 
#
# 1 0.010321 -0.002244 -0.003286 -0.000224 -0.003232 0.004358
# 2 -0.002244 0.012067 -0.001251 0.000449 0.005586 -0.001679
# 3 -0.003286 -0.001251 0.008958 0.001142 0.002255 -0.002487
# 4 -0.000224 0.000449 0.001142 0.022286 -0.000287 0.005527
# 5 -0.003232 0.005586 0.002255 -0.000287 0.032040 -0.010265
# 6 0.004358 -0.001679 -0.002487 0.005527 -0.010265 0.028601
#
#
# Mechanical properties :
#
#
# Convention : Reuss Voigt Hill
#
# Bulk Modulus (GPa) = 56.22702 61.13213 58.67958
# Shear Modulus (GPa) = 37.37986 43.53454 40.45720
#
# Velocity S-wave (km/s) = 3.82102 4.12361 3.97520
# Velocity P-wave (km/s) = 6.43651 6.82275 6.63244
#
# Compressibility (1/GPa) = 0.01778504
#
# Stress axis : x y z
#
# Youngs Moduli (GPa) = 96.89422 82.87027 111.62858
#
# Poissons Ratio (x) = 0.18595 0.36681
# Poissons Ratio (y) = 0.21742 0.13960
# Poissons Ratio (z) = 0.31839 0.10363
#
# Static dielectric constant tensor:
#      x y z
#    x 1.912790 -0.414610 0.364960 
#    y -0.414610 1.234380 0.809350 
#    z 0.364960 0.809350 1.109150 
# 
# From -- ./inp_files/427336.got.cif
#   From: 2010.05.17/outbox.cif.g08.bks.cpg/sg2_214_cif.got.tgz:427336.got - 2010.06.03 11:33:40.
