data_PCOD9039238
_publ_section_title
;
Structure prediction by ZEFSAII (Michael W. Deem and Ramdas Pophale) SiO2 
 PCOD9039238
Probable space group: P -1
;
_chemical_formula_sum "Si O2"
_cell_formula_units_Z 16
_cell_length_a 18.134614
_cell_length_b 9.306615
_cell_length_c 9.194644
_cell_angle_alpha 83.900826
_cell_angle_beta 152.629853
_cell_angle_gamma 97.738535
_cell_volume 706.618964
_symmetry_space_group_name_H-M "P -1"
_symmetry_group_IT_number 2
_symmetry_cell_setting 'triclinic'
loop_
_space_group_symop_operation_xyz
x,y,z
-x,-y,-z
loop_
_atom_site_type_symbol
_atom_site_label
_atom_site_fract_x
_atom_site_fract_y
_atom_site_fract_z
Si Si1 0.386153 0.070686 0.677205
Si Si2 0.789746 0.234055 0.637703
Si Si3 0.675155 0.346587 0.729655
Si Si4 0.332636 0.535843 0.777313
Si Si5 0.697060 0.601965 0.943498
Si Si6 0.131452 0.267952 0.334094
Si Si7 0.873304 0.877464 0.354573
Si Si8 0.393022 0.922430 0.193038
O O1 0.267304 0.934570 0.428897
O O2 0.282663 0.191190 0.548061
O O3 0.490390 0.132267 0.718079
O O4 0.500000 0.000000 0.000000
O O5 0.730816 0.317935 0.667542
O O6 0.704862 0.302385 0.344438
O O7 0.981556 0.256853 0.965343
O O8 0.739720 0.498646 0.897574
O O9 0.480558 0.344703 0.396181
O O10 0.716053 0.211198 0.914437
O O11 0.192823 0.430345 0.467572
O O12 0.500000 0.500000 0.000000
O O13 0.324747 0.493684 0.936855
O O14 0.825184 0.738263 0.183502
O O15 0.078695 0.182649 0.399117
O O16 0.000000 0.000000 0.500000
O O17 0.709799 0.958407 0.072800
O O18 0.500000 0.000000 0.500000
#
# Coordination Sequence:
#
# PCOD9039238 Si02
#       8
#     2   2   2   2   2   2   2   2
#     4  12  25  44  71  99 135 181 237 283 336 416
#     4  12  24  45  66  99 140 181 226 289 346 402
#     4  11  23  41  69 101 137 176 231 283 337 404
#     4  11  23  43  71  95 134 183 227 279 340 408
#     4  10  23  42  67 105 132 178 235 274 336 414
#     4  11  26  44  67 101 137 180 228 284 349 407
#     4  11  23  45  69 100 142 179 219 287 349 406
#     4  12  23  42  70 100 133 179 235 281 335 403
#
# _framework density 22.643037
#
# number of rings (size 3 to 8) (size 9 to 14) (size 15 to 20)
#    0.000    0.750    5.000    2.250    3.500    0.000 
#    0.000    6.875    0.000    0.000    0.000    0.000 
#    0.000    0.000    0.000    0.000    0.000    0.000 
#
# Total GULP energy -89601.701346 kJ/mol
# GULP energy per Si atom -5600.106334 kJ/mol
# Density = 2.259150 g / cm^3
# Si number density = 22.643037 Si / 1000 Ang^3
#
#
#
# Elastic Constant Matrix: (Units=GPa)
#
#
# Indices 1 2 3 4 5 6 
#
# 1 62.3452 13.2939 -8.9856 15.3416 -3.3974 5.6841
# 2 13.2939 91.6426 0.1319 7.4930 -6.2120 3.4241
# 3 -8.9856 0.1319 65.2375 -0.1083 -0.4343 2.9962
# 4 15.3416 7.4930 -0.1083 35.4485 2.5078 -5.1098
# 5 -3.3974 -6.2120 -0.4343 2.5078 22.9484 -0.2102
# 6 5.6841 3.4241 2.9962 -5.1098 -0.2102 40.3277
#
#
#
# Elastic Compliance Matrix: (Units=1/GPa)
#
#
# Indices 1 2 3 4 5 6 
#
# 1 0.019560 -0.001735 0.002886 -0.008899 0.003417 -0.003934
# 2 -0.001735 0.011578 -0.000201 -0.002055 0.003089 -0.000968
# 3 0.002886 -0.000201 0.015810 -0.001468 0.000817 -0.001746
# 4 -0.008899 -0.002055 -0.001468 0.033716 -0.005533 0.005781
# 5 0.003417 0.003089 0.000817 -0.005533 0.045527 -0.001268
# 6 -0.003934 -0.000968 -0.001746 0.005781 -0.001268 0.026289
#
#
# Mechanical properties :
#
#
# Convention : Reuss Voigt Hill
#
# Bulk Modulus (GPa) = 20.47179 25.34509 22.90844
# Shear Modulus (GPa) = 29.96496 34.06390 32.01443
#
# Velocity S-wave (km/s) = 3.64175 3.88285 3.76423
# Velocity P-wave (km/s) = 5.17145 5.59640 5.38811
#
# Compressibility (1/GPa) = 0.04884771
#
# Stress axis : x y z
#
# Youngs Moduli (GPa) = 51.12377 86.37414 63.25208
#
# Poissons Ratio (x) = 0.14990 -0.18257
# Poissons Ratio (y) = 0.08872 0.01270
# Poissons Ratio (z) = -0.14756 0.01735
#
# Static dielectric constant tensor:
#      x y z
#    x 1.812770 0.003630 0.002640 
#    y 0.003630 1.825630 -0.002420 
#    z 0.002640 -0.002420 1.833880 
# 
# From -- ./inp_files/244779.got.cif
#   From: 2010.05.17/outbox.cif.g08.bks.cpg/sg2_123_cif.got.tgz:244779.got - 2010.06.03 11:33:40.
