data_PCOD9039398
_publ_section_title
;
Structure prediction by ZEFSAII (Michael W. Deem and Ramdas Pophale) SiO2 
 PCOD9039398
Probable space group: P -1
;
_chemical_formula_sum "Si O2"
_cell_formula_units_Z 16
_cell_length_a 14.346796
_cell_length_b 5.067566
_cell_length_c 15.290621
_cell_angle_alpha 62.518046
_cell_angle_beta 45.343580
_cell_angle_gamma 61.673186
_cell_volume 681.393221
_symmetry_space_group_name_H-M "P -1"
_symmetry_group_IT_number 2
_symmetry_cell_setting 'triclinic'
loop_
_space_group_symop_operation_xyz
x,y,z
-x,-y,-z
loop_
_atom_site_type_symbol
_atom_site_label
_atom_site_fract_x
_atom_site_fract_y
_atom_site_fract_z
Si Si1 0.983433 0.906662 0.290636
Si Si2 0.464229 0.369231 0.916802
Si Si3 0.358657 0.823414 0.774900
Si Si4 0.717788 0.463619 0.836747
Si Si5 0.904075 0.265802 0.464508
Si Si6 0.528944 0.640381 0.370077
Si Si7 0.927888 0.219495 0.089947
Si Si8 0.348715 0.944460 0.306754
O O1 0.146805 0.794587 0.201407
O O2 0.935695 0.597493 0.392014
O O3 0.927067 0.145117 0.368118
O O4 0.939557 0.053909 0.202214
O O5 0.411755 0.693506 0.853949
O O6 0.593301 0.344699 0.897601
O O7 0.524933 0.147839 0.830030
O O8 0.337774 0.361834 0.062990
O O9 0.457198 0.634210 0.666085
O O10 0.224958 0.717335 0.852828
O O11 0.351220 0.183430 0.723664
O O12 0.734683 0.722525 0.717551
O O13 0.754047 0.274490 0.596298
O O14 0.000000 0.000000 0.500000
O O15 0.500000 0.500000 0.500000
O O16 0.408300 0.906629 0.370299
O O17 0.000000 0.500000 0.000000
O O18 0.000000 0.000000 0.000000
#
# Coordination Sequence:
#
# PCOD9039398 Si02
#       8
#     2   2   2   2   2   2   2   2
#     4  12  28  45  74 108 140 195 240 291 366 427
#     4  10  23  42  68 103 130 186 225 303 351 418
#     4  11  24  45  69  98 139 172 240 279 356 410
#     4  11  22  43  68 100 142 174 241 288 359 424
#     4  12  26  45  71 103 150 189 235 292 352 443
#     4  11  25  42  68 101 133 185 224 291 344 416
#     4  12  27  50  74 102 143 190 242 301 353 423
#     4  11  24  41  69  98 146 178 238 282 367 412
#
# _framework density 23.481301999999999
#
# number of rings (size 3 to 8) (size 9 to 14) (size 15 to 20)
#    0.000    0.750    2.500    4.125    5.250    0.000 
#    2.250    0.000    0.000    0.000    0.000    0.000 
#    0.000    0.000    0.000    0.000    0.000    0.000 
#
# Total GULP energy -89432.129000 kJ/mol
# GULP energy per Si atom -5589.508062 kJ/mol
# Density = 2.342786 g / cm^3
# Si number density = 23.481302 Si / 1000 Ang^3
#
#
#
# Elastic Constant Matrix: (Units=GPa)
#
#
# Indices 1 2 3 4 5 6 
#
# 1 67.6630 16.2157 24.2692 5.9304 3.6668 8.7169
# 2 16.2157 71.3310 21.8074 -5.9356 3.0422 19.0645
# 3 24.2692 21.8074 84.3469 -5.7256 17.7672 -0.1406
# 4 5.9304 -5.9356 -5.7256 39.1670 1.2509 -1.8363
# 5 3.6668 3.0422 17.7672 1.2509 46.9218 -1.7280
# 6 8.7169 19.0645 -0.1406 -1.8363 -1.7280 37.8459
#
#
#
# Elastic Compliance Matrix: (Units=1/GPa)
#
#
# Indices 1 2 3 4 5 6 
#
# 1 0.017779 -0.001989 -0.005002 -0.003898 0.000617 -0.003273
# 2 -0.001989 0.018167 -0.004027 0.002058 0.000131 -0.008603
# 3 -0.005002 -0.004027 0.015628 0.002745 -0.005223 0.003133
# 4 -0.003898 0.002058 0.002745 0.026936 -0.001546 0.001108
# 5 0.000617 0.000131 -0.005223 -0.001546 0.023303 0.000762
# 6 -0.003273 -0.008603 0.003133 0.001108 0.000762 0.031610
#
#
# Mechanical properties :
#
#
# Convention : Reuss Voigt Hill
#
# Bulk Modulus (GPa) = 33.85200 38.65837 36.25518
# Shear Modulus (GPa) = 30.24708 35.52350 32.88529
#
# Velocity S-wave (km/s) = 3.59295 3.89375 3.74637
# Velocity P-wave (km/s) = 5.62675 6.05923 5.84699
#
# Compressibility (1/GPa) = 0.02954035
#
# Stress axis : x y z
#
# Youngs Moduli (GPa) = 56.24461 55.04401 63.98804
#
# Poissons Ratio (x) = 0.10946 0.32004
# Poissons Ratio (y) = 0.11185 0.25768
# Poissons Ratio (z) = 0.28131 0.22166
#
# Static dielectric constant tensor:
#      x y z
#    x 1.952540 -0.072940 -0.088100 
#    y -0.072940 2.070580 0.104620 
#    z -0.088100 0.104620 1.976860 
# 
# From -- ./inp_files/511266.got.cif
#   From: 2010.05.17/outbox.cif.g08.bks.cpg/sg2_256_cif.got.tgz:511266.got - 2010.06.03 11:33:40.
