data_PCOD9039574
_publ_section_title
;
Structure prediction by ZEFSAII (Michael W. Deem and Ramdas Pophale) SiO2 
 PCOD9039574
Probable space group: P -1
;
_chemical_formula_sum "Si O2"
_cell_formula_units_Z 12
_cell_length_a 9.837971
_cell_length_b 11.252510
_cell_length_c 10.401730
_cell_angle_alpha 41.092131
_cell_angle_beta 61.176699
_cell_angle_gamma 40.188739
_cell_volume 476.349239
_symmetry_space_group_name_H-M "P -1"
_symmetry_group_IT_number 2
_symmetry_cell_setting 'triclinic'
loop_
_space_group_symop_operation_xyz
x,y,z
-x,-y,-z
loop_
_atom_site_type_symbol
_atom_site_label
_atom_site_fract_x
_atom_site_fract_y
_atom_site_fract_z
Si Si1 0.486455 0.718603 0.555046
Si Si2 0.162771 0.432569 0.661670
Si Si3 0.823751 0.723313 0.798427
Si Si4 0.513771 0.632732 0.269242
Si Si5 0.621848 0.588715 0.874253
Si Si6 0.073131 0.110155 0.962930
O O1 0.723004 0.543655 0.521735
O O2 0.410213 0.570954 0.708698
O O3 0.531998 0.748382 0.653437
O O4 0.304471 0.988053 0.349889
O O5 0.336721 0.325984 0.784655
O O6 0.944818 0.654470 0.660198
O O7 0.137420 0.253709 0.759475
O O8 0.631480 0.732106 0.861739
O O9 0.000000 0.500000 0.000000
O O10 0.500000 0.500000 0.500000
O O11 0.279661 0.887341 0.130900
O O12 0.500000 0.500000 0.000000
O O13 0.870159 0.326893 0.964645
O O14 0.000000 0.000000 0.000000
#
# Coordination Sequence:
#
# PCOD9039574 Si02
#       6
#     2   2   2   2   2   2
#     4  11  25  47  73 102 145 191 235 291 360 417
#     4  10  26  45  76  99 148 187 236 293 349 425
#     4  11  28  45  72 109 138 188 244 288 359 418
#     4  10  23  42  69 105 136 182 234 287 348 416
#     4  11  27  47  70 103 147 184 236 298 352 426
#     4  11  23  43  71 103 134 188 238 280 355 418
#
# _framework density 25.191600000000001
#
# number of rings (size 3 to 8) (size 9 to 14) (size 15 to 20)
#    0.000    1.333    1.667    1.000   16.333    6.000 
#    0.000    0.000    0.000    0.000    0.000    0.000 
#    0.000    0.000    0.000    0.000    0.000    0.000 
#
# Total GULP energy -66954.245694 kJ/mol
# GULP energy per Si atom -5579.520475 kJ/mol
# Density = 2.513426 g / cm^3
# Si number density = 25.191600 Si / 1000 Ang^3
#
#
#
# Elastic Constant Matrix: (Units=GPa)
#
#
# Indices 1 2 3 4 5 6 
#
# 1 174.2056 -3.5520 14.6335 -6.0699 -8.2537 -6.6274
# 2 -3.5520 68.9974 17.1320 -13.3291 -4.8268 -12.1831
# 3 14.6335 17.1320 65.9740 -14.2639 -2.7452 -8.9799
# 4 -6.0699 -13.3291 -14.2639 44.0173 -4.6258 1.9856
# 5 -8.2537 -4.8268 -2.7452 -4.6258 49.1840 2.3196
# 6 -6.6274 -12.1831 -8.9799 1.9856 2.3196 38.8285
#
#
#
# Elastic Compliance Matrix: (Units=1/GPa)
#
#
# Indices 1 2 3 4 5 6 
#
# 1 0.005980 0.001012 -0.001244 0.000797 0.001064 0.000946
# 2 0.001012 0.017055 -0.003031 0.004316 0.001869 0.004491
# 3 -0.001244 -0.003031 0.017600 0.004578 0.000783 0.002626
# 4 0.000797 0.004316 0.004578 0.025908 0.003201 0.001033
# 5 0.001064 0.001869 0.000783 0.003201 0.021061 -0.000473
# 6 0.000946 0.004491 0.002626 0.001033 -0.000473 0.027908
#
#
# Mechanical properties :
#
#
# Convention : Reuss Voigt Hill
#
# Bulk Modulus (GPa) = 29.31735 40.62266 34.97001
# Shear Modulus (GPa) = 37.47904 45.13686 41.30795
#
# Velocity S-wave (km/s) = 3.86133 4.23749 4.05378
# Velocity P-wave (km/s) = 5.61630 6.33263 5.98519
#
# Compressibility (1/GPa) = 0.03410949
#
# Stress axis : x y z
#
# Youngs Moduli (GPa) = 167.23449 58.63219 56.81721
#
# Poissons Ratio (x) = -0.05934 0.07067
# Poissons Ratio (y) = -0.16927 0.17223
# Poissons Ratio (z) = 0.20800 0.17773
#
# Static dielectric constant tensor:
#      x y z
#    x 2.278910 0.116230 -0.006680 
#    y 0.116230 2.115590 0.172510 
#    z -0.006680 0.172510 2.152870 
# 
# From -- ./inp_files/238071.got.cif
#   From: 2010.05.17/outbox.cif.g08.bks.cpg/sg2_120_cif.got.tgz:238071.got - 2010.06.03 11:33:40.
