data_PCOD9039140
_publ_section_title
;
Structure prediction by ZEFSAII (Michael W. Deem and Ramdas Pophale) SiO2 
 PCOD9039140
Probable space group: P -1
;
_chemical_formula_sum "Si O2"
_cell_formula_units_Z 16
_cell_length_a 9.557860
_cell_length_b 8.759623
_cell_length_c 14.049185
_cell_angle_alpha 77.500428
_cell_angle_beta 42.957692
_cell_angle_gamma 83.306789
_cell_volume 781.012401
_symmetry_space_group_name_H-M "P -1"
_symmetry_group_IT_number 2
_symmetry_cell_setting 'triclinic'
loop_
_space_group_symop_operation_xyz
x,y,z
-x,-y,-z
loop_
_atom_site_type_symbol
_atom_site_label
_atom_site_fract_x
_atom_site_fract_y
_atom_site_fract_z
Si Si1 0.409559 0.625034 0.461503
Si Si2 0.330577 0.263154 0.868003
Si Si3 0.274463 0.908615 0.617984
Si Si4 0.016161 0.457211 0.388894
Si Si5 0.923839 0.905181 0.642677
Si Si6 0.891831 0.150056 0.078103
Si Si7 0.582614 0.369688 0.906414
Si Si8 0.562838 0.089943 0.096051
O O1 0.500000 0.500000 0.500000
O O2 0.550274 0.699164 0.295750
O O3 0.331204 0.757693 0.550966
O O4 0.213163 0.529126 0.531423
O O5 0.438595 0.363671 0.885336
O O6 0.361071 0.085381 0.912926
O O7 0.086403 0.276813 0.972321
O O8 0.193787 0.883105 0.768927
O O9 0.077125 0.959246 0.646451
O O10 0.500000 0.000000 0.500000
O O11 0.065262 0.279508 0.361482
O O12 0.187499 0.573014 0.242271
O O13 0.000000 0.500000 0.500000
O O14 0.683361 0.930503 0.769417
O O15 0.000000 0.000000 0.500000
O O16 0.698232 0.176901 0.101824
O O17 0.000000 0.000000 0.000000
O O18 0.500000 0.500000 0.000000
O O19 0.590929 0.200860 0.975314
#
# Coordination Sequence:
#
# PCOD9039140 Si02
#       8
#     2   2   2   2   2   2   2   2
#     4  11  26  45  68  96 135 176 222 272 333 397
#     4  11  24  47  66  98 137 173 223 278 327 395
#     4  11  23  44  68  97 134 173 219 275 330 395
#     4  11  24  46  64  96 134 173 218 276 331 386
#     4  11  23  41  71  98 130 171 226 272 324 394
#     4  10  23  42  66  96 135 169 218 276 329 388
#     4  12  25  43  69  97 136 173 220 274 332 399
#     4  11  23  44  69  99 129 177 223 268 332 394
#
# _framework density 20.486229000000002
#
# number of rings (size 3 to 8) (size 9 to 14) (size 15 to 20)
#    0.000    1.000    2.500    4.875    3.500    4.000 
#    0.000    1.250    0.000    0.000    0.000    0.000 
#    0.000    0.000    0.000    0.000    0.000    0.000 
#
# Total GULP energy -89241.575464 kJ/mol
# GULP energy per Si atom -5577.598467 kJ/mol
# Density = 2.043960 g / cm^3
# Si number density = 20.486229 Si / 1000 Ang^3
#
#
#
# Elastic Constant Matrix: (Units=GPa)
#
#
# Indices 1 2 3 4 5 6 
#
# 1 187.2389 27.0474 60.3532 -0.8405 -14.1206 24.8408
# 2 27.0474 38.8598 26.1110 -7.1365 3.4497 11.3818
# 3 60.3532 26.1110 181.1141 -14.3512 -6.3054 16.9157
# 4 -0.8405 -7.1365 -14.3512 34.8531 10.5381 2.2531
# 5 -14.1206 3.4497 -6.3054 10.5381 47.5761 -1.9001
# 6 24.8408 11.3818 16.9157 2.2531 -1.9001 32.0268
#
#
#
# Elastic Compliance Matrix: (Units=1/GPa)
#
#
# Indices 1 2 3 4 5 6 
#
# 1 0.006914 -0.003364 -0.001584 -0.001682 0.002336 -0.003073
# 2 -0.003364 0.034585 -0.002544 0.008389 -0.006073 -0.009288
# 3 -0.001584 -0.002544 0.006749 0.002313 0.000033 -0.001593
# 4 -0.001682 0.008389 0.002313 0.034308 -0.008633 -0.005824
# 5 0.002336 -0.006073 0.000033 -0.008633 0.024164 0.002370
# 6 -0.003073 -0.009288 -0.001593 -0.005824 0.002370 0.038300
#
#
# Mechanical properties :
#
#
# Convention : Reuss Voigt Hill
#
# Bulk Modulus (GPa) = 30.06278 70.47068 50.26673
# Shear Modulus (GPa) = 29.22421 42.47129 35.84775
#
# Velocity S-wave (km/s) = 3.78104 4.55814 4.18765
# Velocity P-wave (km/s) = 5.81104 7.88517 6.92618
#
# Compressibility (1/GPa) = 0.03326372
#
# Stress axis : x y z
#
# Youngs Moduli (GPa) = 144.64379 28.91453 148.16737
#
# Poissons Ratio (x) = 0.09726 0.23466
# Poissons Ratio (y) = 0.48656 0.37697
# Poissons Ratio (z) = 0.22908 0.07357
#
# Static dielectric constant tensor:
#      x y z
#    x 1.724000 0.048340 -0.018190 
#    y 0.048340 1.675160 0.020130 
#    z -0.018190 0.020130 1.678120 
# 
# From -- ./inp_files/262619.got.cif
#   From: 2010.05.17/outbox.cif.g08.bks.cpg/sg2_132_cif.got.tgz:262619.got - 2010.06.03 11:33:40.
