data_PCOD9039042
_publ_section_title
;
Structure prediction by ZEFSAII (Michael W. Deem and Ramdas Pophale) SiO2 
 PCOD9039042
Probable space group: P -1
;
_chemical_formula_sum "Si O2"
_cell_formula_units_Z 16
_cell_length_a 5.545422
_cell_length_b 8.366780
_cell_length_c 20.283010
_cell_angle_alpha 124.415341
_cell_angle_beta 84.572897
_cell_angle_gamma 121.014028
_cell_volume 639.117109
_symmetry_space_group_name_H-M "P -1"
_symmetry_group_IT_number 2
_symmetry_cell_setting 'triclinic'
loop_
_space_group_symop_operation_xyz
x,y,z
-x,-y,-z
loop_
_atom_site_type_symbol
_atom_site_label
_atom_site_fract_x
_atom_site_fract_y
_atom_site_fract_z
Si Si1 0.120995 0.152724 0.624581
Si Si2 0.259409 0.630439 0.970107
Si Si3 0.839591 0.767510 0.204571
Si Si4 0.617638 0.489409 0.604318
Si Si5 0.853811 0.095700 0.070105
Si Si6 0.059183 0.774366 0.763823
Si Si7 0.416110 0.882947 0.572487
Si Si8 0.549230 0.883958 0.706918
O O1 0.232088 0.252818 0.720014
O O2 0.288217 0.335791 0.604087
O O3 0.241111 0.986143 0.571832
O O4 0.774581 0.043763 0.600803
O O5 0.321379 0.452897 0.891339
O O6 0.183345 0.735704 0.935428
O O7 0.000000 0.500000 0.000000
O O8 0.545803 0.862763 0.046913
O O9 0.861589 0.983558 0.216124
O O10 0.182373 0.857944 0.222695
O O11 0.670268 0.353923 0.516539
O O12 0.672883 0.736413 0.641772
O O13 0.817193 0.550915 0.677416
O O14 0.034631 0.228810 0.160892
O O15 0.000000 0.000000 0.000000
O O16 0.354560 0.781042 0.752838
O O17 0.345228 0.854539 0.645225
#
# Coordination Sequence:
#
# PCOD9039042 Si02
#       8
#     2   2   2   2   2   2   2   2
#     4  11  25  43  68 102 141 188 246 296 361 431
#     4  11  25  47  74 102 144 187 238 299 375 443
#     4  10  23  43  66  97 135 186 230 296 360 438
#     4  11  26  39  67  98 138 185 234 303 355 428
#     4  11  27  45  72 109 139 183 241 302 365 453
#     4  11  24  43  66  98 140 175 238 293 363 434
#     4  11  24  46  67  99 142 193 245 296 360 432
#     4  10  23  42  65  98 136 186 239 292 359 428
#
# _framework density 25.034538000000001
#
# number of rings (size 3 to 8) (size 9 to 14) (size 15 to 20)
#    0.000    1.250    1.250    2.625    7.000    6.500 
#    0.000    0.000    0.000    0.000    0.000    0.000 
#    0.000    0.000    0.000    0.000    0.000    0.000 
#
# Total GULP energy -89432.909006 kJ/mol
# GULP energy per Si atom -5589.556813 kJ/mol
# Density = 2.497756 g / cm^3
# Si number density = 25.034538 Si / 1000 Ang^3
#
#
#
# Elastic Constant Matrix: (Units=GPa)
#
#
# Indices 1 2 3 4 5 6 
#
# 1 72.3431 16.3271 21.3406 5.1029 -9.2104 8.1247
# 2 16.3271 62.4694 15.5545 0.0598 -3.7388 13.3698
# 3 21.3406 15.5545 125.1950 -6.5490 -0.7495 -0.5978
# 4 5.1029 0.0598 -6.5490 37.0681 -4.3873 -9.4247
# 5 -9.2104 -3.7388 -0.7495 -4.3873 37.4638 0.0027
# 6 8.1247 13.3698 -0.5978 -9.4247 0.0027 40.2858
#
#
#
# Elastic Compliance Matrix: (Units=1/GPa)
#
#
# Indices 1 2 3 4 5 6 
#
# 1 0.016185 -0.002720 -0.002577 -0.003082 0.003295 -0.003121
# 2 -0.002720 0.018536 -0.001935 -0.001396 0.000979 -0.005958
# 3 -0.002577 -0.001935 0.008796 0.002335 -0.000377 0.001839
# 4 -0.003082 -0.001396 0.002335 0.030217 0.002688 0.008189
# 5 0.003295 0.000979 -0.000377 0.002688 0.027908 -0.000368
# 6 -0.003121 -0.005958 0.001839 0.008189 -0.000368 0.029373
#
#
# Mechanical properties :
#
#
# Convention : Reuss Voigt Hill
#
# Bulk Modulus (GPa) = 34.42151 40.71687 37.56919
# Shear Modulus (GPa) = 32.22449 36.74921 34.48685
#
# Velocity S-wave (km/s) = 3.59165 3.83553 3.71559
# Velocity P-wave (km/s) = 5.56591 5.99288 5.78334
#
# Compressibility (1/GPa) = 0.02905160
#
# Stress axis : x y z
#
# Youngs Moduli (GPa) = 61.78687 53.94981 113.68926
#
# Poissons Ratio (x) = 0.14675 0.29301
# Poissons Ratio (y) = 0.16807 0.21997
# Poissons Ratio (z) = 0.15924 0.10439
#
# Static dielectric constant tensor:
#      x y z
#    x 2.143630 -0.089900 -0.036500 
#    y -0.089900 2.112360 0.047280 
#    z -0.036500 0.047280 1.956600 
# 
# From -- ./inp_files/46837.got.cif
#   From: 2010.05.17/outbox.cif.g08.bks.cpg/sg2_24_cif.got.tgz:46837.got - 2010.06.03 11:33:40.
