data_PCOD9039019
_publ_section_title
;
Structure prediction by ZEFSAII (Michael W. Deem and Ramdas Pophale) SiO2 
 PCOD9039019
Probable space group: P -1
;
_chemical_formula_sum "Si O2"
_cell_formula_units_Z 16
_cell_length_a 11.753291
_cell_length_b 12.227222
_cell_length_c 6.431804
_cell_angle_alpha 45.789793
_cell_angle_beta 77.575698
_cell_angle_gamma 86.865846
_cell_volume 640.990288
_symmetry_space_group_name_H-M "P -1"
_symmetry_group_IT_number 2
_symmetry_cell_setting 'triclinic'
loop_
_space_group_symop_operation_xyz
x,y,z
-x,-y,-z
loop_
_atom_site_type_symbol
_atom_site_label
_atom_site_fract_x
_atom_site_fract_y
_atom_site_fract_z
Si Si1 0.073012 0.091765 0.168767
Si Si2 0.507466 0.354281 0.040874
Si Si3 0.254964 0.056600 0.818439
Si Si4 0.685007 0.277782 0.764732
Si Si5 0.756362 0.714448 0.851776
Si Si6 0.503007 0.835207 0.324554
Si Si7 0.069845 0.695796 0.244913
Si Si8 0.900280 0.494231 0.873292
O O1 0.156198 0.234029 0.060065
O O2 0.162390 0.012060 0.098097
O O3 0.000000 0.000000 0.500000
O O4 0.976695 0.143113 0.981856
O O5 0.384006 0.315514 0.017000
O O6 0.519762 0.202409 0.375489
O O7 0.500000 0.500000 0.000000
O O8 0.621752 0.374491 0.826497
O O9 0.219440 0.147549 0.511089
O O10 0.358831 0.177104 0.723139
O O11 0.307213 0.901253 0.938036
O O12 0.598943 0.272918 0.609714
O O13 0.822317 0.334083 0.612409
O O14 0.793455 0.564514 0.923038
O O15 0.500000 0.000000 0.000000
O O16 0.115742 0.664930 0.033916
O O17 0.955146 0.599226 0.519460
O O18 0.000000 0.500000 0.000000
#
# Coordination Sequence:
#
# PCOD9039019 Si02
#       8
#     2   2   2   2   2   2   2   2
#     4  12  25  40  66 101 133 177 229 276 339 408
#     4  11  25  45  69 104 134 177 236 280 338 411
#     4  10  23  42  65  96 137 178 226 279 339 402
#     4  11  24  42  67  97 138 175 217 286 336 396
#     4  11  23  43  70  94 139 178 224 287 336 396
#     4   9  22  43  68  95 134 179 225 276 338 399
#     4  11  25  40  63  98 131 170 228 269 331 408
#     4  11  23  44  67  91 131 181 217 274 340 398
#
# _framework density 24.961376999999999
#
# number of rings (size 3 to 8) (size 9 to 14) (size 15 to 20)
#    0.000    1.250    2.500    2.250    1.750   12.000 
#    0.000    0.000    0.000    0.000    0.000    0.000 
#    0.000    0.000    0.000    0.000    0.000    0.000 
#
# Total GULP energy -89305.167711 kJ/mol
# GULP energy per Si atom -5581.572982 kJ/mol
# Density = 2.490456 g / cm^3
# Si number density = 24.961377 Si / 1000 Ang^3
#
#
#
# Elastic Constant Matrix: (Units=GPa)
#
#
# Indices 1 2 3 4 5 6 
#
# 1 129.6772 35.0393 14.1002 19.6844 -3.9747 4.5151
# 2 35.0393 96.4226 -3.6286 13.3237 1.6729 -4.3786
# 3 14.1002 -3.6286 55.5442 -1.3982 4.2169 -6.5902
# 4 19.6844 13.3237 -1.3982 22.6345 1.7729 0.6058
# 5 -3.9747 1.6729 4.2169 1.7729 35.8343 4.5783
# 6 4.5151 -4.3786 -6.5902 0.6058 4.5783 44.0290
#
#
#
# Elastic Compliance Matrix: (Units=1/GPa)
#
#
# Indices 1 2 3 4 5 6 
#
# 1 0.010128 -0.002909 -0.003353 -0.007428 0.002272 -0.001964
# 2 -0.002909 0.012227 0.001740 -0.004524 -0.001124 0.001954
# 3 -0.003353 0.001740 0.019760 0.003279 -0.003424 0.003786
# 4 -0.007428 -0.004524 0.003279 0.053785 -0.003717 0.000449
# 5 0.002272 -0.001124 -0.003424 -0.003717 0.029290 -0.003852
# 6 -0.001964 0.001954 0.003786 0.000449 -0.003852 0.024069
#
#
# Mechanical properties :
#
#
# Convention : Reuss Voigt Hill
#
# Bulk Modulus (GPa) = 30.23760 41.40732 35.82246
# Shear Modulus (GPa) = 29.52884 36.24176 32.88530
#
# Velocity S-wave (km/s) = 3.44318 3.81453 3.63360
# Velocity P-wave (km/s) = 5.28653 6.00212 5.65565
#
# Compressibility (1/GPa) = 0.03307141
#
# Stress axis : x y z
#
# Youngs Moduli (GPa) = 98.74037 81.78672 50.60637
#
# Poissons Ratio (x) = 0.23789 0.16971
# Poissons Ratio (y) = 0.28721 -0.08808
# Poissons Ratio (z) = 0.33112 -0.14234
#
# Static dielectric constant tensor:
#      x y z
#    x 1.992720 0.103570 -0.034750 
#    y 0.103570 2.188490 -0.110550 
#    z -0.034750 -0.110550 1.973270 
# 
# From -- ./inp_files/68472.got.cif
#   From: 2010.05.17/outbox.cif.g08.bks.cpg/sg2_35_cif.got.tgz:68472.got - 2010.06.03 11:33:40.
