data_PCOD9039540
_publ_section_title
;
Structure prediction by ZEFSAII (Michael W. Deem and Ramdas Pophale) SiO2 
 PCOD9039540
Probable space group: P -1
;
_chemical_formula_sum "Si O2"
_cell_formula_units_Z 16
_cell_length_a 11.421191
_cell_length_b 17.241670
_cell_length_c 7.660603
_cell_angle_alpha 59.983502
_cell_angle_beta 113.972847
_cell_angle_gamma 150.426003
_cell_volume 643.212115
_symmetry_space_group_name_H-M "P -1"
_symmetry_group_IT_number 2
_symmetry_cell_setting 'triclinic'
loop_
_space_group_symop_operation_xyz
x,y,z
-x,-y,-z
loop_
_atom_site_type_symbol
_atom_site_label
_atom_site_fract_x
_atom_site_fract_y
_atom_site_fract_z
Si Si1 0.481396 0.071031 0.606696
Si Si2 0.259270 0.609993 0.552674
Si Si3 0.230410 0.105022 0.120681
Si Si4 0.055946 0.930568 0.549792
Si Si5 0.123391 0.714067 0.825368
Si Si6 0.955368 0.268800 0.851681
Si Si7 0.733250 0.693238 0.896373
Si Si8 0.664587 0.349031 0.846763
O O1 0.607819 0.236931 0.417959
O O2 0.708486 0.153357 0.738703
O O3 0.284210 0.010258 0.671849
O O4 0.310795 0.888852 0.640681
O O5 0.372328 0.674956 0.355980
O O6 0.000000 0.500000 0.500000
O O7 0.181606 0.465010 0.720629
O O8 0.312491 0.232799 0.155718
O O9 0.126679 0.969591 0.344913
O O10 0.429817 0.217874 0.966942
O O11 0.000000 0.000000 0.000000
O O12 0.824128 0.745577 0.692657
O O13 0.000000 0.000000 0.500000
O O14 0.868868 0.544785 0.776027
O O15 0.085144 0.733862 0.968418
O O16 0.229508 0.680896 0.980436
O O17 0.052918 0.225091 0.950827
O O18 0.500000 0.500000 0.000000
#
# Coordination Sequence:
#
# PCOD9039540 Si02
#       8
#     2   2   2   2   2   2   2   2
#     4  11  23  41  76 102 135 179 249 286 345 422
#     4  10  23  42  69 101 136 183 236 290 354 421
#     4  11  28  47  70 100 143 191 231 289 361 418
#     4  10  25  44  72  99 137 181 243 282 347 422
#     4  11  23  40  72  99 143 181 230 299 361 401
#     4  11  23  42  75 105 136 185 245 289 346 421
#     4  11  25  46  75 101 139 189 239 287 343 426
#     4  11  25  43  66 101 152 180 226 297 366 411
#
# _framework density 24.875152
#
# number of rings (size 3 to 8) (size 9 to 14) (size 15 to 20)
#    0.000    1.250    3.750    1.125   10.500    1.000 
#    2.250    4.375    0.000    0.000    0.000    0.000 
#    0.000    0.000    0.000    0.000    0.000    0.000 
#
# Total GULP energy -89143.913197 kJ/mol
# GULP energy per Si atom -5571.494575 kJ/mol
# Density = 2.481853 g / cm^3
# Si number density = 24.875152 Si / 1000 Ang^3
#
#
#
# Elastic Constant Matrix: (Units=GPa)
#
#
# Indices 1 2 3 4 5 6 
#
# 1 83.9893 14.6252 31.1004 -11.7275 8.1395 19.6582
# 2 14.6252 130.7543 55.1184 -35.9091 -9.1606 4.2274
# 3 31.1004 55.1184 150.3594 -38.8763 -27.1556 5.3253
# 4 -11.7275 -35.9091 -38.8763 46.8370 4.1459 -2.3254
# 5 8.1395 -9.1606 -27.1556 4.1459 47.9099 -7.2815
# 6 19.6582 4.2274 5.3253 -2.3254 -7.2815 36.5867
#
#
#
# Elastic Compliance Matrix: (Units=1/GPa)
#
#
# Indices 1 2 3 4 5 6 
#
# 1 0.016364 -0.000071 -0.003992 0.000841 -0.006567 -0.009457
# 2 -0.000071 0.010235 -0.002134 0.006022 0.000175 -0.000416
# 3 -0.003992 -0.002134 0.010837 0.005925 0.006271 0.002439
# 4 0.000841 0.006022 0.005925 0.030958 0.001734 0.000303
# 5 -0.006567 0.000175 0.006271 0.001734 0.026643 0.008008
# 6 -0.009457 -0.000416 0.002439 0.000303 0.008008 0.033720
#
#
# Mechanical properties :
#
#
# Convention : Reuss Voigt Hill
#
# Bulk Modulus (GPa) = 39.93309 62.97678 51.45494
# Shear Modulus (GPa) = 33.44535 43.88398 38.66466
#
# Velocity S-wave (km/s) = 3.67076 4.20476 3.94680
# Velocity P-wave (km/s) = 5.83560 6.99610 6.44204
#
# Compressibility (1/GPa) = 0.02504189
#
# Stress axis : x y z
#
# Youngs Moduli (GPa) = 61.10913 97.70515 92.27711
#
# Poissons Ratio (x) = 0.00691 0.36841
# Poissons Ratio (y) = 0.00432 0.19691
# Poissons Ratio (z) = 0.24397 0.20849
#
# Static dielectric constant tensor:
#      x y z
#    x 2.049830 -0.015390 -0.000250 
#    y -0.015390 2.061860 -0.013920 
#    z -0.000250 -0.013920 2.062130 
# 
# From -- ./inp_files/277622.got.cif
#   From: 2010.05.17/outbox.cif.g08.bks.cpg/sg2_139_cif.got.tgz:277622.got - 2010.06.03 11:33:40.
