data_PCOD9039270
_publ_section_title
;
Structure prediction by ZEFSAII (Michael W. Deem and Ramdas Pophale) SiO2 
 PCOD9039270
Probable space group: P -1
;
_chemical_formula_sum "Si O2"
_cell_formula_units_Z 13
_cell_length_a 19.807586
_cell_length_b 6.171646
_cell_length_c 8.896422
_cell_angle_alpha 97.107802
_cell_angle_beta 146.039629
_cell_angle_gamma 73.771012
_cell_volume 571.353422
_symmetry_space_group_name_H-M "P -1"
_symmetry_group_IT_number 2
_symmetry_cell_setting 'triclinic'
loop_
_space_group_symop_operation_xyz
x,y,z
-x,-y,-z
loop_
_atom_site_type_symbol
_atom_site_label
_atom_site_fract_x
_atom_site_fract_y
_atom_site_fract_z
Si Si1 0.365775 0.739060 0.563922
Si Si2 0.404867 0.241203 0.537023
Si Si3 0.640024 0.133709 0.752106
Si Si4 0.027384 0.477583 0.298604
Si Si5 0.099018 0.131220 0.145478
Si Si6 0.101412 0.753986 0.713033
Si Si7 0.500000 0.000000 0.000000
O O1 0.336886 0.498715 0.483892
O O2 0.427964 0.737931 0.512990
O O3 0.229238 0.936155 0.332226
O O4 0.452319 0.770328 0.863503
O O5 0.543769 0.199918 0.717265
O O6 0.334443 0.133423 0.271769
O O7 0.430105 0.096511 0.722995
O O8 0.765747 0.200180 0.015572
O O9 0.944789 0.354580 0.235072
O O10 0.112424 0.285452 0.325687
O O11 0.105335 0.577029 0.569950
O O12 0.949785 0.691816 0.067937
O O13 0.000000 0.000000 0.000000
O O14 0.000000 0.000000 0.500000
#
# Coordination Sequence:
#
# PCOD9039270 Si02
#       7
#     2   2   2   2   2   2   1
#     4  11  23  42  66  92 129 171 218 272 325 395
#     4  10  23  44  67  95 128 173 221 273 331 390
#     4  10  23  42  67  94 128 171 222 270 327 394
#     4  10  24  42  64  98 136 172 218 271 334 397
#     4  11  24  43  66  97 132 174 218 268 337 400
#     4  11  23  42  67  99 132 172 222 275 331 396
#     4  10  24  40  62  96 128 164 214 268 330 390
#
# _framework density 22.752988999999999
#
# number of rings (size 3 to 8) (size 9 to 14) (size 15 to 20)
#    0.000    1.538    0.000    3.692    0.000   14.769 
#    0.000    1.538    0.000    0.000    0.000    0.000 
#    0.000    0.000    0.000    0.000    0.000    0.000 
#
# Total GULP energy -72427.862665 kJ/mol
# GULP energy per Si atom -5571.374051 kJ/mol
# Density = 2.270120 g / cm^3
# Si number density = 22.752989 Si / 1000 Ang^3
#
#
#
# Elastic Constant Matrix: (Units=GPa)
#
#
# Indices 1 2 3 4 5 6 
#
# 1 111.8390 60.6845 49.7289 -0.3673 -0.2149 9.0477
# 2 60.6845 163.3649 66.0595 12.5428 0.4144 -6.9750
# 3 49.7289 66.0595 90.8984 34.5624 4.8357 1.0211
# 4 -0.3673 12.5428 34.5624 49.4517 10.3766 -4.0463
# 5 -0.2149 0.4144 4.8357 10.3766 31.4041 6.9850
# 6 9.0477 -6.9750 1.0211 -4.0463 6.9850 44.5030
#
#
#
# Elastic Compliance Matrix: (Units=1/GPa)
#
#
# Indices 1 2 3 4 5 6 
#
# 1 0.014250 -0.002502 -0.008387 0.006430 -0.000149 -0.002489
# 2 -0.002502 0.009616 -0.006541 0.002416 -0.000483 0.002461
# 3 -0.008387 -0.006541 0.027070 -0.017945 0.002217 -0.001921
# 4 0.006430 0.002416 -0.017945 0.034541 -0.009555 0.004123
# 5 -0.000149 -0.000483 0.002217 -0.009555 0.036140 -0.006637
# 6 -0.002489 0.002461 -0.001921 0.004123 -0.006637 0.024823
#
#
# Mechanical properties :
#
#
# Convention : Reuss Voigt Hill
#
# Bulk Modulus (GPa) = 62.19669 79.89424 71.04547
# Shear Modulus (GPa) = 26.78699 37.71373 32.25036
#
# Velocity S-wave (km/s) = 3.43490 4.07569 3.76894
# Velocity P-wave (km/s) = 6.56706 7.57221 7.08748
#
# Compressibility (1/GPa) = 0.01607803
#
# Stress axis : x y z
#
# Youngs Moduli (GPa) = 70.17450 103.99206 36.94152
#
# Poissons Ratio (x) = 0.26015 0.30982
# Poissons Ratio (y) = 0.17555 0.24162
# Poissons Ratio (z) = 0.58854 0.68017
#
# Static dielectric constant tensor:
#      x y z
#    x 1.872510 0.068870 0.011610 
#    y 0.068870 2.004140 0.015460 
#    z 0.011610 0.015460 1.791490 
# 
# From -- ./inp_files/93324.got.cif
#   From: 2010.05.17/outbox.cif.g08.bks.cpg/sg2_47_cif.got.tgz:93324.got - 2010.06.03 11:33:40.
