data_PCOD9039636
_publ_section_title
;
Structure prediction by ZEFSAII (Michael W. Deem and Ramdas Pophale) SiO2 
 PCOD9039636
Probable space group: P -1
;
_chemical_formula_sum "Si O2"
_cell_formula_units_Z 12
_cell_length_a 9.143535
_cell_length_b 24.633172
_cell_length_c 15.205171
_cell_angle_alpha 18.339957
_cell_angle_beta 149.459141
_cell_angle_gamma 152.023816
_cell_volume 499.344385
_symmetry_space_group_name_H-M "P -1"
_symmetry_group_IT_number 2
_symmetry_cell_setting 'triclinic'
loop_
_space_group_symop_operation_xyz
x,y,z
-x,-y,-z
loop_
_atom_site_type_symbol
_atom_site_label
_atom_site_fract_x
_atom_site_fract_y
_atom_site_fract_z
Si Si1 0.781470 0.951285 0.373166
Si Si2 0.290767 0.443340 0.565695
Si Si3 0.582439 0.406307 0.947974
Si Si4 0.147340 0.995268 0.987680
Si Si5 0.063095 0.819075 0.566967
Si Si6 0.682861 0.482377 0.206179
O O1 0.511995 0.740074 0.536838
O O2 0.018006 0.949822 0.419075
O O3 0.525001 0.046338 0.101995
O O4 0.000000 0.000000 0.500000
O O5 0.500000 0.500000 0.500000
O O6 0.502780 0.487207 0.693599
O O7 0.042633 0.535135 0.290100
O O8 0.066339 0.224248 0.804392
O O9 0.329032 0.387153 0.920797
O O10 0.876632 0.595361 0.844884
O O11 0.625529 0.213664 0.248881
O O12 0.063043 0.118456 0.682333
O O13 0.000000 0.000000 0.000000
O O14 0.500000 0.500000 0.000000
#
# Coordination Sequence:
#
# PCOD9039636 Si02
#       6
#     2   2   2   2   2   2
#     4  10  24  43  67  99 134 173 216 272 335 394
#     4  11  25  42  68  97 132 178 225 271 330 388
#     4  10  23  42  69  98 132 174 219 274 331 396
#     4  11  25  42  66 100 136 173 222 274 326 396
#     4  10  23  43  69  98 133 172 222 272 333 395
#     4  10  24  42  68  98 132 172 223 272 326 395
#
# _framework density 24.031510999999998
#
# number of rings (size 3 to 8) (size 9 to 14) (size 15 to 20)
#    0.000    1.667    0.000    2.000   14.000    3.333 
#    0.000    0.000    0.000    0.000    0.000    0.000 
#    0.000    0.000    0.000    0.000    0.000    0.000 
#
# Total GULP energy -66803.912887 kJ/mol
# GULP energy per Si atom -5566.992741 kJ/mol
# Density = 2.397681 g / cm^3
# Si number density = 24.031511 Si / 1000 Ang^3
#
#
#
# Elastic Constant Matrix: (Units=GPa)
#
#
# Indices 1 2 3 4 5 6 
#
# 1 238.6710 61.8249 102.5186 44.2589 35.6727 -9.2349
# 2 61.8249 98.0183 52.7329 3.9051 17.4318 5.5627
# 3 102.5186 52.7329 133.0791 34.2054 18.9680 0.7724
# 4 44.2589 3.9051 34.2054 62.4563 8.7663 -5.5112
# 5 35.6727 17.4318 18.9680 8.7663 30.7064 7.8163
# 6 -9.2349 5.5627 0.7724 -5.5112 7.8163 46.7687
#
#
#
# Elastic Compliance Matrix: (Units=1/GPa)
#
#
# Indices 1 2 3 4 5 6 
#
# 1 0.007623 -0.001840 -0.003811 -0.002221 -0.005443 0.002435
# 2 -0.001840 0.014470 -0.004622 0.003402 -0.003952 -0.000947
# 3 -0.003811 -0.004622 0.013394 -0.004478 0.000311 -0.001004
# 4 -0.002221 0.003402 -0.004478 0.020429 -0.002960 0.002133
# 5 -0.005443 -0.003952 0.000311 -0.002960 0.043898 -0.008295
# 6 0.002435 -0.000947 -0.001004 0.002133 -0.008295 0.023629
#
#
# Mechanical properties :
#
#
# Convention : Reuss Voigt Hill
#
# Bulk Modulus (GPa) = 66.92550 100.43570 83.68060
# Shear Modulus (GPa) = 33.56393 44.83241 39.19817
#
# Velocity S-wave (km/s) = 3.74125 4.32391 4.04309
# Velocity P-wave (km/s) = 6.82438 8.17388 7.52942
#
# Compressibility (1/GPa) = 0.01494199
#
# Stress axis : x y z
#
# Youngs Moduli (GPa) = 131.18256 69.10700 74.65935
#
# Poissons Ratio (x) = 0.12713 0.28452
# Poissons Ratio (y) = 0.24132 0.34509
# Poissons Ratio (z) = 0.49993 0.31943
#
# Static dielectric constant tensor:
#      x y z
#    x 2.003410 0.069060 0.081490 
#    y 0.069060 2.117780 -0.002370 
#    z 0.081490 -0.002370 1.975920 
# 
# From -- ./inp_files/157048.got.cif
#   From: 2010.05.17/outbox.cif.g08.bks.cpg/sg2_79_cif.got.tgz:157048.got - 2010.06.03 11:33:40.
