data_PCOD9039907
_publ_section_title
;
Structure prediction by ZEFSAII (Michael W. Deem and Ramdas Pophale) SiO2 
 PCOD9039907
Probable space group: P -1
;
_chemical_formula_sum "Si O2"
_cell_formula_units_Z 15
_cell_length_a 13.807404
_cell_length_b 15.170116
_cell_length_c 9.151389
_cell_angle_alpha 127.720774
_cell_angle_beta 72.908103
_cell_angle_gamma 149.291067
_cell_volume 633.706356
_symmetry_space_group_name_H-M "P -1"
_symmetry_group_IT_number 2
_symmetry_cell_setting 'triclinic'
loop_
_space_group_symop_operation_xyz
x,y,z
-x,-y,-z
loop_
_atom_site_type_symbol
_atom_site_label
_atom_site_fract_x
_atom_site_fract_y
_atom_site_fract_z
Si Si1 0.987342 0.101336 0.344652
Si Si2 0.706267 0.786481 0.745592
Si Si3 0.500000 0.500000 0.000000
Si Si4 0.814265 0.376380 0.856770
Si Si5 0.694207 0.178375 0.381408
Si Si6 0.629194 0.537292 0.216792
Si Si7 0.910803 0.601350 0.613070
Si Si8 0.913109 0.710547 0.033590
O O1 0.088954 0.098625 0.203370
O O2 0.136164 0.238340 0.568306
O O3 0.055371 0.284301 0.422981
O O4 0.719884 0.812552 0.190974
O O5 0.500000 0.500000 0.500000
O O6 0.575033 0.724563 0.868357
O O7 0.828161 0.985271 0.774264
O O8 0.486387 0.463342 0.784536
O O9 0.791851 0.305300 0.629846
O O10 0.879962 0.570161 0.004946
O O11 0.565563 0.117434 0.779316
O O12 0.000000 0.500000 0.000000
O O13 0.717051 0.312425 0.408906
O O14 0.856609 0.242277 0.312444
O O15 0.716245 0.600390 0.071781
O O16 0.872223 0.636747 0.810100
#
# Coordination Sequence:
#
# PCOD9039907 Si02
#       8
#     2   2   1   2   2   2   2   2
#     4  11  25  44  68 101 138 186 237 280 347 413
#     4  10  24  43  65  98 143 178 230 284 331 409
#     4  12  24  40  70  94 138 182 224 284 342 402
#     4  10  23  42  72 104 134 177 229 287 345 417
#     4   9  22  47  67  99 142 174 228 288 351 407
#     4  11  26  44  67 100 140 184 229 287 335 410
#     4  10  23  44  71  98 138 186 226 290 347 412
#     4  11  24  43  68 106 138 178 238 275 351 416
#
# _framework density 23.670269999999999
#
# number of rings (size 3 to 8) (size 9 to 14) (size 15 to 20)
#    0.000    1.600    1.333    1.200    9.333    3.200 
#    0.000    6.000    0.000    0.000    0.000    0.000 
#    0.000    0.000    0.000    0.000    0.000    0.000 
#
# Total GULP energy -83516.728692 kJ/mol
# GULP energy per Si atom -5567.781913 kJ/mol
# Density = 2.361640 g / cm^3
# Si number density = 23.670270 Si / 1000 Ang^3
#
#
#
# Elastic Constant Matrix: (Units=GPa)
#
#
# Indices 1 2 3 4 5 6 
#
# 1 88.2812 60.7836 46.4797 9.5541 -2.6075 -34.0701
# 2 60.7836 218.6421 71.8855 40.6294 2.0865 -11.5118
# 3 46.4797 71.8855 90.2554 15.8966 12.6755 -17.1454
# 4 9.5541 40.6294 15.8966 43.9625 -2.8335 -12.7420
# 5 -2.6075 2.0865 12.6755 -2.8335 36.9625 -3.6084
# 6 -34.0701 -11.5118 -17.1454 -12.7420 -3.6084 61.9366
#
#
#
# Elastic Compliance Matrix: (Units=1/GPa)
#
#
# Indices 1 2 3 4 5 6 
#
# 1 0.021858 -0.003964 -0.007837 0.005176 0.005878 0.010525
# 2 -0.003964 0.007835 -0.003694 -0.005920 -0.000199 -0.002976
# 3 -0.007837 -0.003694 0.019415 -0.002535 -0.007252 -0.000567
# 4 0.005176 -0.005920 -0.002535 0.030509 0.004649 0.007593
# 5 0.005878 -0.000199 -0.007252 0.004649 0.030708 0.003934
# 6 0.010525 -0.002976 -0.000567 0.007593 0.003934 0.023016
#
#
# Mechanical properties :
#
#
# Convention : Reuss Voigt Hill
#
# Bulk Modulus (GPa) = 55.19258 83.94181 69.56720
# Shear Modulus (GPa) = 29.34762 43.10765 36.22764
#
# Velocity S-wave (km/s) = 3.52497 4.27215 3.91642
# Velocity P-wave (km/s) = 6.31942 7.73789 7.06435
#
# Compressibility (1/GPa) = 0.01811838
#
# Stress axis : x y z
#
# Youngs Moduli (GPa) = 45.74978 127.62578 51.50605
#
# Poissons Ratio (x) = 0.50587 0.40367
# Poissons Ratio (y) = 0.18134 0.19027
# Poissons Ratio (z) = 0.35855 0.47147
#
# Static dielectric constant tensor:
#      x y z
#    x 2.038510 0.027120 0.007150 
#    y 0.027120 2.040540 -0.146660 
#    z 0.007150 -0.146660 2.117650 
# 
# From -- ./inp_files/313884.got.cif
#   From: 2010.05.17/outbox.cif.g08.bks.cpg/sg2_157_cif.got.tgz:313884.got - 2010.06.03 11:33:40.
