data_PCOD9039926
_publ_section_title
;
Structure prediction by ZEFSAII (Michael W. Deem and Ramdas Pophale) SiO2 
 PCOD9039926
Probable space group: P -1
;
_chemical_formula_sum "Si O2"
_cell_formula_units_Z 16
_cell_length_a 14.605298
_cell_length_b 8.555003
_cell_length_c 11.887379
_cell_angle_alpha 104.132743
_cell_angle_beta 112.672981
_cell_angle_gamma 29.154859
_cell_volume 653.402889
_symmetry_space_group_name_H-M "P -1"
_symmetry_group_IT_number 2
_symmetry_cell_setting 'triclinic'
loop_
_space_group_symop_operation_xyz
x,y,z
-x,-y,-z
loop_
_atom_site_type_symbol
_atom_site_label
_atom_site_fract_x
_atom_site_fract_y
_atom_site_fract_z
Si Si1 0.579998 0.551233 0.103224
Si Si2 0.697540 0.391119 0.470122
Si Si3 0.298813 0.423652 0.293872
Si Si4 0.027795 0.514265 0.690080
Si Si5 0.745639 0.675251 0.434431
Si Si6 0.678838 0.132350 0.770270
Si Si7 0.116047 0.069860 0.709238
Si Si8 0.761345 0.368330 0.936197
O O1 0.412904 0.843657 0.165833
O O2 0.763752 0.225090 0.208586
O O3 0.500000 0.500000 0.000000
O O4 0.658178 0.551521 0.039396
O O5 0.721662 0.376563 0.612352
O O6 0.736824 0.512949 0.458040
O O7 0.474047 0.665508 0.370968
O O8 0.845130 0.057552 0.419416
O O9 0.280378 0.457392 0.157744
O O10 0.104183 0.607201 0.282473
O O11 0.514539 0.054573 0.371965
O O12 0.140411 0.480393 0.658029
O O13 0.184105 0.158800 0.747832
O O14 0.868472 0.633403 0.559897
O O15 0.900270 0.772926 0.773693
O O16 0.675083 0.319314 0.844250
O O17 0.000000 0.000000 0.000000
#
# Coordination Sequence:
#
# PCOD9039926 Si02
#       8
#     2   2   2   2   2   2   2   2
#     4   9  21  43  66  93 127 179 222 279 325 388
#     4  11  23  43  67 107 133 181 216 271 354 399
#     4  12  23  39  70  97 140 178 218 273 339 409
#     4  11  24  42  63 106 136 180 216 277 345 394
#     4  11  25  40  65  98 154 168 216 278 334 421
#     4  10  23  42  72  93 139 175 220 281 341 405
#     4  11  23  40  71  98 137 178 224 274 335 412
#     4  11  24  43  69 102 133 177 232 283 326 392
#
# _framework density 24.487186999999999
#
# number of rings (size 3 to 8) (size 9 to 14) (size 15 to 20)
#    0.000    1.250    3.750    1.500    7.000    1.500 
#    0.000    2.500    2.750    4.500    0.000    0.000 
#    0.000    0.000    0.000    0.000    0.000    0.000 
#
# Total GULP energy -89465.245235 kJ/mol
# GULP energy per Si atom -5591.577827 kJ/mol
# Density = 2.443145 g / cm^3
# Si number density = 24.487187 Si / 1000 Ang^3
#
#
#
# Elastic Constant Matrix: (Units=GPa)
#
#
# Indices 1 2 3 4 5 6 
#
# 1 81.9169 18.7788 3.1333 4.2506 -27.2153 -15.2214
# 2 18.7788 108.0263 -1.0676 11.0918 -29.0571 -22.6390
# 3 3.1333 -1.0676 63.4076 5.0648 -25.8805 -9.6980
# 4 4.2506 11.0918 5.0648 26.0866 -13.0026 -10.3598
# 5 -27.2153 -29.0571 -25.8805 -13.0026 49.5300 9.1605
# 6 -15.2214 -22.6390 -9.6980 -10.3598 9.1605 31.0771
#
#
#
# Elastic Compliance Matrix: (Units=1/GPa)
#
#
# Indices 1 2 3 4 5 6 
#
# 1 0.017556 0.002144 0.005776 0.005823 0.013622 0.009889
# 2 0.002144 0.013944 0.006143 0.002329 0.011220 0.010594
# 3 0.005776 0.006143 0.024634 0.005626 0.019045 0.011253
# 4 0.005823 0.002329 0.005626 0.051314 0.017607 0.018221
# 5 0.013622 0.011220 0.019045 0.017607 0.046431 0.012972
# 6 0.009889 0.010594 0.011253 0.018221 0.012972 0.050501
#
#
# Mechanical properties :
#
#
# Convention : Reuss Voigt Hill
#
# Bulk Modulus (GPa) = 11.86815 32.78221 22.32518
# Shear Modulus (GPa) = 24.46871 36.83917 30.65394
#
# Velocity S-wave (km/s) = 3.16451 3.88290 3.54197
# Velocity P-wave (km/s) = 4.26725 5.78957 5.08569
#
# Compressibility (1/GPa) = 0.08425912
#
# Stress axis : x y z
#
# Youngs Moduli (GPa) = 56.96013 71.71498 40.59418
#
# Poissons Ratio (x) = -0.15374 -0.23447
# Poissons Ratio (y) = -0.12211 -0.24936
# Poissons Ratio (z) = -0.32900 -0.44053
#
# Static dielectric constant tensor:
#      x y z
#    x 1.999020 -0.020480 -0.018760 
#    y -0.020480 1.946520 -0.017830 
#    z -0.018760 -0.017830 2.031670 
# 
# From -- ./inp_files/447668.got.cif
#   From: 2010.05.17/outbox.cif.g08.bks.cpg/sg2_224_cif.got.tgz:447668.got - 2010.06.03 11:33:40.
