data_PCOD9039291
_publ_section_title
;
Structure prediction by ZEFSAII (Michael W. Deem and Ramdas Pophale) SiO2 
 PCOD9039291
Probable space group: P -1
;
_chemical_formula_sum "Si O2"
_cell_formula_units_Z 14
_cell_length_a 7.923495
_cell_length_b 10.434270
_cell_length_c 8.593154
_cell_angle_alpha 75.967652
_cell_angle_beta 52.779147
_cell_angle_gamma 58.706730
_cell_volume 480.739535
_symmetry_space_group_name_H-M "P -1"
_symmetry_group_IT_number 2
_symmetry_cell_setting 'triclinic'
loop_
_space_group_symop_operation_xyz
x,y,z
-x,-y,-z
loop_
_atom_site_type_symbol
_atom_site_label
_atom_site_fract_x
_atom_site_fract_y
_atom_site_fract_z
Si Si1 0.594631 0.419407 0.222075
Si Si2 0.892347 0.452681 0.722615
Si Si3 0.611424 0.965838 0.116658
Si Si4 0.173423 0.843387 0.038747
Si Si5 0.433483 0.242363 0.598563
Si Si6 0.127123 0.827241 0.426485
Si Si7 0.954694 0.673375 0.820354
O O1 0.344946 0.534767 0.243695
O O2 0.549465 0.298364 0.383340
O O3 0.776661 0.444466 0.227319
O O4 0.757403 0.318026 0.019139
O O5 0.000000 0.500000 0.500000
O O6 0.151293 0.325587 0.686725
O O7 0.820987 0.583110 0.858417
O O8 0.517255 0.926041 0.336865
O O9 0.835721 0.801448 0.983412
O O10 0.500000 0.000000 0.000000
O O11 0.603058 0.125009 0.100085
O O12 0.087022 0.844564 0.260228
O O13 0.000000 0.000000 0.000000
O O14 0.589258 0.250868 0.659452
O O15 0.004663 0.750531 0.620077
O O16 0.000000 0.000000 0.500000
#
# Coordination Sequence:
#
# PCOD9039291 Si02
#       7
#     2   2   2   2   2   2   2
#     4  10  23  44  67 101 136 172 221 281 327 399
#     4  10  24  45  69  96 133 175 230 278 322 396
#     4  12  22  39  67  98 128 175 217 273 336 396
#     4  12  22  38  65 100 139 162 223 277 328 399
#     4  10  23  42  67  95 132 176 225 269 337 388
#     4  11  21  41  68  99 131 180 217 272 340 400
#     4  11  23  44  70  93 136 178 222 271 339 390
#
# _framework density 29.121798999999999
#
# number of rings (size 3 to 8) (size 9 to 14) (size 15 to 20)
#    0.000    1.143    4.286    1.714    0.000    8.571 
#    0.000    0.714    0.000    0.000    0.000    0.000 
#    0.000    0.000    0.000    0.000    0.000    0.000 
#
# Total GULP energy -78074.613089 kJ/mol
# GULP energy per Si atom -5576.758078 kJ/mol
# Density = 2.905552 g / cm^3
# Si number density = 29.121799 Si / 1000 Ang^3
#
#
#
# Elastic Constant Matrix: (Units=GPa)
#
#
# Indices 1 2 3 4 5 6 
#
# 1 198.7613 56.2698 7.0083 1.5901 13.0630 -19.6469
# 2 56.2698 128.6536 5.5276 -12.6138 21.6476 -42.2977
# 3 7.0083 5.5276 106.2434 -23.6011 29.1802 -27.4297
# 4 1.5901 -12.6138 -23.6011 58.6398 -12.5181 12.2323
# 5 13.0630 21.6476 29.1802 -12.5181 44.0650 -3.7754
# 6 -19.6469 -42.2977 -27.4297 12.2323 -3.7754 70.8201
#
#
#
# Elastic Compliance Matrix: (Units=1/GPa)
#
#
# Indices 1 2 3 4 5 6 
#
# 1 0.005801 -0.002464 -0.000259 -0.000954 -0.000594 0.000171
# 2 -0.002464 0.012442 0.003592 0.001161 -0.006782 0.007577
# 3 -0.000259 0.003592 0.014289 0.003090 -0.009710 0.006556
# 4 -0.000954 0.001161 0.003090 0.019563 0.003088 -0.001589
# 5 -0.000594 -0.006782 -0.009710 0.003088 0.032930 -0.006754
# 6 0.000171 0.007577 0.006556 -0.001589 -0.006754 0.021147
#
#
# Mechanical properties :
#
#
# Convention : Reuss Voigt Hill
#
# Bulk Modulus (GPa) = 29.18034 63.47441 46.32737
# Shear Modulus (GPa) = 43.15668 59.02849 51.09259
#
# Velocity S-wave (km/s) = 3.85377 4.50705 4.19315
# Velocity P-wave (km/s) = 5.46296 6.99487 6.27583
#
# Compressibility (1/GPa) = 0.03426965
#
# Stress axis : x y z
#
# Youngs Moduli (GPa) = 172.37445 80.37361 69.98610
#
# Poissons Ratio (x) = 0.19801 0.01814
# Poissons Ratio (y) = 0.42467 -0.25137
# Poissons Ratio (z) = 0.04467 -0.28868
#
# Static dielectric constant tensor:
#      x y z
#    x 2.162840 -0.140110 -0.003800 
#    y -0.140110 2.213190 0.055230 
#    z -0.003800 0.055230 2.579770 
# 
# From -- ./inp_files/186479.got.cif
#   From: 2010.05.17/outbox.cif.g08.bks.cpg/sg2_94_cif.got.tgz:186479.got - 2010.06.03 11:33:40.
