data_PCOD9039912
_publ_section_title
;
Structure prediction by ZEFSAII (Michael W. Deem and Ramdas Pophale) SiO2 
 PCOD9039912
Probable space group: P -1
;
_chemical_formula_sum "Si O2"
_cell_formula_units_Z 16
_cell_length_a 17.665732
_cell_length_b 18.627498
_cell_length_c 11.992859
_cell_angle_alpha 153.796030
_cell_angle_beta 46.539648
_cell_angle_gamma 148.613558
_cell_volume 853.655878
_symmetry_space_group_name_H-M "P -1"
_symmetry_group_IT_number 2
_symmetry_cell_setting 'triclinic'
loop_
_space_group_symop_operation_xyz
x,y,z
-x,-y,-z
loop_
_atom_site_type_symbol
_atom_site_label
_atom_site_fract_x
_atom_site_fract_y
_atom_site_fract_z
Si Si1 0.232643 0.954430 0.790047
Si Si2 0.013942 0.865158 0.715337
Si Si3 0.651505 0.937725 0.736268
Si Si4 0.729778 0.818566 0.283466
Si Si5 0.640345 0.150139 0.350692
Si Si6 0.501540 0.723282 0.204172
Si Si7 0.687583 0.348072 0.339405
Si Si8 0.626982 0.785713 0.782106
O O1 0.398422 0.153560 0.837174
O O2 0.106564 0.843679 0.670171
O O3 0.222264 0.767104 0.598704
O O4 0.252915 0.099895 0.077794
O O5 0.843262 0.609229 0.506070
O O6 0.113571 0.017746 0.717260
O O7 0.000000 0.000000 0.000000
O O8 0.730462 0.943636 0.559933
O O9 0.463742 0.713834 0.608061
O O10 0.702656 0.906982 0.754605
O O11 0.675526 0.159202 0.028244
O O12 0.610239 0.758054 0.231642
O O13 0.653879 0.562428 0.044317
O O14 0.536591 0.144572 0.524045
O O15 0.693542 0.312694 0.416116
O O16 0.560347 0.891230 0.026096
O O17 0.500000 0.500000 0.500000
#
# Coordination Sequence:
#
# PCOD9039912 Si02
#       8
#     2   2   2   2   2   2   2   2
#     4   9  21  34  54  86 113 149 186 235 287 340
#     4  11  24  38  56  88 116 150 189 238 295 336
#     4  10  20  38  60  84 109 152 198 233 281 336
#     4  10  21  33  60  82 115 151 189 239 279 336
#     4   9  18  33  53  86 111 148 186 234 286 330
#     4  10  17  33  55  85 117 143 191 239 281 329
#     4  10  21  36  59  84 115 151 193 235 279 344
#     4   9  19  32  55  85 112 146 187 238 278 333
#
# _framework density 18.742915
#
# number of rings (size 3 to 8) (size 9 to 14) (size 15 to 20)
#    0.750    1.500    1.250    1.875    5.250    1.000 
#    0.000    0.000    0.000    0.750    0.000    0.000 
#    0.000    0.000    0.000    0.000    0.000    0.000 
#
# Total GULP energy -89086.836032 kJ/mol
# GULP energy per Si atom -5567.927252 kJ/mol
# Density = 1.870026 g / cm^3
# Si number density = 18.742915 Si / 1000 Ang^3
#
#
#
# Elastic Constant Matrix: (Units=GPa)
#
#
# Indices 1 2 3 4 5 6 
#
# 1 25.0162 20.3058 -5.6952 -2.3095 0.2134 -10.7486
# 2 20.3058 114.2223 42.5051 -20.1152 12.1398 -3.1519
# 3 -5.6952 42.5051 53.5397 -4.8661 -1.5404 3.3545
# 4 -2.3095 -20.1152 -4.8661 24.4208 0.5457 12.0614
# 5 0.2134 12.1398 -1.5404 0.5457 19.8167 -5.9199
# 6 -10.7486 -3.1519 3.3545 12.0614 -5.9199 25.0048
#
#
#
# Elastic Compliance Matrix: (Units=1/GPa)
#
#
# Indices 1 2 3 4 5 6 
#
# 1 0.141226 -0.065187 0.055122 -0.081580 0.075512 0.102324
# 2 -0.065187 0.047535 -0.037829 0.053372 -0.049054 -0.054313
# 3 0.055122 -0.037829 0.049986 -0.036052 0.039068 0.038860
# 4 -0.081580 0.053372 -0.036052 0.119371 -0.066858 -0.096913
# 5 0.075512 -0.049054 0.039068 -0.066858 0.108144 0.078888
# 6 0.102324 -0.054313 0.038860 -0.096913 0.078888 0.137342
#
#
# Mechanical properties :
#
#
# Convention : Reuss Voigt Hill
#
# Bulk Modulus (GPa) = 6.99511 34.11220 20.55366
# Shear Modulus (GPa) = 6.69301 22.89260 14.79281
#
# Velocity S-wave (km/s) = 1.89175 3.49865 2.81240
# Velocity P-wave (km/s) = 2.91751 5.87880 4.64070
#
# Compressibility (1/GPa) = 0.14295695
#
# Stress axis : x y z
#
# Youngs Moduli (GPa) = 7.08085 21.03722 20.00540
#
# Poissons Ratio (x) = 1.37136 -1.10273
# Poissons Ratio (y) = 0.46158 0.75679
# Poissons Ratio (z) = -0.39031 0.79583
#
# Static dielectric constant tensor:
#      x y z
#    x 1.713070 -0.009330 0.000140 
#    y -0.009330 1.638360 -0.004750 
#    z 0.000140 -0.004750 1.675530 
# 
# From -- ./inp_files/464386.got.cif
#   From: 2010.05.17/outbox.cif.g08.bks.cpg/sg2_233_cif.got.tgz:464386.got - 2010.06.03 11:33:40.
