data_PCOD9039179
_publ_section_title
;
Structure prediction by ZEFSAII (Michael W. Deem and Ramdas Pophale) SiO2 
 PCOD9039179
Probable space group: P -1
;
_chemical_formula_sum "Si O2"
_cell_formula_units_Z 12
_cell_length_a 5.204623
_cell_length_b 11.212116
_cell_length_c 10.868713
_cell_angle_alpha 67.095342
_cell_angle_beta 68.228875
_cell_angle_gamma 81.412821
_cell_volume 542.553498
_symmetry_space_group_name_H-M "P -1"
_symmetry_group_IT_number 2
_symmetry_cell_setting 'triclinic'
loop_
_space_group_symop_operation_xyz
x,y,z
-x,-y,-z
loop_
_atom_site_type_symbol
_atom_site_label
_atom_site_fract_x
_atom_site_fract_y
_atom_site_fract_z
Si Si1 0.969065 0.581512 0.849334
Si Si2 0.186288 0.854903 0.164181
Si Si3 0.469678 0.337204 0.265124
Si Si4 0.714877 0.924597 0.575933
Si Si5 0.648932 0.011210 0.160909
Si Si6 0.131128 0.551040 0.330253
O O1 0.206047 0.690324 0.773241
O O2 0.661349 0.636512 0.856956
O O3 0.014062 0.498479 0.749992
O O4 0.000000 0.500000 0.000000
O O5 0.456704 0.908946 0.163466
O O6 0.152704 0.704752 0.260061
O O7 0.906673 0.937471 0.209486
O O8 0.233266 0.886430 0.998924
O O9 0.280322 0.225749 0.402199
O O10 0.416726 0.471172 0.292993
O O11 0.500000 0.000000 0.500000
O O12 0.561113 0.922770 0.734697
O O13 0.000000 0.000000 0.500000
O O14 0.000000 0.500000 0.500000
#
# Coordination Sequence:
#
# PCOD9039179 Si02
#       6
#     2   2   2   2   2   2
#     4  10  23  42  66  99 133 173 219 279 340 406
#     4  10  23  45  66  99 128 180 220 280 333 406
#     4  10  25  43  64 102 129 177 231 272 349 398
#     4  12  26  43  68  97 137 182 223 287 334 408
#     4  10  24  42  68  94 134 174 231 266 335 403
#     4  10  26  42  71  98 138 174 222 285 342 404
#
# _framework density 22.117636000000001
#
# number of rings (size 3 to 8) (size 9 to 14) (size 15 to 20)
#    1.000    0.667    0.000    2.500    9.333    0.667 
#    3.000    0.000    0.000    0.000    0.000    0.000 
#    0.000    0.000    0.000    0.000    0.000    0.000 
#
# Total GULP energy -66918.334368 kJ/mol
# GULP energy per Si atom -5576.527864 kJ/mol
# Density = 2.206730 g / cm^3
# Si number density = 22.117636 Si / 1000 Ang^3
#
#
#
# Elastic Constant Matrix: (Units=GPa)
#
#
# Indices 1 2 3 4 5 6 
#
# 1 101.5675 12.6168 26.2794 -7.3862 -16.0935 8.2416
# 2 12.6168 76.8970 50.0779 -27.8348 0.5663 -5.3494
# 3 26.2794 50.0779 111.4099 -16.0971 4.9763 8.5921
# 4 -7.3862 -27.8348 -16.0971 44.3915 0.6456 -3.9946
# 5 -16.0935 0.5663 4.9763 0.6456 36.2276 0.0563
# 6 8.2416 -5.3494 8.5921 -3.9946 0.0563 27.1270
#
#
#
# Elastic Compliance Matrix: (Units=1/GPa)
#
#
# Indices 1 2 3 4 5 6 
#
# 1 0.011689 -0.000271 -0.002600 0.000507 0.005549 -0.002718
# 2 -0.000271 0.024991 -0.010120 0.012856 0.000634 0.010108
# 3 -0.002600 -0.010120 0.014442 -0.002045 -0.002935 -0.006075
# 4 0.000507 0.012856 -0.002045 0.030612 -0.000252 0.007537
# 5 0.005549 0.000634 -0.002935 -0.000252 0.030467 -0.000732
# 6 -0.002718 0.010108 -0.006075 0.007537 -0.000732 0.042718
#
#
# Mechanical properties :
#
#
# Convention : Reuss Voigt Hill
#
# Bulk Modulus (GPa) = 39.77730 51.98029 45.87879
# Shear Modulus (GPa) = 26.41556 34.94257 30.67907
#
# Velocity S-wave (km/s) = 3.45964 3.97905 3.72840
# Velocity P-wave (km/s) = 5.82944 6.68305 6.27078
#
# Compressibility (1/GPa) = 0.02513997
#
# Stress axis : x y z
#
# Youngs Moduli (GPa) = 85.55183 40.01411 69.24171
#
# Poissons Ratio (x) = 0.01084 0.18006
# Poissons Ratio (y) = 0.02317 0.70071
# Poissons Ratio (z) = 0.22247 0.40494
#
# Static dielectric constant tensor:
#      x y z
#    x 2.235090 -0.313730 -0.412920 
#    y -0.313730 2.140530 0.301710 
#    z -0.412920 0.301710 2.125590 
# 
# From -- ./inp_files/363791.got.cif
#   From: 2010.05.17/outbox.cif.g08.bks.cpg/sg2_182_cif.got.tgz:363791.got - 2010.06.03 11:33:40.
