data_PCOD9039279
_publ_section_title
;
Structure prediction by ZEFSAII (Michael W. Deem and Ramdas Pophale) SiO2 
 PCOD9039279
Probable space group: P -1
;
_chemical_formula_sum "Si O2"
_cell_formula_units_Z 14
_cell_length_a 14.366514
_cell_length_b 9.078121
_cell_length_c 10.943138
_cell_angle_alpha 136.112437
_cell_angle_beta 139.193458
_cell_angle_gamma 68.614904
_cell_volume 592.815889
_symmetry_space_group_name_H-M "P -1"
_symmetry_group_IT_number 2
_symmetry_cell_setting 'triclinic'
loop_
_space_group_symop_operation_xyz
x,y,z
-x,-y,-z
loop_
_atom_site_type_symbol
_atom_site_label
_atom_site_fract_x
_atom_site_fract_y
_atom_site_fract_z
Si Si1 0.578395 0.634607 0.034605
Si Si2 0.107733 0.716322 0.665481
Si Si3 0.055801 0.105248 0.749733
Si Si4 0.603079 0.241175 0.675032
Si Si5 0.717766 0.422514 0.454351
Si Si6 0.311072 0.180048 0.208812
Si Si7 0.779656 0.174859 0.597344
O O1 0.647687 0.465520 0.938426
O O2 0.443578 0.649365 0.821786
O O3 0.500000 0.500000 0.000000
O O4 0.694835 0.896583 0.331727
O O5 0.167909 0.640245 0.557441
O O6 0.000000 0.500000 0.500000
O O7 0.011131 0.873625 0.645923
O O8 0.253327 0.902299 0.993716
O O9 0.959872 0.245726 0.785623
O O10 0.241002 0.213859 0.027841
O O11 0.000000 0.000000 0.500000
O O12 0.745286 0.230744 0.733631
O O13 0.500000 0.000000 0.500000
O O14 0.762456 0.691875 0.694707
O O15 0.709527 0.288604 0.492438
O O16 0.489046 0.272313 0.475793
#
# Coordination Sequence:
#
# PCOD9039279 Si02
#       7
#     2   2   2   2   2   2   2
#     4  11  25  42  70  99 137 174 233 278 330 410
#     4  10  23  42  67  94 134 175 219 276 335 388
#     4  10  23  45  66 100 138 173 226 274 334 409
#     4  11  24  44  70 100 134 179 222 280 340 394
#     4  11  24  44  69  96 133 182 226 276 341 392
#     4   9  24  44  65  97 138 165 233 271 329 407
#     4  12  24  43  70 101 135 178 226 278 343 394
#
# _framework density 23.616102000000001
#
# number of rings (size 3 to 8) (size 9 to 14) (size 15 to 20)
#    0.857    0.571    2.857    1.286    2.000    6.857 
#    5.143    0.000    0.000    0.000    0.000    0.000 
#    0.000    0.000    0.000    0.000    0.000    0.000 
#
# Total GULP energy -78145.121124 kJ/mol
# GULP energy per Si atom -5581.794366 kJ/mol
# Density = 2.356235 g / cm^3
# Si number density = 23.616102 Si / 1000 Ang^3
#
#
#
# Elastic Constant Matrix: (Units=GPa)
#
#
# Indices 1 2 3 4 5 6 
#
# 1 126.4667 18.1485 25.7974 20.7948 -31.2544 -8.9673
# 2 18.1485 85.0951 5.1636 3.3862 2.2064 -3.2254
# 3 25.7974 5.1636 79.7651 19.8424 -25.6875 7.8307
# 4 20.7948 3.3862 19.8424 53.1460 -11.2121 5.7794
# 5 -31.2544 2.2064 -25.6875 -11.2121 32.1737 11.9762
# 6 -8.9673 -3.2254 7.8307 5.7794 11.9762 24.1113
#
#
#
# Elastic Compliance Matrix: (Units=1/GPa)
#
#
# Indices 1 2 3 4 5 6 
#
# 1 0.011234 -0.002791 0.001144 -0.001836 0.012190 -0.002182
# 2 -0.002791 0.013061 -0.003171 -0.001144 -0.008939 0.006453
# 3 0.001144 -0.003171 0.023639 -0.000890 0.027812 -0.021277
# 4 -0.001836 -0.001144 -0.000890 0.023183 0.009735 -0.010939
# 5 0.012190 -0.008939 0.027812 0.009735 0.088482 -0.051977
# 6 -0.002182 0.006453 -0.021277 -0.010939 -0.051977 0.076876
#
#
# Mechanical properties :
#
#
# Convention : Reuss Voigt Hill
#
# Bulk Modulus (GPa) = 26.11049 43.28290 34.69670
# Shear Modulus (GPa) = 19.31427 38.03403 28.67415
#
# Velocity S-wave (km/s) = 2.86290 4.01747 3.48829
# Velocity P-wave (km/s) = 4.69132 6.31566 5.56310
#
# Compressibility (1/GPa) = 0.03829878
#
# Stress axis : x y z
#
# Youngs Moduli (GPa) = 89.01347 76.56315 42.30349
#
# Poissons Ratio (x) = 0.21370 -0.04840
# Poissons Ratio (y) = 0.24845 0.13413
# Poissons Ratio (z) = -0.10183 0.24275
#
# Static dielectric constant tensor:
#      x y z
#    x 1.829040 0.106680 -0.058120 
#    y 0.106680 1.673960 0.116720 
#    z -0.058120 0.116720 1.882650 
# 
# From -- ./inp_files/448413.got.cif
#   From: 2010.05.17/outbox.cif.g08.bks.cpg/sg2_225_cif.got.tgz:448413.got - 2010.06.03 11:33:40.
