data_PCOD9039515
_publ_section_title
;
Structure prediction by ZEFSAII (Michael W. Deem and Ramdas Pophale) SiO2 
 PCOD9039515
Probable space group: P -1
;
_chemical_formula_sum "Si O2"
_cell_formula_units_Z 16
_cell_length_a 12.071717
_cell_length_b 9.791308
_cell_length_c 12.253318
_cell_angle_alpha 117.164222
_cell_angle_beta 130.033653
_cell_angle_gamma 43.661056
_cell_volume 765.487514
_symmetry_space_group_name_H-M "P -1"
_symmetry_group_IT_number 2
_symmetry_cell_setting 'triclinic'
loop_
_space_group_symop_operation_xyz
x,y,z
-x,-y,-z
loop_
_atom_site_type_symbol
_atom_site_label
_atom_site_fract_x
_atom_site_fract_y
_atom_site_fract_z
Si Si1 0.775397 0.084558 0.256782
Si Si2 0.793721 0.068690 0.895625
Si Si3 0.884518 0.938797 0.503732
Si Si4 0.200344 0.170097 0.992969
Si Si5 0.282138 0.109667 0.414180
Si Si6 0.512613 0.473966 0.759506
Si Si7 0.196459 0.500621 0.447528
Si Si8 0.229940 0.482958 0.201041
O O1 0.624877 0.305507 0.198633
O O2 0.982783 0.017214 0.345241
O O3 0.764077 0.085633 0.381409
O O4 0.750123 0.937716 0.131192
O O5 0.641908 0.303007 0.866346
O O6 0.775927 0.968834 0.744680
O O7 0.759206 0.987530 0.949862
O O8 0.000000 0.000000 0.000000
O O9 0.763687 0.936988 0.516961
O O10 0.026914 0.721921 0.459476
O O11 0.978044 0.346436 0.912877
O O12 0.287908 0.274708 0.118769
O O13 0.171479 0.342429 0.411796
O O14 0.500000 0.000000 0.500000
O O15 0.379864 0.442340 0.602350
O O16 0.640204 0.474048 0.751612
O O17 0.222460 0.488349 0.329314
#
# Coordination Sequence:
#
# PCOD9039515 Si02
#       8
#     2   2   2   2   2   2   2   2
#     4  10  23  43  67 100 134 183 226 282 343 401
#     4  12  24  43  67  97 140 184 222 276 346 418
#     4  10  23  42  68  99 141 175 222 285 347 402
#     4  11  23  42  67  93 138 179 229 267 342 420
#     4  12  25  42  70 105 136 178 230 287 338 397
#     4  11  25  40  68 101 133 179 233 286 337 397
#     4  11  22  43  67 102 136 173 231 285 342 399
#     4  11  23  41  68 100 130 181 231 281 330 407
#
# _framework density 20.901713000000001
#
# number of rings (size 3 to 8) (size 9 to 14) (size 15 to 20)
#    0.000    1.000    5.000    1.500    1.750    1.000 
#    0.000    0.000    0.000    0.000    0.000    0.000 
#    0.000    0.000    0.000    0.000    0.000    0.000 
#
# Total GULP energy -89519.909393 kJ/mol
# GULP energy per Si atom -5594.994337 kJ/mol
# Density = 2.085414 g / cm^3
# Si number density = 20.901713 Si / 1000 Ang^3
#
#
#
# Elastic Constant Matrix: (Units=GPa)
#
#
# Indices 1 2 3 4 5 6 
#
# 1 72.4054 -12.3501 17.4617 -10.3996 -8.6712 14.3177
# 2 -12.3501 71.2512 27.4008 -16.2801 3.9052 4.3904
# 3 17.4617 27.4008 82.5419 -3.3626 4.0850 -10.1857
# 4 -10.3996 -16.2801 -3.3626 43.1587 3.8589 -8.7293
# 5 -8.6712 3.9052 4.0850 3.8589 25.3964 -5.3592
# 6 14.3177 4.3904 -10.1857 -8.7293 -5.3592 23.6718
#
#
#
# Elastic Compliance Matrix: (Units=1/GPa)
#
#
# Indices 1 2 3 4 5 6 
#
# 1 0.022309 0.009600 -0.010015 0.004436 0.003456 -0.017165
# 2 0.009600 0.022373 -0.010537 0.007669 -0.002199 -0.012160
# 3 -0.010015 -0.010537 0.019659 -0.001580 -0.001437 0.015563
# 4 0.004436 0.007669 -0.001580 0.028264 -0.002642 0.005040
# 5 0.003456 -0.002199 -0.001437 -0.002642 0.042884 0.006434
# 6 -0.017165 -0.012160 0.015563 0.005040 0.006434 0.064893
#
#
# Mechanical properties :
#
#
# Convention : Reuss Voigt Hill
#
# Bulk Modulus (GPa) = 23.56430 32.35815 27.96123
# Shear Modulus (GPa) = 21.14773 31.35781 26.25277
#
# Velocity S-wave (km/s) = 3.18428 3.87751 3.54787
# Velocity P-wave (km/s) = 4.98176 5.96334 5.49451
#
# Compressibility (1/GPa) = 0.04243708
#
# Stress axis : x y z
#
# Youngs Moduli (GPa) = 44.82486 44.69646 50.86776
#
# Poissons Ratio (x) = -0.42909 0.50943
# Poissons Ratio (y) = -0.43032 0.53600
# Poissons Ratio (z) = 0.44891 0.47098
#
# Static dielectric constant tensor:
#      x y z
#    x 1.718350 -0.000710 0.001870 
#    y -0.000710 1.774310 -0.006760 
#    z 0.001870 -0.006760 1.733350 
# 
# From -- ./inp_files/263341.got.cif
#   From: 2010.05.17/outbox.cif.g08.bks.cpg/sg2_132_cif.got.tgz:263341.got - 2010.06.03 11:33:40.
