data_PCOD9039617
_publ_section_title
;
Structure prediction by ZEFSAII (Michael W. Deem and Ramdas Pophale) SiO2 
 PCOD9039617
Probable space group: P -1
;
_chemical_formula_sum "Si O2"
_cell_formula_units_Z 12
_cell_length_a 12.454289
_cell_length_b 14.713865
_cell_length_c 5.252355
_cell_angle_alpha 50.160126
_cell_angle_beta 130.615640
_cell_angle_gamma 140.099018
_cell_volume 448.519966
_symmetry_space_group_name_H-M "P -1"
_symmetry_group_IT_number 2
_symmetry_cell_setting 'triclinic'
loop_
_space_group_symop_operation_xyz
x,y,z
-x,-y,-z
loop_
_atom_site_type_symbol
_atom_site_label
_atom_site_fract_x
_atom_site_fract_y
_atom_site_fract_z
Si Si1 0.342260 0.816709 0.377307
Si Si2 0.893648 0.838907 0.387186
Si Si3 0.258820 0.034829 0.776159
Si Si4 0.189983 0.631447 0.955734
Si Si5 0.322665 0.466116 0.172920
Si Si6 0.566677 0.725032 0.767849
O O1 0.275220 0.736471 0.144304
O O2 0.513531 0.818209 0.675327
O O3 0.361111 0.966230 0.114678
O O4 0.208096 0.724027 0.568737
O O5 0.830271 0.708140 0.728875
O O6 0.103023 0.927893 0.519376
O O7 0.856242 0.954961 0.209491
O O8 0.747050 0.754619 0.090493
O O9 0.387983 0.200229 0.570109
O O10 0.266931 0.548228 0.111603
O O11 0.000000 0.500000 0.000000
O O12 0.500000 0.500000 0.500000
O O13 0.396348 0.556691 0.857825
#
# Coordination Sequence:
#
# PCOD9039617 Si02
#       6
#     2   2   2   2   2   2
#     4  11  26  43  74 105 141 185 241 294 354 422
#     4  10  23  44  65  99 144 180 244 281 366 417
#     4  11  24  42  68 102 139 191 229 295 354 433
#     4  11  24  47  72 106 144 189 238 296 357 423
#     4   9  21  44  67 100 136 182 238 293 349 418
#     4  10  23  42  69  96 139 183 235 293 348 416
#
# _framework density 26.754663000000001
#
# number of rings (size 3 to 8) (size 9 to 14) (size 15 to 20)
#    0.000    1.667    0.000    2.500    9.333    2.667 
#   21.000    0.000    0.000    0.000    0.000    0.000 
#    0.000    0.000    0.000    0.000    0.000    0.000 
#
# Total GULP energy -67107.245202 kJ/mol
# GULP energy per Si atom -5592.270434 kJ/mol
# Density = 2.669377 g / cm^3
# Si number density = 26.754663 Si / 1000 Ang^3
#
#
#
# Elastic Constant Matrix: (Units=GPa)
#
#
# Indices 1 2 3 4 5 6 
#
# 1 107.4942 35.6661 42.8378 -5.4846 -11.4043 2.1590
# 2 35.6661 113.5119 27.9611 -17.9027 -6.9467 -3.4194
# 3 42.8378 27.9611 116.7892 -32.1157 -10.7177 1.9289
# 4 -5.4846 -17.9027 -32.1157 39.0812 3.1387 -1.5805
# 5 -11.4043 -6.9467 -10.7177 3.1387 47.2447 -4.1617
# 6 2.1590 -3.4194 1.9289 -1.5805 -4.1617 55.9812
#
#
#
# Elastic Compliance Matrix: (Units=1/GPa)
#
#
# Indices 1 2 3 4 5 6 
#
# 1 0.012170 -0.003194 -0.004542 -0.003638 0.001636 -0.000489
# 2 -0.003194 0.010586 -0.000154 0.004268 0.000550 0.000936
# 3 -0.004542 -0.000154 0.013118 0.009979 0.001201 0.000085
# 4 -0.003638 0.004268 0.009979 0.035294 -0.000240 0.001036
# 5 0.001636 0.000550 0.001201 -0.000240 0.022068 0.001563
# 6 -0.000489 0.000936 0.000085 0.001036 0.001563 0.018082
#
#
# Mechanical properties :
#
#
# Convention : Reuss Voigt Hill
#
# Bulk Modulus (GPa) = 49.76333 61.19171 55.47752
# Shear Modulus (GPa) = 37.37026 43.88342 40.62684
#
# Velocity S-wave (km/s) = 3.74140 4.05435 3.90102
# Velocity P-wave (km/s) = 6.10773 6.69613 6.40868
#
# Compressibility (1/GPa) = 0.02009512
#
# Stress axis : x y z
#
# Youngs Moduli (GPa) = 82.16823 94.46317 76.22996
#
# Poissons Ratio (x) = 0.30168 0.34621
# Poissons Ratio (y) = 0.26241 0.01177
# Poissons Ratio (z) = 0.37318 0.01459
#
# Static dielectric constant tensor:
#      x y z
#    x 2.118290 -0.064300 -0.054190 
#    y -0.064300 2.184920 0.088280 
#    z -0.054190 0.088280 2.233010 
# 
# From -- ./inp_files/97527.got.cif
#   From: 2010.05.17/outbox.cif.g08.bks.cpg/sg2_49_cif.got.tgz:97527.got - 2010.06.03 11:33:40.
