data_PCOD9039658
_publ_section_title
;
Structure prediction by ZEFSAII (Michael W. Deem and Ramdas Pophale) SiO2 
 PCOD9039658
Probable space group: P -1
;
_chemical_formula_sum "Si O2"
_cell_formula_units_Z 16
_cell_length_a 14.761586
_cell_length_b 8.702975
_cell_length_c 14.338734
_cell_angle_alpha 109.123822
_cell_angle_beta 150.413539
_cell_angle_gamma 90.820734
_cell_volume 659.253119
_symmetry_space_group_name_H-M "P -1"
_symmetry_group_IT_number 2
_symmetry_cell_setting 'triclinic'
loop_
_space_group_symop_operation_xyz
x,y,z
-x,-y,-z
loop_
_atom_site_type_symbol
_atom_site_label
_atom_site_fract_x
_atom_site_fract_y
_atom_site_fract_z
Si Si1 0.621650 0.020559 0.334185
Si Si2 0.857147 0.095678 0.081559
Si Si3 0.068663 0.511798 0.240783
Si Si4 0.983114 0.968496 0.607513
Si Si5 0.519910 0.261172 0.672800
Si Si6 0.161155 0.442427 0.667422
Si Si7 0.523453 0.706904 0.566210
Si Si8 0.580342 0.548113 0.934037
O O1 0.811759 0.275675 0.549389
O O2 0.357245 0.936206 0.058503
O O3 0.583207 0.935383 0.389729
O O4 0.745874 0.941856 0.376632
O O5 0.719057 0.894945 0.848410
O O6 0.010647 0.084874 0.290498
O O7 0.015749 0.318810 0.214147
O O8 0.263001 0.606611 0.352306
O O9 0.806254 0.405458 0.948378
O O10 0.987133 0.810325 0.517307
O O11 0.217348 0.206613 0.853973
O O12 0.416599 0.197991 0.464839
O O13 0.499628 0.419560 0.740826
O O14 0.292332 0.518279 0.900197
O O15 0.000000 0.500000 0.500000
O O16 0.369106 0.516008 0.794203
O O17 0.500000 0.500000 0.500000
#
# Coordination Sequence:
#
# PCOD9039658 Si02
#       8
#     2   2   2   2   2   2   2   2
#     4  10  23  42  69  99 135 180 236 279 341 403
#     4  10  26  43  66 105 139 185 236 283 335 405
#     4  10  23  43  67  95 139 185 233 284 339 392
#     4  12  24  44  76 101 136 186 225 282 350 410
#     4  11  22  43  70  94 138 184 231 280 339 408
#     4  11  28  46  75 106 139 174 228 288 350 418
#     4  11  25  41  63 105 142 182 237 284 333 406
#     4  11  25  48  72 104 138 181 229 283 349 415
#
# _framework density 24.269888000000002
#
# number of rings (size 3 to 8) (size 9 to 14) (size 15 to 20)
#    0.000    1.250    2.500    1.500    5.250    9.500 
#    0.000    0.000    0.000    0.000    0.000    0.000 
#    0.000    0.000    0.000    0.000    0.000    0.000 
#
# Total GULP energy -89575.874948 kJ/mol
# GULP energy per Si atom -5598.492184 kJ/mol
# Density = 2.421465 g / cm^3
# Si number density = 24.269888 Si / 1000 Ang^3
#
#
#
# Elastic Constant Matrix: (Units=GPa)
#
#
# Indices 1 2 3 4 5 6 
#
# 1 94.0012 29.5909 38.5084 -7.1873 2.5028 -1.8463
# 2 29.5909 101.0701 46.0401 25.8152 15.7873 -18.0901
# 3 38.5084 46.0401 103.2404 17.7076 4.6454 -2.7051
# 4 -7.1873 25.8152 17.7076 50.3486 -1.9828 12.2265
# 5 2.5028 15.7873 4.6454 -1.9828 34.2063 0.1528
# 6 -1.8463 -18.0901 -2.7051 12.2265 0.1528 42.5289
#
#
#
# Elastic Compliance Matrix: (Units=1/GPa)
#
#
# Indices 1 2 3 4 5 6 
#
# 1 0.014574 -0.005133 -0.004628 0.007400 0.002378 -0.003981
# 2 -0.005133 0.020073 -0.004124 -0.012790 -0.009122 0.011763
# 3 -0.004628 -0.004124 0.013820 -0.003374 0.000170 -0.000107
# 4 0.007400 -0.012790 -0.003374 0.032542 0.007772 -0.014717
# 5 0.002378 -0.009122 0.000170 0.007772 0.033725 -0.006122
# 6 -0.003981 0.011763 -0.000107 -0.014717 -0.006122 0.032590
#
#
# Mechanical properties :
#
#
# Convention : Reuss Voigt Hill
#
# Bulk Modulus (GPa) = 48.31803 58.51006 53.41404
# Shear Modulus (GPa) = 27.47359 37.69490 32.58425
#
# Velocity S-wave (km/s) = 3.36818 3.94528 3.66810
# Velocity P-wave (km/s) = 5.92267 6.70180 6.32424
#
# Compressibility (1/GPa) = 0.02069621
#
# Stress axis : x y z
#
# Youngs Moduli (GPa) = 68.61504 49.81864 72.36063
#
# Poissons Ratio (x) = 0.25572 0.33485
# Poissons Ratio (y) = 0.35221 0.29845
# Poissons Ratio (z) = 0.31752 0.20548
#
# Static dielectric constant tensor:
#      x y z
#    x 1.971600 -0.017660 0.002040 
#    y -0.017660 1.973330 -0.005420 
#    z 0.002040 -0.005420 1.892040 
# 
# From -- ./inp_files/530033.got.cif
#   From: 2010.05.17/outbox.cif.g08.bks.cpg/sg2_266_cif.got.tgz:530033.got - 2010.06.03 11:33:40.
