data_PCOD9039608
_publ_section_title
;
Structure prediction by ZEFSAII (Michael W. Deem and Ramdas Pophale) SiO2 
 PCOD9039608
Probable space group: P -1
;
_chemical_formula_sum "Si O2"
_cell_formula_units_Z 12
_cell_length_a 25.860803
_cell_length_b 11.801412
_cell_length_c 5.029395
_cell_angle_alpha 126.256463
_cell_angle_beta 52.238827
_cell_angle_gamma 157.120529
_cell_volume 469.941085
_symmetry_space_group_name_H-M "P -1"
_symmetry_group_IT_number 2
_symmetry_cell_setting 'triclinic'
loop_
_space_group_symop_operation_xyz
x,y,z
-x,-y,-z
loop_
_atom_site_type_symbol
_atom_site_label
_atom_site_fract_x
_atom_site_fract_y
_atom_site_fract_z
Si Si1 0.429722 0.031028 0.959035
Si Si2 0.386932 0.404175 0.152492
Si Si3 0.072499 0.202966 0.302636
Si Si4 0.046720 0.469350 0.588909
Si Si5 0.795022 0.994924 0.337138
Si Si6 0.649449 0.210360 0.621878
O O1 0.309308 0.765021 0.765553
O O2 0.524309 0.310599 0.878899
O O3 0.518995 0.060378 0.774399
O O4 0.383338 0.976090 0.327035
O O5 0.311341 0.271493 0.489244
O O6 0.500000 0.500000 0.000000
O O7 0.264737 0.152821 0.971655
O O8 0.066398 0.360338 0.526116
O O9 0.232722 0.473320 0.186227
O O10 0.000000 0.000000 0.500000
O O11 0.000000 0.000000 0.000000
O O12 0.179318 0.788509 0.474188
O O13 0.938971 0.233418 0.362623
O O14 0.000000 0.500000 0.000000
#
# Coordination Sequence:
#
# PCOD9039608 Si02
#       6
#     2   2   2   2   2   2
#     4  10  23  42  69  95 138 185 231 287 365 416
#     4  12  26  41  71 105 141 182 245 304 355 434
#     4  12  30  45  76 110 146 186 249 306 358 429
#     4  11  27  50  78 104 149 202 243 298 381 426
#     4  11  26  45  72 100 144 191 243 295 367 441
#     4  10  23  45  67  97 137 186 231 290 356 436
#
# _framework density 25.535115999999999
#
# number of rings (size 3 to 8) (size 9 to 14) (size 15 to 20)
#    0.000    1.000    1.667    2.500   14.000    0.000 
#    0.000    0.000    0.000    0.000    0.000    0.000 
#    0.000    0.000    0.000    0.000    0.000    0.000 
#
# Total GULP energy -66956.442546 kJ/mol
# GULP energy per Si atom -5579.703545 kJ/mol
# Density = 2.547700 g / cm^3
# Si number density = 25.535116 Si / 1000 Ang^3
#
#
#
# Elastic Constant Matrix: (Units=GPa)
#
#
# Indices 1 2 3 4 5 6 
#
# 1 169.2304 38.5327 56.2780 -4.5220 38.7214 -32.4502
# 2 38.5327 112.4571 14.3768 8.8758 29.9652 -23.5540
# 3 56.2780 14.3768 96.4508 8.2843 43.6941 -2.3233
# 4 -4.5220 8.8758 8.2843 29.3240 -1.9583 19.1891
# 5 38.7214 29.9652 43.6941 -1.9583 54.1936 0.4942
# 6 -32.4502 -23.5540 -2.3233 19.1891 0.4942 66.2180
#
#
#
# Elastic Compliance Matrix: (Units=1/GPa)
#
#
# Indices 1 2 3 4 5 6 
#
# 1 0.008691 -0.000947 -0.003524 -0.000086 -0.002883 0.003845
# 2 -0.000947 0.014530 0.005085 -0.012382 -0.011983 0.008560
# 3 -0.003524 0.005085 0.020717 -0.011990 -0.017470 0.004414
# 4 -0.000086 -0.012382 -0.011990 0.056464 0.018811 -0.021371
# 5 -0.002883 -0.011983 -0.017470 0.018811 0.042013 -0.012053
# 6 0.003845 0.008560 0.004414 -0.021371 -0.012053 0.026469
#
#
# Mechanical properties :
#
#
# Convention : Reuss Voigt Hill
#
# Bulk Modulus (GPa) = 22.14065 66.27924 44.20994
# Shear Modulus (GPa) = 27.36550 47.87716 37.62133
#
# Velocity S-wave (km/s) = 3.27721 4.33477 3.84255
# Velocity P-wave (km/s) = 4.79683 7.14606 6.08587
#
# Compressibility (1/GPa) = 0.04516580
#
# Stress axis : x y z
#
# Youngs Moduli (GPa) = 115.05638 68.82400 48.27014
#
# Poissons Ratio (x) = 0.06518 0.17010
# Poissons Ratio (y) = 0.10896 -0.24545
# Poissons Ratio (z) = 0.40545 -0.34996
#
# Static dielectric constant tensor:
#      x y z
#    x 1.975690 0.089680 -0.050500 
#    y 0.089680 1.940400 0.049460 
#    z -0.050500 0.049460 2.084100 
# 
# From -- ./inp_files/126765.got.cif
#   From: 2010.05.17/outbox.cif.g08.bks.cpg/sg2_64_cif.got.tgz:126765.got - 2010.06.03 11:33:40.
