data_PCOD9039230
_publ_section_title
;
Structure prediction by ZEFSAII (Michael W. Deem and Ramdas Pophale) SiO2 
 PCOD9039230
Probable space group: P -1
;
_chemical_formula_sum "Si O2"
_cell_formula_units_Z 16
_cell_length_a 10.494149
_cell_length_b 13.570988
_cell_length_c 8.284742
_cell_angle_alpha 83.871730
_cell_angle_beta 77.419463
_cell_angle_gamma 36.316148
_cell_volume 677.154117
_symmetry_space_group_name_H-M "P -1"
_symmetry_group_IT_number 2
_symmetry_cell_setting 'triclinic'
loop_
_space_group_symop_operation_xyz
x,y,z
-x,-y,-z
loop_
_atom_site_type_symbol
_atom_site_label
_atom_site_fract_x
_atom_site_fract_y
_atom_site_fract_z
Si Si1 0.764065 0.732462 0.955574
Si Si2 0.329558 0.711064 0.665066
Si Si3 0.101787 0.013735 0.093742
Si Si4 0.346811 0.040011 0.839138
Si Si5 0.784999 0.350370 0.591880
Si Si6 0.753115 0.005776 0.421034
Si Si7 0.906894 0.483326 0.386407
Si Si8 0.471303 0.791148 0.256352
O O1 0.950543 0.589854 0.803349
O O2 0.592341 0.900186 0.864943
O O3 0.804904 0.776129 0.093778
O O4 0.626728 0.728895 0.076078
O O5 0.564651 0.531679 0.702381
O O6 0.308062 0.675593 0.500689
O O7 0.298779 0.848604 0.640068
O O8 0.111303 0.806024 0.797189
O O9 0.269599 0.862172 0.204229
O O10 0.238097 0.012178 0.960256
O O11 0.000000 0.000000 0.000000
O O12 0.367395 0.000052 0.655218
O O13 0.902887 0.373131 0.470994
O O14 0.989977 0.173174 0.652352
O O15 0.676160 0.044314 0.620922
O O16 0.653752 0.648706 0.364119
O O17 0.000000 0.500000 0.500000
#
# Coordination Sequence:
#
# PCOD9039230 Si02
#       8
#     2   2   2   2   2   2   2   2
#     4  10  24  44  67  98 143 183 233 302 355 419
#     4  11  23  45  69  99 147 181 232 298 355 414
#     4  11  22  42  70  99 138 190 228 293 360 421
#     4  10  23  42  67 103 137 185 242 287 356 429
#     4  11  26  41  71 106 138 181 240 292 354 424
#     4  12  23  43  71 103 140 188 239 289 354 427
#     4  12  26  47  72 104 144 187 238 298 356 428
#     4  11  25  43  71 101 138 188 235 292 360 417
#
# _framework density 23.628299999999999
#
# number of rings (size 3 to 8) (size 9 to 14) (size 15 to 20)
#    0.000    1.000    3.750    2.250    5.250    0.500 
#    2.250    0.625    0.000    0.000    0.000    0.000 
#    0.000    0.000    0.000    0.000    0.000    0.000 
#
# Total GULP energy -89170.779272 kJ/mol
# GULP energy per Si atom -5573.173705 kJ/mol
# Density = 2.357452 g / cm^3
# Si number density = 23.628300 Si / 1000 Ang^3
#
#
#
# Elastic Constant Matrix: (Units=GPa)
#
#
# Indices 1 2 3 4 5 6 
#
# 1 71.0977 43.3585 39.2735 15.1968 10.2669 -5.8541
# 2 43.3585 137.8698 38.4861 15.7295 17.0699 -17.1111
# 3 39.2735 38.4861 91.9712 8.9288 5.1083 -8.6637
# 4 15.1968 15.7295 8.9288 17.1503 -4.4155 4.3500
# 5 10.2669 17.0699 5.1083 -4.4155 49.5832 -4.0007
# 6 -5.8541 -17.1111 -8.6637 4.3500 -4.0007 25.8580
#
#
#
# Elastic Compliance Matrix: (Units=1/GPa)
#
#
# Indices 1 2 3 4 5 6 
#
# 1 0.024240 -0.002656 -0.006933 -0.017556 -0.004660 0.003640
# 2 -0.002656 0.010931 -0.001662 -0.009474 -0.003308 0.007157
# 3 -0.006933 -0.001662 0.014772 -0.000481 0.000642 0.002460
# 4 -0.017556 -0.009474 -0.000481 0.092269 0.013236 -0.023879
# 5 -0.004660 -0.003308 0.000642 0.013236 0.023251 -0.001659
# 6 0.003640 0.007157 0.002460 -0.023879 -0.001659 0.048818
#
#
# Mechanical properties :
#
#
# Convention : Reuss Voigt Hill
#
# Bulk Modulus (GPa) = 36.44356 60.35276 48.39816
# Shear Modulus (GPa) = 20.33089 30.50632 25.41861
#
# Velocity S-wave (km/s) = 2.93652 3.59708 3.28345
# Velocity P-wave (km/s) = 5.19179 6.54599 5.90782
#
# Compressibility (1/GPa) = 0.02743969
#
# Stress axis : x y z
#
# Youngs Moduli (GPa) = 41.25379 91.48020 67.69514
#
# Poissons Ratio (x) = 0.24298 0.46936
# Poissons Ratio (y) = 0.10957 0.11254
# Poissons Ratio (z) = 0.28603 0.15208
#
# Static dielectric constant tensor:
#      x y z
#    x 1.912900 0.010300 -0.013990 
#    y 0.010300 2.002420 -0.010190 
#    z -0.013990 -0.010190 1.974450 
# 
# From -- ./inp_files/273386.got.cif
#   From: 2010.05.17/outbox.cif.g08.bks.cpg/sg2_137_cif.got.tgz:273386.got - 2010.06.03 11:33:40.
