data_PCOD9039704
_publ_section_title
;
Structure prediction by ZEFSAII (Michael W. Deem and Ramdas Pophale) SiO2 
 PCOD9039704
Probable space group: P -1
;
_chemical_formula_sum "Si O2"
_cell_formula_units_Z 14
_cell_length_a 8.922467
_cell_length_b 5.539189
_cell_length_c 11.467231
_cell_angle_alpha 87.727731
_cell_angle_beta 82.972102
_cell_angle_gamma 83.944600
_cell_volume 559.145615
_symmetry_space_group_name_H-M "P -1"
_symmetry_group_IT_number 2
_symmetry_cell_setting 'triclinic'
loop_
_space_group_symop_operation_xyz
x,y,z
-x,-y,-z
loop_
_atom_site_type_symbol
_atom_site_label
_atom_site_fract_x
_atom_site_fract_y
_atom_site_fract_z
Si Si1 0.385183 0.184070 0.791527
Si Si2 0.167046 0.363663 0.993306
Si Si3 0.142032 0.042492 0.230819
Si Si4 0.307868 0.429270 0.567946
Si Si5 0.656786 0.360453 0.874306
Si Si6 0.581377 0.759272 0.682685
Si Si7 0.872656 0.045275 0.412891
O O1 0.380780 0.394533 0.690186
O O2 0.522370 0.189860 0.872903
O O3 0.434268 0.945633 0.715878
O O4 0.229992 0.216786 0.877125
O O5 0.291369 0.553226 0.007284
O O6 0.167326 0.187809 0.107588
O O7 0.000000 0.500000 0.000000
O O8 0.190903 0.764383 0.198463
O O9 0.264882 0.102977 0.315910
O O10 0.971540 0.094561 0.288432
O O11 0.407112 0.350365 0.445638
O O12 0.231486 0.704110 0.554721
O O13 0.196701 0.211790 0.587368
O O14 0.599687 0.582528 0.793986
O O15 0.000000 0.000000 0.500000
#
# Coordination Sequence:
#
# PCOD9039704 Si02
#       7
#     2   2   2   2   2   2   2
#     4  11  26  45  69 105 143 192 239 297 365 433
#     4  11  25  46  70 103 141 184 247 302 362 432
#     4  10  23  42  70 103 138 190 237 299 359 435
#     4  12  27  44  74 110 147 195 245 297 359 438
#     4  10  24  44  73  97 145 186 242 295 370 422
#     4  10  23  44  70 100 142 187 241 294 361 434
#     4  12  25  44  75 108 153 192 241 298 370 424
#
# _framework density 25.038198000000001
#
# number of rings (size 3 to 8) (size 9 to 14) (size 15 to 20)
#    0.000    1.143    1.429    3.000   10.000    7.429 
#    0.000    0.000    0.000    0.000    0.000    0.000 
#    0.000    0.000    0.000    0.000    0.000    0.000 
#
# Total GULP energy -78309.791472 kJ/mol
# GULP energy per Si atom -5593.556534 kJ/mol
# Density = 2.498121 g / cm^3
# Si number density = 25.038198 Si / 1000 Ang^3
#
#
#
# Elastic Constant Matrix: (Units=GPa)
#
#
# Indices 1 2 3 4 5 6 
#
# 1 102.8932 45.6170 63.0306 19.1347 -0.1466 -15.8546
# 2 45.6170 117.4260 29.2452 13.2851 0.6822 -26.3876
# 3 63.0306 29.2452 145.4079 13.3643 -20.8849 -13.3031
# 4 19.1347 13.2851 13.3643 46.3923 -5.2523 -2.0098
# 5 -0.1466 0.6822 -20.8849 -5.2523 59.0916 7.6760
# 6 -15.8546 -26.3876 -13.3031 -2.0098 7.6760 52.2815
#
#
#
# Elastic Compliance Matrix: (Units=1/GPa)
#
#
# Indices 1 2 3 4 5 6 
#
# 1 0.016185 -0.003942 -0.006084 -0.004022 -0.002630 0.001602
# 2 -0.003942 0.011273 -0.000139 -0.001469 -0.000909 0.004536
# 3 -0.006084 -0.000139 0.010056 0.000058 0.003529 0.000127
# 4 -0.004022 -0.001469 0.000058 0.023822 0.002323 -0.001372
# 5 -0.002630 -0.000909 0.003529 0.002323 0.018774 -0.003025
# 6 0.001602 0.004536 0.000127 -0.001372 -0.003025 0.022326
#
#
# Mechanical properties :
#
#
# Convention : Reuss Voigt Hill
#
# Bulk Modulus (GPa) = 58.19826 71.27918 64.73872
# Shear Modulus (GPa) = 38.91266 46.74203 42.82734
#
# Velocity S-wave (km/s) = 3.94652 4.32537 4.14028
# Velocity P-wave (km/s) = 6.63785 7.31266 6.98341
#
# Compressibility (1/GPa) = 0.01718264
#
# Stress axis : x y z
#
# Youngs Moduli (GPa) = 61.78693 88.71078 99.44421
#
# Poissons Ratio (x) = 0.34966 0.60506
# Poissons Ratio (y) = 0.24354 0.01384
# Poissons Ratio (z) = 0.37594 0.01235
#
# Static dielectric constant tensor:
#      x y z
#    x 2.054720 0.111410 0.019740 
#    y 0.111410 2.016720 0.039960 
#    z 0.019740 0.039960 1.982650 
# 
# From -- ./inp_files/26813.got.cif
#   From: 2010.05.17/outbox.cif.g08.bks.cpg/sg2_14_cif.got.tgz:26813.got - 2010.06.03 11:33:40.
