data_PCOD9039189
_publ_section_title
;
Structure prediction by ZEFSAII (Michael W. Deem and Ramdas Pophale) SiO2 
 PCOD9039189
Probable space group: P -1
;
_chemical_formula_sum "Si O2"
_cell_formula_units_Z 13
_cell_length_a 20.049642
_cell_length_b 9.607886
_cell_length_c 12.901271
_cell_angle_alpha 30.851279
_cell_angle_beta 150.683108
_cell_angle_gamma 139.124387
_cell_volume 623.739097
_symmetry_space_group_name_H-M "P -1"
_symmetry_group_IT_number 2
_symmetry_cell_setting 'triclinic'
loop_
_space_group_symop_operation_xyz
x,y,z
-x,-y,-z
loop_
_atom_site_type_symbol
_atom_site_label
_atom_site_fract_x
_atom_site_fract_y
_atom_site_fract_z
Si Si1 0.269545 0.660812 0.991718
Si Si2 0.610302 0.231656 0.217995
Si Si3 0.500000 0.000000 0.000000
Si Si4 0.128647 0.088932 0.185898
Si Si5 0.413421 0.142552 0.204100
Si Si6 0.799381 0.272698 0.907162
Si Si7 0.894873 0.847339 0.641770
O O1 0.263343 0.706134 0.077551
O O2 0.419780 0.722614 0.113845
O O3 0.179753 0.894879 0.668245
O O4 0.201377 0.367292 0.066421
O O5 0.502009 0.172091 0.200405
O O6 0.756849 0.134768 0.514863
O O7 0.562598 0.068091 0.156743
O O8 0.619291 0.552272 0.003709
O O9 0.088466 0.134609 0.222848
O O10 0.000000 0.000000 0.000000
O O11 0.500000 0.000000 0.500000
O O12 0.281912 0.952032 0.124512
O O13 0.957370 0.194423 0.179922
O O14 0.801811 0.575703 0.668014
#
# Coordination Sequence:
#
# PCOD9039189 Si02
#       7
#     2   2   1   2   2   2   2
#     4  11  24  42  71  99 132 186 226 288 346 403
#     4  11  27  46  67 106 137 180 236 284 343 413
#     4  12  24  46  74  98 140 176 238 288 340 414
#     4  11  27  44  67 103 140 180 231 282 349 415
#     4  11  27  44  70  99 138 185 223 286 352 404
#     4  10  23  43  66  97 136 177 230 282 338 421
#     4  10  23  42  67 100 129 181 230 279 344 403
#
# _framework density 20.842047000000001
#
# number of rings (size 3 to 8) (size 9 to 14) (size 15 to 20)
#    0.000    1.231    3.077    0.462    8.615    1.231 
#    0.000    0.000    0.000    0.000    0.000    0.000 
#    0.000    0.000    0.000    0.000    0.000    0.000 
#
# Total GULP energy -72462.356120 kJ/mol
# GULP energy per Si atom -5574.027394 kJ/mol
# Density = 2.079461 g / cm^3
# Si number density = 20.842047 Si / 1000 Ang^3
#
#
#
# Elastic Constant Matrix: (Units=GPa)
#
#
# Indices 1 2 3 4 5 6 
#
# 1 39.5546 21.9344 2.1915 -3.0500 -3.2995 17.2390
# 2 21.9344 188.4094 81.4346 2.1186 -11.2705 18.6894
# 3 2.1915 81.4346 127.8630 -22.7397 -9.9132 -1.0588
# 4 -3.0500 2.1186 -22.7397 31.6729 -0.4990 -8.3531
# 5 -3.2995 -11.2705 -9.9132 -0.4990 26.0436 -6.0091
# 6 17.2390 18.6894 -1.0588 -8.3531 -6.0091 22.7768
#
#
#
# Elastic Compliance Matrix: (Units=1/GPa)
#
#
# Indices 1 2 3 4 5 6 
#
# 1 0.039063 -0.000687 -0.001865 -0.006103 -0.003624 -0.032282
# 2 -0.000687 0.010450 -0.008777 -0.010490 -0.002073 -0.012857
# 3 -0.001865 -0.008777 0.017253 0.017570 0.006952 0.017693
# 4 -0.006103 -0.010490 0.017570 0.054175 0.010901 0.036787
# 5 -0.003624 -0.002073 0.006952 0.010901 0.044635 0.020541
# 6 -0.032282 -0.012857 0.017693 0.036787 0.020541 0.098620
#
#
# Mechanical properties :
#
#
# Convention : Reuss Voigt Hill
#
# Bulk Modulus (GPa) = 22.67214 62.99424 42.83319
# Shear Modulus (GPa) = 16.58061 32.78309 24.68185
#
# Velocity S-wave (km/s) = 2.82359 3.97032 3.44500
# Velocity P-wave (km/s) = 4.64024 7.16297 6.03490
#
# Compressibility (1/GPa) = 0.04410699
#
# Stress axis : x y z
#
# Youngs Moduli (GPa) = 25.59993 95.69057 57.96157
#
# Poissons Ratio (x) = 0.06576 0.10813
# Poissons Ratio (y) = 0.01759 0.50871
# Poissons Ratio (z) = 0.04776 0.83984
#
# Static dielectric constant tensor:
#      x y z
#    x 1.777740 0.008000 0.030160 
#    y 0.008000 1.705160 -0.015320 
#    z 0.030160 -0.015320 1.731740 
# 
# From -- ./inp_files/20272.got.cif
#   From: 2010.05.17/outbox.cif.g08.bks.cpg/sg2_11_cif.got.tgz:20272.got - 2010.06.03 11:33:40.
