data_PCOD9039663
_publ_section_title
;
Structure prediction by ZEFSAII (Michael W. Deem and Ramdas Pophale) SiO2 
 PCOD9039663
Probable space group: P -1
;
_chemical_formula_sum "Si O2"
_cell_formula_units_Z 16
_cell_length_a 7.741049
_cell_length_b 15.023432
_cell_length_c 8.933651
_cell_angle_alpha 132.743082
_cell_angle_beta 115.136770
_cell_angle_gamma 82.277627
_cell_volume 671.986414
_symmetry_space_group_name_H-M "P -1"
_symmetry_group_IT_number 2
_symmetry_cell_setting 'triclinic'
loop_
_space_group_symop_operation_xyz
x,y,z
-x,-y,-z
loop_
_atom_site_type_symbol
_atom_site_label
_atom_site_fract_x
_atom_site_fract_y
_atom_site_fract_z
Si Si1 0.245833 0.141467 0.522761
Si Si2 0.038604 0.118658 0.812902
Si Si3 0.248917 0.237431 0.301561
Si Si4 0.736192 0.203087 0.582253
Si Si5 0.768021 0.477616 0.391114
Si Si6 0.345062 0.742621 0.691098
Si Si7 0.525263 0.366285 0.899643
Si Si8 0.447234 0.082055 0.795202
O O1 0.223946 0.161569 0.360437
O O2 0.305640 0.285291 0.759680
O O3 0.434696 0.107985 0.642624
O O4 0.072962 0.025875 0.373298
O O5 0.251321 0.122340 0.826867
O O6 0.911025 0.184882 0.733734
O O7 0.073347 0.182992 0.060379
O O8 0.271462 0.385919 0.491213
O O9 0.447844 0.224634 0.280328
O O10 0.800652 0.242456 0.480153
O O11 0.625959 0.300405 0.730796
O O12 0.595650 0.064494 0.359646
O O13 0.694942 0.397588 0.421584
O O14 0.000000 0.500000 0.500000
O O15 0.663554 0.387434 0.118299
O O16 0.373274 0.840072 0.951508
O O17 0.500000 0.500000 0.000000
#
# Coordination Sequence:
#
# PCOD9039663 Si02
#       8
#     2   2   2   2   2   2   2   2
#     4  11  20  41  71  97 131 175 220 272 330 395
#     4  10  24  42  68 103 138 170 219 279 337 392
#     4  11  23  45  68  98 133 181 224 272 335 402
#     4  11  22  43  65 100 132 173 221 273 328 397
#     4  12  26  44  64  98 135 177 227 280 328 395
#     4  11  23  44  67  96 133 181 220 277 334 401
#     4  12  24  45  68  94 133 177 227 272 331 398
#     4  10  23  42  69  99 138 173 218 275 340 399
#
# _framework density 23.810005
#
# number of rings (size 3 to 8) (size 9 to 14) (size 15 to 20)
#    0.000    1.000    3.750    3.375    0.000    4.000 
#    2.250    1.250    0.000    0.000    0.000    0.000 
#    0.000    0.000    0.000    0.000    0.000    0.000 
#
# Total GULP energy -89351.918943 kJ/mol
# GULP energy per Si atom -5584.494934 kJ/mol
# Density = 2.375581 g / cm^3
# Si number density = 23.810005 Si / 1000 Ang^3
#
#
#
# Elastic Constant Matrix: (Units=GPa)
#
#
# Indices 1 2 3 4 5 6 
#
# 1 63.8091 30.7051 20.8846 -8.2144 4.0809 -5.3022
# 2 30.7051 185.4134 53.5064 -28.0580 -8.9338 1.0348
# 3 20.8846 53.5064 147.2384 -27.6446 7.6838 -6.1069
# 4 -8.2144 -28.0580 -27.6446 51.2213 -8.4592 -3.2394
# 5 4.0809 -8.9338 7.6838 -8.4592 33.6300 4.9857
# 6 -5.3022 1.0348 -6.1069 -3.2394 4.9857 36.4843
#
#
#
# Elastic Compliance Matrix: (Units=1/GPa)
#
#
# Indices 1 2 3 4 5 6 
#
# 1 0.017849 -0.002703 -0.001194 0.000437 -0.002933 0.002910
# 2 -0.002703 0.006987 -0.001839 0.002909 0.003502 -0.001119
# 3 -0.001194 -0.001839 0.008387 0.003155 -0.001733 0.001799
# 4 0.000437 0.002909 0.003155 0.023956 0.005750 0.001851
# 5 -0.002933 0.003502 -0.001733 0.005750 0.033589 -0.004895
# 6 0.002910 -0.001119 0.001799 0.001851 -0.004895 0.028998
#
#
# Mechanical properties :
#
#
# Convention : Reuss Voigt Hill
#
# Bulk Modulus (GPa) = 45.97239 67.40588 56.68913
# Shear Modulus (GPa) = 36.10457 43.69144 39.89801
#
# Velocity S-wave (km/s) = 3.89827 4.28834 4.09795
# Velocity P-wave (km/s) = 6.29380 7.27263 6.80085
#
# Compressibility (1/GPa) = 0.02175219
#
# Stress axis : x y z
#
# Youngs Moduli (GPa) = 56.02657 143.12971 119.23700
#
# Poissons Ratio (x) = 0.38683 0.14233
# Poissons Ratio (y) = 0.15142 0.21923
# Poissons Ratio (z) = 0.06688 0.26315
#
# Static dielectric constant tensor:
#      x y z
#    x 1.986050 0.014890 -0.011750 
#    y 0.014890 1.983320 -0.061060 
#    z -0.011750 -0.061060 1.964660 
# 
# From -- ./inp_files/204446.got.cif
#   From: 2010.05.17/outbox.cif.g08.bks.cpg/sg2_103_cif.got.tgz:204446.got - 2010.06.03 11:33:40.
