data_PCOD9039728
_publ_section_title
;
Structure prediction by ZEFSAII (Michael W. Deem and Ramdas Pophale) SiO2 
 PCOD9039728
Probable space group: P -1
;
_chemical_formula_sum "Si O2"
_cell_formula_units_Z 12
_cell_length_a 12.633626
_cell_length_b 8.801261
_cell_length_c 5.824486
_cell_angle_alpha 93.604990
_cell_angle_beta 48.717463
_cell_angle_gamma 107.698917
_cell_volume 454.981820
_symmetry_space_group_name_H-M "P -1"
_symmetry_group_IT_number 2
_symmetry_cell_setting 'triclinic'
loop_
_space_group_symop_operation_xyz
x,y,z
-x,-y,-z
loop_
_atom_site_type_symbol
_atom_site_label
_atom_site_fract_x
_atom_site_fract_y
_atom_site_fract_z
Si Si1 0.983088 0.073604 0.283822
Si Si2 0.519030 0.169339 0.865427
Si Si3 0.692765 0.741455 0.140170
Si Si4 0.252929 0.927654 0.670657
Si Si5 0.740393 0.470264 0.853115
Si Si6 0.022965 0.624364 0.189910
O O1 0.825546 0.097610 0.471263
O O2 0.000000 0.000000 0.500000
O O3 0.130325 0.231639 0.089305
O O4 0.000000 0.000000 0.000000
O O5 0.372103 0.198647 0.986753
O O6 0.620350 0.152830 0.503334
O O7 0.620158 0.321139 0.881138
O O8 0.500000 0.000000 0.000000
O O9 0.683234 0.879955 0.345240
O O10 0.642936 0.548597 0.158463
O O11 0.117988 0.810631 0.008662
O O12 0.862326 0.415587 0.806650
O O13 0.853513 0.593515 0.517391
O O14 0.000000 0.500000 0.000000
#
# Coordination Sequence:
#
# PCOD9039728 Si02
#       6
#     2   2   2   2   2   2
#     4  10  23  42  70 111 147 190 252 313 372 444
#     4  12  25  48  70 102 152 199 248 306 385 464
#     4  11  25  43  72 109 149 190 249 310 380 453
#     4  11  24  46  77 108 143 202 249 310 380 452
#     4  11  26  44  75 108 148 193 248 317 375 449
#     4  11  23  47  75 109 147 190 251 311 381 447
#
# _framework density 26.374680000000001
#
# number of rings (size 3 to 8) (size 9 to 14) (size 15 to 20)
#    0.000    1.000    1.667    4.000    7.000    0.000 
#    3.000    1.667    0.000    0.000    0.000    0.000 
#    0.000    0.000    0.000    0.000    0.000    0.000 
#
# Total GULP energy -66884.948691 kJ/mol
# GULP energy per Si atom -5573.745724 kJ/mol
# Density = 2.631465 g / cm^3
# Si number density = 26.374680 Si / 1000 Ang^3
#
#
#
# Elastic Constant Matrix: (Units=GPa)
#
#
# Indices 1 2 3 4 5 6 
#
# 1 167.1417 35.0856 9.5036 2.0850 -5.1520 8.2348
# 2 35.0856 140.6765 40.0487 45.2311 -8.2494 10.0556
# 3 9.5036 40.0487 84.9735 0.6345 -9.5152 8.8016
# 4 2.0850 45.2311 0.6345 40.3687 2.4125 13.8793
# 5 -5.1520 -8.2494 -9.5152 2.4125 33.5978 1.6991
# 6 8.2348 10.0556 8.8016 13.8793 1.6991 48.6398
#
#
#
# Elastic Compliance Matrix: (Units=1/GPa)
#
#
# Indices 1 2 3 4 5 6 
#
# 1 0.006574 -0.002778 0.000762 0.003298 0.000387 -0.001631
# 2 -0.002778 0.015764 -0.007079 -0.018865 0.002603 0.003784
# 3 0.000762 -0.007079 0.015647 0.008923 0.002378 -0.004126
# 4 0.003298 -0.018865 0.008923 0.050142 -0.004572 -0.012421
# 5 0.000387 0.002603 0.002378 -0.004572 0.031506 -0.000830
# 6 -0.001631 0.003784 -0.004126 -0.012421 -0.000830 0.024373
#
#
# Mechanical properties :
#
#
# Convention : Reuss Voigt Hill
#
# Bulk Modulus (GPa) = 50.51759 62.45193 56.48476
# Shear Modulus (GPa) = 29.62194 45.06484 37.34339
#
# Velocity S-wave (km/s) = 3.35493 4.13805 3.76690
# Velocity P-wave (km/s) = 5.84832 6.82360 6.35470
#
# Compressibility (1/GPa) = 0.01979508
#
# Stress axis : x y z
#
# Youngs Moduli (GPa) = 152.11774 63.43493 63.91203
#
# Poissons Ratio (x) = 0.17619 -0.04867
# Poissons Ratio (y) = 0.42251 0.45242
# Poissons Ratio (z) = -0.11585 0.44904
#
# Static dielectric constant tensor:
#      x y z
#    x 2.244970 0.027490 -0.175460 
#    y 0.027490 2.139170 -0.036100 
#    z -0.175460 -0.036100 2.461190 
# 
# From -- ./inp_files/58458.got.cif
#   From: 2010.05.17/outbox.cif.g08.bks.cpg/sg2_30_cif.got.tgz:58458.got - 2010.06.03 11:33:40.
