data_PCOD9039991
_publ_section_title
;
Structure prediction by ZEFSAII (Michael W. Deem and Ramdas Pophale) SiO2 
 PCOD9039991
Probable space group: P -1
;
_chemical_formula_sum "Si O2"
_cell_formula_units_Z 14
_cell_length_a 11.822810
_cell_length_b 21.974897
_cell_length_c 9.449230
_cell_angle_alpha 142.358933
_cell_angle_beta 126.404693
_cell_angle_gamma 26.410819
_cell_volume 603.347342
_symmetry_space_group_name_H-M "P -1"
_symmetry_group_IT_number 2
_symmetry_cell_setting 'triclinic'
loop_
_space_group_symop_operation_xyz
x,y,z
-x,-y,-z
loop_
_atom_site_type_symbol
_atom_site_label
_atom_site_fract_x
_atom_site_fract_y
_atom_site_fract_z
Si Si1 0.688947 0.337069 0.130174
Si Si2 0.024047 0.445048 0.259836
Si Si3 0.123356 0.985959 0.369718
Si Si4 0.492275 0.088364 0.797660
Si Si5 0.662980 0.772766 0.359369
Si Si6 0.880227 0.234507 0.404658
Si Si7 0.182522 0.652563 0.019345
O O1 0.780087 0.276230 0.248908
O O2 0.350741 0.555404 0.299496
O O3 0.817603 0.348569 0.155320
O O4 0.823927 0.160268 0.822736
O O5 0.878026 0.604210 0.326045
O O6 0.894902 0.410776 0.099132
O O7 0.000000 0.500000 0.500000
O O8 0.355360 0.240544 0.093088
O O9 0.923597 0.115050 0.321637
O O10 0.440257 0.822215 0.266211
O O11 0.012021 0.141998 0.676354
O O12 0.277583 0.232860 0.770631
O O13 0.507806 0.968685 0.652459
O O14 0.805288 0.917461 0.662058
O O15 0.500000 0.500000 0.000000
#
# Coordination Sequence:
#
# PCOD9039991 Si02
#       7
#     2   2   2   2   2   2   2
#     4  11  24  43  69 102 138 179 228 288 356 399
#     4  12  28  46  68 107 144 185 230 289 355 416
#     4  11  22  44  71  98 132 183 230 287 343 410
#     4  10  23  46  72  99 134 182 236 285 342 412
#     4  10  23  42  73  97 131 180 235 285 338 410
#     4  10  24  43  69 101 139 171 233 296 339 416
#     4  12  25  45  69 100 144 181 233 279 344 425
#
# _framework density 23.203880999999999
#
# number of rings (size 3 to 8) (size 9 to 14) (size 15 to 20)
#    0.000    1.143    2.857    2.143    2.000    5.143 
#    5.143    0.000    0.000    0.000    0.000    0.000 
#    0.000    0.000    0.000    0.000    0.000    0.000 
#
# Total GULP energy -77962.952801 kJ/mol
# GULP energy per Si atom -5568.782343 kJ/mol
# Density = 2.315107 g / cm^3
# Si number density = 23.203881 Si / 1000 Ang^3
#
#
#
# Elastic Constant Matrix: (Units=GPa)
#
#
# Indices 1 2 3 4 5 6 
#
# 1 99.2222 37.4640 38.9863 23.4197 4.0632 17.6659
# 2 37.4640 86.6333 48.3929 18.2315 -0.9151 22.1580
# 3 38.9863 48.3929 138.7736 13.6125 -14.5344 22.3373
# 4 23.4197 18.2315 13.6125 14.2999 -0.5935 11.7648
# 5 4.0632 -0.9151 -14.5344 -0.5935 30.0238 6.6717
# 6 17.6659 22.1580 22.3373 11.7648 6.6717 27.0802
#
#
#
# Elastic Compliance Matrix: (Units=1/GPa)
#
#
# Indices 1 2 3 4 5 6 
#
# 1 0.018241 -0.001323 -0.003419 -0.030971 -0.006336 0.007019
# 2 -0.001323 0.018444 -0.003964 -0.013442 -0.000324 -0.005038
# 3 -0.003419 -0.003964 0.011045 0.007852 0.007839 -0.008979
# 4 -0.030971 -0.013442 0.007852 0.180423 0.024409 -0.059671
# 5 -0.006336 -0.000324 0.007839 0.024409 0.043637 -0.023423
# 6 0.007019 -0.005038 -0.008979 -0.059671 -0.023423 0.075572
#
#
# Mechanical properties :
#
#
# Convention : Reuss Voigt Hill
#
# Bulk Modulus (GPa) = 32.98400 63.81283 48.39842
# Shear Modulus (GPa) = 13.33761 27.59982 20.46871
#
# Velocity S-wave (km/s) = 2.40010 3.45258 2.97328
# Velocity P-wave (km/s) = 4.68256 6.59199 5.71755
#
# Compressibility (1/GPa) = 0.03031773
#
# Stress axis : x y z
#
# Youngs Moduli (GPa) = 54.82113 54.21946 90.53924
#
# Poissons Ratio (x) = 0.07174 0.30951
# Poissons Ratio (y) = 0.07254 0.35892
# Poissons Ratio (z) = 0.18741 0.21494
#
# Static dielectric constant tensor:
#      x y z
#    x 1.904230 0.037220 0.001440 
#    y 0.037220 1.938890 -0.010380 
#    z 0.001440 -0.010380 1.895880 
# 
# From -- ./inp_files/69679.got.cif
#   From: 2010.05.17/outbox.cif.g08.bks.cpg/sg2_35_cif.got.tgz:69679.got - 2010.06.03 11:33:40.
