data_PCOD9039885
_publ_section_title
;
Structure prediction by ZEFSAII (Michael W. Deem and Ramdas Pophale) SiO2 
 PCOD9039885
Probable space group: P -1
;
_chemical_formula_sum "Si O2"
_cell_formula_units_Z 16
_cell_length_a 14.010520
_cell_length_b 12.302480
_cell_length_c 15.526971
_cell_angle_alpha 26.707910
_cell_angle_beta 134.631488
_cell_angle_gamma 138.947889
_cell_volume 786.166461
_symmetry_space_group_name_H-M "P -1"
_symmetry_group_IT_number 2
_symmetry_cell_setting 'triclinic'
loop_
_space_group_symop_operation_xyz
x,y,z
-x,-y,-z
loop_
_atom_site_type_symbol
_atom_site_label
_atom_site_fract_x
_atom_site_fract_y
_atom_site_fract_z
Si Si1 0.397233 0.893383 0.339304
Si Si2 0.360727 0.597410 0.938886
Si Si3 0.650644 0.965735 0.099824
Si Si4 0.372071 0.433010 0.782461
Si Si5 0.827535 0.445388 0.984791
Si Si6 0.651052 0.525356 0.537348
Si Si7 0.919250 0.723475 0.692154
Si Si8 0.827572 0.827068 0.009330
O O1 0.392226 0.685936 0.557654
O O2 0.369043 0.729029 0.349704
O O3 0.552334 0.137891 0.248311
O O4 0.268669 0.998831 0.191086
O O5 0.294855 0.626809 0.968724
O O6 0.488159 0.497702 0.115232
O O7 0.228436 0.391606 0.946341
O O8 0.638247 0.818717 0.104749
O O9 0.686509 0.766734 0.324936
O O10 0.770498 0.240400 0.014390
O O11 0.500000 0.000000 0.000000
O O12 0.230783 0.327746 0.828335
O O13 0.964956 0.412231 0.137807
O O14 0.874399 0.719315 0.767962
O O15 0.500000 0.500000 0.500000
O O16 0.774100 0.584202 0.643923
O O17 0.000000 0.000000 0.500000
O O18 0.000000 0.000000 0.000000
#
# Coordination Sequence:
#
# PCOD9039885 Si02
#       8
#     2   2   2   2   2   2   2   2
#     4  10  24  44  68 101 129 167 228 283 329 392
#     4  11  24  44  69  97 128 175 230 274 336 388
#     4  11  20  38  65 101 134 167 219 268 337 401
#     4  10  23  42  72 100 129 174 221 282 334 394
#     4  11  24  39  65  95 136 183 209 279 333 396
#     4  11  23  38  67  98 134 174 216 274 334 401
#     4  11  25  41  58  95 142 177 224 262 337 406
#     4  11  27  46  68  95 134 179 227 276 335 396
#
# _framework density 20.351925000000001
#
# number of rings (size 3 to 8) (size 9 to 14) (size 15 to 20)
#    0.000    1.250    2.500    3.000    8.750    3.500 
#    0.000    0.000    0.000    0.000    0.000    0.000 
#    0.000    0.000    0.000    0.000    0.000    0.000 
#
# Total GULP energy -89262.391457 kJ/mol
# GULP energy per Si atom -5578.899466 kJ/mol
# Density = 2.030560 g / cm^3
# Si number density = 20.351925 Si / 1000 Ang^3
#
#
#
# Elastic Constant Matrix: (Units=GPa)
#
#
# Indices 1 2 3 4 5 6 
#
# 1 84.7198 54.0602 39.1895 -7.0909 -23.9514 16.3152
# 2 54.0602 145.8926 52.9535 3.5977 -7.9811 20.9932
# 3 39.1895 52.9535 139.4009 3.0974 -26.5407 2.0361
# 4 -7.0909 3.5977 3.0974 29.2877 0.6363 0.8734
# 5 -23.9514 -7.9811 -26.5407 0.6363 33.2273 -0.8708
# 6 16.3152 20.9932 2.0361 0.8734 -0.8708 39.3387
#
#
#
# Elastic Compliance Matrix: (Units=1/GPa)
#
#
# Indices 1 2 3 4 5 6 
#
# 1 0.021470 -0.006144 -0.001343 0.005981 0.012671 -0.005408
# 2 -0.006144 0.010450 -0.002973 -0.002276 -0.004326 -0.002920
# 3 -0.001343 -0.002973 0.009876 -0.001194 0.006276 0.001798
# 4 0.005981 -0.002276 -0.001194 0.036011 0.002070 -0.001958
# 5 0.012671 -0.004326 0.006276 0.002070 0.043102 -0.002363
# 6 -0.005408 -0.002920 0.001798 -0.001958 -0.002363 0.029119
#
#
# Mechanical properties :
#
#
# Convention : Reuss Voigt Hill
#
# Bulk Modulus (GPa) = 47.90407 73.60219 60.75313
# Shear Modulus (GPa) = 28.10466 35.29143 31.69804
#
# Velocity S-wave (km/s) = 3.72012 4.16872 3.95079
# Velocity P-wave (km/s) = 6.48393 7.70806 7.12234
#
# Compressibility (1/GPa) = 0.02087505
#
# Stress axis : x y z
#
# Youngs Moduli (GPa) = 46.57634 95.69745 101.26036
#
# Poissons Ratio (x) = 0.58799 0.13602
# Poissons Ratio (y) = 0.28618 0.30101
# Poissons Ratio (z) = 0.06256 0.28447
#
# Static dielectric constant tensor:
#      x y z
#    x 1.718610 0.000380 0.014390 
#    y 0.000380 1.779250 -0.087570 
#    z 0.014390 -0.087570 1.698420 
# 
# From -- ./inp_files/532280.got.cif
#   From: 2010.05.17/outbox.cif.g08.bks.cpg/sg2_267_cif.got.tgz:532280.got - 2010.06.03 11:33:40.
