data_PCOD9039774
_publ_section_title
;
Structure prediction by ZEFSAII (Michael W. Deem and Ramdas Pophale) SiO2 
 PCOD9039774
Probable space group: P -1
;
_chemical_formula_sum "Si O2"
_cell_formula_units_Z 16
_cell_length_a 5.135805
_cell_length_b 15.383182
_cell_length_c 9.249699
_cell_angle_alpha 74.284464
_cell_angle_beta 87.813824
_cell_angle_gamma 109.730760
_cell_volume 655.347958
_symmetry_space_group_name_H-M "P -1"
_symmetry_group_IT_number 2
_symmetry_cell_setting 'triclinic'
loop_
_space_group_symop_operation_xyz
x,y,z
-x,-y,-z
loop_
_atom_site_type_symbol
_atom_site_label
_atom_site_fract_x
_atom_site_fract_y
_atom_site_fract_z
Si Si1 0.815965 0.385166 0.712502
Si Si2 0.638401 0.412616 0.393225
Si Si3 0.173179 0.791073 0.044024
Si Si4 0.931927 0.125553 0.422056
Si Si5 0.319723 0.490703 0.148095
Si Si6 0.361620 0.071491 0.616208
Si Si7 0.157682 0.697804 0.780260
Si Si8 0.232433 0.104154 0.922533
O O1 0.642922 0.380222 0.572512
O O2 0.870558 0.288843 0.792352
O O3 0.653470 0.405235 0.843816
O O4 0.093525 0.484147 0.662105
O O5 0.398684 0.442373 0.311431
O O6 0.646519 0.323794 0.334176
O O7 0.464687 0.878766 0.025778
O O8 0.905647 0.822538 0.042910
O O9 0.226108 0.746812 0.911863
O O10 0.688287 0.099592 0.561511
O O11 0.984572 0.233645 0.322958
O O12 0.206345 0.108231 0.476790
O O13 0.787013 0.045591 0.336980
O O14 0.028907 0.413707 0.138277
O O15 0.500000 0.500000 0.000000
O O16 0.292661 0.113476 0.745974
O O17 0.000000 0.000000 0.000000
#
# Coordination Sequence:
#
# PCOD9039774 Si02
#       8
#     2   2   2   2   2   2   2   2
#     4  10  24  44  65 106 135 189 237 291 352 422
#     4  10  23  43  69  95 147 180 237 294 354 411
#     4  12  28  45  75 103 143 188 240 290 352 435
#     4  10  23  42  71 100 138 176 232 287 346 426
#     4  11  23  42  70  98 146 186 234 293 358 420
#     4  10  23  45  68 100 136 182 225 292 355 404
#     4  11  26  41  66 105 134 187 237 288 353 417
#     4  12  28  48  73 103 145 187 236 295 360 420
#
# _framework density 24.414508000000001
#
# number of rings (size 3 to 8) (size 9 to 14) (size 15 to 20)
#    0.000    1.250    0.000    3.750   10.500    5.000 
#    0.000    0.000    0.000    0.000    0.000    0.000 
#    0.000    0.000    0.000    0.000    0.000    0.000 
#
# Total GULP energy -89426.484299 kJ/mol
# GULP energy per Si atom -5589.155269 kJ/mol
# Density = 2.435894 g / cm^3
# Si number density = 24.414508 Si / 1000 Ang^3
#
#
#
# Elastic Constant Matrix: (Units=GPa)
#
#
# Indices 1 2 3 4 5 6 
#
# 1 64.4570 18.8320 1.8237 8.4398 -0.9388 -5.8189
# 2 18.8320 92.4104 22.6055 3.5523 -5.7405 -7.5938
# 3 1.8237 22.6055 67.3737 20.8587 -8.1852 5.2464
# 4 8.4398 3.5523 20.8587 42.1461 -7.9626 6.2719
# 5 -0.9388 -5.7405 -8.1852 -7.9626 26.9803 -1.3710
# 6 -5.8189 -7.5938 5.2464 6.2719 -1.3710 41.3538
#
#
#
# Elastic Compliance Matrix: (Units=1/GPa)
#
#
# Indices 1 2 3 4 5 6 
#
# 1 0.017326 -0.003697 0.001921 -0.004593 -0.000846 0.002184
# 2 -0.003697 0.012979 -0.004838 0.002066 0.001888 0.002226
# 3 0.001921 -0.004838 0.019605 -0.009008 0.002242 -0.001665
# 4 -0.004593 0.002066 -0.009008 0.030674 0.006419 -0.003563
# 5 -0.000846 0.001888 0.002242 0.006419 0.040026 0.000297
# 6 0.002184 0.002226 -0.001665 -0.003563 0.000297 0.025659
#
#
# Mechanical properties :
#
#
# Convention : Reuss Voigt Hill
#
# Bulk Modulus (GPa) = 27.26238 34.52930 30.89584
# Shear Modulus (GPa) = 29.11615 34.16138 31.63877
#
# Velocity S-wave (km/s) = 3.45712 3.74468 3.60377
# Velocity P-wave (km/s) = 5.20829 5.73328 5.47708
#
# Compressibility (1/GPa) = 0.03668058
#
# Stress axis : x y z
#
# Youngs Moduli (GPa) = 57.71554 77.04688 51.00748
#
# Poissons Ratio (x) = 0.28486 -0.09798
# Poissons Ratio (y) = 0.21339 0.24680
# Poissons Ratio (z) = -0.11086 0.37279
#
# Static dielectric constant tensor:
#      x y z
#    x 2.046340 0.028590 -0.139000 
#    y 0.028590 1.966350 -0.097130 
#    z -0.139000 -0.097130 2.182190 
# 
# From -- ./inp_files/98038.got.cif
#   From: 2010.05.17/outbox.cif.g08.bks.cpg/sg2_50_cif.got.tgz:98038.got - 2010.06.03 11:33:40.
