data_PCOD9039533
_publ_section_title
;
Structure prediction by ZEFSAII (Michael W. Deem and Ramdas Pophale) SiO2 
 PCOD9039533
Probable space group: P -1
;
_chemical_formula_sum "Si O2"
_cell_formula_units_Z 10
_cell_length_a 23.541379
_cell_length_b 11.451475
_cell_length_c 13.840540
_cell_angle_alpha 20.935175
_cell_angle_beta 161.240347
_cell_angle_gamma 157.408431
_cell_volume 403.441366
_symmetry_space_group_name_H-M "P -1"
_symmetry_group_IT_number 2
_symmetry_cell_setting 'triclinic'
loop_
_space_group_symop_operation_xyz
x,y,z
-x,-y,-z
loop_
_atom_site_type_symbol
_atom_site_label
_atom_site_fract_x
_atom_site_fract_y
_atom_site_fract_z
Si Si1 0.181563 0.802010 0.024367
Si Si2 0.567724 0.180038 0.322747
Si Si3 0.165383 0.547374 0.804028
Si Si4 0.617342 0.887675 0.429182
Si Si5 0.970237 0.608865 0.640066
O O1 0.130169 0.764576 0.857006
O O2 0.141981 0.126693 0.755588
O O3 0.000000 0.500000 0.000000
O O4 0.399643 0.847017 0.353526
O O5 0.788277 0.268228 0.636854
O O6 0.550942 0.097546 0.243834
O O7 0.500000 0.500000 0.000000
O O8 0.000000 0.500000 0.500000
O O9 0.083370 0.608095 0.726900
O O10 0.322193 0.867200 0.756527
O O11 0.224915 0.214183 0.177921
O O12 0.500000 0.500000 0.500000
#
# Coordination Sequence:
#
# PCOD9039533 Si02
#       5
#     2   2   2   2   2
#     4  10  23  42  69 100 138 192 245 308 364 442
#     4  10  23  47  68 105 145 191 248 302 374 441
#     4  12  26  47  76 108 152 198 248 307 381 449
#     4  12  27  48  76 112 150 198 251 313 372 452
#     4  10  23  43  68  99 146 187 246 300 375 437
#
# _framework density 24.786749
#
# number of rings (size 3 to 8) (size 9 to 14) (size 15 to 20)
#    0.000    1.200    2.000    2.400    5.600    0.800 
#    7.200    0.000    0.000    0.000    0.000    0.000 
#    0.000    0.000    0.000    0.000    0.000    0.000 
#
# Total GULP energy -55704.092429 kJ/mol
# GULP energy per Si atom -5570.409243 kJ/mol
# Density = 2.473033 g / cm^3
# Si number density = 24.786749 Si / 1000 Ang^3
#
#
#
# Elastic Constant Matrix: (Units=GPa)
#
#
# Indices 1 2 3 4 5 6 
#
# 1 42.4878 -104.8819 128.3304 -114.2167 135.9254 84.6424
# 2 -104.8819 -47.0837 103.0488 -101.1405 134.6265 118.3419
# 3 128.3304 103.0488 51.8596 56.5900 -46.4045 -38.0853
# 4 -114.2167 -101.1405 56.5900 -51.6683 74.7933 66.0189
# 5 135.9254 134.6265 -46.4045 74.7933 -38.9372 -71.0303
# 6 84.6424 118.3419 -38.0853 66.0189 -71.0303 -0.9143
#
#
#
# Elastic Compliance Matrix: (Units=1/GPa)
#
#
# Indices 1 2 3 4 5 6 
#
# 1 0.006432 -0.004729 -0.002364 0.000539 0.001494 0.004638
# 2 -0.004729 0.010220 0.001719 -0.011476 -0.000160 -0.002798
# 3 -0.002364 0.001719 0.012058 0.001311 -0.005136 -0.004947
# 4 0.000539 -0.011476 0.001311 0.037153 0.015232 0.009195
# 5 0.001494 -0.000160 -0.005136 0.015232 0.018455 -0.002243
# 6 0.004638 -0.002798 -0.004947 0.009195 -0.002243 0.017715
#
#
# Mechanical properties :
#
#
# Convention : Reuss Voigt Hill
#
# Bulk Modulus (GPa) = 55.67451 33.36204 44.51827
# Shear Modulus (GPa) = 42.09884 -23.58620 9.25632
#
# Velocity S-wave (km/s) = 4.12569 -3.08809 1.93455
# Velocity P-wave (km/s) = 6.72348 0.87964 4.79474
#
# Compressibility (1/GPa) = 0.01796154
#
# Stress axis : x y z
#
# Youngs Moduli (GPa) = 155.47847 97.84399 82.93556
#
# Poissons Ratio (x) = 0.46269 0.19607
# Poissons Ratio (y) = 0.73524 -0.14256
# Poissons Ratio (z) = 0.36756 -0.16818
#
# Static dielectric constant tensor:
#      x y z
#    x 2.077920 0.199410 -0.098270 
#    y 0.199410 3.427050 -0.587160 
#    z -0.098270 -0.587160 2.382470 
# 
# From -- ./inp_files/18252.got.cif
#   From: 2010.05.17/outbox.cif.g08.bks.cpg/sg2_10_cif.got.tgz:18252.got - 2010.06.03 11:33:40.
