data_PCOD9039390
_publ_section_title
;
Structure prediction by ZEFSAII (Michael W. Deem and Ramdas Pophale) SiO2 
 PCOD9039390
Probable space group: P -1
;
_chemical_formula_sum "Si O2"
_cell_formula_units_Z 16
_cell_length_a 17.865816
_cell_length_b 14.538505
_cell_length_c 8.617737
_cell_angle_alpha 138.645960
_cell_angle_beta 137.218639
_cell_angle_gamma 29.462599
_cell_volume 704.812930
_symmetry_space_group_name_H-M "P -1"
_symmetry_group_IT_number 2
_symmetry_cell_setting 'triclinic'
loop_
_space_group_symop_operation_xyz
x,y,z
-x,-y,-z
loop_
_atom_site_type_symbol
_atom_site_label
_atom_site_fract_x
_atom_site_fract_y
_atom_site_fract_z
Si Si1 0.891277 0.250889 0.235491
Si Si2 0.412689 0.946469 0.222515
Si Si3 0.874538 0.965687 0.952449
Si Si4 0.041847 0.325259 0.748202
Si Si5 0.601002 0.537077 0.574473
Si Si6 0.398465 0.498492 0.113490
Si Si7 0.952950 0.203179 0.699323
Si Si8 0.377978 0.999045 0.874519
O O1 0.054780 0.104371 0.201833
O O2 0.905621 0.389983 0.511209
O O3 0.752043 0.351311 0.030466
O O4 0.869213 0.140097 0.178142
O O5 0.500000 0.000000 0.500000
O O6 0.278121 0.988925 0.176227
O O7 0.538213 0.711928 0.084941
O O8 0.356170 0.035489 0.074243
O O9 0.003968 0.796323 0.058410
O O10 0.217531 0.175969 0.761845
O O11 0.065388 0.178882 0.720475
O O12 0.000000 0.500000 0.000000
O O13 0.537498 0.485114 0.285304
O O14 0.632056 0.448878 0.683788
O O15 0.780510 0.413483 0.656297
O O16 0.465416 0.774190 0.687147
O O17 0.000000 0.000000 0.500000
O O18 0.500000 0.000000 0.000000
#
# Coordination Sequence:
#
# PCOD9039390 Si02
#       8
#     2   2   2   2   2   2   2   2
#     4  11  26  43  72 105 139 180 239 301 354 418
#     4  11  26  46  69  99 142 190 231 290 361 426
#     4  11  24  45  71 104 138 185 235 296 357 422
#     4  12  28  46  72 105 143 188 242 297 365 432
#     4  10  23  42  71 102 137 185 232 290 359 424
#     4  10  23  42  68 102 139 177 233 289 354 419
#     4  12  22  44  73 102 142 186 237 289 358 432
#     4  11  26  47  70  99 139 188 238 292 355 431
#
# _framework density 22.701059000000001
#
# number of rings (size 3 to 8) (size 9 to 14) (size 15 to 20)
#    0.000    1.000    3.750    1.500   10.500    0.500 
#    0.000    1.250    0.000    0.000    0.000    0.000 
#    0.000    0.000    0.000    0.000    0.000    0.000 
#
# Total GULP energy -89163.255993 kJ/mol
# GULP energy per Si atom -5572.703500 kJ/mol
# Density = 2.264939 g / cm^3
# Si number density = 22.701059 Si / 1000 Ang^3
#
#
#
# Elastic Constant Matrix: (Units=GPa)
#
#
# Indices 1 2 3 4 5 6 
#
# 1 97.1614 -2.6485 21.4679 -11.3571 18.0901 -14.6811
# 2 -2.6485 73.9586 42.5519 -21.2875 6.1637 -8.3722
# 3 21.4679 42.5519 164.6012 -11.4628 23.7773 -4.6920
# 4 -11.3571 -21.2875 -11.4628 42.4328 -1.5679 6.7108
# 5 18.0901 6.1637 23.7773 -1.5679 32.6175 -2.5087
# 6 -14.6811 -8.3722 -4.6920 6.7108 -2.5087 30.8339
#
#
#
# Elastic Compliance Matrix: (Units=1/GPa)
#
#
# Indices 1 2 3 4 5 6 
#
# 1 0.013158 0.003461 -0.001259 0.003785 -0.006416 0.005667
# 2 0.003461 0.019342 -0.004502 0.008692 -0.001552 0.004197
# 3 -0.001259 -0.004502 0.007975 -0.000466 -0.004353 -0.000861
# 4 0.003785 0.008692 -0.000466 0.029117 -0.002189 -0.002424
# 5 -0.006416 -0.001552 -0.004353 -0.002189 0.037532 -0.000609
# 6 0.005667 0.004197 -0.000861 -0.002424 -0.000609 0.036617
#
#
# Mechanical properties :
#
#
# Convention : Reuss Voigt Hill
#
# Bulk Modulus (GPa) = 27.87492 50.94041 39.40767
# Shear Modulus (GPa) = 31.19172 39.46684 35.32928
#
# Velocity S-wave (km/s) = 3.71080 4.17411 3.94926
# Velocity P-wave (km/s) = 5.53767 6.76161 6.18001
#
# Compressibility (1/GPa) = 0.03587454
#
# Stress axis : x y z
#
# Youngs Moduli (GPa) = 75.99956 51.70157 125.38711
#
# Poissons Ratio (x) = -0.17894 0.15785
# Poissons Ratio (y) = -0.26304 0.56455
# Poissons Ratio (z) = 0.09568 0.23278
#
# Static dielectric constant tensor:
#      x y z
#    x 1.933950 -0.088790 -0.037970 
#    y -0.088790 1.861930 0.005060 
#    z -0.037970 0.005060 1.922410 
# 
# From -- ./inp_files/335824.got.cif
#   From: 2010.05.17/outbox.cif.g08.bks.cpg/sg2_168_cif.got.tgz:335824.got - 2010.06.03 11:33:40.
