data_PCOD9039596
_publ_section_title
;
Structure prediction by ZEFSAII (Michael W. Deem and Ramdas Pophale) SiO2 
 PCOD9039596
Probable space group: P -1
;
_chemical_formula_sum "Si O2"
_cell_formula_units_Z 16
_cell_length_a 9.631627
_cell_length_b 23.878760
_cell_length_c 8.016413
_cell_angle_alpha 54.260718
_cell_angle_beta 98.308453
_cell_angle_gamma 53.065450
_cell_volume 772.221615
_symmetry_space_group_name_H-M "P -1"
_symmetry_group_IT_number 2
_symmetry_cell_setting 'triclinic'
loop_
_space_group_symop_operation_xyz
x,y,z
-x,-y,-z
loop_
_atom_site_type_symbol
_atom_site_label
_atom_site_fract_x
_atom_site_fract_y
_atom_site_fract_z
Si Si1 0.165515 0.873532 0.650986
Si Si2 0.132069 0.099096 0.690193
Si Si3 0.132298 0.561426 0.542256
Si Si4 0.557846 0.012683 0.740391
Si Si5 0.112553 0.713991 0.398693
Si Si6 0.998594 0.479553 0.845300
Si Si7 0.474893 0.637264 0.330165
Si Si8 0.344653 0.234114 0.152765
O O1 0.429817 0.802696 0.762766
O O2 0.003437 0.908142 0.410034
O O3 0.248521 0.777346 0.956568
O O4 0.000000 0.000000 0.500000
O O5 0.302449 0.072716 0.634906
O O6 0.913491 0.237781 0.510165
O O7 0.345874 0.991546 0.061130
O O8 0.146692 0.617738 0.577020
O O9 0.134011 0.485058 0.755617
O O10 0.365543 0.469577 0.603076
O O11 0.849824 0.686423 0.178229
O O12 0.479371 0.104543 0.438924
O O13 0.821486 0.856468 0.018436
O O14 0.341069 0.648789 0.432360
O O15 0.699271 0.593143 0.526032
O O16 0.154139 0.342624 0.078579
O O17 0.000000 0.500000 0.000000
#
# Coordination Sequence:
#
# PCOD9039596 Si02
#       8
#     2   2   2   2   2   2   2   2
#     4  12  25  40  68  97 131 173 210 280 327 383
#     4   9  24  44  62  98 137 167 221 268 326 391
#     4  11  23  45  67  96 132 175 217 268 323 392
#     4   9  22  43  66  95 130 173 219 267 325 386
#     4  10  23  42  69  93 134 174 214 273 323 385
#     4  11  25  42  70  93 131 177 218 265 327 394
#     4  11  23  45  60 103 131 165 226 265 328 386
#     4  11  23  42  67  95 132 171 220 268 324 389
#
# _framework density 20.719439999999999
#
# number of rings (size 3 to 8) (size 9 to 14) (size 15 to 20)
#    0.750    0.750    2.500    1.875    7.000    2.000 
#    0.000    1.250    0.000    0.000    0.000    0.000 
#    0.000    0.000    0.000    0.000    0.000    0.000 
#
# Total GULP energy -89333.156838 kJ/mol
# GULP energy per Si atom -5583.322302 kJ/mol
# Density = 2.067228 g / cm^3
# Si number density = 20.719440 Si / 1000 Ang^3
#
#
#
# Elastic Constant Matrix: (Units=GPa)
#
#
# Indices 1 2 3 4 5 6 
#
# 1 81.5919 37.1364 5.4641 -14.8994 9.7132 -8.0281
# 2 37.1364 94.4875 10.6147 -5.3266 18.2477 13.8677
# 3 5.4641 10.6147 43.4535 -14.6971 -1.5112 9.4017
# 4 -14.8994 -5.3266 -14.6971 20.4515 1.3532 0.1804
# 5 9.7132 18.2477 -1.5112 1.3532 21.7474 -2.4044
# 6 -8.0281 13.8677 9.4017 0.1804 -2.4044 32.4752
#
#
#
# Elastic Compliance Matrix: (Units=1/GPa)
#
#
# Indices 1 2 3 4 5 6 
#
# 1 0.018985 -0.007611 0.002540 0.013745 -0.002000 0.006984
# 2 -0.007611 0.017550 -0.002246 -0.001679 -0.012443 -0.009638
# 3 0.002540 -0.002246 0.033674 0.025499 0.000590 -0.008260
# 4 0.013745 -0.001679 0.025499 0.077381 -0.008249 -0.004308
# 5 -0.002000 -0.012443 0.000590 -0.008249 0.058872 0.009053
# 6 0.006984 -0.009638 -0.008260 -0.004308 0.009053 0.039720
#
#
# Mechanical properties :
#
#
# Convention : Reuss Voigt Hill
#
# Bulk Modulus (GPa) = 17.99302 36.21816 27.10559
# Shear Modulus (GPa) = 17.89930 26.02268 21.96099
#
# Velocity S-wave (km/s) = 2.94239 3.54779 3.25918
# Velocity P-wave (km/s) = 4.49961 5.85668 5.22241
#
# Compressibility (1/GPa) = 0.05557710
#
# Stress axis : x y z
#
# Youngs Moduli (GPa) = 52.67205 56.98008 29.69628
#
# Poissons Ratio (x) = 0.43368 -0.07544
# Poissons Ratio (y) = 0.40089 0.06668
# Poissons Ratio (z) = -0.13380 0.12795
#
# Static dielectric constant tensor:
#      x y z
#    x 1.717730 -0.017900 0.028980 
#    y -0.017900 1.786580 -0.021280 
#    z 0.028980 -0.021280 1.766180 
# 
# From -- ./inp_files/226141.got.cif
#   From: 2010.05.17/outbox.cif.g08.bks.cpg/sg2_114_cif.got.tgz:226141.got - 2010.06.03 11:33:40.
