data_PCOD9039375
_publ_section_title
;
Structure prediction by ZEFSAII (Michael W. Deem and Ramdas Pophale) SiO2 
 PCOD9039375
Probable space group: P -1
;
_chemical_formula_sum "Si O2"
_cell_formula_units_Z 15
_cell_length_a 11.953009
_cell_length_b 9.667800
_cell_length_c 9.011057
_cell_angle_alpha 88.494604
_cell_angle_beta 97.934951
_cell_angle_gamma 143.122371
_cell_volume 612.680645
_symmetry_space_group_name_H-M "P -1"
_symmetry_group_IT_number 2
_symmetry_cell_setting 'triclinic'
loop_
_space_group_symop_operation_xyz
x,y,z
-x,-y,-z
loop_
_atom_site_type_symbol
_atom_site_label
_atom_site_fract_x
_atom_site_fract_y
_atom_site_fract_z
Si Si1 0.929398 0.051669 0.088956
Si Si2 0.557548 0.011296 0.707654
Si Si3 0.393181 0.089101 0.979350
Si Si4 0.666908 0.433574 0.770235
Si Si5 0.829735 0.274331 0.317275
Si Si6 0.500000 0.500000 0.500000
Si Si7 0.146856 0.200039 0.644187
Si Si8 0.908367 0.228308 0.634833
O O1 0.111398 0.318337 0.167783
O O2 0.761929 0.963573 0.974723
O O3 0.834312 0.893363 0.221582
O O4 0.000000 0.000000 0.000000
O O5 0.633307 0.244091 0.708248
O O6 0.690040 0.029847 0.649414
O O7 0.337312 0.803640 0.627195
O O8 0.549936 0.958386 0.879759
O O9 0.565104 0.330392 0.917044
O O10 0.268552 0.897927 0.831091
O O11 0.574785 0.458177 0.644732
O O12 0.910561 0.251426 0.456529
O O13 0.986283 0.535392 0.285228
O O14 0.345643 0.413757 0.592137
O O15 0.035475 0.221330 0.691567
O O16 0.000000 0.000000 0.500000
#
# Coordination Sequence:
#
# PCOD9039375 Si02
#       8
#     2   2   2   2   2   1   2   2
#     4  12  26  44  69 103 143 183 231 287 344 415
#     4  11  25  44  75 103 138 183 230 293 345 413
#     4  11  24  47  69 100 140 185 234 279 349 416
#     4  11  25  45  74 102 137 187 233 281 352 412
#     4  10  23  42  68 101 139 176 228 295 347 411
#     4  12  26  46  76 100 136 192 236 284 336 424
#     4  12  26  46  70 103 139 190 233 280 346 416
#     4  11  25  42  69 106 138 176 233 293 352 402
#
# _framework density 24.482578
#
# number of rings (size 3 to 8) (size 9 to 14) (size 15 to 20)
#    0.000    0.800    2.667    4.400    5.600    6.933 
#    2.400    0.000    0.000    0.000    0.000    0.000 
#    0.000    0.000    0.000    0.000    0.000    0.000 
#
# Total GULP energy -83685.516481 kJ/mol
# GULP energy per Si atom -5579.034432 kJ/mol
# Density = 2.442685 g / cm^3
# Si number density = 24.482578 Si / 1000 Ang^3
#
#
#
# Elastic Constant Matrix: (Units=GPa)
#
#
# Indices 1 2 3 4 5 6 
#
# 1 154.0761 11.0700 9.5433 -17.5230 14.1282 17.2943
# 2 11.0700 54.1565 22.5569 -19.0712 7.3208 16.7808
# 3 9.5433 22.5569 85.4426 -26.6232 19.1010 -11.9145
# 4 -17.5230 -19.0712 -26.6232 18.4730 -3.4619 0.0068
# 5 14.1282 7.3208 19.1010 -3.4619 52.1542 -11.4104
# 6 17.2943 16.7808 -11.9145 0.0068 -11.4104 27.4555
#
#
#
# Elastic Compliance Matrix: (Units=1/GPa)
#
#
# Indices 1 2 3 4 5 6 
#
# 1 0.010573 0.010534 0.003030 0.023948 -0.007086 -0.014735
# 2 0.010534 0.056488 0.002732 0.068975 -0.017550 -0.047286
# 3 0.003030 0.002732 0.025798 0.041589 -0.006851 0.004759
# 4 0.023948 0.068975 0.041589 0.202543 -0.029197 -0.051380
# 5 -0.007086 -0.017550 -0.006851 -0.029197 0.029483 0.024478
# 6 -0.014735 -0.047286 0.004759 -0.051380 0.024478 0.086856
#
#
# Mechanical properties :
#
#
# Convention : Reuss Voigt Hill
#
# Bulk Modulus (GPa) = 7.97130 42.22396 25.09763
# Shear Modulus (GPa) = 11.87743 36.31687 24.09715
#
# Velocity S-wave (km/s) = 2.20497 3.85564 3.14069
# Velocity P-wave (km/s) = 3.12178 6.09141 4.83998
#
# Compressibility (1/GPa) = 0.12545012
#
# Stress axis : x y z
#
# Youngs Moduli (GPa) = 94.57980 17.70303 38.76285
#
# Poissons Ratio (x) = -0.18648 -0.11744
# Poissons Ratio (y) = -0.99627 -0.10592
# Poissons Ratio (z) = -0.28655 -0.04837
#
# Static dielectric constant tensor:
#      x y z
#    x 2.083410 -0.012860 -0.049650 
#    y -0.012860 1.958940 -0.021400 
#    z -0.049650 -0.021400 1.926550 
# 
# From -- ./inp_files/243607.got.cif
#   From: 2010.05.17/outbox.cif.g08.bks.cpg/sg2_122_cif.got.tgz:243607.got - 2010.06.03 11:33:40.
