data_PCOD9039958
_publ_section_title
;
Structure prediction by ZEFSAII (Michael W. Deem and Ramdas Pophale) SiO2 
 PCOD9039958
Probable space group: P -1
;
_chemical_formula_sum "Si O2"
_cell_formula_units_Z 13
_cell_length_a 12.606068
_cell_length_b 9.132816
_cell_length_c 4.943583
_cell_angle_alpha 74.325064
_cell_angle_beta 83.110501
_cell_angle_gamma 108.776599
_cell_volume 505.276381
_symmetry_space_group_name_H-M "P -1"
_symmetry_group_IT_number 2
_symmetry_cell_setting 'triclinic'
loop_
_space_group_symop_operation_xyz
x,y,z
-x,-y,-z
loop_
_atom_site_type_symbol
_atom_site_label
_atom_site_fract_x
_atom_site_fract_y
_atom_site_fract_z
Si Si1 0.488436 0.816752 0.520727
Si Si2 0.862503 0.413187 0.135530
Si Si3 0.500000 0.500000 0.000000
Si Si4 0.113736 0.914268 0.782888
Si Si5 0.285106 0.574769 0.342225
Si Si6 0.862877 0.893103 0.807280
Si Si7 0.658849 0.693524 0.325544
O O1 0.382830 0.727323 0.387392
O O2 0.609774 0.831355 0.342614
O O3 0.500000 0.000000 0.500000
O O4 0.481910 0.687042 0.828148
O O5 0.778114 0.418344 0.917576
O O6 0.840730 0.221671 0.254623
O O7 0.820280 0.474220 0.386642
O O8 0.000000 0.500000 0.000000
O O9 0.568198 0.575980 0.208551
O O10 0.979573 0.860064 0.772984
O O11 0.170658 0.074855 0.498452
O O12 0.117107 0.949148 0.083803
O O13 0.334989 0.427301 0.372251
O O14 0.771309 0.758040 0.078246
#
# Coordination Sequence:
#
# PCOD9039958 Si02
#       7
#     2   2   1   2   2   2   2
#     4  11  28  50  78 115 155 209 265 328 389 476
#     4  12  26  46  75 107 149 201 258 314 391 469
#     4  10  24  46  74 108 156 194 256 320 380 472
#     4  10  23  44  65 110 143 187 255 313 373 464
#     4  11  27  46  78 110 156 201 253 325 391 460
#     4  10  23  42  73 100 148 193 242 317 385 449
#     4  11  26  46  78 109 152 207 257 315 400 469
#
# _framework density 25.728497000000001
#
# number of rings (size 3 to 8) (size 9 to 14) (size 15 to 20)
#    0.000    1.231    0.000    4.154   12.923    5.538 
#    0.000    0.000    0.000    0.000    0.000    0.000 
#    0.000    0.000    0.000    0.000    0.000    0.000 
#
# Total GULP energy -72563.861147 kJ/mol
# GULP energy per Si atom -5581.835473 kJ/mol
# Density = 2.566994 g / cm^3
# Si number density = 25.728497 Si / 1000 Ang^3
#
#
#
# Elastic Constant Matrix: (Units=GPa)
#
#
# Indices 1 2 3 4 5 6 
#
# 1 100.7716 39.8563 12.7007 -7.7732 16.9631 -5.1455
# 2 39.8563 142.7015 21.1178 -9.0112 9.6542 -42.0674
# 3 12.7007 21.1178 102.2617 5.0339 35.2900 -4.5759
# 4 -7.7732 -9.0112 5.0339 39.1792 5.6330 -0.8930
# 5 16.9631 9.6542 35.2900 5.6330 40.9782 -0.1634
# 6 -5.1455 -42.0674 -4.5759 -0.8930 -0.1634 47.0018
#
#
#
# Elastic Compliance Matrix: (Units=1/GPa)
#
#
# Indices 1 2 3 4 5 6 
#
# 1 0.012184 -0.003544 0.000842 0.002208 -0.005244 -0.001732
# 2 -0.003544 0.011181 -0.001505 0.002300 -0.000150 0.009516
# 3 0.000842 -0.001505 0.014210 -0.000249 -0.012197 0.000082
# 4 0.002208 0.002300 -0.000249 0.027303 -0.004983 0.002778
# 5 -0.005244 -0.000150 -0.012197 -0.004983 0.037791 -0.001859
# 6 -0.001732 0.009516 0.000082 0.002778 -0.001859 0.029657
#
#
# Mechanical properties :
#
#
# Convention : Reuss Voigt Hill
#
# Bulk Modulus (GPa) = 34.29149 54.78716 44.53933
# Shear Modulus (GPa) = 33.23183 43.56917 38.40050
#
# Velocity S-wave (km/s) = 3.59783 4.11958 3.86752
# Velocity P-wave (km/s) = 5.53320 6.63088 6.10675
#
# Compressibility (1/GPa) = 0.02916175
#
# Stress axis : x y z
#
# Youngs Moduli (GPa) = 82.07731 89.44064 70.37281
#
# Poissons Ratio (x) = 0.31697 -0.05927
# Poissons Ratio (y) = 0.29088 0.10588
# Poissons Ratio (z) = -0.06913 0.13457
#
# Static dielectric constant tensor:
#      x y z
#    x 2.104840 -0.121530 -0.233660 
#    y -0.121530 2.165880 0.122730 
#    z -0.233660 0.122730 2.292880 
# 
# From -- ./inp_files/58935.got.cif
#   From: 2010.05.17/outbox.cif.g08.bks.cpg/sg2_30_cif.got.tgz:58935.got - 2010.06.03 11:33:40.
