data_PCOD9039471
_publ_section_title
;
Structure prediction by ZEFSAII (Michael W. Deem and Ramdas Pophale) SiO2 
 PCOD9039471
Probable space group: P -1
;
_chemical_formula_sum "Si O2"
_cell_formula_units_Z 16
_cell_length_a 5.396354
_cell_length_b 17.603254
_cell_length_c 9.232361
_cell_angle_alpha 52.356360
_cell_angle_beta 89.102420
_cell_angle_gamma 84.823267
_cell_volume 690.742648
_symmetry_space_group_name_H-M "P -1"
_symmetry_group_IT_number 2
_symmetry_cell_setting 'triclinic'
loop_
_space_group_symop_operation_xyz
x,y,z
-x,-y,-z
loop_
_atom_site_type_symbol
_atom_site_label
_atom_site_fract_x
_atom_site_fract_y
_atom_site_fract_z
Si Si1 0.817595 0.211022 0.473918
Si Si2 0.052615 0.088983 0.059118
Si Si3 0.796332 0.624193 0.364769
Si Si4 0.964780 0.492777 0.757886
Si Si5 0.275178 0.586098 0.893119
Si Si6 0.227294 0.098050 0.743572
Si Si7 0.647328 0.018967 0.618393
Si Si8 0.279456 0.744462 0.249101
O O1 0.700886 0.305022 0.281332
O O2 0.778244 0.116902 0.490118
O O3 0.698410 0.219063 0.627559
O O4 0.109892 0.190711 0.544859
O O5 0.183824 0.077809 0.224842
O O6 0.232896 0.115240 0.895233
O O7 0.974002 0.980875 0.168439
O O8 0.814341 0.165051 0.955217
O O9 0.845095 0.555652 0.305323
O O10 0.542051 0.690423 0.267266
O O11 0.772737 0.561332 0.583532
O O12 0.050066 0.676782 0.322121
O O13 0.093853 0.553536 0.806438
O O14 0.843527 0.414135 0.945857
O O15 0.500000 0.500000 0.000000
O O16 0.464849 0.046167 0.724092
O O17 0.500000 0.000000 0.500000
#
# Coordination Sequence:
#
# PCOD9039471 Si02
#       8
#     2   2   2   2   2   2   2   2
#     4  10  23  42  68  97 132 189 240 286 351 430
#     4   9  21  40  65  99 125 178 229 288 338 423
#     4  11  25  45  72 107 142 182 235 302 354 409
#     4  10  25  43  69 100 141 185 234 294 354 417
#     4  11  23  45  69  98 144 189 237 280 357 426
#     4   9  20  41  66  88 130 174 232 286 345 410
#     4  11  24  42  67  98 139 184 226 294 354 420
#     4  11  24  42  74 106 138 182 239 295 351 418
#
# _framework density 23.163473
#
# number of rings (size 3 to 8) (size 9 to 14) (size 15 to 20)
#    0.000    1.750    1.250    1.875    7.000    5.000 
#    6.750    0.000    0.000    0.000    0.000    0.000 
#    0.000    0.000    0.000    0.000    0.000    0.000 
#
# Total GULP energy -89335.790146 kJ/mol
# GULP energy per Si atom -5583.486884 kJ/mol
# Density = 2.311075 g / cm^3
# Si number density = 23.163473 Si / 1000 Ang^3
#
#
#
# Elastic Constant Matrix: (Units=GPa)
#
#
# Indices 1 2 3 4 5 6 
#
# 1 71.6091 21.7754 49.4530 -3.9597 21.7501 -17.0623
# 2 21.7754 65.6839 51.5245 -3.3481 16.9581 -0.5471
# 3 49.4530 51.5245 189.3309 -14.7538 44.9590 -6.4385
# 4 -3.9597 -3.3481 -14.7538 34.4154 -5.5496 10.0758
# 5 21.7501 16.9581 44.9590 -5.5496 36.3352 -11.2583
# 6 -17.0623 -0.5471 -6.4385 10.0758 -11.2583 32.0132
#
#
#
# Elastic Compliance Matrix: (Units=1/GPa)
#
#
# Indices 1 2 3 4 5 6 
#
# 1 0.020736 -0.003162 -0.003497 -0.002940 -0.004021 0.009806
# 2 -0.003162 0.020295 -0.003880 0.000379 -0.003832 -0.003585
# 3 -0.003497 -0.003880 0.009357 0.003033 -0.008441 -0.003971
# 4 -0.002940 0.000379 0.003033 0.033368 -0.000698 -0.011698
# 5 -0.004021 -0.003832 -0.008441 -0.000698 0.045915 0.012461
# 6 0.009806 -0.003585 -0.003971 -0.011698 0.012461 0.043667
#
#
# Mechanical properties :
#
#
# Convention : Reuss Voigt Hill
#
# Bulk Modulus (GPa) = 34.11610 63.56996 48.84303
# Shear Modulus (GPa) = 24.48771 34.14415 29.31593
#
# Velocity S-wave (km/s) = 3.25494 3.84350 3.56140
# Velocity P-wave (km/s) = 5.37462 6.87025 6.16794
#
# Compressibility (1/GPa) = 0.02931167
#
# Stress axis : x y z
#
# Youngs Moduli (GPa) = 48.22515 49.27416 106.87744
#
# Poissons Ratio (x) = 0.15578 0.37371
# Poissons Ratio (y) = 0.15247 0.41465
# Poissons Ratio (z) = 0.16862 0.19117
#
# Static dielectric constant tensor:
#      x y z
#    x 1.946620 0.041940 -0.025060 
#    y 0.041940 1.878110 -0.034140 
#    z -0.025060 -0.034140 1.899050 
# 
# From -- ./inp_files/138587.got.cif
#   From: 2010.05.17/outbox.cif.g08.bks.cpg/sg2_70_cif.got.tgz:138587.got - 2010.06.03 11:33:40.
