data_PCOD9039479
_publ_section_title
;
Structure prediction by ZEFSAII (Michael W. Deem and Ramdas Pophale) SiO2 
 PCOD9039479
Probable space group: P -1
;
_chemical_formula_sum "Si O2"
_cell_formula_units_Z 14
_cell_length_a 8.435302
_cell_length_b 13.960744
_cell_length_c 9.339787
_cell_angle_alpha 120.765189
_cell_angle_beta 86.711669
_cell_angle_gamma 134.640937
_cell_volume 584.654024
_symmetry_space_group_name_H-M "P -1"
_symmetry_group_IT_number 2
_symmetry_cell_setting 'triclinic'
loop_
_space_group_symop_operation_xyz
x,y,z
-x,-y,-z
loop_
_atom_site_type_symbol
_atom_site_label
_atom_site_fract_x
_atom_site_fract_y
_atom_site_fract_z
Si Si1 0.584035 0.948342 0.797502
Si Si2 0.186620 0.009506 0.432004
Si Si3 0.369655 0.460162 0.624290
Si Si4 0.169645 0.703565 0.841471
Si Si5 0.386425 0.596363 0.251227
Si Si6 0.791104 0.098126 0.383812
Si Si7 0.535783 0.292299 0.980989
O O1 0.812768 0.010303 0.751739
O O2 0.355221 0.759308 0.748514
O O3 0.429895 0.942956 0.691380
O O4 0.736173 0.116628 0.021125
O O5 0.475645 0.210747 0.587329
O O6 0.170329 0.891856 0.439914
O O7 0.000000 0.000000 0.500000
O O8 0.500000 0.500000 0.500000
O O9 0.427587 0.393757 0.684430
O O10 0.483336 0.631199 0.829006
O O11 0.067652 0.296806 0.476945
O O12 0.247700 0.675421 0.955419
O O13 0.867484 0.542258 0.746739
O O14 0.378321 0.589804 0.073625
O O15 0.704589 0.924718 0.203860
#
# Coordination Sequence:
#
# PCOD9039479 Si02
#       7
#     2   2   2   2   2   2   2
#     4  10  23  42  68  97 138 175 223 285 342 401
#     4  11  23  40  66  98 133 179 220 275 338 403
#     4  12  26  42  68 102 137 184 226 278 344 405
#     4  10  23  43  68 100 129 180 227 281 344 395
#     4  11  24  43  65 101 135 178 229 275 344 403
#     4  10  23  45  64 100 135 178 232 272 346 400
#     4  10  25  43  69  95 140 179 227 285 334 407
#
# _framework density 23.945788
#
# number of rings (size 3 to 8) (size 9 to 14) (size 15 to 20)
#    0.000    1.429    1.429    2.143    6.000    3.429 
#    0.000    0.000    0.000    0.000    0.000    0.000 
#    0.000    0.000    0.000    0.000    0.000    0.000 
#
# Total GULP energy -78039.519301 kJ/mol
# GULP energy per Si atom -5574.251379 kJ/mol
# Density = 2.389129 g / cm^3
# Si number density = 23.945788 Si / 1000 Ang^3
#
#
#
# Elastic Constant Matrix: (Units=GPa)
#
#
# Indices 1 2 3 4 5 6 
#
# 1 64.7658 22.2280 18.5003 -11.6861 3.4327 -2.5390
# 2 22.2280 125.0765 33.7713 -12.0132 -14.9227 20.7068
# 3 18.5003 33.7713 84.2491 -6.9274 -26.2664 12.2456
# 4 -11.6861 -12.0132 -6.9274 30.5074 9.0609 12.3087
# 5 3.4327 -14.9227 -26.2664 9.0609 33.0273 -10.8571
# 6 -2.5390 20.7068 12.2456 12.3087 -10.8571 32.5498
#
#
#
# Elastic Compliance Matrix: (Units=1/GPa)
#
#
# Indices 1 2 3 4 5 6 
#
# 1 0.020098 -0.001947 -0.005966 0.009896 -0.011229 -0.002437
# 2 -0.001947 0.011182 -0.002681 0.007730 -0.002264 -0.009935
# 3 -0.005966 -0.002681 0.018666 -0.004215 0.015762 0.001069
# 4 0.009896 0.007730 -0.004215 0.061950 -0.029681 -0.035886
# 5 -0.011229 -0.002264 0.015762 -0.029681 0.059556 0.025724
# 6 -0.002437 -0.009935 0.001069 -0.035886 0.025724 0.058600
#
#
# Mechanical properties :
#
#
# Convention : Reuss Voigt Hill
#
# Bulk Modulus (GPa) = 34.77209 47.01006 40.89108
# Shear Modulus (GPa) = 19.16982 32.52304 25.84643
#
# Velocity S-wave (km/s) = 2.83247 3.68937 3.28895
# Velocity P-wave (km/s) = 5.02493 6.15005 5.61573
#
# Compressibility (1/GPa) = 0.02875870
#
# Stress axis : x y z
#
# Youngs Moduli (GPa) = 49.75714 89.42951 53.57212
#
# Poissons Ratio (x) = 0.17409 0.31961
# Poissons Ratio (y) = 0.09686 0.14363
# Poissons Ratio (z) = 0.29685 0.23977
#
# Static dielectric constant tensor:
#      x y z
#    x 1.922550 0.014570 -0.072120 
#    y 0.014570 2.022890 -0.161320 
#    z -0.072120 -0.161320 2.178970 
# 
# From -- ./inp_files/208693.got.cif
#   From: 2010.05.17/outbox.cif.g08.bks.cpg/sg2_105_cif.got.tgz:208693.got - 2010.06.03 11:33:40.
