data_PCOD9039987
_publ_section_title
;
Structure prediction by ZEFSAII (Michael W. Deem and Ramdas Pophale) SiO2 
 PCOD9039987
Probable space group: P -1
;
_chemical_formula_sum "Si O2"
_cell_formula_units_Z 12
_cell_length_a 8.267395
_cell_length_b 12.436009
_cell_length_c 9.318612
_cell_angle_alpha 36.690097
_cell_angle_beta 74.838165
_cell_angle_gamma 70.675350
_cell_volume 540.174519
_symmetry_space_group_name_H-M "P -1"
_symmetry_group_IT_number 2
_symmetry_cell_setting 'triclinic'
loop_
_space_group_symop_operation_xyz
x,y,z
-x,-y,-z
loop_
_atom_site_type_symbol
_atom_site_label
_atom_site_fract_x
_atom_site_fract_y
_atom_site_fract_z
Si Si1 0.952637 0.549091 0.625144
Si Si2 0.366864 0.611610 0.024268
Si Si3 0.129376 0.859316 0.299637
Si Si4 0.785814 0.793792 0.992078
Si Si5 0.200476 0.918845 0.520139
Si Si6 0.543304 0.303831 0.775532
O O1 0.000000 0.500000 0.500000
O O2 0.974531 0.757091 0.423437
O O3 0.101953 0.409780 0.826822
O O4 0.774917 0.502158 0.767523
O O5 0.276609 0.798280 0.764236
O O6 0.500000 0.500000 0.000000
O O7 0.456098 0.662059 0.092435
O O8 0.216895 0.797174 0.500802
O O9 0.271115 0.798953 0.210334
O O10 0.099933 0.079512 0.088869
O O11 0.612623 0.794624 0.117309
O O12 0.733354 0.901579 0.739678
O O13 0.000000 0.000000 0.500000
O O14 0.500000 0.500000 0.500000
#
# Coordination Sequence:
#
# PCOD9039987 Si02
#       6
#     2   2   2   2   2   2
#     4  12  23  46  73 103 139 185 242 292 344 430
#     4  12  26  43  72 111 142 182 244 291 355 422
#     4  10  23  42  73  95 136 191 233 279 363 402
#     4  10  24  43  72  97 142 183 237 285 355 420
#     4  10  23  46  67 102 139 188 231 288 356 414
#     4  12  22  44  71 103 144 184 232 294 354 418
#
# _framework density 22.215040999999999
#
# number of rings (size 3 to 8) (size 9 to 14) (size 15 to 20)
#    1.000    0.000    5.000    1.500    0.000    3.333 
#    3.000    0.000    0.000    0.000    0.000    0.000 
#    0.000    0.000    0.000    0.000    0.000    0.000 
#
# Total GULP energy -66978.321111 kJ/mol
# GULP energy per Si atom -5581.526759 kJ/mol
# Density = 2.216448 g / cm^3
# Si number density = 22.215041 Si / 1000 Ang^3
#
#
#
# Elastic Constant Matrix: (Units=GPa)
#
#
# Indices 1 2 3 4 5 6 
#
# 1 68.2832 19.1491 48.4329 -4.6660 -22.3599 -1.4008
# 2 19.1491 77.8294 31.7975 16.6165 -0.6732 -4.4006
# 3 48.4329 31.7975 142.7467 3.2487 -10.3831 3.5797
# 4 -4.6660 16.6165 3.2487 38.9614 3.6946 -3.7042
# 5 -22.3599 -0.6732 -10.3831 3.6946 57.6169 4.0530
# 6 -1.4008 -4.4006 3.5797 -3.7042 4.0530 37.9136
#
#
#
# Elastic Compliance Matrix: (Units=1/GPa)
#
#
# Indices 1 2 3 4 5 6 
#
# 1 0.023110 -0.003821 -0.006564 0.004304 0.007418 0.000658
# 2 -0.003821 0.016284 -0.002308 -0.006944 -0.001364 0.001434
# 3 -0.006564 -0.002308 0.009749 -0.000687 -0.000673 -0.001426
# 4 0.004304 -0.006944 -0.000687 0.029481 -0.000591 0.002361
# 5 0.007418 -0.001364 -0.000673 -0.000591 0.020280 -0.002046
# 6 0.000658 0.001434 -0.001426 0.002361 -0.002046 0.027151
#
#
# Mechanical properties :
#
#
# Convention : Reuss Voigt Hill
#
# Bulk Modulus (GPa) = 42.09668 54.17982 48.13825
# Shear Modulus (GPa) = 31.37560 39.53035 35.45298
#
# Velocity S-wave (km/s) = 3.76221 4.22292 3.99921
# Velocity P-wave (km/s) = 6.15330 6.94400 6.56057
#
# Compressibility (1/GPa) = 0.02375484
#
# Stress axis : x y z
#
# Youngs Moduli (GPa) = 43.27220 61.41165 102.57259
#
# Poissons Ratio (x) = 0.23468 0.67334
# Poissons Ratio (y) = 0.16536 0.23672
# Poissons Ratio (z) = 0.28406 0.14173
#
# Static dielectric constant tensor:
#      x y z
#    x 1.778540 0.005020 0.004400 
#    y 0.005020 1.833510 0.034830 
#    z 0.004400 0.034830 1.827380 
# 
# From -- ./inp_files/167047.got.cif
#   From: 2010.05.17/outbox.cif.g08.bks.cpg/sg2_84_cif.got.tgz:167047.got - 2010.06.03 11:33:40.
