data_PCOD9039051
_publ_section_title
;
Structure prediction by ZEFSAII (Michael W. Deem and Ramdas Pophale) SiO2 
 PCOD9039051
Probable space group: P -1
;
_chemical_formula_sum "Si O2"
_cell_formula_units_Z 14
_cell_length_a 10.362945
_cell_length_b 9.018178
_cell_length_c 9.000369
_cell_angle_alpha 106.751601
_cell_angle_beta 114.228577
_cell_angle_gamma 114.973529
_cell_volume 576.887318
_symmetry_space_group_name_H-M "P -1"
_symmetry_group_IT_number 2
_symmetry_cell_setting 'triclinic'
loop_
_space_group_symop_operation_xyz
x,y,z
-x,-y,-z
loop_
_atom_site_type_symbol
_atom_site_label
_atom_site_fract_x
_atom_site_fract_y
_atom_site_fract_z
Si Si1 0.595886 0.783417 0.245147
Si Si2 0.630910 0.952831 0.601692
Si Si3 0.540116 0.393367 0.144708
Si Si4 0.049627 0.620117 0.212884
Si Si5 0.780193 0.830793 0.865931
Si Si6 0.800413 0.563494 0.582103
Si Si7 0.971502 0.162296 0.493912
O O1 0.564750 0.779639 0.404075
O O2 0.621747 0.615964 0.202626
O O3 0.754115 0.012260 0.352083
O O4 0.452163 0.711042 0.026225
O O5 0.673884 0.903043 0.763173
O O6 0.500000 0.000000 0.500000
O O7 0.823061 0.156712 0.718154
O O8 0.326896 0.263339 0.055872
O O9 0.650748 0.419630 0.348634
O O10 0.138049 0.545144 0.331462
O O11 0.947475 0.655984 0.300217
O O12 0.000000 0.500000 0.000000
O O13 0.740355 0.652705 0.696175
O O14 0.000000 0.000000 0.000000
O O15 0.957787 0.746792 0.609013
O O16 0.000000 0.000000 0.500000
#
# Coordination Sequence:
#
# PCOD9039051 Si02
#       7
#     2   2   2   2   2   2   2
#     4  10  23  42  66 100 132 184 226 288 351 415
#     4  11  24  46  67 100 143 185 231 294 351 418
#     4  11  23  41  69 101 132 176 239 286 346 418
#     4  11  26  43  67 104 142 185 235 291 355 418
#     4  12  25  44  70 102 139 187 238 289 355 425
#     4  12  23  43  69 103 137 184 236 295 347 420
#     4  11  22  46  70  98 144 181 234 288 355 420
#
# _framework density 24.268170000000001
#
# number of rings (size 3 to 8) (size 9 to 14) (size 15 to 20)
#    0.000    0.857    2.857    4.286    2.000    2.286 
#    0.000    7.857    0.000    0.000    0.000    0.000 
#    0.000    0.000    0.000    0.000    0.000    0.000 
#
# Total GULP energy -77961.632949 kJ/mol
# GULP energy per Si atom -5568.688068 kJ/mol
# Density = 2.421293 g / cm^3
# Si number density = 24.268170 Si / 1000 Ang^3
#
#
#
# Elastic Constant Matrix: (Units=GPa)
#
#
# Indices 1 2 3 4 5 6 
#
# 1 30.1622 23.0279 12.2637 -0.6405 -0.1466 -0.0378
# 2 23.0279 138.5107 29.1270 -19.4806 3.5060 15.3717
# 3 12.2637 29.1270 164.3492 3.1475 -12.2496 -7.6990
# 4 -0.6405 -19.4806 3.1475 40.1012 -3.7796 2.6762
# 5 -0.1466 3.5060 -12.2496 -3.7796 37.6304 6.9156
# 6 -0.0378 15.3717 -7.6990 2.6762 6.9156 49.5647
#
#
#
# Elastic Compliance Matrix: (Units=1/GPa)
#
#
# Indices 1 2 3 4 5 6 
#
# 1 0.038881 -0.006729 -0.001589 -0.002698 -0.000390 0.002070
# 2 -0.006729 0.009746 -0.001505 0.004951 -0.000286 -0.003489
# 3 -0.001589 -0.001505 0.006699 -0.001184 0.001957 0.001297
# 4 -0.002698 0.004951 -0.001184 0.027877 0.002602 -0.003590
# 5 -0.000390 -0.000286 0.001957 0.002602 0.028174 -0.003679
# 6 0.002070 -0.003489 0.001297 -0.003590 -0.003679 0.022168
#
#
# Mechanical properties :
#
#
# Convention : Reuss Voigt Hill
#
# Bulk Modulus (GPa) = 28.02696 51.31770 39.67233
# Shear Modulus (GPa) = 30.28765 43.36617 36.82691
#
# Velocity S-wave (km/s) = 3.53659 4.23183 3.89973
# Velocity P-wave (km/s) = 5.31513 6.71341 6.05477
#
# Compressibility (1/GPa) = 0.03567993
#
# Stress axis : x y z
#
# Youngs Moduli (GPa) = 25.71931 102.61137 149.27245
#
# Poissons Ratio (x) = 0.69050 0.23722
# Poissons Ratio (y) = 0.17307 0.22459
# Poissons Ratio (z) = 0.04087 0.15438
#
# Static dielectric constant tensor:
#      x y z
#    x 2.182820 -0.014920 -0.008540 
#    y -0.014920 1.943270 -0.031530 
#    z -0.008540 -0.031530 2.105000 
# 
# From -- ./inp_files/245245.got.cif
#   From: 2010.05.17/outbox.cif.g08.bks.cpg/sg2_123_cif.got.tgz:245245.got - 2010.06.03 11:33:40.
