data_PCOD9039384
_publ_section_title
;
Structure prediction by ZEFSAII (Michael W. Deem and Ramdas Pophale) SiO2 
 PCOD9039384
Probable space group: P -1
;
_chemical_formula_sum "Si O2"
_cell_formula_units_Z 14
_cell_length_a 18.868406
_cell_length_b 13.714874
_cell_length_c 9.980743
_cell_angle_alpha 34.162691
_cell_angle_beta 43.568393
_cell_angle_gamma 27.324468
_cell_volume 665.195021
_symmetry_space_group_name_H-M "P -1"
_symmetry_group_IT_number 2
_symmetry_cell_setting 'triclinic'
loop_
_space_group_symop_operation_xyz
x,y,z
-x,-y,-z
loop_
_atom_site_type_symbol
_atom_site_label
_atom_site_fract_x
_atom_site_fract_y
_atom_site_fract_z
Si Si1 0.176858 0.791045 0.048610
Si Si2 0.677273 0.358631 0.254578
Si Si3 0.366043 0.842764 0.222014
Si Si4 0.183743 0.053613 0.985238
Si Si5 0.099066 0.744950 0.743885
Si Si6 0.360739 0.212434 0.845753
Si Si7 0.347934 0.221493 0.546158
O O1 0.242625 0.516771 0.307581
O O2 0.287818 0.717712 0.859767
O O3 0.188760 0.913528 0.014284
O O4 0.000000 0.000000 0.000000
O O5 0.535305 0.667110 0.128438
O O6 0.627973 0.260561 0.527470
O O7 0.831761 0.239371 0.243142
O O8 0.283177 0.851438 0.203596
O O9 0.276367 0.132757 0.040269
O O10 0.252252 0.159204 0.743746
O O11 0.009228 0.270800 0.032970
O O12 0.243099 0.495806 0.745807
O O13 0.000000 0.000000 0.500000
O O14 0.399589 0.202264 0.649853
O O15 0.500000 0.000000 0.000000
O O16 0.500000 0.000000 0.500000
#
# Coordination Sequence:
#
# PCOD9039384 Si02
#       7
#     2   2   2   2   2   2   2
#     4  12  26  45  71 101 144 190 227 284 360 417
#     4  11  23  42  68 100 138 177 236 281 345 420
#     4  10  23  42  68 102 131 179 236 292 343 416
#     4  11  25  46  71 102 142 184 236 295 354 406
#     4  12  23  43  73 102 141 177 231 298 347 408
#     4  11  24  43  73 102 136 182 231 289 354 406
#     4  11  28  47  70 106 145 184 237 287 348 431
#
# _framework density 21.04646
#
# number of rings (size 3 to 8) (size 9 to 14) (size 15 to 20)
#    0.000    0.857    4.286    2.571    0.000    7.429 
#    0.000    0.000    0.000    0.000    0.000    0.000 
#    0.000    0.000    0.000    0.000    0.000    0.000 
#
# Total GULP energy -78112.505927 kJ/mol
# GULP energy per Si atom -5579.464709 kJ/mol
# Density = 2.099856 g / cm^3
# Si number density = 21.046460 Si / 1000 Ang^3
#
#
#
# Elastic Constant Matrix: (Units=GPa)
#
#
# Indices 1 2 3 4 5 6 
#
# 1 114.1602 57.3141 40.4769 -2.1197 12.5271 15.1638
# 2 57.3141 132.8851 67.9203 4.5913 16.8370 14.4055
# 3 40.4769 67.9203 108.2707 -1.6586 12.9939 10.4741
# 4 -2.1197 4.5913 -1.6586 42.6111 -5.1395 2.1081
# 5 12.5271 16.8370 12.9939 -5.1395 33.3513 6.3532
# 6 15.1638 14.4055 10.4741 2.1081 6.3532 43.5935
#
#
#
# Elastic Compliance Matrix: (Units=1/GPa)
#
#
# Indices 1 2 3 4 5 6 
#
# 1 0.011719 -0.003881 -0.001561 0.000901 -0.001262 -0.002279
# 2 -0.003881 0.012928 -0.006270 -0.002120 -0.002780 -0.000908
# 3 -0.001561 -0.006270 0.013997 0.000999 -0.001436 -0.000587
# 4 0.000901 -0.002120 0.000999 0.024397 0.004422 -0.001677
# 5 -0.001262 -0.002780 -0.001436 0.004422 0.033755 -0.003431
# 6 -0.002279 -0.000908 -0.000587 -0.001677 -0.003431 0.024754
#
#
# Mechanical properties :
#
#
# Convention : Reuss Voigt Hill
#
# Bulk Modulus (GPa) = 65.70058 76.30432 71.00245
# Shear Modulus (GPa) = 33.32260 36.55150 34.93705
#
# Velocity S-wave (km/s) = 3.98337 4.17190 4.07873
# Velocity P-wave (km/s) = 7.24162 7.71623 7.48269
#
# Compressibility (1/GPa) = 0.01522057
#
# Stress axis : x y z
#
# Youngs Moduli (GPa) = 85.32854 77.35251 71.44171
#
# Poissons Ratio (x) = 0.30021 0.11152
# Poissons Ratio (y) = 0.33117 0.44794
# Poissons Ratio (z) = 0.13320 0.48500
#
# Static dielectric constant tensor:
#      x y z
#    x 1.827940 -0.011010 0.012260 
#    y -0.011010 1.770880 -0.000940 
#    z 0.012260 -0.000940 1.822760 
# 
# From -- ./inp_files/244562.got.cif
#   From: 2010.05.17/outbox.cif.g08.bks.cpg/sg2_123_cif.got.tgz:244562.got - 2010.06.03 11:33:40.
