data_PCOD9039166
_publ_section_title
;
Structure prediction by ZEFSAII (Michael W. Deem and Ramdas Pophale) SiO2 
 PCOD9039166
Probable space group: P -1
;
_chemical_formula_sum "Si O2"
_cell_formula_units_Z 16
_cell_length_a 11.346692
_cell_length_b 10.158565
_cell_length_c 9.297581
_cell_angle_alpha 45.337626
_cell_angle_beta 103.759222
_cell_angle_gamma 100.309640
_cell_volume 740.274288
_symmetry_space_group_name_H-M "P -1"
_symmetry_group_IT_number 2
_symmetry_cell_setting 'triclinic'
loop_
_space_group_symop_operation_xyz
x,y,z
-x,-y,-z
loop_
_atom_site_type_symbol
_atom_site_label
_atom_site_fract_x
_atom_site_fract_y
_atom_site_fract_z
Si Si1 0.009532 0.614696 0.565200
Si Si2 0.870125 0.505262 0.876230
Si Si3 0.212905 0.369426 0.956546
Si Si4 0.548142 0.457092 0.244563
Si Si5 0.096145 0.966279 0.177999
Si Si6 0.354784 0.848710 0.271852
Si Si7 0.657948 0.245573 0.982112
Si Si8 0.490399 0.869279 0.732901
O O1 0.122361 0.522729 0.749574
O O2 0.031873 0.832421 0.378073
O O3 0.000000 0.500000 0.500000
O O4 0.897213 0.587250 0.663583
O O5 0.797021 0.314203 0.974880
O O6 0.782985 0.605343 0.888872
O O7 0.000000 0.500000 0.000000
O O8 0.336093 0.418742 0.869017
O O9 0.150613 0.168176 0.075398
O O10 0.587119 0.320574 0.491702
O O11 0.438061 0.587043 0.158291
O O12 0.512832 0.325845 0.200324
O O13 0.210999 0.846649 0.255982
O O14 0.000000 0.000000 0.000000
O O15 0.373644 0.842353 0.112247
O O16 0.407638 0.040841 0.203571
O O17 0.628662 0.123770 0.207660
O O18 0.500000 0.000000 0.500000
#
# Coordination Sequence:
#
# PCOD9039166 Si02
#       8
#     2   2   2   2   2   2   2   2
#     4  11  22  46  69  96 140 183 229 287 344 409
#     4  10  25  41  68 100 136 183 233 282 345 410
#     4  11  23  43  71  98 138 182 231 286 348 419
#     4  11  23  44  70  98 136 187 228 284 359 411
#     4  12  25  41  73 103 135 185 233 284 356 410
#     4  11  25  43  67 103 140 176 236 295 343 413
#     4  12  23  42  71  99 138 183 234 285 348 416
#     4  10  23  42  66  98 136 182 227 284 347 412
#
# _framework density 21.613610999999999
#
# number of rings (size 3 to 8) (size 9 to 14) (size 15 to 20)
#    0.000    1.000    3.750    2.625    3.500    0.500 
#    0.000    2.500    0.000    0.000    0.000    0.000 
#    0.000    0.000    0.000    0.000    0.000    0.000 
#
# Total GULP energy -89248.777881 kJ/mol
# GULP energy per Si atom -5578.048618 kJ/mol
# Density = 2.156442 g / cm^3
# Si number density = 21.613611 Si / 1000 Ang^3
#
#
#
# Elastic Constant Matrix: (Units=GPa)
#
#
# Indices 1 2 3 4 5 6 
#
# 1 83.9392 12.8945 35.3167 4.9978 -19.0725 22.0207
# 2 12.8945 128.8663 43.3722 16.6494 -15.2371 19.9983
# 3 35.3167 43.3722 134.9779 -7.4161 -33.3985 6.5196
# 4 4.9978 16.6494 -7.4161 41.6579 1.0142 -11.2915
# 5 -19.0725 -15.2371 -33.3985 1.0142 41.0367 -2.2444
# 6 22.0207 19.9983 6.5196 -11.2915 -2.2444 27.7381
#
#
#
# Elastic Compliance Matrix: (Units=1/GPa)
#
#
# Indices 1 2 3 4 5 6 
#
# 1 0.022552 0.006242 -0.005624 -0.013413 0.007133 -0.025965
# 2 0.006242 0.013585 -0.004994 -0.012089 0.003182 -0.018240
# 3 -0.005624 -0.004994 0.011797 0.006961 0.005429 0.008566
# 4 -0.013413 -0.012089 0.006961 0.041027 -0.004207 0.034089
# 5 0.007133 0.003182 0.005429 -0.004207 0.032935 -0.008281
# 6 -0.025965 -0.018240 0.008566 0.034089 -0.008281 0.081008
#
#
# Mechanical properties :
#
#
# Convention : Reuss Voigt Hill
#
# Bulk Modulus (GPa) = 25.52254 58.99447 42.25850
# Shear Modulus (GPa) = 22.25013 39.16654 30.70834
#
# Velocity S-wave (km/s) = 3.21199 4.26152 3.77342
# Velocity P-wave (km/s) = 5.05865 7.18112 6.21122
#
# Compressibility (1/GPa) = 0.03918106
#
# Stress axis : x y z
#
# Youngs Moduli (GPa) = 44.34202 73.61096 84.76609
#
# Poissons Ratio (x) = -0.45949 0.47675
# Poissons Ratio (y) = -0.27679 0.42336
# Poissons Ratio (z) = 0.24939 0.36764
#
# Static dielectric constant tensor:
#      x y z
#    x 4.159380 -0.743090 -1.026650 
#    y -0.743090 2.039340 0.315480 
#    z -1.026650 0.315480 2.263060 
# 
# From -- ./inp_files/242167.got.cif
#   From: 2010.05.17/outbox.cif.g08.bks.cpg/sg2_122_cif.got.tgz:242167.got - 2010.06.03 11:33:40.
