data_PCOD9039956
_publ_section_title
;
Structure prediction by ZEFSAII (Michael W. Deem and Ramdas Pophale) SiO2 
 PCOD9039956
Probable space group: P -1
;
_chemical_formula_sum "Si O2"
_cell_formula_units_Z 14
_cell_length_a 7.825958
_cell_length_b 8.072945
_cell_length_c 9.928245
_cell_angle_alpha 62.675246
_cell_angle_beta 70.686996
_cell_angle_gamma 77.199921
_cell_volume 524.080877
_symmetry_space_group_name_H-M "P -1"
_symmetry_group_IT_number 2
_symmetry_cell_setting 'triclinic'
loop_
_space_group_symop_operation_xyz
x,y,z
-x,-y,-z
loop_
_atom_site_type_symbol
_atom_site_label
_atom_site_fract_x
_atom_site_fract_y
_atom_site_fract_z
Si Si1 0.843581 0.946072 0.696443
Si Si2 0.110001 0.411943 0.628836
Si Si3 0.885410 0.016409 0.160651
Si Si4 0.776802 0.548974 0.822277
Si Si5 0.460761 0.087984 0.784050
Si Si6 0.404337 0.450637 0.842954
Si Si7 0.314097 0.727414 0.540357
O O1 0.661429 0.010606 0.809259
O O2 0.847370 0.121452 0.526076
O O3 0.003405 0.896619 0.780666
O O4 0.789095 0.764919 0.699663
O O5 0.976595 0.453512 0.776605
O O6 0.000000 0.500000 0.500000
O O7 0.134650 0.191497 0.698441
O O8 0.279880 0.536286 0.543090
O O9 0.678975 0.068306 0.144852
O O10 0.000000 0.000000 0.000000
O O11 0.617473 0.458215 0.818096
O O12 0.714990 0.552112 0.991388
O O13 0.386387 0.263365 0.829281
O O14 0.516141 0.171316 0.594175
O O15 0.341737 0.644209 0.711050
#
# Coordination Sequence:
#
# PCOD9039956 Si02
#       7
#     2   2   2   2   2   2   2
#     4  10  25  46  65 111 141 183 233 292 351 411
#     4  12  24  47  72  99 137 188 240 284 350 430
#     4  12  25  43  74 110 138 186 236 292 353 411
#     4  11  27  43  68 103 148 184 232 297 354 420
#     4  10  23  46  77  99 142 182 246 280 341 428
#     4  11  22  43  69 102 138 192 235 286 357 410
#     4  10  23  42  73 100 135 192 233 288 341 414
#
# _framework density 26.713438
#
# number of rings (size 3 to 8) (size 9 to 14) (size 15 to 20)
#    0.857    0.286    2.857    3.000    2.000    6.286 
#    2.571    0.000    0.000    0.000    0.000    0.000 
#    0.000    0.000    0.000    0.000    0.000    0.000 
#
# Total GULP energy -78309.352713 kJ/mol
# GULP energy per Si atom -5593.525194 kJ/mol
# Density = 2.665264 g / cm^3
# Si number density = 26.713438 Si / 1000 Ang^3
#
#
#
# Elastic Constant Matrix: (Units=GPa)
#
#
# Indices 1 2 3 4 5 6 
#
# 1 118.1857 19.4020 26.1176 2.5947 -13.2807 11.4921
# 2 19.4020 67.4947 -2.5072 -3.6192 6.9829 2.2111
# 3 26.1176 -2.5072 117.3595 -9.3372 3.2690 5.5802
# 4 2.5947 -3.6192 -9.3372 43.5022 -3.3187 1.2467
# 5 -13.2807 6.9829 3.2690 -3.3187 43.4804 -3.8516
# 6 11.4921 2.2111 5.5802 1.2467 -3.8516 44.4008
#
#
#
# Elastic Compliance Matrix: (Units=1/GPa)
#
#
# Indices 1 2 3 4 5 6 
#
# 1 0.010156 -0.003379 -0.002432 -0.001084 0.003584 -0.001813
# 2 -0.003379 0.016318 0.001351 0.001582 -0.003675 -0.000471
# 3 -0.002432 0.001351 0.009346 0.002167 -0.001569 -0.000809
# 4 -0.001084 0.001582 0.002167 0.023744 0.001007 -0.000650
# 5 0.003584 -0.003675 -0.001569 0.001007 0.025020 0.001595
# 6 -0.001813 -0.000471 -0.000809 -0.000650 0.001595 0.023273
#
#
# Mechanical properties :
#
#
# Convention : Reuss Voigt Hill
#
# Bulk Modulus (GPa) = 37.17554 43.22943 40.20248
# Shear Modulus (GPa) = 39.76306 43.61183 41.68745
#
# Velocity S-wave (km/s) = 3.86230 4.04490 3.95466
# Velocity P-wave (km/s) = 5.81691 6.16707 5.99455
#
# Compressibility (1/GPa) = 0.02689941
#
# Stress axis : x y z
#
# Youngs Moduli (GPa) = 98.45941 61.28134 107.00267
#
# Poissons Ratio (x) = 0.20710 0.26026
# Poissons Ratio (y) = 0.33274 -0.14460
# Poissons Ratio (z) = 0.23948 -0.08281
#
# Static dielectric constant tensor:
#      x y z
#    x 2.248280 -0.080380 0.002350 
#    y -0.080380 2.054570 0.025370 
#    z 0.002350 0.025370 2.093160 
# 
# From -- ./inp_files/157270.got.cif
#   From: 2010.05.17/outbox.cif.g08.bks.cpg/sg2_79_cif.got.tgz:157270.got - 2010.06.03 11:33:40.
