data_PCOD9039571
_publ_section_title
;
Structure prediction by ZEFSAII (Michael W. Deem and Ramdas Pophale) SiO2 
 PCOD9039571
Probable space group: P -1
;
_chemical_formula_sum "Si O2"
_cell_formula_units_Z 12
_cell_length_a 21.169304
_cell_length_b 12.631060
_cell_length_c 5.574383
_cell_angle_alpha 93.491311
_cell_angle_beta 89.045233
_cell_angle_gamma 19.580562
_cell_volume 486.233648
_symmetry_space_group_name_H-M "P -1"
_symmetry_group_IT_number 2
_symmetry_cell_setting 'triclinic'
loop_
_space_group_symop_operation_xyz
x,y,z
-x,-y,-z
loop_
_atom_site_type_symbol
_atom_site_label
_atom_site_fract_x
_atom_site_fract_y
_atom_site_fract_z
Si Si1 0.554113 0.326548 0.170601
Si Si2 0.920064 0.384020 0.227626
Si Si3 0.121743 0.900315 0.864858
Si Si4 0.591713 0.727253 0.379613
Si Si5 0.167587 0.999866 0.555258
Si Si6 0.386426 0.013791 0.945566
O O1 0.368035 0.631180 0.395908
O O2 0.746581 0.056804 0.262034
O O3 0.588862 0.152063 0.055262
O O4 0.500000 0.500000 0.000000
O O5 0.752359 0.565351 0.333222
O O6 0.824646 0.609290 0.064437
O O7 0.020018 0.288665 0.422509
O O8 0.100369 0.025187 0.081134
O O9 0.312282 0.538415 0.723792
O O10 0.051049 0.080820 0.668945
O O11 0.000000 0.000000 0.000000
O O12 0.507854 0.851170 0.671418
O O13 0.454090 0.958919 0.185142
#
# Coordination Sequence:
#
# PCOD9039571 Si02
#       6
#     2   2   2   2   2   2
#     4  11  25  47  72  98 139 195 246 293 342 438
#     4  11  26  41  70 107 147 180 232 307 358 423
#     4  10  23  42  69 104 141 184 237 294 354 426
#     4  11  25  45  72 104 147 192 237 284 361 438
#     4  11  23  44  71 100 138 185 246 291 356 419
#     4  12  26  46  71 106 146 192 236 291 366 420
#
# _framework density 24.679493000000001
#
# number of rings (size 3 to 8) (size 9 to 14) (size 15 to 20)
#    0.000    1.000    1.667    4.000    9.333    2.000 
#    0.000    3.333    0.000    0.000    0.000    0.000 
#    0.000    0.000    0.000    0.000    0.000    0.000 
#
# Total GULP energy -66935.542321 kJ/mol
# GULP energy per Si atom -5577.961860 kJ/mol
# Density = 2.462332 g / cm^3
# Si number density = 24.679493 Si / 1000 Ang^3
#
#
#
# Elastic Constant Matrix: (Units=GPa)
#
#
# Indices 1 2 3 4 5 6 
#
# 1 117.4296 43.7423 49.3171 -14.4348 9.7913 4.4762
# 2 43.7423 85.3649 33.1824 -21.5022 22.6130 5.6108
# 3 49.3171 33.1824 92.4046 -24.3199 1.9386 -7.6782
# 4 -14.4348 -21.5022 -24.3199 58.9861 -10.7893 12.2107
# 5 9.7913 22.6130 1.9386 -10.7893 39.4251 -2.9946
# 6 4.4762 5.6108 -7.6782 12.2107 -2.9946 40.8703
#
#
#
# Elastic Compliance Matrix: (Units=1/GPa)
#
#
# Indices 1 2 3 4 5 6 
#
# 1 0.012357 -0.004039 -0.005391 -0.000448 -0.000741 -0.001732
# 2 -0.004039 0.018886 -0.003871 0.003609 -0.009002 -0.004615
# 3 -0.005391 -0.003871 0.016351 0.004087 0.004122 0.003275
# 4 -0.000448 0.003609 0.004087 0.021676 0.003323 -0.005911
# 5 -0.000741 -0.009002 0.004122 0.003323 0.031678 0.003420
# 6 -0.001732 -0.004615 0.003275 -0.005911 0.003420 0.027923
#
#
# Mechanical properties :
#
#
# Convention : Reuss Voigt Hill
#
# Bulk Modulus (GPa) = 47.63878 60.85363 54.24621
# Shear Modulus (GPa) = 30.77503 39.12011 34.94757
#
# Velocity S-wave (km/s) = 3.53510 3.98568 3.76714
# Velocity P-wave (km/s) = 6.00062 6.77436 6.39920
#
# Compressibility (1/GPa) = 0.02099130
#
# Stress axis : x y z
#
# Youngs Moduli (GPa) = 80.92506 52.94992 61.16001
#
# Poissons Ratio (x) = 0.21387 0.32971
# Poissons Ratio (y) = 0.32686 0.23675
# Poissons Ratio (z) = 0.43627 0.20497
#
# Static dielectric constant tensor:
#      x y z
#    x 1.920130 -0.042370 -0.050180 
#    y -0.042370 1.991040 0.062310 
#    z -0.050180 0.062310 2.152880 
# 
# From -- ./inp_files/25705.got.cif
#   From: 2010.05.17/outbox.cif.g08.bks.cpg/sg2_13_cif.got.tgz:25705.got - 2010.06.03 11:33:40.
