data_PCOD9039425
_publ_section_title
;
Structure prediction by ZEFSAII (Michael W. Deem and Ramdas Pophale) SiO2 
 PCOD9039425
Probable space group: P -1
;
_chemical_formula_sum "Si O2"
_cell_formula_units_Z 16
_cell_length_a 15.138298
_cell_length_b 9.502647
_cell_length_c 11.719358
_cell_angle_alpha 71.834151
_cell_angle_beta 82.290065
_cell_angle_gamma 30.613803
_cell_volume 783.758418
_symmetry_space_group_name_H-M "P -1"
_symmetry_group_IT_number 2
_symmetry_cell_setting 'triclinic'
loop_
_space_group_symop_operation_xyz
x,y,z
-x,-y,-z
loop_
_atom_site_type_symbol
_atom_site_label
_atom_site_fract_x
_atom_site_fract_y
_atom_site_fract_z
Si Si1 0.221050 0.012476 0.385557
Si Si2 0.956286 0.583199 0.120806
Si Si3 0.408266 0.462643 0.426578
Si Si4 0.690977 0.711889 0.103034
Si Si5 0.362033 0.290168 0.638641
Si Si6 0.920284 0.277179 0.962766
Si Si7 0.066938 0.569624 0.492598
Si Si8 0.705687 0.626024 0.693154
O O1 0.309786 0.761108 0.351904
O O2 0.390208 0.810599 0.489305
O O3 0.108457 0.292561 0.254605
O O4 0.079733 0.151249 0.466438
O O5 0.774880 0.747981 0.120950
O O6 0.953497 0.765519 0.085091
O O7 0.000000 0.500000 0.000000
O O8 0.303915 0.524517 0.528972
O O9 0.383694 0.389462 0.343196
O O10 0.656481 0.671398 0.234115
O O11 0.838129 0.426227 0.064760
O O12 0.500000 0.000000 0.000000
O O13 0.246616 0.322466 0.599284
O O14 0.560979 0.965780 0.640483
O O15 0.758629 0.520212 0.839440
O O16 0.000000 0.000000 0.000000
O O17 0.125916 0.565617 0.366660
O O18 0.000000 0.500000 0.500000
#
# Coordination Sequence:
#
# PCOD9039425 Si02
#       8
#     2   2   2   2   2   2   2   2
#     4  11  22  42  62  97 129 172 220 262 335 396
#     4  10  23  42  68  91 128 175 221 264 325 397
#     4  10  24  38  63  96 136 167 209 277 329 392
#     4  11  23  43  70  95 126 182 226 268 326 396
#     4  11  21  40  63  91 126 169 216 263 327 388
#     4  11  25  43  67  97 130 172 222 278 327 386
#     4  11  21  35  64  90 121 161 212 261 323 388
#     4  11  23  39  62  92 135 166 215 271 334 384
#
# _framework density 20.414455
#
# number of rings (size 3 to 8) (size 9 to 14) (size 15 to 20)
#    0.000    1.250    2.500    4.500    5.250    3.000 
#    0.000    0.625    0.000    0.000    0.000    0.000 
#    0.000    0.000    0.000    0.000    0.000    0.000 
#
# Total GULP energy -89135.005862 kJ/mol
# GULP energy per Si atom -5570.937866 kJ/mol
# Density = 2.036799 g / cm^3
# Si number density = 20.414455 Si / 1000 Ang^3
#
#
#
# Elastic Constant Matrix: (Units=GPa)
#
#
# Indices 1 2 3 4 5 6 
#
# 1 85.8513 30.2102 13.4127 -19.2062 2.3787 0.4136
# 2 30.2102 75.0732 4.4662 -0.6969 -10.6098 4.5227
# 3 13.4127 4.4662 58.8620 13.9840 9.6605 4.1259
# 4 -19.2062 -0.6969 13.9840 35.6442 1.7888 -4.6414
# 5 2.3787 -10.6098 9.6605 1.7888 24.9485 -3.5182
# 6 0.4136 4.5227 4.1259 -4.6414 -3.5182 29.6382
#
#
#
# Elastic Compliance Matrix: (Units=1/GPa)
#
#
# Indices 1 2 3 4 5 6 
#
# 1 0.018166 -0.007422 -0.006373 0.012733 -0.002851 0.003422
# 2 -0.007422 0.017529 0.000268 -0.004472 0.008047 -0.002354
# 3 -0.006373 0.000268 0.023287 -0.012959 -0.008241 -0.006201
# 4 0.012733 -0.004472 -0.012959 0.041043 0.000194 0.008759
# 5 -0.002851 0.008047 -0.008241 0.000194 0.047751 0.005658
# 6 0.003422 -0.002354 -0.006201 0.008759 0.005658 0.036958
#
#
# Mechanical properties :
#
#
# Convention : Reuss Voigt Hill
#
# Bulk Modulus (GPa) = 31.32148 35.10720 33.21434
# Shear Modulus (GPa) = 22.47885 29.49267 25.98576
#
# Velocity S-wave (km/s) = 3.32192 3.80504 3.57166
# Velocity P-wave (km/s) = 5.48540 6.04475 5.77185
#
# Compressibility (1/GPa) = 0.03192697
#
# Stress axis : x y z
#
# Youngs Moduli (GPa) = 55.04647 57.04946 42.94320
#
# Poissons Ratio (x) = 0.42343 0.27369
# Poissons Ratio (y) = 0.40856 -0.01151
# Poissons Ratio (z) = 0.35082 -0.01529
#
# Static dielectric constant tensor:
#      x y z
#    x 1.842540 0.046090 -0.024440 
#    y 0.046090 1.973800 -0.073010 
#    z -0.024440 -0.073010 1.760010 
# 
# From -- ./inp_files/447160.got.cif
#   From: 2010.05.17/outbox.cif.g08.bks.cpg/sg2_224_cif.got.tgz:447160.got - 2010.06.03 11:33:40.
