data_PCOD9039947
_publ_section_title
;
Structure prediction by ZEFSAII (Michael W. Deem and Ramdas Pophale) SiO2 
 PCOD9039947
Probable space group: P -1
;
_chemical_formula_sum "Si O2"
_cell_formula_units_Z 10
_cell_length_a 9.515139
_cell_length_b 12.554940
_cell_length_c 5.396851
_cell_angle_alpha 75.938420
_cell_angle_beta 70.970922
_cell_angle_gamma 43.526130
_cell_volume 419.723312
_symmetry_space_group_name_H-M "P -1"
_symmetry_group_IT_number 2
_symmetry_cell_setting 'triclinic'
loop_
_space_group_symop_operation_xyz
x,y,z
-x,-y,-z
loop_
_atom_site_type_symbol
_atom_site_label
_atom_site_fract_x
_atom_site_fract_y
_atom_site_fract_z
Si Si1 0.453015 0.136552 0.086700
Si Si2 0.832572 0.621933 0.228444
Si Si3 0.015610 0.323874 0.509882
Si Si4 0.689592 0.317337 0.557137
Si Si5 0.754830 0.148867 0.109389
O O1 0.237044 0.231146 0.304483
O O2 0.391209 0.251310 0.835353
O O3 0.627162 0.101240 0.177324
O O4 0.500000 0.000000 0.000000
O O5 0.329909 0.729255 0.134467
O O6 0.913152 0.697930 0.236017
O O7 0.000000 0.500000 0.000000
O O8 0.901462 0.278796 0.495719
O O9 0.851280 0.511518 0.470301
O O10 0.500000 0.500000 0.500000
O O11 0.722184 0.220941 0.356075
O O12 0.000000 0.000000 0.000000
#
# Coordination Sequence:
#
# PCOD9039947 Si02
#       5
#     2   2   2   2   2
#     4  11  25  43  71  98 137 186 237 284 350 425
#     4   9  21  39  68  99 135 170 240 288 345 405
#     4  10  23  42  72  99 134 181 236 293 345 419
#     4  12  28  48  78 107 147 191 242 297 367 426
#     4  12  29  50  71 108 153 190 236 300 368 433
#
# _framework density 23.825220000000002
#
# number of rings (size 3 to 8) (size 9 to 14) (size 15 to 20)
#    0.000    1.200    0.000    3.600   19.600    0.800 
#    0.000    0.000    0.000    0.000    0.000    0.000 
#    0.000    0.000    0.000    0.000    0.000    0.000 
#
# Total GULP energy -55855.555981 kJ/mol
# GULP energy per Si atom -5585.555598 kJ/mol
# Density = 2.377099 g / cm^3
# Si number density = 23.825220 Si / 1000 Ang^3
#
#
#
# Elastic Constant Matrix: (Units=GPa)
#
#
# Indices 1 2 3 4 5 6 
#
# 1 221.5666 24.9220 53.9339 24.7911 43.4229 -25.6835
# 2 24.9220 76.9364 19.4766 16.6546 13.4998 -6.1192
# 3 53.9339 19.4766 113.6881 14.1389 36.0535 3.7846
# 4 24.7911 16.6546 14.1389 39.5328 6.6311 4.2806
# 5 43.4229 13.4998 36.0535 6.6311 51.3923 3.7621
# 6 -25.6835 -6.1192 3.7846 4.2806 3.7621 34.4243
#
#
#
# Elastic Compliance Matrix: (Units=1/GPa)
#
#
# Indices 1 2 3 4 5 6 
#
# 1 0.006991 0.000333 -0.001565 -0.003846 -0.004873 0.006458
# 2 0.000333 0.015403 -0.001219 -0.006219 -0.002978 0.004219
# 3 -0.001565 -0.001219 0.012054 -0.001533 -0.006484 -0.001810
# 4 -0.003846 -0.006219 -0.001533 0.031320 0.002501 -0.007975
# 5 -0.004873 -0.002978 -0.006484 0.002501 0.029092 -0.006942
# 6 0.006458 0.004219 -0.001810 -0.007975 -0.006942 0.036567
#
#
# Mechanical properties :
#
#
# Convention : Reuss Voigt Hill
#
# Bulk Modulus (GPa) = 33.84565 67.65068 50.74816
# Shear Modulus (GPa) = 34.20522 45.99379 40.09951
#
# Velocity S-wave (km/s) = 3.79314 4.39847 4.10697
# Velocity P-wave (km/s) = 5.78105 7.36557 6.62088
#
# Compressibility (1/GPa) = 0.02954590
#
# Stress axis : x y z
#
# Youngs Moduli (GPa) = 143.04797 64.92237 82.95824
#
# Poissons Ratio (x) = -0.02161 0.12981
# Poissons Ratio (y) = -0.04762 0.10114
# Poissons Ratio (z) = 0.22383 0.07915
#
# Static dielectric constant tensor:
#      x y z
#    x 1.965680 0.045490 -0.057220 
#    y 0.045490 1.981460 -0.150760 
#    z -0.057220 -0.150760 2.242200 
# 
# From -- ./inp_files/15427.got.cif
#   From: 2010.05.17/outbox.cif.g08.bks.cpg/sg2_8_cif.got.tgz:15427.got - 2010.06.03 11:33:40.
