data_PCOD9039500
_publ_section_title
;
Structure prediction by ZEFSAII (Michael W. Deem and Ramdas Pophale) SiO2 
 PCOD9039500
Probable space group: P -1
;
_chemical_formula_sum "Si O2"
_cell_formula_units_Z 14
_cell_length_a 7.597306
_cell_length_b 5.556552
_cell_length_c 22.261495
_cell_angle_alpha 108.837805
_cell_angle_beta 129.280452
_cell_angle_gamma 61.828468
_cell_volume 640.861885
_symmetry_space_group_name_H-M "P -1"
_symmetry_group_IT_number 2
_symmetry_cell_setting 'triclinic'
loop_
_space_group_symop_operation_xyz
x,y,z
-x,-y,-z
loop_
_atom_site_type_symbol
_atom_site_label
_atom_site_fract_x
_atom_site_fract_y
_atom_site_fract_z
Si Si1 0.938603 0.027493 0.858307
Si Si2 0.670144 0.786277 0.566601
Si Si3 0.928295 0.149222 0.677187
Si Si4 0.844909 0.510114 0.791855
Si Si5 0.177606 0.760449 0.480020
Si Si6 0.596520 0.166913 0.985744
Si Si7 0.510785 0.980447 0.182685
O O1 0.982121 0.717760 0.820773
O O2 0.652181 0.148716 0.823515
O O3 0.984691 0.238052 0.839238
O O4 0.112649 0.964696 0.948792
O O5 0.835084 0.902849 0.651092
O O6 0.459398 0.719657 0.551015
O O7 0.836248 0.536419 0.541526
O O8 0.500000 0.000000 0.500000
O O9 0.207433 0.102085 0.747633
O O10 0.773990 0.399284 0.706385
O O11 0.886116 0.185166 0.599963
O O12 0.628090 0.703578 0.802633
O O13 0.000000 0.000000 0.500000
O O14 0.529774 0.089242 0.899726
O O15 0.500000 0.500000 0.000000
O O16 0.500000 0.000000 0.000000
#
# Coordination Sequence:
#
# PCOD9039500 Si02
#       7
#     2   2   2   2   2   2   2
#     4  10  23  45  65  95 137 177 232 276 330 397
#     4   9  22  41  66  91 133 169 221 272 339 406
#     4  11  23  42  64  99 132 176 219 281 338 405
#     4  10  25  43  68  97 138 178 228 276 341 393
#     4  10  23  42  68  99 129 177 224 276 339 414
#     4  12  25  42  71  98 135 182 231 280 334 397
#     4  10  26  41  67 100 135 179 225 280 341 392
#
# _framework density 21.845580999999999
#
# number of rings (size 3 to 8) (size 9 to 14) (size 15 to 20)
#    0.857    0.857    0.000    3.000    4.000    9.714 
#    0.000    0.000    0.000    0.000    0.000    0.000 
#    0.000    0.000    0.000    0.000    0.000    0.000 
#
# Total GULP energy -77950.396777 kJ/mol
# GULP energy per Si atom -5567.885484 kJ/mol
# Density = 2.179586 g / cm^3
# Si number density = 21.845581 Si / 1000 Ang^3
#
#
#
# Elastic Constant Matrix: (Units=GPa)
#
#
# Indices 1 2 3 4 5 6 
#
# 1 62.0670 47.8996 46.2929 14.8287 6.3487 -11.2632
# 2 47.8996 146.3552 59.8583 21.3296 -18.0683 -6.8527
# 3 46.2929 59.8583 152.0612 19.8816 -0.6386 -14.7352
# 4 14.8287 21.3296 19.8816 41.0369 -3.0363 -11.2139
# 5 6.3487 -18.0683 -0.6386 -3.0363 40.6514 2.3600
# 6 -11.2632 -6.8527 -14.7352 -11.2139 2.3600 29.5169
#
#
#
# Elastic Compliance Matrix: (Units=1/GPa)
#
#
# Indices 1 2 3 4 5 6 
#
# 1 0.028142 -0.007657 -0.004608 -0.002876 -0.008448 0.006244
# 2 -0.007657 0.011112 -0.001973 -0.002341 0.006086 -0.002703
# 3 -0.004608 -0.001973 0.009096 -0.001219 -0.000215 0.001879
# 4 -0.002876 -0.002341 -0.001219 0.029745 0.001091 0.008964
# 5 -0.008448 0.006086 -0.000215 0.001091 0.028923 -0.003816
# 6 0.006244 -0.002703 0.001879 0.008964 -0.003816 0.040282
#
#
# Mechanical properties :
#
#
# Convention : Reuss Voigt Hill
#
# Bulk Modulus (GPa) = 50.31821 74.28724 62.30272
# Shear Modulus (GPa) = 27.41200 36.00321 31.70761
#
# Velocity S-wave (km/s) = 3.54617 4.06406 3.81391
# Velocity P-wave (km/s) = 6.31274 7.49009 6.92648
#
# Compressibility (1/GPa) = 0.01987352
#
# Stress axis : x y z
#
# Youngs Moduli (GPa) = 35.53414 89.99431 109.93488
#
# Poissons Ratio (x) = 0.68913 0.50653
# Poissons Ratio (y) = 0.27210 0.21693
# Poissons Ratio (z) = 0.16373 0.17758
#
# Static dielectric constant tensor:
#      x y z
#    x 1.898680 0.080530 0.007370 
#    y 0.080530 1.933290 -0.006980 
#    z 0.007370 -0.006980 1.777470 
# 
# From -- ./inp_files/585792.got.cif
#   From: 2010.05.17/outbox.cif.g08.bks.cpg/sg2_293_cif.got.tgz:585792.got - 2010.06.03 11:33:40.
