data_PCOD9039052
_publ_section_title
;
Structure prediction by ZEFSAII (Michael W. Deem and Ramdas Pophale) SiO2 
 PCOD9039052
Probable space group: P -1
;
_chemical_formula_sum "Si O2"
_cell_formula_units_Z 15
_cell_length_a 21.646901
_cell_length_b 5.812961
_cell_length_c 9.883335
_cell_angle_alpha 127.484750
_cell_angle_beta 143.237715
_cell_angle_gamma 64.604178
_cell_volume 586.105218
_symmetry_space_group_name_H-M "P -1"
_symmetry_group_IT_number 2
_symmetry_cell_setting 'triclinic'
loop_
_space_group_symop_operation_xyz
x,y,z
-x,-y,-z
loop_
_atom_site_type_symbol
_atom_site_label
_atom_site_fract_x
_atom_site_fract_y
_atom_site_fract_z
Si Si1 0.648116 0.421665 0.075958
Si Si2 0.965430 0.657996 0.296580
Si Si3 0.377215 0.984491 0.645308
Si Si4 0.838537 0.449268 0.241898
Si Si5 0.225174 0.704919 0.504034
Si Si6 0.527306 0.546379 0.409048
Si Si7 0.000000 0.500000 0.000000
Si Si8 0.724699 0.875929 0.741818
O O1 0.740606 0.549999 0.182851
O O2 0.705836 0.233526 0.216823
O O3 0.602384 0.671114 0.171942
O O4 0.554330 0.301199 0.770178
O O5 0.865702 0.577754 0.188447
O O6 0.058729 0.496006 0.466777
O O7 0.949042 0.536221 0.073803
O O8 0.000000 0.000000 0.500000
O O9 0.285092 0.868474 0.544073
O O10 0.468539 0.786405 0.754898
O O11 0.337271 0.943015 0.407103
O O12 0.808236 0.101654 0.043121
O O13 0.103972 0.730231 0.312958
O O14 0.226713 0.357373 0.350901
O O15 0.500000 0.500000 0.500000
O O16 0.641891 0.707527 0.637698
#
# Coordination Sequence:
#
# PCOD9039052 Si02
#       8
#     2   2   2   2   2   2   1   2
#     4  11  24  42  67  99 141 179 232 296 347 426
#     4  11  26  45  71 105 141 189 239 298 352 431
#     4  10  23  42  66 100 136 186 229 289 359 424
#     4  11  24  45  66 103 143 181 234 292 359 412
#     4  10  23  42  66 100 134 183 231 292 359 424
#     4  11  25  43  69 101 134 189 238 288 355 420
#     4  12  22  44  72 102 136 186 240 286 358 426
#     4  10  23  45  67  98 142 179 234 297 347 428
#
# _framework density 25.592673000000001
#
# number of rings (size 3 to 8) (size 9 to 14) (size 15 to 20)
#    0.000    1.333    1.333    2.800    1.867   12.267 
#    0.000    3.333    0.000    0.000    0.000    0.000 
#    0.000    0.000    0.000    0.000    0.000    0.000 
#
# Total GULP energy -83734.809703 kJ/mol
# GULP energy per Si atom -5582.320647 kJ/mol
# Density = 2.553442 g / cm^3
# Si number density = 25.592673 Si / 1000 Ang^3
#
#
#
# Elastic Constant Matrix: (Units=GPa)
#
#
# Indices 1 2 3 4 5 6 
#
# 1 142.9871 19.1236 32.3658 1.9741 -3.1614 32.0983
# 2 19.1236 44.6477 16.5221 1.7974 -13.7182 6.2506
# 3 32.3658 16.5221 116.7199 -21.8581 -10.8839 15.3331
# 4 1.9741 1.7974 -21.8581 35.4163 -4.3005 -9.2750
# 5 -3.1614 -13.7182 -10.8839 -4.3005 41.5552 2.8013
# 6 32.0983 6.2506 15.3331 -9.2750 2.8013 43.9427
#
#
#
# Elastic Compliance Matrix: (Units=1/GPa)
#
#
# Indices 1 2 3 4 5 6 
#
# 1 0.009245 -0.002320 -0.002087 -0.003422 -0.000533 -0.006383
# 2 -0.002320 0.027256 -0.002633 -0.002508 0.008027 -0.002305
# 3 -0.002087 -0.002633 0.011232 0.007344 0.002717 -0.000643
# 4 -0.003422 -0.002508 0.007344 0.035547 0.004006 0.007542
# 5 -0.000533 0.008027 0.002717 0.004006 0.027978 -0.002639
# 6 -0.006383 -0.002305 -0.000643 0.007542 -0.002639 0.029732
#
#
# Mechanical properties :
#
#
# Convention : Reuss Voigt Hill
#
# Bulk Modulus (GPa) = 29.71581 48.93086 39.32333
# Shear Modulus (GPa) = 30.06851 39.93906 35.00379
#
# Velocity S-wave (km/s) = 3.43138 3.95469 3.70229
# Velocity P-wave (km/s) = 5.22833 6.32561 5.80296
#
# Compressibility (1/GPa) = 0.03365212
#
# Stress axis : x y z
#
# Youngs Moduli (GPa) = 108.17082 36.68968 89.03021
#
# Poissons Ratio (x) = 0.08511 0.18582
# Poissons Ratio (y) = 0.25093 0.23444
# Poissons Ratio (z) = 0.22577 0.09661
#
# Static dielectric constant tensor:
#      x y z
#    x 1.934140 0.017040 -0.048920 
#    y 0.017040 1.932230 0.075540 
#    z -0.048920 0.075540 1.973270 
# 
# From -- ./inp_files/55123.got.cif
#   From: 2010.05.17/outbox.cif.g08.bks.cpg/sg2_28_cif.got.tgz:55123.got - 2010.06.03 11:33:40.
