data_PCOD9039359
_publ_section_title
;
Structure prediction by ZEFSAII (Michael W. Deem and Ramdas Pophale) SiO2 
 PCOD9039359
Probable space group: P -1
;
_chemical_formula_sum "Si O2"
_cell_formula_units_Z 14
_cell_length_a 13.793601
_cell_length_b 5.446453
_cell_length_c 11.439145
_cell_angle_alpha 82.125189
_cell_angle_beta 136.253502
_cell_angle_gamma 94.601522
_cell_volume 588.409834
_symmetry_space_group_name_H-M "P -1"
_symmetry_group_IT_number 2
_symmetry_cell_setting 'triclinic'
loop_
_space_group_symop_operation_xyz
x,y,z
-x,-y,-z
loop_
_atom_site_type_symbol
_atom_site_label
_atom_site_fract_x
_atom_site_fract_y
_atom_site_fract_z
Si Si1 0.178894 0.288858 0.864927
Si Si2 0.325924 0.758462 0.409961
Si Si3 0.067840 0.064134 0.380519
Si Si4 0.039366 0.510422 0.168894
Si Si5 0.841626 0.282784 0.328501
Si Si6 0.527465 0.775658 0.375483
Si Si7 0.401988 0.938613 0.025040
O O1 0.179434 0.425755 0.730656
O O2 0.109853 0.455538 0.895677
O O3 0.332390 0.171250 0.019576
O O4 0.061736 0.083401 0.773178
O O5 0.158873 0.717461 0.273141
O O6 0.385636 0.800747 0.328502
O O7 0.398405 0.492277 0.522269
O O8 0.381548 0.988796 0.519428
O O9 0.108047 0.264299 0.305909
O O10 0.995202 0.221620 0.412696
O O11 0.166429 0.857280 0.545618
O O12 0.000000 0.500000 0.000000
O O13 0.726795 0.184954 0.144780
O O14 0.486883 0.785085 0.204398
O O15 0.500000 0.000000 0.000000
#
# Coordination Sequence:
#
# PCOD9039359 Si02
#       7
#     2   2   2   2   2   2   2
#     4  10  23  42  68 100 138 187 230 306 363 434
#     4  10  25  47  77 100 146 194 245 299 364 433
#     4   9  20  41  62  99 141 176 227 290 364 436
#     4  11  26  41  71 108 138 184 240 304 365 429
#     4   9  20  40  66  96 136 180 230 291 362 426
#     4  10  25  50  71 105 144 198 245 297 356 441
#     4  11  26  43  69 100 141 185 242 298 357 436
#
# _framework density 23.792942
#
# number of rings (size 3 to 8) (size 9 to 14) (size 15 to 20)
#    0.000    2.000    0.000    0.429   12.000    4.571 
#    0.000    0.000    0.000    0.000    0.000    0.000 
#    0.000    0.000    0.000    0.000    0.000    0.000 
#
# Total GULP energy -78114.063733 kJ/mol
# GULP energy per Si atom -5579.575981 kJ/mol
# Density = 2.373879 g / cm^3
# Si number density = 23.792942 Si / 1000 Ang^3
#
#
#
# Elastic Constant Matrix: (Units=GPa)
#
#
# Indices 1 2 3 4 5 6 
#
# 1 118.4286 33.5671 59.1008 -4.2742 -2.9428 21.8802
# 2 33.5671 108.7710 33.6334 -0.9764 -5.8594 25.0492
# 3 59.1008 33.6334 95.0615 4.1709 -29.1417 24.4214
# 4 -4.2742 -0.9764 4.1709 23.8936 9.9755 -2.2524
# 5 -2.9428 -5.8594 -29.1417 9.9755 37.7637 -9.4882
# 6 21.8802 25.0492 24.4214 -2.2524 -9.4882 37.6166
#
#
#
# Elastic Compliance Matrix: (Units=1/GPa)
#
#
# Indices 1 2 3 4 5 6 
#
# 1 0.015670 -0.000787 -0.012938 0.009854 -0.012158 -0.002667
# 2 -0.000787 0.011559 -0.002828 0.001209 -0.002252 -0.005899
# 3 -0.012938 -0.002828 0.029038 -0.018213 0.024690 -0.004306
# 4 0.009854 0.001209 -0.018213 0.058777 -0.028200 0.001694
# 5 -0.012158 -0.002252 0.024690 -0.028200 0.052730 0.004154
# 6 -0.002667 -0.005899 -0.004306 0.001694 0.004154 0.036008
#
#
# Mechanical properties :
#
#
# Convention : Reuss Voigt Hill
#
# Bulk Modulus (GPa) = 43.17707 63.87377 53.52542
# Shear Modulus (GPa) = 20.44083 32.91877 26.67980
#
# Velocity S-wave (km/s) = 2.93424 3.72365 3.35226
# Velocity P-wave (km/s) = 5.44666 6.73731 6.12607
#
# Compressibility (1/GPa) = 0.02316044
#
# Stress axis : x y z
#
# Youngs Moduli (GPa) = 63.81640 86.51178 34.43765
#
# Poissons Ratio (x) = 0.06812 0.44555
# Poissons Ratio (y) = 0.05025 0.09739
# Poissons Ratio (z) = 0.82564 0.24466
#
# Static dielectric constant tensor:
#      x y z
#    x 1.978430 -0.074740 0.005090 
#    y -0.074740 2.086870 0.007750 
#    z 0.005090 0.007750 1.908870 
# 
# From -- ./inp_files/441781.got.cif
#   From: 2010.05.17/outbox.cif.g08.bks.cpg/sg2_221_cif.got.tgz:441781.got - 2010.06.03 11:33:40.
