data_PCOD9039632
_publ_section_title
;
Structure prediction by ZEFSAII (Michael W. Deem and Ramdas Pophale) SiO2 
 PCOD9039632
Probable space group: P -1
;
_chemical_formula_sum "Si O2"
_cell_formula_units_Z 14
_cell_length_a 8.397795
_cell_length_b 10.883482
_cell_length_c 9.905237
_cell_angle_alpha 93.058163
_cell_angle_beta 136.419099
_cell_angle_gamma 76.572959
_cell_volume 598.070359
_symmetry_space_group_name_H-M "P -1"
_symmetry_group_IT_number 2
_symmetry_cell_setting 'triclinic'
loop_
_space_group_symop_operation_xyz
x,y,z
-x,-y,-z
loop_
_atom_site_type_symbol
_atom_site_label
_atom_site_fract_x
_atom_site_fract_y
_atom_site_fract_z
Si Si1 0.989074 0.332361 0.636923
Si Si2 0.856852 0.256357 0.845944
Si Si3 0.295889 0.939093 0.423427
Si Si4 0.663222 0.695660 0.763229
Si Si5 0.523005 0.635539 0.973181
Si Si6 0.997768 0.198216 0.374503
Si Si7 0.679620 0.609063 0.477835
O O1 0.972724 0.221166 0.520249
O O2 0.911064 0.307936 0.736672
O O3 0.821075 0.471425 0.498750
O O4 0.263056 0.334967 0.810243
O O5 0.824730 0.118144 0.777522
O O6 0.593788 0.338535 0.737484
O O7 0.084678 0.266630 0.072747
O O8 0.551071 0.178977 0.398719
O O9 0.105921 0.052813 0.389417
O O10 0.500000 0.000000 0.500000
O O11 0.606018 0.640042 0.867549
O O12 0.674274 0.601035 0.638303
O O13 0.267263 0.739048 0.842599
O O14 0.500000 0.500000 0.000000
O O15 0.173366 0.286152 0.448249
#
# Coordination Sequence:
#
# PCOD9039632 Si02
#       7
#     2   2   2   2   2   2   2
#     4  11  25  43  64 100 137 177 221 268 337 398
#     4  10  23  42  69  98 128 177 227 273 329 388
#     4  11  23  47  66 100 133 173 230 270 330 393
#     4  10  24  44  69  99 134 176 221 278 327 391
#     4  11  25  44  65  99 137 175 219 270 336 397
#     4  12  24  43  69  96 138 176 219 279 327 393
#     4  11  22  42  65 103 133 175 222 270 334 393
#
# _framework density 23.408618000000001
#
# number of rings (size 3 to 8) (size 9 to 14) (size 15 to 20)
#    0.000    1.143    4.286    2.571    0.000    8.571 
#    0.000    2.857    0.000    0.000    0.000    0.000 
#    0.000    0.000    0.000    0.000    0.000    0.000 
#
# Total GULP energy -78421.541862 kJ/mol
# GULP energy per Si atom -5601.538704 kJ/mol
# Density = 2.335534 g / cm^3
# Si number density = 23.408618 Si / 1000 Ang^3
#
#
#
# Elastic Constant Matrix: (Units=GPa)
#
#
# Indices 1 2 3 4 5 6 
#
# 1 94.1059 25.8798 39.6452 -4.6798 20.4096 -0.8723
# 2 25.8798 101.9920 41.3798 8.2396 15.7327 -20.9383
# 3 39.6452 41.3798 160.4872 13.4361 43.8590 -13.7381
# 4 -4.6798 8.2396 13.4361 29.9594 4.9569 10.4609
# 5 20.4096 15.7327 43.8590 4.9569 56.0194 -1.9867
# 6 -0.8723 -20.9383 -13.7381 10.4609 -1.9867 49.0940
#
#
#
# Elastic Compliance Matrix: (Units=1/GPa)
#
#
# Indices 1 2 3 4 5 6 
#
# 1 0.013340 -0.003031 -0.002519 0.005548 -0.002636 -0.003049
# 2 -0.003031 0.012976 -0.001406 -0.005462 -0.000735 0.006221
# 3 -0.002519 -0.001406 0.009294 -0.004181 -0.005501 0.002624
# 4 0.005548 -0.005462 -0.004181 0.042199 -0.001389 -0.012449
# 5 -0.002636 -0.000735 -0.005501 -0.001389 0.023424 -0.000656
# 6 -0.003049 0.006221 0.002624 -0.012449 -0.000656 0.026329
#
#
# Mechanical properties :
#
#
# Convention : Reuss Voigt Hill
#
# Bulk Modulus (GPa) = 46.08729 63.37717 54.73223
# Shear Modulus (GPa) = 33.62324 43.65993 38.64158
#
# Velocity S-wave (km/s) = 3.79405 4.32339 4.06734
# Velocity P-wave (km/s) = 6.23891 7.21494 6.74460
#
# Compressibility (1/GPa) = 0.02169796
#
# Stress axis : x y z
#
# Youngs Moduli (GPa) = 74.96053 77.06537 107.59724
#
# Poissons Ratio (x) = 0.23355 0.27106
# Poissons Ratio (y) = 0.22717 0.15133
# Poissons Ratio (z) = 0.18884 0.10838
#
# Static dielectric constant tensor:
#      x y z
#    x 1.962010 0.026820 -0.019240 
#    y 0.026820 1.850070 0.017720 
#    z -0.019240 0.017720 1.876100 
# 
# From -- ./inp_files/387669.got.cif
#   From: 2010.05.17/outbox.cif.g08.bks.cpg/sg2_194_cif.got.tgz:387669.got - 2010.06.03 11:33:40.
