data_PCOD9039309
_publ_section_title
;
Structure prediction by ZEFSAII (Michael W. Deem and Ramdas Pophale) SiO2 
 PCOD9039309
Probable space group: P -1
;
_chemical_formula_sum "Si O2"
_cell_formula_units_Z 16
_cell_length_a 16.215984
_cell_length_b 8.871778
_cell_length_c 8.084720
_cell_angle_alpha 97.571946
_cell_angle_beta 72.245482
_cell_angle_gamma 47.305932
_cell_volume 712.592697
_symmetry_space_group_name_H-M "P -1"
_symmetry_group_IT_number 2
_symmetry_cell_setting 'triclinic'
loop_
_space_group_symop_operation_xyz
x,y,z
-x,-y,-z
loop_
_atom_site_type_symbol
_atom_site_label
_atom_site_fract_x
_atom_site_fract_y
_atom_site_fract_z
Si Si1 0.033632 0.698552 0.728188
Si Si2 0.530752 0.167147 0.181795
Si Si3 0.494599 0.919704 0.318325
Si Si4 0.791542 0.816030 0.476016
Si Si5 0.169825 0.919533 0.340277
Si Si6 0.743715 0.361754 0.418701
Si Si7 0.422374 0.455124 0.972229
Si Si8 0.777279 0.007833 0.161642
O O1 0.085750 0.461355 0.617301
O O2 0.159108 0.633133 0.700531
O O3 0.969816 0.868349 0.633345
O O4 0.916295 0.835260 0.953785
O O5 0.404261 0.385697 0.404552
O O6 0.473967 0.266535 0.049115
O O7 0.658209 0.099591 0.136374
O O8 0.567083 0.944723 0.161658
O O9 0.500000 0.000000 0.500000
O O10 0.339527 0.107312 0.399377
O O11 0.548414 0.675093 0.232878
O O12 0.787140 0.967029 0.619942
O O13 0.789174 0.885007 0.299877
O O14 0.189336 0.798463 0.478362
O O15 0.269468 0.705181 0.120596
O O16 0.739153 0.225822 0.279453
O O17 0.500000 0.500000 0.000000
#
# Coordination Sequence:
#
# PCOD9039309 Si02
#       8
#     2   2   2   2   2   2   2   2
#     4  12  23  43  66  97 133 178 229 275 335 398
#     4  11  23  43  68 100 134 175 226 276 335 397
#     4  12  24  43  70 102 139 176 223 278 341 394
#     4  11  23  44  65  95 138 178 225 275 335 403
#     4  10  23  43  67  97 130 181 225 274 335 403
#     4  10  23  42  67  96 139 175 224 280 333 403
#     4  11  23  43  68 102 138 172 223 284 330 397
#     4  11  24  41  64 100 136 179 223 274 341 398
#
# _framework density 22.453218
#
# number of rings (size 3 to 8) (size 9 to 14) (size 15 to 20)
#    0.000    1.000    3.750    3.000    0.000    2.000 
#    2.250    1.250    0.000    0.000    0.000    0.000 
#    0.000    0.000    0.000    0.000    0.000    0.000 
#
# Total GULP energy -89409.253884 kJ/mol
# GULP energy per Si atom -5588.078368 kJ/mol
# Density = 2.240211 g / cm^3
# Si number density = 22.453218 Si / 1000 Ang^3
#
#
#
# Elastic Constant Matrix: (Units=GPa)
#
#
# Indices 1 2 3 4 5 6 
#
# 1 127.1991 0.4531 44.3185 17.0777 3.8412 13.4501
# 2 0.4531 90.2778 21.7088 15.5016 10.2914 8.7271
# 3 44.3185 21.7088 100.8582 24.8766 10.5125 5.1854
# 4 17.0777 15.5016 24.8766 32.6979 5.5446 -2.2693
# 5 3.8412 10.2914 10.5125 5.5446 40.2863 6.4257
# 6 13.4501 8.7271 5.1854 -2.2693 6.4257 25.7962
#
#
#
# Elastic Compliance Matrix: (Units=1/GPa)
#
#
# Indices 1 2 3 4 5 6 
#
# 1 0.010301 0.002005 -0.003759 -0.004046 0.000984 -0.005895
# 2 0.002005 0.013221 -0.001808 -0.006071 -0.001410 -0.005337
# 3 -0.003759 -0.001808 0.014035 -0.007600 -0.001718 -0.000490
# 4 -0.004046 -0.006071 -0.007600 0.042686 -0.003605 0.010344
# 5 0.000984 -0.001410 -0.001718 -0.003605 0.027112 -0.006761
# 6 -0.005895 -0.005337 -0.000490 0.010344 -0.006761 0.046337
#
#
# Mechanical properties :
#
#
# Convention : Reuss Voigt Hill
#
# Bulk Modulus (GPa) = 32.86057 50.14397 41.50227
# Shear Modulus (GPa) = 29.24664 36.54639 32.89651
#
# Velocity S-wave (km/s) = 3.61301 4.03881 3.83183
# Velocity P-wave (km/s) = 5.66322 6.64308 6.17262
#
# Compressibility (1/GPa) = 0.03043161
#
# Stress axis : x y z
#
# Youngs Moduli (GPa) = 97.07536 75.63903 71.25186
#
# Poissons Ratio (x) = -0.15164 0.26787
# Poissons Ratio (y) = -0.19462 0.12881
# Poissons Ratio (z) = 0.36495 0.13674
#
# Static dielectric constant tensor:
#      x y z
#    x 1.858070 0.011390 0.028770 
#    y 0.011390 1.866700 -0.032020 
#    z 0.028770 -0.032020 1.883810 
# 
# From -- ./inp_files/205545.got.cif
#   From: 2010.05.17/outbox.cif.g08.bks.cpg/sg2_103_cif.got.tgz:205545.got - 2010.06.03 11:33:40.
