data_PCOD9039703
_publ_section_title
;
Structure prediction by ZEFSAII (Michael W. Deem and Ramdas Pophale) SiO2 
 PCOD9039703
Probable space group: P -1
;
_chemical_formula_sum "Si O2"
_cell_formula_units_Z 16
_cell_length_a 25.784712
_cell_length_b 16.062195
_cell_length_c 10.777793
_cell_angle_alpha 35.810298
_cell_angle_beta 23.887374
_cell_angle_gamma 24.158075
_cell_volume 732.393797
_symmetry_space_group_name_H-M "P -1"
_symmetry_group_IT_number 2
_symmetry_cell_setting 'triclinic'
loop_
_space_group_symop_operation_xyz
x,y,z
-x,-y,-z
loop_
_atom_site_type_symbol
_atom_site_label
_atom_site_fract_x
_atom_site_fract_y
_atom_site_fract_z
Si Si1 0.413508 0.659487 0.730615
Si Si2 0.658797 0.586016 0.901464
Si Si3 0.039185 0.625588 0.876848
Si Si4 0.063327 0.884124 0.371450
Si Si5 0.322668 0.239957 0.575702
Si Si6 0.845275 0.289055 0.242598
Si Si7 0.400140 0.937325 0.246470
Si Si8 0.010439 0.641294 0.379459
O O1 0.627189 0.465781 0.529448
O O2 0.389369 0.829021 0.510243
O O3 0.358215 0.570534 0.872182
O O4 0.271878 0.760926 0.031712
O O5 0.619783 0.676408 0.740492
O O6 0.861271 0.468231 0.648725
O O7 0.517166 0.771904 0.081358
O O8 0.046448 0.730930 0.618172
O O9 0.214611 0.382603 0.761674
O O10 0.063217 0.687357 0.878794
O O11 0.840491 0.712402 0.196956
O O12 0.000000 0.000000 0.500000
O O13 0.933308 0.061900 0.338522
O O14 0.500000 0.000000 0.500000
O O15 0.892323 0.323764 0.967705
O O16 0.195443 0.142799 0.404075
O O17 0.500000 0.000000 0.000000
O O18 0.000000 0.500000 0.500000
#
# Coordination Sequence:
#
# PCOD9039703 Si02
#       8
#     2   2   2   2   2   2   2   2
#     4  12  25  46  71 108 147 182 242 292 357 423
#     4  12  27  46  71 108 145 184 239 297 355 429
#     4  10  24  45  67 105 136 182 239 286 350 425
#     4  10  23  42  70 103 137 183 231 287 347 422
#     4  11  26  45  71  99 141 185 234 291 358 418
#     4  11  24  42  74  99 141 185 231 291 352 421
#     4  12  26  44  73 105 140 191 237 285 357 428
#     4  12  24  45  71 102 143 187 235 293 353 419
#
# _framework density 21.846170999999998
#
# number of rings (size 3 to 8) (size 9 to 14) (size 15 to 20)
#    0.000    0.750    5.000    1.125    1.750    9.500 
#    0.000    0.000    0.000    0.000    0.000    0.000 
#    0.000    0.000    0.000    0.000    0.000    0.000 
#
# Total GULP energy -89517.320132 kJ/mol
# GULP energy per Si atom -5594.832508 kJ/mol
# Density = 2.179645 g / cm^3
# Si number density = 21.846171 Si / 1000 Ang^3
#
#
#
# Elastic Constant Matrix: (Units=GPa)
#
#
# Indices 1 2 3 4 5 6 
#
# 1 46.4044 13.3533 10.9398 -1.0188 0.8621 10.8610
# 2 13.3533 134.5950 49.0697 13.4501 -2.3267 -6.4129
# 3 10.9398 49.0697 117.1812 9.9975 3.4325 -1.1208
# 4 -1.0188 13.4501 9.9975 55.0024 0.6872 1.9070
# 5 0.8621 -2.3267 3.4325 0.6872 27.6798 -4.9449
# 6 10.8610 -6.4129 -1.1208 1.9070 -4.9449 37.5528
#
#
#
# Elastic Compliance Matrix: (Units=1/GPa)
#
#
# Indices 1 2 3 4 5 6 
#
# 1 0.024536 -0.002508 -0.001389 0.001624 -0.002263 -0.007947
# 2 -0.002508 0.009298 -0.003535 -0.001788 0.001795 0.002535
# 3 -0.001389 -0.003535 0.010274 -0.001008 -0.001511 -0.000043
# 4 0.001624 -0.001788 -0.001008 0.018908 -0.000881 -0.001881
# 5 -0.002263 0.001795 -0.001511 -0.000881 0.037614 0.005914
# 6 -0.007947 0.002535 -0.000043 -0.001881 0.005914 0.030233
#
#
# Mechanical properties :
#
#
# Convention : Reuss Voigt Hill
#
# Bulk Modulus (GPa) = 34.19494 49.43402 41.81448
# Shear Modulus (GPa) = 32.15949 39.03486 35.59717
#
# Velocity S-wave (km/s) = 3.84094 4.23165 4.04102
# Velocity P-wave (km/s) = 5.94618 6.82299 6.39962
#
# Compressibility (1/GPa) = 0.02924409
#
# Stress axis : x y z
#
# Youngs Moduli (GPa) = 40.75586 107.55236 97.33658
#
# Poissons Ratio (x) = 0.26974 0.13517
# Poissons Ratio (y) = 0.10222 0.34410
# Poissons Ratio (z) = 0.05660 0.38021
#
# Static dielectric constant tensor:
#      x y z
#    x 1.778450 0.011610 0.017050 
#    y 0.011610 1.827050 -0.034820 
#    z 0.017050 -0.034820 1.794370 
# 
# From -- ./inp_files/477715.got.cif
#   From: 2010.05.17/outbox.cif.g08.bks.cpg/sg2_239_cif.got.tgz:477715.got - 2010.06.03 11:33:40.
