data_PCOD9039213
_publ_section_title
;
Structure prediction by ZEFSAII (Michael W. Deem and Ramdas Pophale) SiO2 
 PCOD9039213
Probable space group: P -1
;
_chemical_formula_sum "Si O2"
_cell_formula_units_Z 16
_cell_length_a 5.569070
_cell_length_b 19.166430
_cell_length_c 12.330925
_cell_angle_alpha 49.050618
_cell_angle_beta 90.864033
_cell_angle_gamma 124.158383
_cell_volume 678.917894
_symmetry_space_group_name_H-M "P -1"
_symmetry_group_IT_number 2
_symmetry_cell_setting 'triclinic'
loop_
_space_group_symop_operation_xyz
x,y,z
-x,-y,-z
loop_
_atom_site_type_symbol
_atom_site_label
_atom_site_fract_x
_atom_site_fract_y
_atom_site_fract_z
Si Si1 0.361293 0.973715 0.261219
Si Si2 0.317834 0.275861 0.358378
Si Si3 0.481869 0.824665 0.423439
Si Si4 0.082211 0.123287 0.827095
Si Si5 0.361370 0.342418 0.047317
Si Si6 0.312084 0.740745 0.979027
Si Si7 0.328343 0.607020 0.311878
Si Si8 0.691107 0.562190 0.673605
O O1 0.640540 0.971149 0.285841
O O2 0.072703 0.861465 0.463438
O O3 0.261070 0.931309 0.176985
O O4 0.463651 0.107061 0.140645
O O5 0.506799 0.230645 0.410511
O O6 0.325930 0.325349 0.192567
O O7 0.483913 0.392455 0.330271
O O8 0.696101 0.833064 0.324698
O O9 0.081504 0.705568 0.503492
O O10 0.319981 0.254858 0.769289
O O11 0.000000 0.000000 0.000000
O O12 0.458032 0.266465 0.083422
O O13 0.027012 0.304727 0.033084
O O14 0.681419 0.493195 0.849009
O O15 0.223122 0.654034 0.172856
O O16 0.421851 0.536706 0.323567
O O17 0.000000 0.500000 0.500000
#
# Coordination Sequence:
#
# PCOD9039213 Si02
#       8
#     2   2   2   2   2   2   2   2
#     4  10  24  44  69 102 144 189 248 303 361 442
#     4  10  24  44  70 103 141 193 242 306 371 435
#     4  10  23  42  67 101 140 189 248 299 358 440
#     4  11  22  43  70 103 142 194 243 293 374 435
#     4  11  27  45  74 105 147 194 245 306 378 429
#     4  11  27  47  70 112 146 191 250 309 358 451
#     4  11  23  46  73 107 147 191 241 304 374 435
#     4  10  23  43  69 102 141 189 240 310 355 447
#
# _framework density 23.566914000000001
#
# number of rings (size 3 to 8) (size 9 to 14) (size 15 to 20)
#    0.000    1.500    2.500    0.375   10.500    3.000 
#    4.500    8.125    0.000    0.000    0.000    0.000 
#    0.000    0.000    0.000    0.000    0.000    0.000 
#
# Total GULP energy -89211.776742 kJ/mol
# GULP energy per Si atom -5575.736046 kJ/mol
# Density = 2.351328 g / cm^3
# Si number density = 23.566914 Si / 1000 Ang^3
#
#
#
# Elastic Constant Matrix: (Units=GPa)
#
#
# Indices 1 2 3 4 5 6 
#
# 1 88.7163 45.0220 13.3084 -3.3065 24.7252 -24.3194
# 2 45.0220 98.5489 59.1090 -8.9856 11.0967 -29.6829
# 3 13.3084 59.1090 128.1849 0.0966 18.2172 -22.3042
# 4 -3.3065 -8.9856 0.0966 34.3890 -9.5976 3.6927
# 5 24.7252 11.0967 18.2172 -9.5976 35.4142 -10.7208
# 6 -24.3194 -29.6829 -22.3042 3.6927 -10.7208 19.6254
#
#
#
# Elastic Compliance Matrix: (Units=1/GPa)
#
#
# Indices 1 2 3 4 5 6 
#
# 1 0.022155 -0.007727 0.005940 -0.005173 -0.012452 0.016689
# 2 -0.007727 0.025085 -0.008149 0.006246 0.010600 0.023719
# 3 0.005940 -0.008149 0.013190 -0.004422 -0.007537 0.006741
# 4 -0.005173 0.006246 -0.004422 0.033921 0.012686 -0.001442
# 5 -0.012452 0.010600 -0.007537 0.012686 0.045279 0.014384
# 6 0.016689 0.023719 0.006741 -0.001442 0.014384 0.123300
#
#
# Mechanical properties :
#
#
# Convention : Reuss Voigt Hill
#
# Bulk Modulus (GPa) = 24.65625 61.14764 42.90195
# Shear Modulus (GPa) = 16.87360 31.08644 23.98002
#
# Velocity S-wave (km/s) = 2.67870 3.63584 3.19333
# Velocity P-wave (km/s) = 4.47796 6.60519 5.64272
#
# Compressibility (1/GPa) = 0.04055767
#
# Stress axis : x y z
#
# Youngs Moduli (GPa) = 45.13736 39.86368 75.81738
#
# Poissons Ratio (x) = 0.30804 -0.45039
# Poissons Ratio (y) = 0.34879 0.61785
# Poissons Ratio (z) = -0.26814 0.32486
#
# Static dielectric constant tensor:
#      x y z
#    x 2.168520 0.064760 0.008410 
#    y 0.064760 1.921750 -0.014650 
#    z 0.008410 -0.014650 1.877580 
# 
# From -- ./inp_files/369370.got.cif
#   From: 2010.05.17/outbox.cif.g08.bks.cpg/sg2_185_cif.got.tgz:369370.got - 2010.06.03 11:33:40.
