data_PCOD9039443
_publ_section_title
;
Structure prediction by ZEFSAII (Michael W. Deem and Ramdas Pophale) SiO2 
 PCOD9039443
Probable space group: P -1
;
_chemical_formula_sum "Si O2"
_cell_formula_units_Z 16
_cell_length_a 7.827770
_cell_length_b 9.062546
_cell_length_c 11.747073
_cell_angle_alpha 63.797825
_cell_angle_beta 117.942055
_cell_angle_gamma 110.459478
_cell_volume 649.749877
_symmetry_space_group_name_H-M "P -1"
_symmetry_group_IT_number 2
_symmetry_cell_setting 'triclinic'
loop_
_space_group_symop_operation_xyz
x,y,z
-x,-y,-z
loop_
_atom_site_type_symbol
_atom_site_label
_atom_site_fract_x
_atom_site_fract_y
_atom_site_fract_z
Si Si1 0.739786 0.071295 0.922603
Si Si2 0.769035 0.707914 0.498816
Si Si3 0.443687 0.806389 0.528755
Si Si4 0.091690 0.388032 0.899456
Si Si5 0.041044 0.766459 0.761247
Si Si6 0.301386 0.090302 0.806073
Si Si7 0.912602 0.393003 0.614024
Si Si8 0.685716 0.792663 0.811804
O O1 0.707494 0.964335 0.832579
O O2 0.910838 0.233834 0.922788
O O3 0.536520 0.130954 0.867201
O O4 0.774166 0.942144 0.077226
O O5 0.589327 0.755643 0.496704
O O6 0.769790 0.780953 0.347209
O O7 0.763968 0.509702 0.577290
O O8 0.967310 0.781381 0.604373
O O9 0.225076 0.765963 0.426141
O O10 0.493208 0.737054 0.692117
O O11 0.500000 0.000000 0.500000
O O12 0.077931 0.383201 0.760608
O O13 0.063252 0.575642 0.857942
O O14 0.277699 0.344651 0.037865
O O15 0.866256 0.806123 0.774108
O O16 0.232303 0.904602 0.794820
O O17 0.000000 0.500000 0.500000
#
# Coordination Sequence:
#
# PCOD9039443 Si02
#       8
#     2   2   2   2   2   2   2   2
#     4  11  25  40  66  94 131 175 213 266 327 389
#     4  10  23  42  69  94 132 175 218 265 330 392
#     4  11  24  45  71  98 133 175 223 270 325 396
#     4  11  23  44  69  94 134 171 221 266 330 394
#     4  10  23  42  68  95 126 172 218 273 323 383
#     4  11  23  41  64  97 134 167 218 267 328 383
#     4  11  26  44  68 101 133 174 218 276 330 387
#     4  11  23  40  68  97 126 172 223 261 323 387
#
# _framework density 24.624859000000001
#
# number of rings (size 3 to 8) (size 9 to 14) (size 15 to 20)
#    0.000    1.250    1.250    3.750    1.750    8.000 
#    2.250    1.250    0.000    0.000    0.000    0.000 
#    0.000    0.000    0.000    0.000    0.000    0.000 
#
# Total GULP energy -89496.300733 kJ/mol
# GULP energy per Si atom -5593.518796 kJ/mol
# Density = 2.456881 g / cm^3
# Si number density = 24.624859 Si / 1000 Ang^3
#
#
#
# Elastic Constant Matrix: (Units=GPa)
#
#
# Indices 1 2 3 4 5 6 
#
# 1 17.2239 0.5542 1.4824 2.4960 -3.7139 -4.0278
# 2 0.5542 76.3718 5.1987 3.4654 -7.0465 -4.0690
# 3 1.4824 5.1987 184.6104 3.0704 -19.2959 0.5876
# 4 2.4960 3.4654 3.0704 40.3412 -6.3996 3.7200
# 5 -3.7139 -7.0465 -19.2959 -6.3996 26.5414 1.6222
# 6 -4.0278 -4.0690 0.5876 3.7200 1.6222 24.9793
#
#
#
# Elastic Compliance Matrix: (Units=1/GPa)
#
#
# Indices 1 2 3 4 5 6 
#
# 1 0.062609 0.000953 0.000306 -0.003705 0.007714 0.010294
# 2 0.000953 0.013561 -0.000031 -0.000900 0.003355 0.002280
# 3 0.000306 -0.000031 0.005871 0.000273 0.004394 -0.000420
# 4 -0.003705 -0.000900 0.000273 0.026520 0.006147 -0.005099
# 5 0.007714 0.003355 0.004394 0.006147 0.044453 -0.002115
# 6 0.010294 0.002280 -0.000420 -0.005099 -0.002115 0.042971
#
#
# Mechanical properties :
#
#
# Convention : Reuss Voigt Hill
#
# Bulk Modulus (GPa) = 11.83483 32.51964 22.17723
# Shear Modulus (GPa) = 22.55339 36.43708 29.49524
#
# Velocity S-wave (km/s) = 3.02963 3.85084 3.46465
# Velocity P-wave (km/s) = 4.12974 5.74514 5.00307
#
# Compressibility (1/GPa) = 0.08449637
#
# Stress axis : x y z
#
# Youngs Moduli (GPa) = 15.97209 73.74166 170.31835
#
# Poissons Ratio (x) = -0.07029 -0.05203
# Poissons Ratio (y) = -0.01522 0.00531
# Poissons Ratio (z) = -0.00488 0.00230
#
# Static dielectric constant tensor:
#      x y z
#    x 2.011890 -0.058450 0.021860 
#    y -0.058450 1.997350 0.004570 
#    z 0.021860 0.004570 2.053670 
# 
# From -- ./inp_files/381472.got.cif
#   From: 2010.05.17/outbox.cif.g08.bks.cpg/sg2_191_cif.got.tgz:381472.got - 2010.06.03 11:33:40.
