data_PCOD9039780
_publ_section_title
;
Structure prediction by ZEFSAII (Michael W. Deem and Ramdas Pophale) SiO2 
 PCOD9039780
Probable space group: P -1
;
_chemical_formula_sum "Si O2"
_cell_formula_units_Z 16
_cell_length_a 13.463231
_cell_length_b 6.648000
_cell_length_c 12.179674
_cell_angle_alpha 87.458430
_cell_angle_beta 130.107494
_cell_angle_gamma 68.511650
_cell_volume 713.090910
_symmetry_space_group_name_H-M "P -1"
_symmetry_group_IT_number 2
_symmetry_cell_setting 'triclinic'
loop_
_space_group_symop_operation_xyz
x,y,z
-x,-y,-z
loop_
_atom_site_type_symbol
_atom_site_label
_atom_site_fract_x
_atom_site_fract_y
_atom_site_fract_z
Si Si1 0.263223 0.634790 0.294940
Si Si2 0.904193 0.661400 0.529427
Si Si3 0.039988 0.239541 0.807981
Si Si4 0.581100 0.643177 0.037837
Si Si5 0.476498 0.830249 0.404567
Si Si6 0.900211 0.219185 0.216101
Si Si7 0.450110 0.059385 0.779406
Si Si8 0.132852 0.486518 0.019131
O O1 0.092265 0.763854 0.215984
O O2 0.329076 0.806136 0.319071
O O3 0.380189 0.432048 0.465527
O O4 0.254506 0.498297 0.183611
O O5 0.948463 0.472048 0.663073
O O6 0.728210 0.816321 0.375618
O O7 0.000000 0.500000 0.500000
O O8 0.960081 0.833982 0.606552
O O9 0.121818 0.000884 0.803152
O O10 0.158335 0.273395 0.963312
O O11 0.524074 0.795117 0.882467
O O12 0.500000 0.500000 0.000000
O O13 0.758295 0.452721 0.158876
O O14 0.541123 0.803688 0.112309
O O15 0.478631 0.910017 0.280959
O O16 0.500000 0.000000 0.500000
O O17 0.920981 0.296058 0.107628
O O18 0.000000 0.500000 0.000000
#
# Coordination Sequence:
#
# PCOD9039780 Si02
#       8
#     2   2   2   2   2   2   2   2
#     4  10  23  44  65 104 138 187 238 283 364 421
#     4  11  23  45  70 100 136 180 237 288 351 415
#     4  10  23  42  71 100 140 176 237 298 349 421
#     4  11  28  47  72 103 141 189 240 288 359 431
#     4  11  26  42  71 102 143 189 236 294 352 428
#     4  11  25  42  69 105 135 183 234 290 354 421
#     4  11  26  50  71 100 144 192 231 298 352 424
#     4   9  22  42  65  95 138 180 228 288 347 417
#
# _framework density 22.437532000000001
#
# number of rings (size 3 to 8) (size 9 to 14) (size 15 to 20)
#    0.000    1.500    2.500    0.000    7.000    6.500 
#    0.000    0.000    0.000    0.000    0.000    0.000 
#    0.000    0.000    0.000    0.000    0.000    0.000 
#
# Total GULP energy -89441.197297 kJ/mol
# GULP energy per Si atom -5590.074831 kJ/mol
# Density = 2.238646 g / cm^3
# Si number density = 22.437532 Si / 1000 Ang^3
#
#
#
# Elastic Constant Matrix: (Units=GPa)
#
#
# Indices 1 2 3 4 5 6 
#
# 1 103.7717 26.5297 41.4674 7.0034 -1.6887 20.7879
# 2 26.5297 112.3624 35.4176 14.0144 -4.6174 20.6604
# 3 41.4674 35.4176 121.1223 11.7618 -3.0379 19.7077
# 4 7.0034 14.0144 11.7618 32.4380 -1.5229 7.1420
# 5 -1.6887 -4.6174 -3.0379 -1.5229 32.5979 4.8689
# 6 20.7879 20.6604 19.7077 7.1420 4.8689 30.2075
#
#
#
# Elastic Compliance Matrix: (Units=1/GPa)
#
#
# Indices 1 2 3 4 5 6 
#
# 1 0.012268 -0.000802 -0.002944 0.000188 0.001184 -0.006209
# 2 -0.000802 0.011085 -0.001746 -0.002653 0.002078 -0.005598
# 3 -0.002944 -0.001746 0.010514 -0.001622 0.001015 -0.003419
# 4 0.000188 -0.002653 -0.001622 0.033835 0.001894 -0.005562
# 5 0.001184 0.002078 0.001015 0.001894 0.032498 -0.008584
# 6 -0.006209 -0.005598 -0.003419 -0.005562 -0.008584 0.046135
#
#
# Mechanical properties :
#
#
# Convention : Reuss Voigt Hill
#
# Bulk Modulus (GPa) = 43.70028 60.45399 52.07714
# Shear Modulus (GPa) = 30.31262 34.63812 32.47537
#
# Velocity S-wave (km/s) = 3.67955 3.93333 3.80856
# Velocity P-wave (km/s) = 6.12951 6.90144 6.52689
#
# Compressibility (1/GPa) = 0.02288315
#
# Stress axis : x y z
#
# Youngs Moduli (GPa) = 81.51068 90.21045 95.11176
#
# Poissons Ratio (x) = 0.07233 0.28001
# Poissons Ratio (y) = 0.06536 0.16609
# Poissons Ratio (z) = 0.23997 0.15754
#
# Static dielectric constant tensor:
#      x y z
#    x 1.851820 -0.039810 -0.023620 
#    y -0.039810 1.856590 0.001410 
#    z -0.023620 0.001410 1.766570 
# 
# From -- ./inp_files/441998.got.cif
#   From: 2010.05.17/outbox.cif.g08.bks.cpg/sg2_221_cif.got.tgz:441998.got - 2010.06.03 11:33:40.
