data_PCOD9039082
_publ_section_title
;
Structure prediction by ZEFSAII (Michael W. Deem and Ramdas Pophale) SiO2 
 PCOD9039082
Probable space group: P -1
;
_chemical_formula_sum "Si O2"
_cell_formula_units_Z 16
_cell_length_a 11.909108
_cell_length_b 22.415521
_cell_length_c 5.090000
_cell_angle_alpha 68.469848
_cell_angle_beta 66.021790
_cell_angle_gamma 29.253458
_cell_volume 606.457414
_symmetry_space_group_name_H-M "P -1"
_symmetry_group_IT_number 2
_symmetry_cell_setting 'triclinic'
loop_
_space_group_symop_operation_xyz
x,y,z
-x,-y,-z
loop_
_atom_site_type_symbol
_atom_site_label
_atom_site_fract_x
_atom_site_fract_y
_atom_site_fract_z
Si Si1 0.768161 0.028715 0.190764
Si Si2 0.425610 0.603471 0.304077
Si Si3 0.617982 0.766897 0.161026
Si Si4 0.173465 0.886122 0.710342
Si Si5 0.154618 0.753834 0.812323
Si Si6 0.776511 0.887425 0.363501
Si Si7 0.107304 0.308711 0.485528
Si Si8 0.221965 0.442558 0.754057
O O1 0.661260 0.131321 0.312518
O O2 0.782545 0.951944 0.413076
O O3 0.626302 0.098720 0.941453
O O4 0.036791 0.924388 0.039974
O O5 0.500000 0.500000 0.500000
O O6 0.208944 0.710351 0.536320
O O7 0.608537 0.583137 0.197996
O O8 0.333385 0.642086 0.031867
O O9 0.731179 0.755310 0.310830
O O10 0.635039 0.681467 0.303275
O O11 0.780418 0.712338 0.847027
O O12 0.230670 0.793825 0.682887
O O13 0.000000 0.000000 0.500000
O O14 0.899087 0.855345 0.020456
O O15 0.899788 0.763135 0.465678
O O16 0.500000 0.000000 0.500000
O O17 0.889157 0.454224 0.502719
O O18 0.000000 0.500000 0.000000
#
# Coordination Sequence:
#
# PCOD9039082 Si02
#       8
#     2   2   2   2   2   2   2   2
#     4  10  23  42  66 105 141 200 243 312 379 450
#     4  12  27  52  81 111 158 205 257 323 398 472
#     4  11  24  43  70 102 147 186 245 310 378 443
#     4  10  24  42  69 101 148 191 255 309 374 461
#     4  11  28  47  78 112 149 207 257 318 391 471
#     4  11  24  49  73 110 159 201 261 315 387 463
#     4  11  25  45  68 107 146 193 245 310 384 453
#     4  10  25  47  77 113 147 196 258 325 385 460
#
# _framework density 26.382726000000002
#
# number of rings (size 3 to 8) (size 9 to 14) (size 15 to 20)
#    0.000    1.250    1.250    2.250    8.750    7.500 
#    4.500    0.000    0.000    0.000    0.000    0.000 
#    0.000    0.000    0.000    0.000    0.000    0.000 
#
# Total GULP energy -89136.761445 kJ/mol
# GULP energy per Si atom -5571.047590 kJ/mol
# Density = 2.632268 g / cm^3
# Si number density = 26.382726 Si / 1000 Ang^3
#
#
#
# Elastic Constant Matrix: (Units=GPa)
#
#
# Indices 1 2 3 4 5 6 
#
# 1 159.8781 50.5631 49.7230 -24.3577 -16.7672 23.8190
# 2 50.5631 114.1312 34.6600 -29.7544 -23.3368 28.1817
# 3 49.7230 34.6600 94.4126 -11.2279 -17.9012 2.1625
# 4 -24.3577 -29.7544 -11.2279 63.0356 1.2302 -18.7997
# 5 -16.7672 -23.3368 -17.9012 1.2302 43.9077 -13.3014
# 6 23.8190 28.1817 2.1625 -18.7997 -13.3014 61.5293
#
#
#
# Elastic Compliance Matrix: (Units=1/GPa)
#
#
# Indices 1 2 3 4 5 6 
#
# 1 0.008419 -0.001841 -0.003538 0.001187 0.000189 -0.001888
# 2 -0.001841 0.012958 -0.002456 0.003986 0.004156 -0.003020
# 3 -0.003538 -0.002456 0.014152 0.000849 0.004037 0.003129
# 4 0.001187 0.003986 0.000849 0.019620 0.003727 0.004486
# 5 0.000189 0.004156 0.004037 0.003727 0.028144 0.005104
# 6 -0.001888 -0.003020 0.003129 0.004486 0.005104 0.020730
#
#
# Mechanical properties :
#
#
# Convention : Reuss Voigt Hill
#
# Bulk Modulus (GPa) = 50.35666 70.92380 60.64023
# Shear Modulus (GPa) = 39.58395 49.25955 44.42175
#
# Velocity S-wave (km/s) = 3.87767 4.32570 4.10780
# Velocity P-wave (km/s) = 6.25914 7.20347 6.74784
#
# Compressibility (1/GPa) = 0.01985835
#
# Stress axis : x y z
#
# Youngs Moduli (GPa) = 118.77386 77.17212 70.66385
#
# Poissons Ratio (x) = 0.14209 0.25000
# Poissons Ratio (y) = 0.21869 0.17356
# Poissons Ratio (z) = 0.42021 0.18954
#
# Static dielectric constant tensor:
#      x y z
#    x 2.338810 -0.151850 0.080860 
#    y -0.151850 2.177260 0.018280 
#    z 0.080860 0.018280 2.157160 
# 
# From -- ./inp_files/84194.got.cif
#   From: 2010.05.17/outbox.cif.g08.bks.cpg/sg2_43_cif.got.tgz:84194.got - 2010.06.03 11:33:40.
