data_PCOD9039651
_publ_section_title
;
Structure prediction by ZEFSAII (Michael W. Deem and Ramdas Pophale) SiO2 
 PCOD9039651
Probable space group: P -1
;
_chemical_formula_sum "Si O2"
_cell_formula_units_Z 16
_cell_length_a 5.995262
_cell_length_b 8.680488
_cell_length_c 15.065872
_cell_angle_alpha 93.480455
_cell_angle_beta 111.327508
_cell_angle_gamma 109.142738
_cell_volume 675.391437
_symmetry_space_group_name_H-M "P -1"
_symmetry_group_IT_number 2
_symmetry_cell_setting 'triclinic'
loop_
_space_group_symop_operation_xyz
x,y,z
-x,-y,-z
loop_
_atom_site_type_symbol
_atom_site_label
_atom_site_fract_x
_atom_site_fract_y
_atom_site_fract_z
Si Si1 0.909552 0.646167 0.676103
Si Si2 0.632502 0.128114 0.742060
Si Si3 0.768362 0.568565 0.986102
Si Si4 0.808480 0.899670 0.044665
Si Si5 0.551390 0.475372 0.760694
Si Si6 0.871473 0.115310 0.442195
Si Si7 0.382367 0.891273 0.853209
Si Si8 0.944430 0.303010 0.636421
O O1 0.944925 0.760161 0.599794
O O2 0.181598 0.729385 0.770879
O O3 0.852523 0.456161 0.637207
O O4 0.682745 0.619358 0.712082
O O5 0.625879 0.309991 0.769476
O O6 0.855886 0.174536 0.701557
O O7 0.381856 0.009370 0.646782
O O8 0.591863 0.013269 0.819651
O O9 0.656932 0.568542 0.871412
O O10 0.500000 0.500000 0.000000
O O11 0.888076 0.742425 0.062261
O O12 0.000000 0.500000 0.000000
O O13 0.784777 0.005183 0.128825
O O14 0.524341 0.845880 0.955274
O O15 0.000000 0.000000 0.000000
O O16 0.251669 0.392129 0.691455
O O17 0.836156 0.218436 0.524327
O O18 0.000000 0.000000 0.500000
#
# Coordination Sequence:
#
# PCOD9039651 Si02
#       8
#     2   2   2   2   2   2   2   2
#     4  10  24  44  69  96 140 177 233 293 353 433
#     4  10  23  42  69  98 140 178 232 293 351 434
#     4  12  30  47  75 107 151 197 246 304 367 437
#     4  11  25  43  72 100 141 184 241 303 361 439
#     4  11  24  44  69 101 137 185 235 292 357 426
#     4  11  22  46  66 101 137 181 229 290 364 431
#     4  10  23  44  69 103 138 184 241 295 370 427
#     4  11  23  43  70  99 135 181 237 288 358 429
#
# _framework density 23.689966999999999
#
# number of rings (size 3 to 8) (size 9 to 14) (size 15 to 20)
#    0.000    1.250    1.250    3.000   10.500    1.500 
#    9.000    0.000    0.000    0.000    0.000    0.000 
#    0.000    0.000    0.000    0.000    0.000    0.000 
#
# Total GULP energy -89313.636250 kJ/mol
# GULP energy per Si atom -5582.102266 kJ/mol
# Density = 2.363605 g / cm^3
# Si number density = 23.689967 Si / 1000 Ang^3
#
#
#
# Elastic Constant Matrix: (Units=GPa)
#
#
# Indices 1 2 3 4 5 6 
#
# 1 80.6375 28.3215 9.9291 -11.9868 -14.9989 15.7319
# 2 28.3215 97.1399 21.1285 1.6719 -21.5889 14.4173
# 3 9.9291 21.1285 103.7740 5.8363 -21.6609 -6.6438
# 4 -11.9868 1.6719 5.8363 43.1726 0.4210 -11.2506
# 5 -14.9989 -21.5889 -21.6609 0.4210 36.0673 -5.0379
# 6 15.7319 14.4173 -6.6438 -11.2506 -5.0379 51.5893
#
#
#
# Elastic Compliance Matrix: (Units=1/GPa)
#
#
# Indices 1 2 3 4 5 6 
#
# 1 0.015358 -0.003214 -0.000399 0.003713 0.003809 -0.002654
# 2 -0.003214 0.013161 -0.001313 -0.002001 0.005388 -0.002777
# 3 -0.000399 -0.001313 0.011460 -0.001059 0.006271 0.002346
# 4 0.003713 -0.002001 -0.001059 0.025691 0.000095 0.004902
# 5 0.003809 0.005388 0.006271 0.000095 0.036542 0.001730
# 6 -0.002654 -0.002777 0.002346 0.004902 0.001730 0.022510
#
#
# Mechanical properties :
#
#
# Convention : Reuss Voigt Hill
#
# Bulk Modulus (GPa) = 33.19162 44.47885 38.83524
# Shear Modulus (GPa) = 34.57433 40.97732 37.77583
#
# Velocity S-wave (km/s) = 3.82442 4.16352 3.99757
# Velocity P-wave (km/s) = 5.79162 6.47529 6.14297
#
# Compressibility (1/GPa) = 0.03012808
#
# Stress axis : x y z
#
# Youngs Moduli (GPa) = 65.11457 75.98076 87.25635
#
# Poissons Ratio (x) = 0.24422 0.03479
# Poissons Ratio (y) = 0.20929 0.11454
# Poissons Ratio (z) = 0.02596 0.09974
#
# Static dielectric constant tensor:
#      x y z
#    x 2.178120 -0.104360 0.009270 
#    y -0.104360 1.971350 -0.046000 
#    z 0.009270 -0.046000 1.877730 
# 
# From -- ./inp_files/135574.got.cif
#   From: 2010.05.17/outbox.cif.g08.bks.cpg/sg2_68_cif.got.tgz:135574.got - 2010.06.03 11:33:40.
