data_PCOD9039650
_publ_section_title
;
Structure prediction by ZEFSAII (Michael W. Deem and Ramdas Pophale) SiO2 
 PCOD9039650
Probable space group: P -1
;
_chemical_formula_sum "Si O2"
_cell_formula_units_Z 14
_cell_length_a 10.642918
_cell_length_b 7.606907
_cell_length_c 10.018958
_cell_angle_alpha 47.842201
_cell_angle_beta 72.270940
_cell_angle_gamma 56.722631
_cell_volume 500.027167
_symmetry_space_group_name_H-M "P -1"
_symmetry_group_IT_number 2
_symmetry_cell_setting 'triclinic'
loop_
_space_group_symop_operation_xyz
x,y,z
-x,-y,-z
loop_
_atom_site_type_symbol
_atom_site_label
_atom_site_fract_x
_atom_site_fract_y
_atom_site_fract_z
Si Si1 0.156508 0.315819 0.968762
Si Si2 0.582636 0.923881 0.795248
Si Si3 0.771140 0.087291 0.488086
Si Si4 0.501828 0.728488 0.695314
Si Si5 0.109661 0.107775 0.721332
Si Si6 0.263393 0.434757 0.613909
Si Si7 0.813669 0.231201 0.878704
O O1 0.320944 0.202658 0.041259
O O2 0.154887 0.051076 0.051162
O O3 0.166167 0.475945 0.757834
O O4 0.000000 0.500000 0.000000
O O5 0.718993 0.884092 0.672178
O O6 0.442877 0.230182 0.683822
O O7 0.503404 0.765465 0.835343
O O8 0.633341 0.276446 0.335506
O O9 0.765339 0.258758 0.533762
O O10 0.899326 0.946239 0.405580
O O11 0.657827 0.463030 0.754139
O O12 0.500000 0.000000 0.500000
O O13 0.204558 0.269008 0.625152
O O14 0.948183 0.277633 0.757956
O O15 0.179830 0.833705 0.931337
#
# Coordination Sequence:
#
# PCOD9039650 Si02
#       7
#     2   2   2   2   2   2   2
#     4  11  25  45  71 104 137 180 239 286 346 420
#     4  11  24  43  67 100 141 182 228 287 345 412
#     4  11  23  45  70 100 141 180 232 286 350 411
#     4  10  23  42  69  98 139 183 228 279 343 411
#     4  10  23  43  69 109 133 182 235 283 350 420
#     4  11  23  42  72 102 137 178 234 287 345 413
#     4  10  23  44  70 100 145 181 228 294 348 402
#
# _framework density 27.998480000000001
#
# number of rings (size 3 to 8) (size 9 to 14) (size 15 to 20)
#    0.000    1.429    1.429    2.571    8.000    2.857 
#    0.000    8.571    0.000    0.000    0.000    0.000 
#    0.000    0.000    0.000    0.000    0.000    0.000 
#
# Total GULP energy -78296.482735 kJ/mol
# GULP energy per Si atom -5592.605910 kJ/mol
# Density = 2.793475 g / cm^3
# Si number density = 27.998480 Si / 1000 Ang^3
#
#
#
# Elastic Constant Matrix: (Units=GPa)
#
#
# Indices 1 2 3 4 5 6 
#
# 1 109.3087 10.1648 2.8083 -13.0303 10.6674 -6.4943
# 2 10.1648 98.3887 2.1864 13.4444 -5.7058 4.0868
# 3 2.8083 2.1864 77.6184 7.0377 0.4388 -8.8166
# 4 -13.0303 13.4444 7.0377 40.4753 -8.8407 -3.3637
# 5 10.6674 -5.7058 0.4388 -8.8407 39.2248 -1.0136
# 6 -6.4943 4.0868 -8.8166 -3.3637 -1.0136 55.3835
#
#
#
# Elastic Compliance Matrix: (Units=1/GPa)
#
#
# Indices 1 2 3 4 5 6 
#
# 1 0.010029 -0.001689 -0.000463 0.003520 -0.002138 0.001402
# 2 -0.001689 0.011009 -0.000029 -0.004055 0.001115 -0.001241
# 3 -0.000463 -0.000029 0.013341 -0.002414 -0.000522 0.001915
# 4 0.003520 -0.004055 -0.002414 0.028889 0.005047 0.002175
# 5 -0.002138 0.001115 -0.000522 0.005047 0.027391 0.000392
# 6 0.001402 -0.001241 0.001915 0.002175 0.000392 0.018756
#
#
# Mechanical properties :
#
#
# Convention : Reuss Voigt Hill
#
# Bulk Modulus (GPa) = 33.31411 35.07051 34.19231
# Shear Modulus (GPa) = 40.39344 45.02714 42.71029
#
# Velocity S-wave (km/s) = 3.80241 4.01459 3.90994
# Velocity P-wave (km/s) = 5.58589 5.83457 5.71159
#
# Compressibility (1/GPa) = 0.03001731
#
# Stress axis : x y z
#
# Youngs Moduli (GPa) = 99.71205 90.83293 74.95966
#
# Poissons Ratio (x) = 0.15341 0.03471
# Poissons Ratio (y) = 0.16841 0.00214
# Poissons Ratio (z) = 0.04618 0.00259
#
# Static dielectric constant tensor:
#      x y z
#    x 2.361060 0.056220 0.001200 
#    y 0.056220 2.245450 0.043740 
#    z 0.001200 0.043740 2.383590 
# 
# From -- ./inp_files/418882.got.cif
#   From: 2010.05.17/outbox.cif.g08.bks.cpg/sg2_210_cif.got.tgz:418882.got - 2010.06.03 11:33:40.
