data_PCOD9039859
_publ_section_title
;
Structure prediction by ZEFSAII (Michael W. Deem and Ramdas Pophale) SiO2 
 PCOD9039859
Probable space group: P -1
;
_chemical_formula_sum "Si O2"
_cell_formula_units_Z 16
_cell_length_a 13.246859
_cell_length_b 11.555961
_cell_length_c 8.224789
_cell_angle_alpha 79.674380
_cell_angle_beta 122.038003
_cell_angle_gamma 139.538854
_cell_volume 632.370382
_symmetry_space_group_name_H-M "P -1"
_symmetry_group_IT_number 2
_symmetry_cell_setting 'triclinic'
loop_
_space_group_symop_operation_xyz
x,y,z
-x,-y,-z
loop_
_atom_site_type_symbol
_atom_site_label
_atom_site_fract_x
_atom_site_fract_y
_atom_site_fract_z
Si Si1 0.154293 0.954438 0.248168
Si Si2 0.211428 0.256158 0.127267
Si Si3 0.424804 0.366851 0.819779
Si Si4 0.852007 0.696846 0.581412
Si Si5 0.219092 0.818098 0.803679
Si Si6 0.406413 0.743398 0.022243
Si Si7 0.179481 0.727247 0.156371
Si Si8 0.415321 0.702925 0.389963
O O1 0.142896 0.812788 0.210563
O O2 0.205964 0.111173 0.143940
O O3 0.350283 0.118119 0.482294
O O4 0.924860 0.801796 0.120965
O O5 0.428649 0.479950 0.240898
O O6 0.122268 0.227708 0.233382
O O7 0.215519 0.249738 0.606170
O O8 0.476143 0.275308 0.942621
O O9 0.500000 0.500000 0.000000
O O10 0.675750 0.464551 0.525981
O O11 0.028760 0.754010 0.646000
O O12 0.411102 0.027092 0.838460
O O13 0.238896 0.693344 0.807163
O O14 0.253224 0.839447 0.021600
O O15 0.321737 0.627229 0.148590
O O16 0.338609 0.768840 0.368207
O O17 0.000000 0.500000 0.000000
#
# Coordination Sequence:
#
# PCOD9039859 Si02
#       8
#     2   2   2   2   2   2   2   2
#     4  11  23  36  62 100 131 163 228 289 333 387
#     4  11  23  41  66  98 139 179 225 288 337 411
#     4  12  27  42  67 101 146 183 226 288 353 411
#     4  12  22  45  76 100 132 189 241 275 345 418
#     4  10  23  42  71  96 131 183 230 283 335 422
#     4  10  24  43  66 100 145 180 226 280 359 403
#     4  11  21  39  67  97 128 175 232 279 342 400
#     4  11  21  39  68 101 130 176 234 288 329 408
#
# _framework density 25.301628000000001
#
# number of rings (size 3 to 8) (size 9 to 14) (size 15 to 20)
#    0.000    1.000    5.000    1.500    3.500    1.500 
#    0.000    0.625    0.000    0.000    0.000    0.000 
#    0.000    0.000    0.000    0.000    0.000    0.000 
#
# Total GULP energy -89068.288941 kJ/mol
# GULP energy per Si atom -5566.768059 kJ/mol
# Density = 2.524404 g / cm^3
# Si number density = 25.301628 Si / 1000 Ang^3
#
#
#
# Elastic Constant Matrix: (Units=GPa)
#
#
# Indices 1 2 3 4 5 6 
#
# 1 109.8337 26.6222 46.0140 -16.3435 46.6688 -31.2109
# 2 26.6222 51.1056 7.0916 5.0119 13.1729 -24.5659
# 3 46.0140 7.0916 72.8188 8.9795 37.7593 -8.4823
# 4 -16.3435 5.0119 8.9795 27.0154 -1.6081 11.9541
# 5 46.6688 13.1729 37.7593 -1.6081 45.4369 -7.0092
# 6 -31.2109 -24.5659 -8.4823 11.9541 -7.0092 52.2771
#
#
#
# Elastic Compliance Matrix: (Units=1/GPa)
#
#
# Indices 1 2 3 4 5 6 
#
# 1 0.024114 -0.007442 -0.008715 0.016316 -0.014196 0.003851
# 2 -0.007442 0.035551 0.011653 -0.023626 -0.010381 0.018165
# 3 -0.008715 0.011653 0.033047 -0.023271 -0.021468 0.008078
# 4 0.016316 -0.023626 -0.023271 0.068178 0.008828 -0.019543
# 5 -0.014196 -0.010381 -0.021468 0.008828 0.056002 -0.011347
# 6 0.003851 0.018165 0.008078 -0.019543 -0.011347 0.034222
#
#
# Mechanical properties :
#
#
# Convention : Reuss Voigt Hill
#
# Bulk Modulus (GPa) = 11.94689 43.69042 27.81865
# Shear Modulus (GPa) = 17.35969 35.21456 26.28713
#
# Velocity S-wave (km/s) = 2.62221 3.73472 3.22677
# Velocity P-wave (km/s) = 3.72827 5.99190 4.99013
#
# Compressibility (1/GPa) = 0.08370382
#
# Stress axis : x y z
#
# Youngs Moduli (GPa) = 41.46997 28.12835 30.25986
#
# Poissons Ratio (x) = 0.20933 0.26371
# Poissons Ratio (y) = 0.30862 -0.35260
# Poissons Ratio (z) = 0.36140 -0.32777
#
# Static dielectric constant tensor:
#      x y z
#    x 2.154800 -0.018400 0.067240 
#    y -0.018400 2.026010 -0.018200 
#    z 0.067240 -0.018200 2.093580 
# 
# From -- ./inp_files/307187.got.cif
#   From: 2010.05.17/outbox.cif.g08.bks.cpg/sg2_154_cif.got.tgz:307187.got - 2010.06.03 11:33:40.
