data_PCOD9039208
_publ_section_title
;
Structure prediction by ZEFSAII (Michael W. Deem and Ramdas Pophale) SiO2 
 PCOD9039208
Probable space group: P -1
;
_chemical_formula_sum "Si O2"
_cell_formula_units_Z 14
_cell_length_a 9.141145
_cell_length_b 9.656570
_cell_length_c 11.329699
_cell_angle_alpha 56.295997
_cell_angle_beta 105.376266
_cell_angle_gamma 133.146275
_cell_volume 596.168284
_symmetry_space_group_name_H-M "P -1"
_symmetry_group_IT_number 2
_symmetry_cell_setting 'triclinic'
loop_
_space_group_symop_operation_xyz
x,y,z
-x,-y,-z
loop_
_atom_site_type_symbol
_atom_site_label
_atom_site_fract_x
_atom_site_fract_y
_atom_site_fract_z
Si Si1 0.527184 0.376832 0.165453
Si Si2 0.527587 0.713563 0.383500
Si Si3 0.697389 0.360607 0.002462
Si Si4 0.076181 0.741874 0.046824
Si Si5 0.324920 0.013531 0.477748
Si Si6 0.319015 0.228291 0.857235
Si Si7 0.061003 0.490726 0.384192
O O1 0.583636 0.258974 0.151690
O O2 0.353029 0.177177 0.306610
O O3 0.689631 0.587384 0.188387
O O4 0.500000 0.500000 0.000000
O O5 0.500000 0.500000 0.500000
O O6 0.626233 0.872050 0.440894
O O7 0.680005 0.820721 0.254983
O O8 0.300206 0.621704 0.363698
O O9 0.891206 0.606372 0.976685
O O10 0.757658 0.240611 0.001929
O O11 0.548505 0.348775 0.889491
O O12 0.026467 0.596089 0.220523
O O13 0.160095 0.981114 0.993673
O O14 0.500000 0.000000 0.500000
O O15 0.098741 0.774636 0.545247
O O16 0.000000 0.500000 0.500000
#
# Coordination Sequence:
#
# PCOD9039208 Si02
#       7
#     2   2   2   2   2   2   2
#     4  10  24  45  70  99 139 186 229 289 360 417
#     4  12  27  48  69 105 147 190 240 291 362 424
#     4  10  23  42  67 101 138 173 233 282 349 417
#     4  11  25  41  72 105 132 179 234 289 348 421
#     4  12  26  47  76 102 146 191 241 302 356 429
#     4  11  24  45  71  99 140 180 229 291 353 421
#     4  12  28  45  74 109 142 187 245 291 361 436
#
# _framework density 23.483301999999998
#
# number of rings (size 3 to 8) (size 9 to 14) (size 15 to 20)
#    0.000    0.857    4.286    1.286   10.000    1.143 
#    5.143    0.000    0.000    0.000    0.000    0.000 
#    0.000    0.000    0.000    0.000    0.000    0.000 
#
# Total GULP energy -78123.137350 kJ/mol
# GULP energy per Si atom -5580.224096 kJ/mol
# Density = 2.342985 g / cm^3
# Si number density = 23.483302 Si / 1000 Ang^3
#
#
#
# Elastic Constant Matrix: (Units=GPa)
#
#
# Indices 1 2 3 4 5 6 
#
# 1 57.5067 19.1515 13.6175 13.8543 -1.1064 -16.8740
# 2 19.1515 134.9751 53.2971 0.3427 -10.9518 -21.5237
# 3 13.6175 53.2971 142.2526 -14.2997 -19.0621 -16.5763
# 4 13.8543 0.3427 -14.2997 46.8507 -9.0892 -11.5110
# 5 -1.1064 -10.9518 -19.0621 -9.0892 30.9262 13.4138
# 6 -16.8740 -21.5237 -16.5763 -11.5110 13.4138 42.5442
#
#
#
# Elastic Compliance Matrix: (Units=1/GPa)
#
#
# Indices 1 2 3 4 5 6 
#
# 1 0.022028 -0.001604 -0.002152 -0.006576 -0.006187 0.007259
# 2 -0.001604 0.009274 -0.002921 0.000279 0.000244 0.002916
# 3 -0.002152 -0.002921 0.009743 0.005020 0.005960 0.000944
# 4 -0.006576 0.000279 0.005020 0.027617 0.009331 0.004019
# 5 -0.006187 0.000244 0.005960 0.009331 0.043469 -0.011189
# 6 0.007259 0.002916 0.000944 0.004019 -0.011189 0.032843
#
#
# Mechanical properties :
#
#
# Convention : Reuss Voigt Hill
#
# Bulk Modulus (GPa) = 36.11107 56.31850 46.21478
# Shear Modulus (GPa) = 29.84060 40.64211 35.24136
#
# Velocity S-wave (km/s) = 3.56858 4.16466 3.87809
# Velocity P-wave (km/s) = 5.69125 6.86733 6.30677
#
# Compressibility (1/GPa) = 0.02769234
#
# Stress axis : x y z
#
# Youngs Moduli (GPa) = 45.39661 107.83280 102.63481
#
# Poissons Ratio (x) = 0.17292 0.22090
# Poissons Ratio (y) = 0.07280 0.29975
# Poissons Ratio (z) = 0.09771 0.31493
#
# Static dielectric constant tensor:
#      x y z
#    x 2.028890 -0.021510 0.019650 
#    y -0.021510 1.872800 -0.001680 
#    z 0.019650 -0.001680 1.905640 
# 
# From -- ./inp_files/381387.got.cif
#   From: 2010.05.17/outbox.cif.g08.bks.cpg/sg2_191_cif.got.tgz:381387.got - 2010.06.03 11:33:40.
