data_PCOD9039086
_publ_section_title
;
Structure prediction by ZEFSAII (Michael W. Deem and Ramdas Pophale) SiO2 
 PCOD9039086
Probable space group: P -1
;
_chemical_formula_sum "Si O2"
_cell_formula_units_Z 14
_cell_length_a 5.736634
_cell_length_b 14.964202
_cell_length_c 14.989224
_cell_angle_alpha 151.454317
_cell_angle_beta 87.164904
_cell_angle_gamma 100.378759
_cell_volume 588.395577
_symmetry_space_group_name_H-M "P -1"
_symmetry_group_IT_number 2
_symmetry_cell_setting 'triclinic'
loop_
_space_group_symop_operation_xyz
x,y,z
-x,-y,-z
loop_
_atom_site_type_symbol
_atom_site_label
_atom_site_fract_x
_atom_site_fract_y
_atom_site_fract_z
Si Si1 0.132819 0.110527 0.805040
Si Si2 0.456578 0.342549 0.450865
Si Si3 0.376205 0.006742 0.879493
Si Si4 0.822557 0.740207 0.770460
Si Si5 0.732226 0.713117 0.413682
Si Si6 0.886469 0.336938 0.141411
Si Si7 0.291108 0.116019 0.614860
O O1 0.276350 0.025561 0.800655
O O2 0.286335 0.183702 0.776695
O O3 0.912079 0.926448 0.617989
O O4 0.042174 0.267963 0.001155
O O5 0.564526 0.571523 0.639532
O O6 0.188171 0.260593 0.337911
O O7 0.469960 0.308545 0.526161
O O8 0.605651 0.206136 0.287061
O O9 0.216377 0.070922 0.014579
O O10 0.641480 0.160884 0.004630
O O11 0.989645 0.654128 0.755853
O O12 0.840671 0.535939 0.282300
O O13 0.651730 0.719575 0.319059
O O14 0.500000 0.000000 0.500000
O O15 0.000000 0.000000 0.500000
#
# Coordination Sequence:
#
# PCOD9039086 Si02
#       7
#     2   2   2   2   2   2   2
#     4  10  23  42  66  90 129 170 211 271 328 392
#     4  11  21  40  64  87 127 171 213 269 333 381
#     4  11  21  41  62  89 128 165 216 268 327 391
#     4  10  24  40  59  93 125 167 220 269 320 397
#     4  11  22  42  67  93 127 172 214 270 330 391
#     4  11  23  40  63  94 128 165 219 266 325 394
#     4  10  23  43  71 101 132 172 225 270 329 401
#
# _framework density 23.793514999999999
#
# number of rings (size 3 to 8) (size 9 to 14) (size 15 to 20)
#    0.000    1.429    2.857    2.143    2.000    2.857 
#    2.571    0.714    0.000    0.000    0.000    0.000 
#    0.000    0.000    0.000    0.000    0.000    0.000 
#
# Total GULP energy -78165.930910 kJ/mol
# GULP energy per Si atom -5583.280779 kJ/mol
# Density = 2.373936 g / cm^3
# Si number density = 23.793515 Si / 1000 Ang^3
#
#
#
# Elastic Constant Matrix: (Units=GPa)
#
#
# Indices 1 2 3 4 5 6 
#
# 1 78.8099 32.6793 14.9013 -7.8713 -25.1897 -14.0007
# 2 32.6793 163.5164 18.1301 -27.8821 -26.6797 -14.7768
# 3 14.9013 18.1301 59.6467 -2.7901 -31.7677 -8.6577
# 4 -7.8713 -27.8821 -2.7901 37.4893 -13.3942 -8.9551
# 5 -25.1897 -26.6797 -31.7677 -13.3942 42.7084 6.4120
# 6 -14.0007 -14.7768 -8.6577 -8.9551 6.4120 35.4427
#
#
#
# Elastic Compliance Matrix: (Units=1/GPa)
#
#
# Indices 1 2 3 4 5 6 
#
# 1 0.023409 0.004369 0.012669 0.023728 0.031223 0.014510
# 2 0.004369 0.012608 0.009969 0.021863 0.023109 0.010761
# 3 0.012669 0.009969 0.045280 0.038312 0.056439 0.019691
# 4 0.023728 0.021863 0.038312 0.087225 0.078138 0.035749
# 5 0.031223 0.023109 0.056439 0.078138 0.117615 0.034220
# 6 0.014510 0.010761 0.019691 0.035749 0.034220 0.046085
#
#
# Mechanical properties :
#
#
# Convention : Reuss Voigt Hill
#
# Bulk Modulus (GPa) = 7.39049 48.15493 27.77271
# Shear Modulus (GPa) = 15.46494 38.87890 27.17192
#
# Velocity S-wave (km/s) = 2.55221 4.04668 3.38300
# Velocity P-wave (km/s) = 3.43480 6.48974 5.19204
#
# Compressibility (1/GPa) = 0.13530907
#
# Stress axis : x y z
#
# Youngs Moduli (GPa) = 42.71856 79.31387 22.08491
#
# Poissons Ratio (x) = -0.34648 -0.27979
# Poissons Ratio (y) = -0.18662 -0.22015
# Poissons Ratio (z) = -0.54120 -0.79064
#
# Static dielectric constant tensor:
#      x y z
#    x 2.041730 0.015380 0.055800 
#    y 0.015380 2.123180 -0.011540 
#    z 0.055800 -0.011540 1.926390 
# 
# From -- ./inp_files/32695.got.cif
#   From: 2010.05.17/outbox.cif.g08.bks.cpg/sg2_17_cif.got.tgz:32695.got - 2010.06.03 11:33:40.
