data_PCOD9039094
_publ_section_title
;
Structure prediction by ZEFSAII (Michael W. Deem and Ramdas Pophale) SiO2 
 PCOD9039094
Probable space group: P -1
;
_chemical_formula_sum "Si O2"
_cell_formula_units_Z 12
_cell_length_a 15.089795
_cell_length_b 9.410467
_cell_length_c 11.833176
_cell_angle_alpha 63.036404
_cell_angle_beta 142.404885
_cell_angle_gamma 143.683840
_cell_volume 521.490707
_symmetry_space_group_name_H-M "P -1"
_symmetry_group_IT_number 2
_symmetry_cell_setting 'triclinic'
loop_
_space_group_symop_operation_xyz
x,y,z
-x,-y,-z
loop_
_atom_site_type_symbol
_atom_site_label
_atom_site_fract_x
_atom_site_fract_y
_atom_site_fract_z
Si Si1 0.872120 0.546505 0.560036
Si Si2 0.371636 0.429184 0.043513
Si Si3 0.103230 0.913312 0.858199
Si Si4 0.707552 0.931066 0.777960
Si Si5 0.821117 0.948400 0.453801
Si Si6 0.893556 0.218553 0.621866
O O1 0.066698 0.743695 0.790512
O O2 0.584184 0.286117 0.408734
O O3 0.936552 0.755451 0.471054
O O4 0.915146 0.426525 0.575685
O O5 0.281201 0.250263 0.130210
O O6 0.625832 0.738506 0.232142
O O7 0.164910 0.375653 0.825882
O O8 0.344970 0.254258 0.992047
O O9 0.887847 0.848379 0.627354
O O10 0.107821 0.846570 0.013143
O O11 0.780924 0.060948 0.684425
O O12 0.730753 0.999179 0.433727
#
# Coordination Sequence:
#
# PCOD9039094 Si02
#       6
#     2   2   2   2   2   2
#     4  12  24  40  65  96 125 162 204 259 313 359
#     4   9  22  41  63  94 116 168 206 251 307 360
#     4   9  21  39  64  91 120 158 211 254 291 371
#     4  10  23  42  66  92 120 168 209 252 307 363
#     4  11  23  41  66  92 126 164 206 253 309 373
#     4  11  25  42  62  94 130 160 205 256 311 370
#
# _framework density 23.010957999999999
#
# number of rings (size 3 to 8) (size 9 to 14) (size 15 to 20)
#    1.000    0.667    1.667    2.000    0.000    8.667 
#    0.000    0.000    0.000    0.000    0.000    0.000 
#    0.000    0.000    0.000    0.000    0.000    0.000 
#
# Total GULP energy -66882.991121 kJ/mol
# GULP energy per Si atom -5573.582593 kJ/mol
# Density = 2.295858 g / cm^3
# Si number density = 23.010958 Si / 1000 Ang^3
#
#
#
# Elastic Constant Matrix: (Units=GPa)
#
#
# Indices 1 2 3 4 5 6 
#
# 1 97.3084 29.8766 49.8168 19.4325 -32.0665 -19.0555
# 2 29.8766 75.1667 36.1191 15.4385 -6.0135 -33.4458
# 3 49.8168 36.1191 102.9908 30.8436 -20.3698 -12.5660
# 4 19.4325 15.4385 30.8436 23.9387 -11.3259 -11.5071
# 5 -32.0665 -6.0135 -20.3698 -11.3259 39.3941 0.4551
# 6 -19.0555 -33.4458 -12.5660 -11.5071 0.4551 42.9418
#
#
#
# Elastic Compliance Matrix: (Units=1/GPa)
#
#
# Indices 1 2 3 4 5 6 
#
# 1 0.018542 -0.001326 -0.006006 0.002226 0.012357 0.005903
# 2 -0.001326 0.023863 -0.006234 0.001486 -0.000424 0.016576
# 3 -0.006006 -0.006234 0.019887 -0.020941 -0.001494 -0.007297
# 4 0.002226 0.001486 -0.020941 0.081270 0.014372 0.017643
# 5 0.012357 -0.000424 -0.001494 0.014372 0.038643 0.008157
# 6 0.005903 0.016576 -0.007297 0.017643 0.008157 0.041323
#
#
# Mechanical properties :
#
#
# Convention : Reuss Voigt Hill
#
# Bulk Modulus (GPa) = 28.44158 56.34342 42.39250
# Shear Modulus (GPa) = 19.05637 31.89849 25.47743
#
# Velocity S-wave (km/s) = 2.88087 3.72725 3.33105
# Velocity P-wave (km/s) = 4.84280 6.56215 5.76691
#
# Compressibility (1/GPa) = 0.03515979
#
# Stress axis : x y z
#
# Youngs Moduli (GPa) = 53.93160 41.90671 50.28456
#
# Poissons Ratio (x) = 0.05555 0.30202
# Poissons Ratio (y) = 0.07149 0.31347
# Poissons Ratio (z) = 0.32393 0.26124
#
# Static dielectric constant tensor:
#      x y z
#    x 1.952580 0.000070 -0.029650 
#    y 0.000070 1.888660 0.028550 
#    z -0.029650 0.028550 1.891250 
# 
# From -- ./inp_files/537033.got.cif
#   From: 2010.05.17/outbox.cif.g08.bks.cpg/sg2_269_cif.got.tgz:537033.got - 2010.06.03 11:33:40.
