data_PCOD9039240
_publ_section_title
;
Structure prediction by ZEFSAII (Michael W. Deem and Ramdas Pophale) SiO2 
 PCOD9039240
Probable space group: P -1
;
_chemical_formula_sum "Si O2"
_cell_formula_units_Z 16
_cell_length_a 9.380859
_cell_length_b 11.410680
_cell_length_c 8.352727
_cell_angle_alpha 92.848781
_cell_angle_beta 87.571767
_cell_angle_gamma 51.950657
_cell_volume 700.174491
_symmetry_space_group_name_H-M "P -1"
_symmetry_group_IT_number 2
_symmetry_cell_setting 'triclinic'
loop_
_space_group_symop_operation_xyz
x,y,z
-x,-y,-z
loop_
_atom_site_type_symbol
_atom_site_label
_atom_site_fract_x
_atom_site_fract_y
_atom_site_fract_z
Si Si1 0.456164 0.717880 0.438680
Si Si2 0.812979 0.637046 0.947928
Si Si3 0.904811 0.153361 0.413807
Si Si4 0.801436 0.647499 0.570059
Si Si5 0.196929 0.909073 0.908635
Si Si6 0.290487 0.059048 0.413196
Si Si7 0.619605 0.939013 0.148577
Si Si8 0.508767 0.628432 0.066069
O O1 0.283174 0.718559 0.476899
O O2 0.634224 0.643766 0.537636
O O3 0.525861 0.645966 0.254817
O O4 0.360206 0.896844 0.462663
O O5 0.811384 0.671596 0.762169
O O6 0.748482 0.765786 0.089261
O O7 0.675180 0.600561 0.964277
O O8 0.000000 0.500000 0.000000
O O9 0.816550 0.162521 0.251678
O O10 0.083984 0.139256 0.366442
O O11 0.000000 0.000000 0.500000
O O12 0.752813 0.794190 0.488621
O O13 0.000000 0.500000 0.500000
O O14 0.263595 0.001996 0.851148
O O15 0.334780 0.789639 0.024648
O O16 0.000000 0.000000 0.000000
O O17 0.464528 0.004903 0.293337
O O18 0.500000 0.000000 0.000000
O O19 0.500000 0.500000 0.000000
#
# Coordination Sequence:
#
# PCOD9039240 Si02
#       8
#     2   2   2   2   2   2   2   2
#     4  11  23  48  68 104 143 183 243 296 356 429
#     4  12  27  48  70 105 143 188 243 293 362 423
#     4  10  23  42  67 105 144 174 232 295 359 418
#     4  12  27  44  71 104 146 186 236 294 367 426
#     4  12  25  43  71 107 137 187 240 290 353 422
#     4  11  22  44  74 104 136 190 236 294 349 426
#     4  12  21  44  77 100 139 184 249 299 335 422
#     4  12  27  47  72 101 144 189 237 295 363 427
#
# _framework density 22.851447
#
# number of rings (size 3 to 8) (size 9 to 14) (size 15 to 20)
#    0.000    0.500    3.750    4.875    1.750    3.000 
#    0.000    1.875    0.000    0.000    0.000    0.000 
#    0.000    0.000    0.000    0.000    0.000    0.000 
#
# Total GULP energy -89231.864673 kJ/mol
# GULP energy per Si atom -5576.991542 kJ/mol
# Density = 2.279944 g / cm^3
# Si number density = 22.851447 Si / 1000 Ang^3
#
#
#
# Elastic Constant Matrix: (Units=GPa)
#
#
# Indices 1 2 3 4 5 6 
#
# 1 183.6169 56.5053 24.0969 8.1145 -16.0227 -22.4761
# 2 56.5053 116.2180 20.3350 23.1515 -5.2986 -21.2930
# 3 24.0969 20.3350 90.9878 8.1077 -3.1588 -2.0740
# 4 8.1145 23.1515 8.1077 28.6223 -11.3472 4.3297
# 5 -16.0227 -5.2986 -3.1588 -11.3472 42.4266 1.1596
# 6 -22.4761 -21.2930 -2.0740 4.3297 1.1596 48.6163
#
#
#
# Elastic Compliance Matrix: (Units=1/GPa)
#
#
# Indices 1 2 3 4 5 6 
#
# 1 0.006882 -0.003058 -0.001159 0.001608 0.002518 0.001590
# 2 -0.003058 0.013513 -0.001139 -0.011707 -0.002835 0.005567
# 3 -0.001159 -0.001139 0.011724 -0.002126 -0.000266 -0.000339
# 4 0.001608 -0.011707 -0.002126 0.051081 0.012904 -0.009332
# 5 0.002518 -0.002835 -0.000266 0.012904 0.027650 -0.001898
# 6 0.001590 0.005567 -0.000339 -0.009332 -0.001898 0.024604
#
#
# Mechanical properties :
#
#
# Convention : Reuss Voigt Hill
#
# Bulk Modulus (GPa) = 46.70870 65.85524 56.28197
# Shear Modulus (GPa) = 32.61534 43.25873 37.93703
#
# Velocity S-wave (km/s) = 3.78203 4.35563 4.07893
# Velocity P-wave (km/s) = 6.28937 7.36049 6.84591
#
# Compressibility (1/GPa) = 0.02140929
#
# Stress axis : x y z
#
# Youngs Moduli (GPa) = 145.29746 74.00212 85.29246
#
# Poissons Ratio (x) = 0.22627 0.09885
# Poissons Ratio (y) = 0.44427 0.09712
# Poissons Ratio (z) = 0.16840 0.08426
#
# Static dielectric constant tensor:
#      x y z
#    x 1.892530 0.048570 -0.079060 
#    y 0.048570 1.780880 -0.100390 
#    z -0.079060 -0.100390 1.930190 
# 
# From -- ./inp_files/188548.got.cif
#   From: 2010.05.17/outbox.cif.g08.bks.cpg/sg2_95_cif.got.tgz:188548.got - 2010.06.03 11:33:40.
