data_PCOD9039459
_publ_section_title
;
Structure prediction by ZEFSAII (Michael W. Deem and Ramdas Pophale) SiO2 
 PCOD9039459
Probable space group: P -1
;
_chemical_formula_sum "Si O2"
_cell_formula_units_Z 16
_cell_length_a 19.845917
_cell_length_b 17.662787
_cell_length_c 5.254561
_cell_angle_alpha 113.417169
_cell_angle_beta 70.865695
_cell_angle_gamma 157.895535
_cell_volume 631.640528
_symmetry_space_group_name_H-M "P -1"
_symmetry_group_IT_number 2
_symmetry_cell_setting 'triclinic'
loop_
_space_group_symop_operation_xyz
x,y,z
-x,-y,-z
loop_
_atom_site_type_symbol
_atom_site_label
_atom_site_fract_x
_atom_site_fract_y
_atom_site_fract_z
Si Si1 0.110669 0.282324 0.686609
Si Si2 0.796840 0.452373 0.232316
Si Si3 0.575057 0.996967 0.028738
Si Si4 0.633101 0.576314 0.709851
Si Si5 0.703871 0.814481 0.721848
Si Si6 0.051609 0.458604 0.353157
Si Si7 0.312485 0.952306 0.531821
Si Si8 0.433703 0.635261 0.094439
O O1 0.117848 0.366835 0.598692
O O2 0.223038 0.322804 0.503117
O O3 0.239326 0.452477 0.980622
O O4 0.906341 0.046479 0.695821
O O5 0.592228 0.242612 0.112417
O O6 0.805479 0.411868 0.431304
O O7 0.890679 0.503285 0.950938
O O8 0.718704 0.117510 0.803844
O O9 0.623446 0.045801 0.330268
O O10 0.500000 0.000000 0.000000
O O11 0.706709 0.747365 0.848059
O O12 0.430138 0.364652 0.565115
O O13 0.611516 0.496322 0.873597
O O14 0.589520 0.773081 0.887842
O O15 0.000000 0.500000 0.500000
O O16 0.875814 0.220565 0.343473
O O17 0.463031 0.183224 0.641987
#
# Coordination Sequence:
#
# PCOD9039459 Si02
#       8
#     2   2   2   2   2   2   2   2
#     4  11  24  41  66  98 136 175 228 282 342 408
#     4  12  25  43  68 100 135 176 229 279 343 412
#     4  12  24  44  69  97 135 179 224 279 344 411
#     4  10  23  42  68  96 137 173 226 282 339 411
#     4  10  23  43  66  99 131 181 223 277 347 408
#     4  12  26  45  68  99 135 177 228 285 343 411
#     4  12  25  43  68  99 135 178 226 283 345 404
#     4  11  24  41  65  97 136 176 225 286 336 413
#
# _framework density 25.330862
#
# number of rings (size 3 to 8) (size 9 to 14) (size 15 to 20)
#    0.000    0.750    1.250    6.000    5.250    1.500 
#    0.000    0.000    0.000    0.000    0.000    0.000 
#    0.000    0.000    0.000    0.000    0.000    0.000 
#
# Total GULP energy -89486.564630 kJ/mol
# GULP energy per Si atom -5592.910289 kJ/mol
# Density = 2.527321 g / cm^3
# Si number density = 25.330862 Si / 1000 Ang^3
#
#
#
# Elastic Constant Matrix: (Units=GPa)
#
#
# Indices 1 2 3 4 5 6 
#
# 1 110.8552 29.2677 18.6772 1.2759 14.4925 -9.1756
# 2 29.2677 169.3305 15.9005 -8.3218 -2.8066 16.8503
# 3 18.6772 15.9005 76.2987 -26.7671 -11.5627 12.2784
# 4 1.2759 -8.3218 -26.7671 28.4138 3.1391 -1.3260
# 5 14.4925 -2.8066 -11.5627 3.1391 39.9905 -1.8442
# 6 -9.1756 16.8503 12.2784 -1.3260 -1.8442 43.1165
#
#
#
# Elastic Compliance Matrix: (Units=1/GPa)
#
#
# Indices 1 2 3 4 5 6 
#
# 1 0.011884 -0.002345 -0.006225 -0.006247 -0.005560 0.004788
# 2 -0.002345 0.006702 0.000748 0.002491 0.001193 -0.003203
# 3 -0.006225 0.000748 0.024771 0.022665 0.007338 -0.007660
# 4 -0.006247 0.002491 0.022665 0.056771 0.004221 -0.006831
# 5 -0.005560 0.001193 0.007338 0.004221 0.028785 -0.002378
# 6 0.004788 -0.003203 -0.007660 -0.006831 -0.002378 0.027334
#
#
# Mechanical properties :
#
#
# Convention : Reuss Voigt Hill
#
# Bulk Modulus (GPa) = 36.08645 53.79725 44.94185
# Shear Modulus (GPa) = 27.60472 41.81340 34.70906
#
# Velocity S-wave (km/s) = 3.30474 4.06728 3.70568
# Velocity P-wave (km/s) = 5.37017 6.58338 6.00748
#
# Compressibility (1/GPa) = 0.02771124
#
# Stress axis : x y z
#
# Youngs Moduli (GPa) = 84.14754 149.21511 40.37033
#
# Poissons Ratio (x) = 0.34994 0.25131
# Poissons Ratio (y) = 0.19734 -0.03019
# Poissons Ratio (z) = 0.52383 -0.11158
#
# Static dielectric constant tensor:
#      x y z
#    x 2.066580 -0.031310 0.026110 
#    y -0.031310 2.030320 -0.002650 
#    z 0.026110 -0.002650 2.081390 
# 
# From -- ./inp_files/47694.got.cif
#   From: 2010.05.17/outbox.cif.g08.bks.cpg/sg2_24_cif.got.tgz:47694.got - 2010.06.03 11:33:40.
