data_PCOD9039842
_publ_section_title
;
Structure prediction by ZEFSAII (Michael W. Deem and Ramdas Pophale) SiO2 
 PCOD9039842
Probable space group: P -1
;
_chemical_formula_sum "Si O2"
_cell_formula_units_Z 16
_cell_length_a 19.776400
_cell_length_b 25.430451
_cell_length_c 8.911980
_cell_angle_alpha 28.692708
_cell_angle_beta 141.239883
_cell_angle_gamma 160.140742
_cell_volume 702.299160
_symmetry_space_group_name_H-M "P -1"
_symmetry_group_IT_number 2
_symmetry_cell_setting 'triclinic'
loop_
_space_group_symop_operation_xyz
x,y,z
-x,-y,-z
loop_
_atom_site_type_symbol
_atom_site_label
_atom_site_fract_x
_atom_site_fract_y
_atom_site_fract_z
Si Si1 0.567429 0.440263 0.710450
Si Si2 0.425418 0.611963 0.697764
Si Si3 0.244053 0.279976 0.043293
Si Si4 0.453000 0.143537 0.463058
Si Si5 0.988025 0.716733 0.734759
Si Si6 0.176600 0.651534 0.553619
Si Si7 0.049248 0.775008 0.051543
Si Si8 0.795966 0.897913 0.294683
O O1 0.500000 0.500000 0.500000
O O2 0.805839 0.643107 0.561756
O O3 0.402153 0.259701 0.754915
O O4 0.543649 0.333210 0.072174
O O5 0.609536 0.682013 0.879581
O O6 0.525715 0.812308 0.432114
O O7 0.190969 0.428091 0.809405
O O8 0.356547 0.495045 0.712191
O O9 0.227958 0.227955 0.323239
O O10 0.000787 0.067532 0.119293
O O11 0.605861 0.182613 0.567967
O O12 0.218721 0.924780 0.549839
O O13 0.886073 0.508383 0.056324
O O14 0.032756 0.771891 0.851622
O O15 0.153745 0.750272 0.338766
O O16 0.000000 0.500000 0.500000
O O17 0.167275 0.972716 0.848041
#
# Coordination Sequence:
#
# PCOD9039842 Si02
#       8
#     2   2   2   2   2   2   2   2
#     4  11  24  40  57  85 120 156 190 237 283 352
#     4  10  17  33  55  84 117 144 188 237 285 341
#     4   9  20  33  56  82 115 151 188 241 289 337
#     4  11  21  37  60  85 119 155 192 233 294 343
#     4  10  22  39  59  85 121 152 193 238 291 341
#     4   9  18  37  59  89 116 146 193 249 289 327
#     4  10  19  38  62  85 115 152 191 249 285 335
#     4  10  21  37  57  80 115 153 197 231 293 340
#
# _framework density 22.782315000000001
#
# number of rings (size 3 to 8) (size 9 to 14) (size 15 to 20)
#    0.000    2.000    3.750    1.500    5.250    2.500 
#    9.000    2.500    0.000    1.500    0.000    0.000 
#    0.000    0.000    0.000    0.000    0.000    0.000 
#
# Total GULP energy -89143.168217 kJ/mol
# GULP energy per Si atom -5571.448014 kJ/mol
# Density = 2.273046 g / cm^3
# Si number density = 22.782315 Si / 1000 Ang^3
#
#
#
# Elastic Constant Matrix: (Units=GPa)
#
#
# Indices 1 2 3 4 5 6 
#
# 1 121.3278 61.8676 37.1424 -6.7756 25.5803 34.5749
# 2 61.8676 169.8955 25.9462 -23.1411 10.2480 31.5277
# 3 37.1424 25.9462 38.9517 -6.7575 13.5817 12.0581
# 4 -6.7756 -23.1411 -6.7575 28.7050 3.8534 -2.3358
# 5 25.5803 10.2480 13.5817 3.8534 37.9849 -1.9151
# 6 34.5749 31.5277 12.0581 -2.3358 -1.9151 50.3904
#
#
#
# Elastic Compliance Matrix: (Units=1/GPa)
#
#
# Indices 1 2 3 4 5 6 
#
# 1 0.015867 -0.002656 -0.008508 -0.000026 -0.007301 -0.007468
# 2 -0.002656 0.008379 -0.000785 0.005824 -0.000933 -0.002998
# 3 -0.008508 -0.000785 0.039870 0.007727 -0.009260 -0.003206
# 4 -0.000026 0.005824 0.007727 0.042212 -0.008793 -0.003853
# 5 -0.007301 -0.000933 -0.009260 -0.008793 0.036140 0.008775
# 6 -0.007468 -0.002998 -0.003206 -0.003853 0.008775 0.027767
#
#
# Mechanical properties :
#
#
# Convention : Reuss Voigt Hill
#
# Bulk Modulus (GPa) = 24.86427 64.45415 44.65921
# Shear Modulus (GPa) = 24.09194 37.09731 30.59463
#
# Velocity S-wave (km/s) = 3.25543 4.03964 3.66855
# Velocity P-wave (km/s) = 5.00679 7.07891 6.13103
#
# Compressibility (1/GPa) = 0.04021835
#
# Stress axis : x y z
#
# Youngs Moduli (GPa) = 63.02416 119.34675 25.08153
#
# Poissons Ratio (x) = 0.31699 0.21339
# Poissons Ratio (y) = 0.16739 0.01968
# Poissons Ratio (z) = 0.53620 0.09366
#
# Static dielectric constant tensor:
#      x y z
#    x 1.910370 0.027530 -0.036280 
#    y 0.027530 1.884780 -0.045680 
#    z -0.036280 -0.045680 1.984790 
# 
# From -- ./inp_files/350237.got.cif
#   From: 2010.05.17/outbox.cif.g08.bks.cpg/sg2_176_cif.got.tgz:350237.got - 2010.06.03 11:33:40.
