data_PCOD9039473
_publ_section_title
;
Structure prediction by ZEFSAII (Michael W. Deem and Ramdas Pophale) SiO2 
 PCOD9039473
Probable space group: P -1
;
_chemical_formula_sum "Si O2"
_cell_formula_units_Z 16
_cell_length_a 17.353691
_cell_length_b 6.050400
_cell_length_c 9.650749
_cell_angle_alpha 53.403979
_cell_angle_beta 58.142671
_cell_angle_gamma 64.778713
_cell_volume 681.696406
_symmetry_space_group_name_H-M "P -1"
_symmetry_group_IT_number 2
_symmetry_cell_setting 'triclinic'
loop_
_space_group_symop_operation_xyz
x,y,z
-x,-y,-z
loop_
_atom_site_type_symbol
_atom_site_label
_atom_site_fract_x
_atom_site_fract_y
_atom_site_fract_z
Si Si1 0.715427 0.529322 0.308880
Si Si2 0.885656 0.747324 0.370720
Si Si3 0.049451 0.875206 0.359856
Si Si4 0.561118 0.244887 0.611693
Si Si5 0.320191 0.182572 0.497711
Si Si6 0.389120 0.580427 0.082802
Si Si7 0.904383 0.689505 0.052177
Si Si8 0.389570 0.213471 0.944126
O O1 0.662400 0.310182 0.518986
O O2 0.688871 0.793694 0.337742
O O3 0.823243 0.503872 0.196514
O O4 0.667259 0.573613 0.191103
O O5 0.895027 0.423358 0.533082
O O6 0.778759 0.881528 0.435155
O O7 0.907388 0.781905 0.174718
O O8 0.964472 0.849946 0.347464
O O9 0.000000 0.000000 0.500000
O O10 0.108430 0.068688 0.143575
O O11 0.500000 0.500000 0.500000
O O12 0.499705 0.190217 0.819163
O O13 0.584916 0.006492 0.565273
O O14 0.334933 0.461075 0.302350
O O15 0.500000 0.500000 0.000000
O O16 0.364839 0.382579 0.048701
O O17 0.369555 0.914804 0.012025
O O18 0.000000 0.500000 0.000000
#
# Coordination Sequence:
#
# PCOD9039473 Si02
#       8
#     2   2   2   2   2   2   2   2
#     4  10  26  44  67  99 135 186 242 288 369 432
#     4  10  25  45  66 106 136 191 237 294 370 432
#     4  11  23  44  71  98 138 182 238 298 364 435
#     4  10  23  42  68  97 135 183 236 292 358 427
#     4  11  25  42  70  95 142 184 237 301 359 446
#     4  12  25  45  69 105 144 188 239 297 371 424
#     4  11  23  45  71 101 141 188 234 304 361 441
#     4  11  26  45  71 103 144 189 241 302 359 440
#
# _framework density 23.470856000000001
#
# number of rings (size 3 to 8) (size 9 to 14) (size 15 to 20)
#    0.000    1.250    2.500    1.500    8.750    2.000 
#    0.000    0.000    0.000    0.000    0.000    0.000 
#    0.000    0.000    0.000    0.000    0.000    0.000 
#
# Total GULP energy -89109.487938 kJ/mol
# GULP energy per Si atom -5569.342996 kJ/mol
# Density = 2.341744 g / cm^3
# Si number density = 23.470856 Si / 1000 Ang^3
#
#
#
# Elastic Constant Matrix: (Units=GPa)
#
#
# Indices 1 2 3 4 5 6 
#
# 1 72.9601 23.6663 40.5415 27.9822 -8.6556 11.3611
# 2 23.6663 100.2724 42.7476 18.8273 9.2287 6.5993
# 3 40.5415 42.7476 146.1222 17.7873 -4.1791 10.4086
# 4 27.9822 18.8273 17.7873 36.5892 7.9921 -3.1109
# 5 -8.6556 9.2287 -4.1791 7.9921 42.3944 4.3643
# 6 11.3611 6.5993 10.4086 -3.1109 4.3643 30.3213
#
#
#
# Elastic Compliance Matrix: (Units=1/GPa)
#
#
# Indices 1 2 3 4 5 6 
#
# 1 0.028106 -0.001047 -0.003455 -0.022853 0.011281 -0.013086
# 2 -0.001047 0.012465 -0.002857 -0.003831 -0.002343 -0.001396
# 3 -0.003455 -0.002857 0.008823 -0.000510 0.001017 -0.001311
# 4 -0.022853 -0.003831 -0.000510 0.051850 -0.015418 0.017111
# 5 0.011281 -0.002343 0.001017 -0.015418 0.030441 -0.010030
# 6 -0.013086 -0.001396 -0.001311 0.017111 -0.010030 0.041836
#
#
# Mechanical properties :
#
#
# Convention : Reuss Voigt Hill
#
# Bulk Modulus (GPa) = 28.83896 59.25171 44.04534
# Shear Modulus (GPa) = 25.02534 36.02093 30.52314
#
# Velocity S-wave (km/s) = 3.26886 3.92179 3.61011
# Velocity P-wave (km/s) = 5.15374 6.76807 6.01531
#
# Compressibility (1/GPa) = 0.03467532
#
# Stress axis : x y z
#
# Youngs Moduli (GPa) = 35.57908 80.22553 113.34406
#
# Poissons Ratio (x) = 0.08398 0.39163
# Poissons Ratio (y) = 0.03724 0.32386
# Poissons Ratio (z) = 0.12293 0.22923
#
# Static dielectric constant tensor:
#      x y z
#    x 1.863730 0.042710 -0.011120 
#    y 0.042710 2.067080 -0.095120 
#    z -0.011120 -0.095120 1.935520 
# 
# From -- ./inp_files/323288.got.cif
#   From: 2010.05.17/outbox.cif.g08.bks.cpg/sg2_162_cif.got.tgz:323288.got - 2010.06.03 11:33:40.
