data_PCOD9039561
_publ_section_title
;
Structure prediction by ZEFSAII (Michael W. Deem and Ramdas Pophale) SiO2 
 PCOD9039561
Probable space group: P -1
;
_chemical_formula_sum "Si O2"
_cell_formula_units_Z 14
_cell_length_a 4.773863
_cell_length_b 22.756985
_cell_length_c 12.030275
_cell_angle_alpha 154.395631
_cell_angle_beta 101.333610
_cell_angle_gamma 84.217034
_cell_volume 544.700862
_symmetry_space_group_name_H-M "P -1"
_symmetry_group_IT_number 2
_symmetry_cell_setting 'triclinic'
loop_
_space_group_symop_operation_xyz
x,y,z
-x,-y,-z
loop_
_atom_site_type_symbol
_atom_site_label
_atom_site_fract_x
_atom_site_fract_y
_atom_site_fract_z
Si Si1 0.622326 0.419678 0.035293
Si Si2 0.801389 0.565653 0.510545
Si Si3 0.244780 0.858055 0.362611
Si Si4 0.150792 0.961683 0.298875
Si Si5 0.507884 0.162425 0.290396
Si Si6 0.877672 0.677384 0.338226
Si Si7 0.639297 0.257251 0.216684
O O1 0.590865 0.470539 0.246212
O O2 0.791092 0.541583 0.177802
O O3 0.790386 0.292878 0.849420
O O4 0.316691 0.363042 0.854870
O O5 0.605210 0.665016 0.722612
O O6 0.000000 0.500000 0.500000
O O7 0.052370 0.643136 0.581578
O O8 0.097150 0.873931 0.258854
O O9 0.582315 0.911178 0.451938
O O10 0.125728 0.966398 0.619190
O O11 0.264844 0.866480 0.055169
O O12 0.781660 0.262054 0.540162
O O13 0.236620 0.195944 0.393865
O O14 0.514182 0.215717 0.256194
O O15 0.500000 0.000000 0.000000
#
# Coordination Sequence:
#
# PCOD9039561 Si02
#       7
#     2   2   2   2   2   2   2
#     4  11  25  48  74 108 154 197 247 307 379 447
#     4  12  26  45  76 113 149 198 246 306 384 451
#     4  10  23  42  69 102 143 191 240 301 369 442
#     4  10  23  43  68 104 141 189 249 299 364 444
#     4  12  26  50  77 110 146 197 256 316 377 443
#     4  11  27  48  75 110 146 198 256 309 374 454
#     4  12  24  47  72 107 150 191 250 315 373 438
#
# _framework density 25.702179000000001
#
# number of rings (size 3 to 8) (size 9 to 14) (size 15 to 20)
#    0.000    0.857    2.857    2.571    2.000    9.143 
#    0.000    0.000    0.000    0.000    0.000    0.000 
#    0.000    0.000    0.000    0.000    0.000    0.000 
#
# Total GULP energy -78411.500994 kJ/mol
# GULP energy per Si atom -5600.821500 kJ/mol
# Density = 2.564368 g / cm^3
# Si number density = 25.702179 Si / 1000 Ang^3
#
#
#
# Elastic Constant Matrix: (Units=GPa)
#
#
# Indices 1 2 3 4 5 6 
#
# 1 102.4169 4.9409 16.9043 8.6246 -17.3383 -6.3276
# 2 4.9409 75.4057 56.3870 9.6005 4.4804 -10.2289
# 3 16.9043 56.3870 111.3922 7.5982 -5.2684 -13.8963
# 4 8.6246 9.6005 7.5982 45.2340 -3.3852 -10.7549
# 5 -17.3383 4.4804 -5.2684 -3.3852 36.4898 -1.1518
# 6 -6.3276 -10.2289 -13.8963 -10.7549 -1.1518 22.8372
#
#
#
# Elastic Compliance Matrix: (Units=1/GPa)
#
#
# Indices 1 2 3 4 5 6 
#
# 1 0.011026 0.000373 -0.001280 -0.001073 0.004978 0.002188
# 2 0.000373 0.022515 -0.011246 -0.002871 -0.004422 0.001770
# 3 -0.001280 -0.011246 0.015535 0.001435 0.003303 0.004903
# 4 -0.001073 -0.002871 0.001435 0.025623 0.002790 0.011497
# 5 0.004978 -0.004422 0.003303 0.002790 0.031184 0.004295
# 6 0.002188 0.001770 0.004903 0.011497 0.004295 0.053802
#
#
# Mechanical properties :
#
#
# Convention : Reuss Voigt Hill
#
# Bulk Modulus (GPa) = 40.37543 49.51991 44.94767
# Shear Modulus (GPa) = 26.00810 34.97770 30.49290
#
# Velocity S-wave (km/s) = 3.18449 3.69302 3.44814
# Velocity P-wave (km/s) = 5.40966 6.12317 5.77744
#
# Compressibility (1/GPa) = 0.02476754
#
# Stress axis : x y z
#
# Youngs Moduli (GPa) = 90.69784 44.41418 64.37273
#
# Poissons Ratio (x) = -0.01655 0.08241
# Poissons Ratio (y) = -0.03379 0.72396
# Poissons Ratio (z) = 0.11611 0.49950
#
# Static dielectric constant tensor:
#      x y z
#    x 1.981510 -0.016480 -0.004480 
#    y -0.016480 2.067930 -0.006600 
#    z -0.004480 -0.006600 2.124420 
# 
# From -- ./inp_files/370205.got.cif
#   From: 2010.05.17/outbox.cif.g08.bks.cpg/sg2_186_cif.got.tgz:370205.got - 2010.06.03 11:33:40.
