data_PCOD9039391
_publ_section_title
;
Structure prediction by ZEFSAII (Michael W. Deem and Ramdas Pophale) SiO2 
 PCOD9039391
Probable space group: P -1
;
_chemical_formula_sum "Si O2"
_cell_formula_units_Z 14
_cell_length_a 10.463968
_cell_length_b 13.007151
_cell_length_c 21.112482
_cell_angle_alpha 22.479222
_cell_angle_beta 36.614218
_cell_angle_gamma 48.432600
_cell_volume 615.574851
_symmetry_space_group_name_H-M "P -1"
_symmetry_group_IT_number 2
_symmetry_cell_setting 'triclinic'
loop_
_space_group_symop_operation_xyz
x,y,z
-x,-y,-z
loop_
_atom_site_type_symbol
_atom_site_label
_atom_site_fract_x
_atom_site_fract_y
_atom_site_fract_z
Si Si1 0.526527 0.647463 0.473751
Si Si2 0.596191 0.895702 0.083976
Si Si3 0.262189 0.034666 0.366612
Si Si4 0.094877 0.868425 0.887038
Si Si5 0.386138 0.229676 0.068186
Si Si6 0.509383 0.134428 0.342855
Si Si7 0.046786 0.697721 0.808043
O O1 0.500000 0.500000 0.500000
O O2 0.522128 0.426918 0.657784
O O3 0.300582 0.732129 0.519141
O O4 0.746740 0.939526 0.229023
O O5 0.859119 0.928808 0.947426
O O6 0.500000 0.000000 0.000000
O O7 0.542629 0.080772 0.056748
O O8 0.400237 0.162267 0.301815
O O9 0.000000 0.000000 0.500000
O O10 0.385107 0.203345 0.159368
O O11 0.276774 0.963944 0.702418
O O12 0.025844 0.522792 0.097811
O O13 0.442880 0.544098 0.836748
O O14 0.111026 0.105324 0.237370
O O15 0.309222 0.886611 0.595928
O O16 0.000000 0.500000 0.000000
#
# Coordination Sequence:
#
# PCOD9039391 Si02
#       7
#     2   2   2   2   2   2   2
#     4  11  25  47  71 102 147 193 242 298 364 430
#     4  12  27  47  69 105 149 195 244 297 357 440
#     4  11  21  42  71  99 139 180 237 299 365 422
#     4  10  24  43  71 102 141 192 240 298 364 428
#     4  11  24  40  66 104 136 187 237 294 361 434
#     4  10  23  42  68 102 139 180 237 306 361 421
#     4  11  23  44  70 101 140 188 245 303 361 430
#
# _framework density 22.742968999999999
#
# number of rings (size 3 to 8) (size 9 to 14) (size 15 to 20)
#    0.000    1.143    2.857    3.000    2.000    6.857 
#    0.000    0.000    0.000    0.000    0.000    0.000 
#    0.000    0.000    0.000    0.000    0.000    0.000 
#
# Total GULP energy -78006.583801 kJ/mol
# GULP energy per Si atom -5571.898843 kJ/mol
# Density = 2.269120 g / cm^3
# Si number density = 22.742969 Si / 1000 Ang^3
#
#
#
# Elastic Constant Matrix: (Units=GPa)
#
#
# Indices 1 2 3 4 5 6 
#
# 1 73.3007 31.5961 25.0752 3.7454 3.7272 -8.4161
# 2 31.5961 173.7083 53.0438 12.0685 -16.5199 -23.2431
# 3 25.0752 53.0438 124.7090 13.4838 9.5271 1.3949
# 4 3.7454 12.0685 13.4838 40.8208 -4.4096 -5.5309
# 5 3.7272 -16.5199 9.5271 -4.4096 52.0296 -0.1010
# 6 -8.4161 -23.2431 1.3949 -5.5309 -0.1010 40.4225
#
#
#
# Elastic Compliance Matrix: (Units=1/GPa)
#
#
# Indices 1 2 3 4 5 6 
#
# 1 0.015574 -0.001998 -0.002208 0.000041 -0.001338 0.002172
# 2 -0.001998 0.008025 -0.003293 -0.000164 0.003289 0.004298
# 3 -0.002208 -0.003293 0.010461 -0.003036 -0.003066 -0.003137
# 4 0.000041 -0.000164 -0.003036 0.026332 0.002740 0.003629
# 5 -0.001338 0.003289 -0.003066 0.002740 0.021158 0.002146
# 6 0.002172 0.004298 -0.003137 0.003629 0.002146 0.028272
#
#
# Mechanical properties :
#
#
# Convention : Reuss Voigt Hill
#
# Bulk Modulus (GPa) = 52.46163 65.68314 59.07239
# Shear Modulus (GPa) = 38.11687 44.12144 41.11915
#
# Velocity S-wave (km/s) = 4.09832 4.40933 4.25666
# Velocity P-wave (km/s) = 6.74628 7.40717 7.08444
#
# Compressibility (1/GPa) = 0.01906155
#
# Stress axis : x y z
#
# Youngs Moduli (GPa) = 64.20782 124.61010 95.59351
#
# Poissons Ratio (x) = 0.24897 0.21109
# Poissons Ratio (y) = 0.12829 0.31481
# Poissons Ratio (z) = 0.14179 0.41037
#
# Static dielectric constant tensor:
#      x y z
#    x 2.004660 0.022600 0.033690 
#    y 0.022600 1.872230 -0.027810 
#    z 0.033690 -0.027810 1.974000 
# 
# From -- ./inp_files/610491.got.cif
#   From: 2010.05.17/outbox.cif.g08.bks.cpg/sg2_306_cif.got.tgz:610491.got - 2010.06.03 11:33:40.
