data_PCOD9039973
_publ_section_title
;
Structure prediction by ZEFSAII (Michael W. Deem and Ramdas Pophale) SiO2 
 PCOD9039973
Probable space group: P -1
;
_chemical_formula_sum "Si O2"
_cell_formula_units_Z 16
_cell_length_a 8.337699
_cell_length_b 17.791318
_cell_length_c 13.544530
_cell_angle_alpha 158.980038
_cell_angle_beta 82.723203
_cell_angle_gamma 87.750204
_cell_volume 641.029580
_symmetry_space_group_name_H-M "P -1"
_symmetry_group_IT_number 2
_symmetry_cell_setting 'triclinic'
loop_
_space_group_symop_operation_xyz
x,y,z
-x,-y,-z
loop_
_atom_site_type_symbol
_atom_site_label
_atom_site_fract_x
_atom_site_fract_y
_atom_site_fract_z
Si Si1 0.319766 0.079037 0.221983
Si Si2 0.904065 0.760397 0.369872
Si Si3 0.199073 0.805672 0.743041
Si Si4 0.326986 0.219808 0.748282
Si Si5 0.686188 0.457417 0.208425
Si Si6 0.623007 0.324305 0.644086
Si Si7 0.904941 0.927851 0.275844
Si Si8 0.436913 0.365965 0.259226
O O1 0.150858 0.179734 0.437393
O O2 0.336380 0.298780 0.447114
O O3 0.290396 0.925488 0.952512
O O4 0.504247 0.897448 0.037444
O O5 0.713320 0.844732 0.435524
O O6 0.027194 0.877505 0.462873
O O7 0.000000 0.500000 0.000000
O O8 0.274837 0.756317 0.566834
O O9 0.236749 0.552562 0.475162
O O10 0.000000 0.000000 0.000000
O O11 0.172523 0.205660 0.810624
O O12 0.500000 0.000000 0.500000
O O13 0.342780 0.461051 0.051667
O O14 0.591573 0.546335 0.215281
O O15 0.559896 0.358424 0.147122
O O16 0.889147 0.279931 0.007060
O O17 0.733354 0.092538 0.419686
O O18 0.500000 0.500000 0.500000
#
# Coordination Sequence:
#
# PCOD9039973 Si02
#       8
#     2   2   2   2   2   2   2   2
#     4  11  24  46  73 106 147 196 252 303 376 440
#     4  12  24  46  77 105 147 199 246 309 376 440
#     4  10  23  42  73 105 148 190 246 310 365 448
#     4  12  29  47  75 113 149 193 251 312 375 455
#     4  11  25  45  78 106 149 199 250 305 367 455
#     4  11  27  49  72 112 152 191 251 307 377 443
#     4  12  26  49  77 108 150 197 250 305 380 446
#     4   9  21  41  69  99 143 192 237 298 364 424
#
# _framework density 24.959845999999999
#
# number of rings (size 3 to 8) (size 9 to 14) (size 15 to 20)
#    0.000    1.000    2.500    2.625    7.000    6.000 
#    0.000    1.875    0.000    0.000    0.000    0.000 
#    0.000    0.000    0.000    0.000    0.000    0.000 
#
# Total GULP energy -89169.889997 kJ/mol
# GULP energy per Si atom -5573.118125 kJ/mol
# Density = 2.490304 g / cm^3
# Si number density = 24.959846 Si / 1000 Ang^3
#
#
#
# Elastic Constant Matrix: (Units=GPa)
#
#
# Indices 1 2 3 4 5 6 
#
# 1 49.1863 8.6040 12.9752 6.2299 -20.5878 -16.7935
# 2 8.6040 91.4172 37.9727 19.5889 -7.6989 -17.6463
# 3 12.9752 37.9727 143.1479 41.5068 -16.4981 -7.6469
# 4 6.2299 19.5889 41.5068 56.1753 -10.4411 -3.2205
# 5 -20.5878 -7.6989 -16.4981 -10.4411 43.9160 4.9333
# 6 -16.7935 -17.6463 -7.6469 -3.2205 4.9333 34.2175
#
#
#
# Elastic Compliance Matrix: (Units=1/GPa)
#
#
# Indices 1 2 3 4 5 6 
#
# 1 0.030176 0.001172 -0.000886 -0.000006 0.012511 0.013412
# 2 0.001172 0.013813 -0.002606 -0.002515 0.000631 0.006789
# 3 -0.000886 -0.002606 0.009591 -0.005844 0.001385 -0.000385
# 4 -0.000006 -0.002515 -0.005844 0.023516 0.003045 -0.000832
# 5 0.012511 0.000631 0.001385 0.003045 0.029678 0.002783
# 6 0.013412 0.006789 -0.000385 -0.000832 0.002783 0.038743
#
#
# Mechanical properties :
#
#
# Convention : Reuss Voigt Hill
#
# Bulk Modulus (GPa) = 20.43282 44.76170 32.59726
# Shear Modulus (GPa) = 30.03533 41.80840 35.92186
#
# Velocity S-wave (km/s) = 3.47269 4.09715 3.79778
# Velocity P-wave (km/s) = 4.92783 6.35253 5.68498
#
# Compressibility (1/GPa) = 0.04894088
#
# Stress axis : x y z
#
# Youngs Moduli (GPa) = 33.13860 72.39295 104.26475
#
# Poissons Ratio (x) = -0.08483 0.09236
# Poissons Ratio (y) = -0.03883 0.27170
# Poissons Ratio (z) = 0.02936 0.18865
#
# Static dielectric constant tensor:
#      x y z
#    x 2.086150 -0.089180 -0.126240 
#    y -0.089180 2.130550 0.045790 
#    z -0.126240 0.045790 1.968320 
# 
# From -- ./inp_files/508195.got.cif
#   From: 2010.05.17/outbox.cif.g08.bks.cpg/sg2_255_cif.got.tgz:508195.got - 2010.06.03 11:33:40.
