data_PCOD9039457
_publ_section_title
;
Structure prediction by ZEFSAII (Michael W. Deem and Ramdas Pophale) SiO2 
 PCOD9039457
Probable space group: P -1
;
_chemical_formula_sum "Si O2"
_cell_formula_units_Z 16
_cell_length_a 8.508310
_cell_length_b 16.815291
_cell_length_c 16.190105
_cell_angle_alpha 145.075687
_cell_angle_beta 136.188130
_cell_angle_gamma 33.436920
_cell_volume 725.536204
_symmetry_space_group_name_H-M "P -1"
_symmetry_group_IT_number 2
_symmetry_cell_setting 'triclinic'
loop_
_space_group_symop_operation_xyz
x,y,z
-x,-y,-z
loop_
_atom_site_type_symbol
_atom_site_label
_atom_site_fract_x
_atom_site_fract_y
_atom_site_fract_z
Si Si1 0.702253 0.654607 0.560147
Si Si2 0.669099 0.303312 0.058862
Si Si3 0.568604 0.753795 0.775789
Si Si4 0.305287 0.947180 0.540700
Si Si5 0.205292 0.308484 0.788358
Si Si6 0.546569 0.548890 0.730274
Si Si7 0.066544 0.140899 0.928198
Si Si8 0.496323 0.666916 0.231072
O O1 0.733904 0.669938 0.681947
O O2 0.541863 0.840028 0.611288
O O3 0.499854 0.596782 0.421935
O O4 0.000000 0.500000 0.500000
O O5 0.670531 0.309186 0.162855
O O6 0.605266 0.484826 0.158779
O O7 0.410117 0.304379 0.929232
O O8 0.948670 0.152126 0.985122
O O9 0.512142 0.635698 0.703701
O O10 0.269337 0.942792 0.804315
O O11 0.744995 0.791506 0.934104
O O12 0.417832 0.809995 0.391519
O O13 0.271259 0.119881 0.649974
O O14 0.000000 0.000000 0.500000
O O15 0.282796 0.351559 0.766987
O O16 0.870104 0.452126 0.801764
O O17 0.791180 0.261138 0.868391
#
# Coordination Sequence:
#
# PCOD9039457 Si02
#       8
#     2   2   2   2   2   2   2   2
#     4  12  27  45  68  95 139 185 225 279 344 411
#     4  11  22  42  68 102 134 173 227 286 342 396
#     4  11  25  43  65  97 137 181 225 272 345 413
#     4  12  24  45  68 100 139 178 229 286 338 402
#     4  11  24  39  71 103 132 175 226 288 343 399
#     4  12  24  42  67  96 135 180 229 277 338 414
#     4  10  23  42  68  96 134 178 221 284 340 405
#     4  11  22  43  71  99 136 173 230 287 340 400
#
# _framework density 22.052657
#
# number of rings (size 3 to 8) (size 9 to 14) (size 15 to 20)
#    0.000    0.750    2.500    5.625    1.750    5.500 
#    0.000    0.000    0.000    0.000    0.000    0.000 
#    0.000    0.000    0.000    0.000    0.000    0.000 
#
# Total GULP energy -89609.514823 kJ/mol
# GULP energy per Si atom -5600.594676 kJ/mol
# Density = 2.200246 g / cm^3
# Si number density = 22.052657 Si / 1000 Ang^3
#
#
#
# Elastic Constant Matrix: (Units=GPa)
#
#
# Indices 1 2 3 4 5 6 
#
# 1 82.5873 32.4842 26.3919 11.4494 -5.9033 2.7742
# 2 32.4842 57.6574 -3.4767 11.8172 3.3332 -5.6806
# 3 26.3919 -3.4767 79.4012 10.8003 -6.8795 2.0617
# 4 11.4494 11.8172 10.8003 30.0087 -6.3941 -4.9255
# 5 -5.9033 3.3332 -6.8795 -6.3941 38.4974 -8.8105
# 6 2.7742 -5.6806 2.0617 -4.9255 -8.8105 27.5672
#
#
#
# Elastic Compliance Matrix: (Units=1/GPa)
#
#
# Indices 1 2 3 4 5 6 
#
# 1 0.018992 -0.011411 -0.006488 -0.000549 0.001902 -0.003267
# 2 -0.011411 0.026360 0.005667 -0.008248 -0.003580 0.003539
# 3 -0.006488 0.005667 0.015770 -0.005380 0.000395 -0.000194
# 4 -0.000549 -0.008248 -0.005380 0.042065 0.008730 0.009064
# 5 0.001902 -0.003580 0.000395 0.008730 0.030464 0.010337
# 6 -0.003267 0.003539 -0.000194 0.009064 0.010337 0.042271
#
#
# Mechanical properties :
#
#
# Convention : Reuss Voigt Hill
#
# Bulk Modulus (GPa) = 27.27864 36.71608 31.99736
# Shear Modulus (GPa) = 23.51789 30.16443 26.84116
#
# Velocity S-wave (km/s) = 3.26919 3.70244 3.49254
# Velocity P-wave (km/s) = 5.16205 5.91294 5.55021
#
# Compressibility (1/GPa) = 0.03665871
#
# Stress axis : x y z
#
# Youngs Moduli (GPa) = 52.65486 37.93574 63.41197
#
# Poissons Ratio (x) = 0.43287 0.41141
# Poissons Ratio (y) = 0.60082 -0.35935
# Poissons Ratio (z) = 0.34162 -0.21498
#
# Static dielectric constant tensor:
#      x y z
#    x 1.809540 -0.005820 -0.016780 
#    y -0.005820 1.802920 -0.016760 
#    z -0.016780 -0.016760 1.778630 
# 
# From -- ./inp_files/189148.got.cif
#   From: 2010.05.17/outbox.cif.g08.bks.cpg/sg2_95_cif.got.tgz:189148.got - 2010.06.03 11:33:40.
