data_PCOD9039426
_publ_section_title
;
Structure prediction by ZEFSAII (Michael W. Deem and Ramdas Pophale) SiO2 
 PCOD9039426
Probable space group: P -1
;
_chemical_formula_sum "Si O2"
_cell_formula_units_Z 16
_cell_length_a 6.523419
_cell_length_b 10.946361
_cell_length_c 12.126359
_cell_angle_alpha 122.859399
_cell_angle_beta 67.637081
_cell_angle_gamma 90.872987
_cell_volume 651.975708
_symmetry_space_group_name_H-M "P -1"
_symmetry_group_IT_number 2
_symmetry_cell_setting 'triclinic'
loop_
_space_group_symop_operation_xyz
x,y,z
-x,-y,-z
loop_
_atom_site_type_symbol
_atom_site_label
_atom_site_fract_x
_atom_site_fract_y
_atom_site_fract_z
Si Si1 0.807281 0.610525 0.774894
Si Si2 0.444222 0.777623 0.782866
Si Si3 0.577925 0.572771 0.221014
Si Si4 0.021635 0.110828 0.401587
Si Si5 0.742981 0.620914 0.458526
Si Si6 0.247803 0.994174 0.753012
Si Si7 0.634706 0.112370 0.661686
Si Si8 0.951215 0.303759 0.030210
O O1 0.662842 0.752574 0.806171
O O2 0.640117 0.497600 0.754726
O O3 0.053694 0.526632 0.634034
O O4 0.865332 0.649805 0.905274
O O5 0.538572 0.657805 0.606799
O O6 0.235426 0.742599 0.874302
O O7 0.354895 0.936814 0.820527
O O8 0.654106 0.616748 0.349224
O O9 0.507173 0.716816 0.228788
O O10 0.792788 0.445762 0.069989
O O11 0.820470 0.102152 0.523305
O O12 0.134794 0.242459 0.479919
O O13 0.894862 0.120563 0.316260
O O14 0.214189 0.955068 0.296577
O O15 0.457599 0.007911 0.639439
O O16 0.080148 0.157668 0.868272
#
# Coordination Sequence:
#
# PCOD9039426 Si02
#       8
#     2   2   2   2   2   2   2   2
#     4  10  23  42  68  91 131 166 212 263 316 369
#     4  11  24  41  65  97 127 169 212 263 310 377
#     4  10  23  43  67  95 130 163 212 266 312 378
#     4  11  25  40  67 101 128 161 206 266 327 374
#     4  11  22  41  67 100 128 161 211 261 329 371
#     4  12  26  44  64  94 132 169 213 258 312 381
#     4  11  24  41  70  97 125 163 210 266 322 377
#     4  10  26  45  63  91 130 174 215 256 307 372
#
# _framework density 24.540790999999999
#
# number of rings (size 3 to 8) (size 9 to 14) (size 15 to 20)
#    0.000    1.250    2.500    1.875    5.250    7.500 
#    0.000    1.250    0.000    0.000    0.000    0.000 
#    0.000    0.000    0.000    0.000    0.000    0.000 
#
# Total GULP energy -89492.714981 kJ/mol
# GULP energy per Si atom -5593.294686 kJ/mol
# Density = 2.448494 g / cm^3
# Si number density = 24.540791 Si / 1000 Ang^3
#
#
#
# Elastic Constant Matrix: (Units=GPa)
#
#
# Indices 1 2 3 4 5 6 
#
# 1 143.8663 38.9212 46.8008 8.8651 -11.1631 1.0319
# 2 38.9212 70.9776 -0.7084 10.6022 -19.9396 -6.2145
# 3 46.8008 -0.7084 50.5149 7.2293 -17.5858 -3.4641
# 4 8.8651 10.6022 7.2293 34.7708 -0.5630 -22.7499
# 5 -11.1631 -19.9396 -17.5858 -0.5630 33.4106 10.6872
# 6 1.0319 -6.2145 -3.4641 -22.7499 10.6872 49.9365
#
#
#
# Elastic Compliance Matrix: (Units=1/GPa)
#
#
# Indices 1 2 3 4 5 6 
#
# 1 0.015721 -0.013363 -0.020234 0.005386 -0.013936 0.002045
# 2 -0.013363 0.031774 0.024987 -0.016059 0.029856 -0.007742
# 3 -0.020234 0.024987 0.055000 -0.020022 0.040076 -0.010355
# 4 0.005386 -0.016059 -0.020022 0.053219 -0.025831 0.026275
# 5 -0.013936 0.029856 0.040076 -0.025831 0.070148 -0.019997
# 6 0.002045 -0.007742 -0.010355 0.026275 -0.019997 0.034551
#
#
# Mechanical properties :
#
#
# Convention : Reuss Voigt Hill
#
# Bulk Modulus (GPa) = 11.72678 48.37619 30.05148
# Shear Modulus (GPa) = 16.33675 35.64659 25.99167
#
# Velocity S-wave (km/s) = 2.58291 3.81536 3.25794
# Velocity P-wave (km/s) = 3.69920 6.25817 5.14046
#
# Compressibility (1/GPa) = 0.08527493
#
# Stress axis : x y z
#
# Youngs Moduli (GPa) = 63.61111 31.47195 18.18181
#
# Poissons Ratio (x) = 0.42056 0.36789
# Poissons Ratio (y) = 0.85003 -0.45431
# Poissons Ratio (z) = 1.28712 -0.78639
#
# Static dielectric constant tensor:
#      x y z
#    x 1.926540 -0.003940 -0.011730 
#    y -0.003940 1.971300 0.020710 
#    z -0.011730 0.020710 1.945490 
# 
# From -- ./inp_files/483013.got.cif
#   From: 2010.05.17/outbox.cif.g08.bks.cpg/sg2_242_cif.got.tgz:483013.got - 2010.06.03 11:33:40.
