data_PCOD9039046
_publ_section_title
;
Structure prediction by ZEFSAII (Michael W. Deem and Ramdas Pophale) SiO2 
 PCOD9039046
Probable space group: P -1
;
_chemical_formula_sum "Si O2"
_cell_formula_units_Z 14
_cell_length_a 8.773031
_cell_length_b 17.715614
_cell_length_c 5.493597
_cell_angle_alpha 89.538256
_cell_angle_beta 67.428114
_cell_angle_gamma 52.345928
_cell_volume 593.501116
_symmetry_space_group_name_H-M "P -1"
_symmetry_group_IT_number 2
_symmetry_cell_setting 'triclinic'
loop_
_space_group_symop_operation_xyz
x,y,z
-x,-y,-z
loop_
_atom_site_type_symbol
_atom_site_label
_atom_site_fract_x
_atom_site_fract_y
_atom_site_fract_z
Si Si1 0.596501 0.354264 0.942261
Si Si2 0.331811 0.756814 0.596847
Si Si3 0.924753 0.936746 0.073008
Si Si4 0.358424 0.233228 0.851790
Si Si5 0.937206 0.776813 0.301285
Si Si6 0.137326 0.450809 0.168130
Si Si7 0.521317 0.913433 0.860937
O O1 0.604697 0.306412 0.194753
O O2 0.339394 0.449624 0.065968
O O3 0.637376 0.298807 0.665539
O O4 0.823886 0.332328 0.816842
O O5 0.505426 0.771910 0.454387
O O6 0.077163 0.855856 0.768289
O O7 0.968217 0.858089 0.246083
O O8 0.663748 0.022761 0.228831
O O9 0.000000 0.000000 0.000000
O O10 0.185230 0.225167 0.852484
O O11 0.245119 0.335016 0.069218
O O12 0.530924 0.137599 0.918205
O O13 0.762762 0.822417 0.621561
O O14 0.000000 0.500000 0.500000
O O15 0.000000 0.500000 0.000000
O O16 0.500000 0.000000 0.000000
#
# Coordination Sequence:
#
# PCOD9039046 Si02
#       7
#     2   2   2   2   2   2   2
#     4  10  23  45  72  98 136 175 226 286 348 419
#     4  10  23  42  65  99 135 188 232 278 339 398
#     4  11  24  39  63  98 141 190 244 283 321 406
#     4  11  26  43  71  98 141 184 229 296 354 412
#     4  11  25  43  63 100 145 189 231 283 354 408
#     4  11  25  48  77 106 130 174 235 294 359 427
#     4  12  25  41  64 100 145 189 237 282 341 408
#
# _framework density 23.588835
#
# number of rings (size 3 to 8) (size 9 to 14) (size 15 to 20)
#    0.000    1.143    1.429    3.857   18.000    0.571 
#    0.000    1.429    0.000    0.000    0.000    0.000 
#    0.000    0.000    0.000    0.000    0.000    0.000 
#
# Total GULP energy -78014.811076 kJ/mol
# GULP energy per Si atom -5572.486505 kJ/mol
# Density = 2.353515 g / cm^3
# Si number density = 23.588835 Si / 1000 Ang^3
#
#
#
# Elastic Constant Matrix: (Units=GPa)
#
#
# Indices 1 2 3 4 5 6 
#
# 1 63.1008 24.2663 22.8377 0.3934 -5.3258 -27.7010
# 2 24.2663 103.2053 31.0491 2.6630 10.3419 -5.6972
# 3 22.8377 31.0491 150.2508 15.3113 3.9126 -11.4676
# 4 0.3934 2.6630 15.3113 32.3952 -10.0665 -6.1946
# 5 -5.3258 10.3419 3.9126 -10.0665 44.6835 7.6034
# 6 -27.7010 -5.6972 -11.4676 -6.1946 7.6034 44.3662
#
#
#
# Elastic Compliance Matrix: (Units=1/GPa)
#
#
# Indices 1 2 3 4 5 6 
#
# 1 0.025213 -0.004849 -0.002282 0.004894 0.002926 0.014712
# 2 -0.004849 0.011561 -0.001543 -0.001454 -0.003174 -0.001601
# 3 -0.002282 -0.001543 0.007772 -0.003969 -0.001505 0.000089
# 4 0.004894 -0.001454 -0.003969 0.036512 0.008562 0.005473
# 5 0.002926 -0.003174 -0.001505 0.008562 0.025900 -0.002213
# 6 0.014712 -0.001601 0.000089 0.005473 -0.002213 0.032686
#
#
# Mechanical properties :
#
#
# Convention : Reuss Voigt Hill
#
# Bulk Modulus (GPa) = 36.76928 52.54035 44.65481
# Shear Modulus (GPa) = 30.10970 40.18257 35.14614
#
# Velocity S-wave (km/s) = 3.57660 4.13177 3.86417
# Velocity P-wave (km/s) = 5.71643 6.71445 6.23544
#
# Compressibility (1/GPa) = 0.02719662
#
# Stress axis : x y z
#
# Youngs Moduli (GPa) = 39.66167 86.49718 128.66916
#
# Poissons Ratio (x) = 0.41943 0.29367
# Poissons Ratio (y) = 0.19232 0.19859
# Poissons Ratio (z) = 0.09052 0.13350
#
# Static dielectric constant tensor:
#      x y z
#    x 2.007180 -0.030930 -0.052660 
#    y -0.030930 1.867490 0.023150 
#    z -0.052660 0.023150 1.898620 
# 
# From -- ./inp_files/34999.got.cif
#   From: 2010.05.17/outbox.cif.g08.bks.cpg/sg2_18_cif.got.tgz:34999.got - 2010.06.03 11:33:40.
