data_PCOD9039372
_publ_section_title
;
Structure prediction by ZEFSAII (Michael W. Deem and Ramdas Pophale) SiO2 
 PCOD9039372
Probable space group: P -1
;
_chemical_formula_sum "Si O2"
_cell_formula_units_Z 15
_cell_length_a 11.424821
_cell_length_b 8.693368
_cell_length_c 14.452584
_cell_angle_alpha 69.685151
_cell_angle_beta 151.557742
_cell_angle_gamma 109.286974
_cell_volume 640.126412
_symmetry_space_group_name_H-M "P -1"
_symmetry_group_IT_number 2
_symmetry_cell_setting 'triclinic'
loop_
_space_group_symop_operation_xyz
x,y,z
-x,-y,-z
loop_
_atom_site_type_symbol
_atom_site_label
_atom_site_fract_x
_atom_site_fract_y
_atom_site_fract_z
Si Si1 0.030728 0.702128 0.802625
Si Si2 0.823748 0.752707 0.102406
Si Si3 0.329543 0.049307 0.574837
Si Si4 0.000000 0.500000 0.000000
Si Si5 0.004820 0.530942 0.623985
Si Si6 0.650270 0.327543 0.321157
Si Si7 0.545145 0.060744 0.913479
Si Si8 0.132675 0.828278 0.138021
O O1 0.885003 0.862906 0.644084
O O2 0.030421 0.610043 0.724465
O O3 0.302936 0.765933 0.010335
O O4 0.920105 0.581933 0.828541
O O5 0.714826 0.924378 0.016046
O O6 0.857012 0.639426 0.237533
O O7 0.073123 0.775168 0.213023
O O8 0.617683 0.664420 0.910817
O O9 0.584457 0.136848 0.698833
O O10 0.330288 0.857144 0.591462
O O11 0.331006 0.066969 0.685342
O O12 0.022041 0.686644 0.023462
O O13 0.727979 0.471306 0.416663
O O14 0.146777 0.643689 0.624564
O O15 0.500000 0.000000 0.000000
O O16 0.000000 0.000000 0.000000
#
# Coordination Sequence:
#
# PCOD9039372 Si02
#       8
#     2   2   2   1   2   2   2   2
#     4  12  25  45  70 103 146 185 243 305 366 436
#     4  11  22  45  70  97 142 188 239 298 363 436
#     4  11  25  46  73 104 142 194 243 299 371 433
#     4  12  26  48  74 106 146 190 248 310 366 430
#     4  11  24  41  67 105 140 185 236 293 365 438
#     4  10  23  42  68 101 138 181 240 291 357 437
#     4  11  24  44  73 106 142 189 241 303 369 438
#     4  12  23  49  75 102 144 193 247 300 369 438
#
# _framework density 23.432870000000001
#
# number of rings (size 3 to 8) (size 9 to 14) (size 15 to 20)
#    0.000    0.800    5.333    2.800    0.000    6.933 
#    2.400    2.000    0.000    0.000    0.000    0.000 
#    0.000    0.000    0.000    0.000    0.000    0.000 
#
# Total GULP energy -83657.055984 kJ/mol
# GULP energy per Si atom -5577.137066 kJ/mol
# Density = 2.337954 g / cm^3
# Si number density = 23.432870 Si / 1000 Ang^3
#
#
#
# Elastic Constant Matrix: (Units=GPa)
#
#
# Indices 1 2 3 4 5 6 
#
# 1 78.2841 19.2694 1.5990 7.3552 -10.8408 5.5881
# 2 19.2694 94.7293 33.2259 11.8226 -1.5102 -3.8281
# 3 1.5990 33.2259 68.2012 1.4108 -6.8154 7.3766
# 4 7.3552 11.8226 1.4108 44.0892 4.1661 -13.8582
# 5 -10.8408 -1.5102 -6.8154 4.1661 9.4958 0.8215
# 6 5.5881 -3.8281 7.3766 -13.8582 0.8215 28.3991
#
#
#
# Elastic Compliance Matrix: (Units=1/GPa)
#
#
# Indices 1 2 3 4 5 6 
#
# 1 0.019957 -0.005278 0.006691 -0.008745 0.031582 -0.011557
# 2 -0.005278 0.014748 -0.008697 -0.000071 -0.010371 0.005551
# 3 0.006691 -0.008697 0.022768 -0.005744 0.026151 -0.011962
# 4 -0.008745 -0.000071 -0.005744 0.033696 -0.030677 0.020533
# 5 0.031582 -0.010371 0.026151 -0.030677 0.174924 -0.034435
# 6 -0.011557 0.005551 -0.011962 0.020533 -0.034435 0.052358
#
#
# Mechanical properties :
#
#
# Convention : Reuss Voigt Hill
#
# Bulk Modulus (GPa) = 23.30747 38.82258 31.06502
# Shear Modulus (GPa) = 14.39589 28.87149 21.63369
#
# Velocity S-wave (km/s) = 2.48129 3.51393 3.04175
# Velocity P-wave (km/s) = 4.26347 5.75040 5.06183
#
# Compressibility (1/GPa) = 0.04290471
#
# Stress axis : x y z
#
# Youngs Moduli (GPa) = 50.10848 67.80481 43.92067
#
# Poissons Ratio (x) = 0.35789 -0.29385
# Poissons Ratio (y) = 0.26449 0.38196
# Poissons Ratio (z) = -0.33525 0.58966
#
# Static dielectric constant tensor:
#      x y z
#    x 1.886190 0.005370 -0.032170 
#    y 0.005370 1.899090 -0.003700 
#    z -0.032170 -0.003700 1.916720 
# 
# From -- ./inp_files/515466.got.cif
#   From: 2010.05.17/outbox.cif.g08.bks.cpg/sg2_258_cif.got.tgz:515466.got - 2010.06.03 11:33:40.
