data_PCOD9039143
_publ_section_title
;
Structure prediction by ZEFSAII (Michael W. Deem and Ramdas Pophale) SiO2 
 PCOD9039143
Probable space group: P -1
;
_chemical_formula_sum "Si O2"
_cell_formula_units_Z 12
_cell_length_a 4.920513
_cell_length_b 12.881590
_cell_length_c 7.768187
_cell_angle_alpha 97.155200
_cell_angle_beta 115.441080
_cell_angle_gamma 104.826126
_cell_volume 414.032598
_symmetry_space_group_name_H-M "P -1"
_symmetry_group_IT_number 2
_symmetry_cell_setting 'triclinic'
loop_
_space_group_symop_operation_xyz
x,y,z
-x,-y,-z
loop_
_atom_site_type_symbol
_atom_site_label
_atom_site_fract_x
_atom_site_fract_y
_atom_site_fract_z
Si Si1 0.634727 0.420394 0.918710
Si Si2 0.287371 0.095184 0.874861
Si Si3 0.169122 0.147472 0.246350
Si Si4 0.282063 0.826618 0.320400
Si Si5 0.877204 0.341767 0.268413
Si Si6 0.273657 0.605225 0.395821
O O1 0.889442 0.527729 0.651869
O O2 0.464782 0.388331 0.681483
O O3 0.500000 0.500000 0.000000
O O4 0.647587 0.328896 0.038051
O O5 0.570480 0.128905 0.817050
O O6 0.004305 0.128943 0.714491
O O7 0.294361 0.139706 0.084146
O O8 0.143940 0.961738 0.830774
O O9 0.433870 0.140312 0.455348
O O10 0.053489 0.252578 0.277004
O O11 0.138218 0.691145 0.271462
O O12 0.693530 0.343773 0.395644
O O13 0.000000 0.500000 0.000000
#
# Coordination Sequence:
#
# PCOD9039143 Si02
#       6
#     2   2   2   2   2   2
#     4  10  23  42  66  96 139 189 233 285 351 423
#     4  11  28  50  75 108 147 191 252 309 362 434
#     4  11  26  48  78 109 146 196 247 306 370 432
#     4  12  26  47  75 107 147 195 242 303 371 436
#     4  10  23  45  70 105 145 189 240 296 362 438
#     4  10  24  42  69 104 144 185 235 291 358 433
#
# _framework density 28.983222999999999
#
# number of rings (size 3 to 8) (size 9 to 14) (size 15 to 20)
#    0.000    1.333    0.000    3.000    0.000   21.333 
#    0.000    0.000    0.000    0.000    0.000    0.000 
#    0.000    0.000    0.000    0.000    0.000    0.000 
#
# Total GULP energy -67221.518353 kJ/mol
# GULP energy per Si atom -5601.793196 kJ/mol
# Density = 2.891726 g / cm^3
# Si number density = 28.983223 Si / 1000 Ang^3
#
#
#
# Elastic Constant Matrix: (Units=GPa)
#
#
# Indices 1 2 3 4 5 6 
#
# 1 156.4054 39.8348 47.7897 -7.4107 -23.7994 -4.3650
# 2 39.8348 187.5115 56.3075 -2.2753 -16.3829 -8.3774
# 3 47.7897 56.3075 232.0083 -12.0833 -31.4832 -3.0915
# 4 -7.4107 -2.2753 -12.0833 58.9774 2.6584 -5.0783
# 5 -23.7994 -16.3829 -31.4832 2.6584 58.3022 -13.0678
# 6 -4.3650 -8.3774 -3.0915 -5.0783 -13.0678 55.3608
#
#
#
# Elastic Compliance Matrix: (Units=1/GPa)
#
#
# Indices 1 2 3 4 5 6 
#
# 1 0.007357 -0.001031 -0.000887 0.000681 0.002430 0.001011
# 2 -0.001031 0.006007 -0.001117 -0.000083 0.000884 0.000966
# 3 -0.000887 -0.001117 0.005114 0.000850 0.002191 0.000642
# 4 0.000681 -0.000083 0.000850 0.017349 0.000315 0.001754
# 5 0.002430 0.000884 0.002191 0.000315 0.020767 0.005379
# 6 0.001011 0.000966 0.000642 0.001754 0.005379 0.019756
#
#
# Mechanical properties :
#
#
# Convention : Reuss Voigt Hill
#
# Bulk Modulus (GPa) = 80.58520 95.97660 88.28090
# Shear Modulus (GPa) = 57.76664 63.32761 60.54713
#
# Velocity S-wave (km/s) = 4.46927 4.67944 4.57556
# Velocity P-wave (km/s) = 7.38220 7.89827 7.64459
#
# Compressibility (1/GPa) = 0.01240923
#
# Stress axis : x y z
#
# Youngs Moduli (GPa) = 135.91776 166.47623 195.54195
#
# Poissons Ratio (x) = 0.17164 0.17336
# Poissons Ratio (y) = 0.14013 0.21841
# Poissons Ratio (z) = 0.12050 0.18594
#
# Static dielectric constant tensor:
#      x y z
#    x 2.348010 0.079540 0.122550 
#    y 0.079540 2.345640 0.138830 
#    z 0.122550 0.138830 2.496390 
# 
# From -- ./inp_files/6779.got.cif
#   From: 2010.05.17/outbox.cif.g08.bks.cpg/sg2_4_cif.got.tgz:6779.got - 2010.06.03 11:33:40.
