data_PCOD9039851
_publ_section_title
;
Structure prediction by ZEFSAII (Michael W. Deem and Ramdas Pophale) SiO2 
 PCOD9039851
Probable space group: P -1
;
_chemical_formula_sum "Si O2"
_cell_formula_units_Z 14
_cell_length_a 6.683748
_cell_length_b 16.766111
_cell_length_c 9.196973
_cell_angle_alpha 134.443764
_cell_angle_beta 121.677002
_cell_angle_gamma 67.135020
_cell_volume 625.809993
_symmetry_space_group_name_H-M "P -1"
_symmetry_group_IT_number 2
_symmetry_cell_setting 'triclinic'
loop_
_space_group_symop_operation_xyz
x,y,z
-x,-y,-z
loop_
_atom_site_type_symbol
_atom_site_label
_atom_site_fract_x
_atom_site_fract_y
_atom_site_fract_z
Si Si1 0.639748 0.824493 0.881349
Si Si2 0.009308 0.632049 0.771475
Si Si3 0.624841 0.198062 0.961840
Si Si4 0.340289 0.348437 0.575179
Si Si5 0.149199 0.233033 0.641290
Si Si6 0.994133 0.005243 0.830716
Si Si7 0.150251 0.587940 0.083605
O O1 0.584177 0.766153 0.631547
O O2 0.841333 0.735399 0.900528
O O3 0.437836 0.825820 0.925130
O O4 0.764161 0.941401 0.060981
O O5 0.832560 0.587074 0.523945
O O6 0.222114 0.691795 0.849251
O O7 0.099808 0.572795 0.875113
O O8 0.390225 0.215977 0.801575
O O9 0.783500 0.095068 0.829300
O O10 0.209292 0.307223 0.616571
O O11 0.572679 0.414404 0.782367
O O12 0.955628 0.295153 0.746422
O O13 0.058136 0.114214 0.405522
O O14 0.000000 0.000000 0.000000
O O15 0.000000 0.500000 0.000000
#
# Coordination Sequence:
#
# PCOD9039851 Si02
#       7
#     2   2   2   2   2   2   2
#     4   9  21  40  65  95 138 175 208 262 326 386
#     4   9  21  44  63  98 135 164 224 274 321 398
#     4  11  21  40  67  95 140 178 208 271 325 393
#     4  10  23  42  71  94 132 177 217 270 336 386
#     4  12  23  43  67  97 136 177 220 272 326 388
#     4  11  23  38  62 104 137 173 224 254 322 405
#     4  12  27  46  71  97 126 174 230 278 333 388
#
# _framework density 22.371009000000001
#
# number of rings (size 3 to 8) (size 9 to 14) (size 15 to 20)
#    0.857    0.571    4.286    0.429    4.000    3.429 
#    0.000    0.714    0.000    0.000    0.000    0.000 
#    0.000    0.000    0.000    0.000    0.000    0.000 
#
# Total GULP energy -78258.748655 kJ/mol
# GULP energy per Si atom -5589.910618 kJ/mol
# Density = 2.232009 g / cm^3
# Si number density = 22.371009 Si / 1000 Ang^3
#
#
#
# Elastic Constant Matrix: (Units=GPa)
#
#
# Indices 1 2 3 4 5 6 
#
# 1 113.9585 47.8714 64.5488 -12.9039 9.0725 14.9042
# 2 47.8714 89.7741 45.8795 -31.3763 17.3507 10.6984
# 3 64.5488 45.8795 147.3196 -20.5594 12.1078 3.1519
# 4 -12.9039 -31.3763 -20.5594 27.5006 -2.5260 3.2573
# 5 9.0725 17.3507 12.1078 -2.5260 45.1791 -4.5719
# 6 14.9042 10.6984 3.1519 3.2573 -4.5719 48.4099
#
#
#
# Elastic Compliance Matrix: (Units=1/GPa)
#
#
# Indices 1 2 3 4 5 6 
#
# 1 0.013816 -0.006018 -0.004654 -0.003552 0.000347 -0.002349
# 2 -0.006018 0.026517 -0.001121 0.026638 -0.007840 -0.006467
# 3 -0.004654 -0.001121 0.009751 0.003654 -0.000972 0.000708
# 4 -0.003552 0.026638 0.003654 0.068338 -0.007724 -0.010359
# 5 0.000347 -0.007840 -0.000972 -0.007724 0.025370 0.004605
# 6 -0.002349 -0.006467 0.000708 -0.010359 0.004605 0.023895
#
#
# Mechanical properties :
#
#
# Convention : Reuss Voigt Hill
#
# Bulk Modulus (GPa) = 37.73727 74.18354 55.96040
# Shear Modulus (GPa) = 24.98685 37.06808 31.02746
#
# Velocity S-wave (km/s) = 3.34568 4.07501 3.72822
# Velocity P-wave (km/s) = 5.64182 7.44133 6.60317
#
# Compressibility (1/GPa) = 0.02649900
#
# Stress axis : x y z
#
# Youngs Moduli (GPa) = 72.37810 37.71150 102.55606
#
# Poissons Ratio (x) = 0.22694 0.47725
# Poissons Ratio (y) = 0.43556 0.11498
# Poissons Ratio (z) = 0.33681 0.04228
#
# Static dielectric constant tensor:
#      x y z
#    x 1.794780 -0.053750 -0.019930 
#    y -0.053750 1.861770 0.030350 
#    z -0.019930 0.030350 1.813390 
# 
# From -- ./inp_files/138244.got.cif
#   From: 2010.05.17/outbox.cif.g08.bks.cpg/sg2_70_cif.got.tgz:138244.got - 2010.06.03 11:33:40.
