data_PCOD9039018
_publ_section_title
;
Structure prediction by ZEFSAII (Michael W. Deem and Ramdas Pophale) SiO2 
 PCOD9039018
Probable space group: P -1
;
_chemical_formula_sum "Si O2"
_cell_formula_units_Z 14
_cell_length_a 13.139934
_cell_length_b 21.549907
_cell_length_c 14.534066
_cell_angle_alpha 18.607239
_cell_angle_beta 138.451306
_cell_angle_gamma 149.332079
_cell_volume 610.810956
_symmetry_space_group_name_H-M "P -1"
_symmetry_group_IT_number 2
_symmetry_cell_setting 'triclinic'
loop_
_space_group_symop_operation_xyz
x,y,z
-x,-y,-z
loop_
_atom_site_type_symbol
_atom_site_label
_atom_site_fract_x
_atom_site_fract_y
_atom_site_fract_z
Si Si1 0.545033 0.181432 0.860677
Si Si2 0.182778 0.225769 0.877723
Si Si3 0.955510 0.241087 0.865037
Si Si4 0.690004 0.390362 0.266209
Si Si5 0.707892 0.953502 0.386901
Si Si6 0.196340 0.329809 0.247296
Si Si7 0.524221 0.879080 0.772841
O O1 0.680592 0.485148 0.488931
O O2 0.673035 0.148170 0.062023
O O3 0.500000 0.000000 0.000000
O O4 0.302546 0.027820 0.942223
O O5 0.083961 0.219841 0.912507
O O6 0.315398 0.152846 0.093314
O O7 0.000000 0.000000 0.000000
O O8 0.079460 0.355844 0.885489
O O9 0.000000 0.500000 0.500000
O O10 0.497551 0.285256 0.351830
O O11 0.625313 0.105795 0.602402
O O12 0.710787 0.504814 0.019526
O O13 0.935607 0.120041 0.359812
O O14 0.723604 0.821554 0.494832
O O15 0.295454 0.552484 0.082678
O O16 0.500000 0.000000 0.500000
#
# Coordination Sequence:
#
# PCOD9039018 Si02
#       7
#     2   2   2   2   2   2   2
#     4  12  24  41  72 103 137 180 231 282 347 418
#     4  12  28  47  72 103 144 184 228 296 348 409
#     4  12  23  43  72 102 137 182 232 282 350 415
#     4  11  22  42  69  95 134 180 228 282 341 413
#     4  11  23  39  68  97 131 180 236 279 340 417
#     4  10  23  42  65  96 136 179 230 287 343 406
#     4  10  24  45  68  97 140 182 228 284 354 401
#
# _framework density 22.920348000000001
#
# number of rings (size 3 to 8) (size 9 to 14) (size 15 to 20)
#    0.000    0.857    2.857    3.857    4.000    3.429 
#    0.000    0.000    0.000    0.000    0.000    0.000 
#    0.000    0.000    0.000    0.000    0.000    0.000 
#
# Total GULP energy -78240.795324 kJ/mol
# GULP energy per Si atom -5588.628237 kJ/mol
# Density = 2.286818 g / cm^3
# Si number density = 22.920348 Si / 1000 Ang^3
#
#
#
# Elastic Constant Matrix: (Units=GPa)
#
#
# Indices 1 2 3 4 5 6 
#
# 1 73.9426 39.0670 55.0184 -1.7572 10.1578 15.1566
# 2 39.0670 118.9783 63.9951 -3.7061 14.4863 15.0040
# 3 55.0184 63.9951 145.1956 -7.2317 14.8893 16.9977
# 4 -1.7572 -3.7061 -7.2317 50.6550 -2.1241 5.0066
# 5 10.1578 14.4863 14.8893 -2.1241 36.2361 -7.5136
# 6 15.1566 15.0040 16.9977 5.0066 -7.5136 41.4729
#
#
#
# Elastic Compliance Matrix: (Units=1/GPa)
#
#
# Indices 1 2 3 4 5 6 
#
# 1 0.020663 -0.002678 -0.005735 0.000040 -0.003368 -0.004847
# 2 -0.002678 0.011920 -0.003627 0.000376 -0.003008 -0.002438
# 3 -0.005735 -0.003627 0.011086 0.001203 -0.001759 -0.001600
# 4 0.000040 0.000376 0.001203 0.020244 -0.000114 -0.003108
# 5 -0.003368 -0.003008 -0.001759 -0.000114 0.032307 0.008907
# 6 -0.004847 -0.002438 -0.001600 -0.003108 0.008907 0.029410
#
#
# Mechanical properties :
#
#
# Convention : Reuss Voigt Hill
#
# Bulk Modulus (GPa) = 51.04213 72.69753 61.86983
# Shear Modulus (GPa) = 32.00223 37.67521 34.83872
#
# Velocity S-wave (km/s) = 3.74068 4.05871 3.90294
# Velocity P-wave (km/s) = 6.40114 7.33147 6.88205
#
# Compressibility (1/GPa) = 0.01959166
#
# Stress axis : x y z
#
# Youngs Moduli (GPa) = 48.39563 83.89162 90.20129
#
# Poissons Ratio (x) = 0.22463 0.51728
# Poissons Ratio (y) = 0.12958 0.32712
# Poissons Ratio (z) = 0.27754 0.30424
#
# Static dielectric constant tensor:
#      x y z
#    x 1.808160 -0.021780 0.009820 
#    y -0.021780 1.954830 0.002850 
#    z 0.009820 0.002850 1.892750 
# 
# From -- ./inp_files/524015.got.cif
#   From: 2010.05.17/outbox.cif.g08.bks.cpg/sg2_263_cif.got.tgz:524015.got - 2010.06.03 11:33:40.
