data_PCOD9039141
_publ_section_title
;
Structure prediction by ZEFSAII (Michael W. Deem and Ramdas Pophale) SiO2 
 PCOD9039141
Probable space group: P -1
;
_chemical_formula_sum "Si O2"
_cell_formula_units_Z 14
_cell_length_a 9.178551
_cell_length_b 12.027997
_cell_length_c 11.833588
_cell_angle_alpha 131.890124
_cell_angle_beta 117.077506
_cell_angle_gamma 35.907797
_cell_volume 559.300147
_symmetry_space_group_name_H-M "P -1"
_symmetry_group_IT_number 2
_symmetry_cell_setting 'triclinic'
loop_
_space_group_symop_operation_xyz
x,y,z
-x,-y,-z
loop_
_atom_site_type_symbol
_atom_site_label
_atom_site_fract_x
_atom_site_fract_y
_atom_site_fract_z
Si Si1 0.182469 0.279009 0.752320
Si Si2 0.229928 0.925279 0.975865
Si Si3 0.412390 0.096746 0.164594
Si Si4 0.653467 0.379331 0.357910
Si Si5 0.317791 0.514872 0.015661
Si Si6 0.848182 0.235932 0.669588
Si Si7 0.022669 0.585235 0.454663
O O1 0.947445 0.328361 0.723552
O O2 0.206580 0.251042 0.605149
O O3 0.383419 0.077586 0.780744
O O4 0.167716 0.469741 0.892343
O O5 0.282287 0.829558 0.804124
O O6 0.483338 0.703549 0.979534
O O7 0.195061 0.122503 0.116943
O O8 0.000000 0.000000 0.000000
O O9 0.268524 0.348834 0.313853
O O10 0.500000 0.000000 0.000000
O O11 0.500000 0.500000 0.500000
O O12 0.448233 0.588387 0.339675
O O13 0.905889 0.299063 0.402312
O O14 0.136181 0.750771 0.182214
O O15 0.500000 0.500000 0.000000
O O16 0.000000 0.000000 0.500000
O O17 0.000000 0.500000 0.500000
#
# Coordination Sequence:
#
# PCOD9039141 Si02
#       7
#     2   2   2   2   2   2   2
#     4  11  26  48  72 105 147 189 237 297 358 422
#     4  10  23  42  66  96 135 175 225 289 347 408
#     4  11  26  45  73 105 131 183 245 287 349 437
#     4  11  22  43  65  97 136 179 228 283 348 414
#     4  10  25  43  70 102 138 182 236 292 352 427
#     4  11  24  44  71 102 141 185 234 294 356 424
#     4  12  27  45  72 101 147 190 231 294 361 419
#
# _framework density 25.031286000000001
#
# number of rings (size 3 to 8) (size 9 to 14) (size 15 to 20)
#    0.000    1.143    1.429    3.000   12.000    1.714 
#    5.143    0.000    0.000    0.000    0.000    0.000 
#    0.000    0.000    0.000    0.000    0.000    0.000 
#
# Total GULP energy -78079.730649 kJ/mol
# GULP energy per Si atom -5577.123618 kJ/mol
# Density = 2.497431 g / cm^3
# Si number density = 25.031286 Si / 1000 Ang^3
#
#
#
# Elastic Constant Matrix: (Units=GPa)
#
#
# Indices 1 2 3 4 5 6 
#
# 1 115.5892 -2.2622 55.8026 -12.2321 5.3855 8.1293
# 2 -2.2622 151.4654 37.9367 -23.1737 -4.0364 11.5269
# 3 55.8026 37.9367 143.1769 -9.1586 16.5763 -3.2357
# 4 -12.2321 -23.1737 -9.1586 35.8607 -2.8418 -3.8408
# 5 5.3855 -4.0364 16.5763 -2.8418 48.1736 -3.9934
# 6 8.1293 11.5269 -3.2357 -3.8408 -3.9934 27.5310
#
#
#
# Elastic Compliance Matrix: (Units=1/GPa)
#
#
# Indices 1 2 3 4 5 6 
#
# 1 0.011914 0.002430 -0.005202 0.003861 0.000514 -0.004534
# 2 0.002430 0.008555 -0.003137 0.005280 0.001528 -0.003710
# 3 -0.005202 -0.003137 0.010197 -0.001061 -0.002965 0.003470
# 4 0.003861 0.005280 -0.001061 0.032690 0.002423 0.001437
# 5 0.000514 0.001528 -0.002965 0.002423 0.022192 0.002417
# 6 -0.004534 -0.003710 0.003470 0.001437 0.002417 0.040174
#
#
# Mechanical properties :
#
#
# Convention : Reuss Voigt Hill
#
# Bulk Modulus (GPa) = 53.05632 65.90953 59.48293
# Shear Modulus (GPa) = 34.76516 43.56337 39.16426
#
# Velocity S-wave (km/s) = 3.73080 4.17628 3.95981
# Velocity P-wave (km/s) = 6.30876 7.04579 6.68744
#
# Compressibility (1/GPa) = 0.01884790
#
# Stress axis : x y z
#
# Youngs Moduli (GPa) = 83.93574 116.88961 98.06826
#
# Poissons Ratio (x) = -0.28408 0.51018
# Poissons Ratio (y) = -0.20399 0.30765
# Poissons Ratio (z) = 0.43666 0.36669
#
# Static dielectric constant tensor:
#      x y z
#    x 2.000940 0.042770 -0.034690 
#    y 0.042770 1.954260 -0.052660 
#    z -0.034690 -0.052660 2.023160 
# 
# From -- ./inp_files/393157.got.cif
#   From: 2010.05.17/outbox.cif.g08.bks.cpg/sg2_197_cif.got.tgz:393157.got - 2010.06.03 11:33:40.
