data_PCOD9039867
_publ_section_title
;
Structure prediction by ZEFSAII (Michael W. Deem and Ramdas Pophale) SiO2 
 PCOD9039867
Probable space group: P -1
;
_chemical_formula_sum "Si O2"
_cell_formula_units_Z 14
_cell_length_a 11.659730
_cell_length_b 9.113876
_cell_length_c 8.170925
_cell_angle_alpha 131.461924
_cell_angle_beta 64.338328
_cell_angle_gamma 97.023417
_cell_volume 568.861032
_symmetry_space_group_name_H-M "P -1"
_symmetry_group_IT_number 2
_symmetry_cell_setting 'triclinic'
loop_
_space_group_symop_operation_xyz
x,y,z
-x,-y,-z
loop_
_atom_site_type_symbol
_atom_site_label
_atom_site_fract_x
_atom_site_fract_y
_atom_site_fract_z
Si Si1 0.462484 0.792629 0.825592
Si Si2 0.280781 0.890883 0.513258
Si Si3 0.929659 0.484768 0.267726
Si Si4 0.524392 0.594513 0.283098
Si Si5 0.809981 0.147397 0.116575
Si Si6 0.206259 0.342279 0.853083
Si Si7 0.011762 0.876974 0.570614
O O1 0.517686 0.704665 0.548427
O O2 0.505231 0.618490 0.807053
O O3 0.305492 0.823046 0.923378
O O4 0.500000 0.000000 0.000000
O O5 0.419550 0.734293 0.331173
O O6 0.241524 0.951176 0.770318
O O7 0.165858 0.799835 0.446669
O O8 0.264703 0.106741 0.596803
O O9 0.841190 0.355533 0.313002
O O10 0.861235 0.528060 0.164643
O O11 0.936437 0.700632 0.489416
O O12 0.081993 0.368016 0.068768
O O13 0.668923 0.578696 0.114278
O O14 0.943643 0.027698 0.864875
O O15 0.000000 0.000000 0.500000
#
# Coordination Sequence:
#
# PCOD9039867 Si02
#       7
#     2   2   2   2   2   2   2
#     4  10  23  42  71  98 131 179 229 269 339 406
#     4  11  24  44  67 101 141 178 221 281 347 385
#     4  11  23  41  71  96 130 183 229 268 333 400
#     4  10  23  43  67  97 140 178 217 282 338 401
#     4  11  24  45  68  98 139 172 224 288 329 398
#     4  11  21  44  68  96 140 179 219 278 341 396
#     4  12  24  41  70  98 131 179 231 272 331 405
#
# _framework density 24.610579999999999
#
# number of rings (size 3 to 8) (size 9 to 14) (size 15 to 20)
#    0.000    1.143    4.286    1.714    2.000    0.571 
#    5.143    0.714    0.000    0.000    0.000    0.000 
#    0.000    0.000    0.000    0.000    0.000    0.000 
#
# Total GULP energy -78334.240822 kJ/mol
# GULP energy per Si atom -5595.302916 kJ/mol
# Density = 2.455456 g / cm^3
# Si number density = 24.610580 Si / 1000 Ang^3
#
#
#
# Elastic Constant Matrix: (Units=GPa)
#
#
# Indices 1 2 3 4 5 6 
#
# 1 122.8597 52.1939 43.0440 9.3376 -30.0317 -0.1234
# 2 52.1939 93.3818 28.8660 30.5702 -8.8302 17.3683
# 3 43.0440 28.8660 68.2796 15.7139 -8.9850 6.1073
# 4 9.3376 30.5702 15.7139 35.2262 4.1144 6.4849
# 5 -30.0317 -8.8302 -8.9850 4.1144 42.5022 14.5531
# 6 -0.1234 17.3683 6.1073 6.4849 14.5531 45.6261
#
#
#
# Elastic Compliance Matrix: (Units=1/GPa)
#
#
# Indices 1 2 3 4 5 6 
#
# 1 0.014813 -0.007161 -0.006439 0.004200 0.006930 0.000821
# 2 -0.007161 0.021512 0.000168 -0.015945 0.003402 -0.007050
# 3 -0.006439 0.000168 0.020720 -0.007429 0.001348 -0.002229
# 4 0.004200 -0.015945 -0.007429 0.044717 -0.007287 0.003044
# 5 0.006930 0.003402 0.001348 -0.007287 0.033977 -0.011259
# 6 0.000821 -0.007050 -0.002229 0.003044 -0.011259 0.028060
#
#
# Mechanical properties :
#
#
# Convention : Reuss Voigt Hill
#
# Bulk Modulus (GPa) = 33.13325 59.19210 46.16268
# Shear Modulus (GPa) = 24.90969 35.36539 30.13754
#
# Velocity S-wave (km/s) = 3.18489 3.79489 3.50319
# Velocity P-wave (km/s) = 5.19778 6.58068 5.92968
#
# Compressibility (1/GPa) = 0.03018116
#
# Stress axis : x y z
#
# Youngs Moduli (GPa) = 67.50726 46.48483 48.26209
#
# Poissons Ratio (x) = 0.33290 0.31075
# Poissons Ratio (y) = 0.48345 -0.00810
# Poissons Ratio (z) = 0.43467 -0.00780
#
# Static dielectric constant tensor:
#      x y z
#    x 1.931520 -0.013730 0.001350 
#    y -0.013730 1.927240 0.024580 
#    z 0.001350 0.024580 2.045690 
# 
# From -- ./inp_files/245767.got.cif
#   From: 2010.05.17/outbox.cif.g08.bks.cpg/sg2_123_cif.got.tgz:245767.got - 2010.06.03 11:33:40.
