data_PCOD9039414
_publ_section_title
;
Structure prediction by ZEFSAII (Michael W. Deem and Ramdas Pophale) SiO2 
 PCOD9039414
Probable space group: P -1
;
_chemical_formula_sum "Si O2"
_cell_formula_units_Z 15
_cell_length_a 11.363711
_cell_length_b 5.170205
_cell_length_c 20.117656
_cell_angle_alpha 110.264962
_cell_angle_beta 149.528204
_cell_angle_gamma 72.884956
_cell_volume 562.268103
_symmetry_space_group_name_H-M "P -1"
_symmetry_group_IT_number 2
_symmetry_cell_setting 'triclinic'
loop_
_space_group_symop_operation_xyz
x,y,z
-x,-y,-z
loop_
_atom_site_type_symbol
_atom_site_label
_atom_site_fract_x
_atom_site_fract_y
_atom_site_fract_z
Si Si1 0.140827 0.272807 0.591852
Si Si2 0.733576 0.280677 0.971259
Si Si3 0.991376 0.344241 0.338038
Si Si4 0.532745 0.762770 0.364168
Si Si5 0.353260 0.119196 0.878411
Si Si6 0.500000 0.000000 0.500000
Si Si7 0.248849 0.356855 0.109885
Si Si8 0.918275 0.477811 0.743796
O O1 0.370568 0.179546 0.657124
O O2 0.000000 0.500000 0.500000
O O3 0.126108 0.378453 0.669351
O O4 0.000000 0.000000 0.500000
O O5 0.659604 0.522274 0.905846
O O6 0.541385 0.253726 0.933250
O O7 0.750155 0.972870 0.920638
O O8 0.987718 0.351705 0.132041
O O9 0.239944 0.314864 0.490094
O O10 0.068163 0.328726 0.297747
O O11 0.802391 0.124643 0.250061
O O12 0.451103 0.005639 0.394472
O O13 0.379915 0.495893 0.248379
O O14 0.148386 0.297148 0.825897
O O15 0.500000 0.000000 0.000000
O O16 0.307212 0.726212 0.385088
O O17 0.000000 0.500000 0.000000
#
# Coordination Sequence:
#
# PCOD9039414 Si02
#       8
#     2   2   2   2   2   1   2   2
#     4  10  23  42  68 105 150 196 246 316 394 474
#     4  12  28  50  86 120 167 220 276 347 412 502
#     4  11  25  46  77 116 163 207 269 345 418 490
#     4  11  26  48  75 114 155 208 270 334 411 483
#     4  12  25  48  76 123 165 212 273 340 422 490
#     4  12  26  50  76 114 160 210 270 344 410 498
#     4  12  29  53  81 116 165 227 283 336 412 504
#     4  12  27  47  81 120 167 214 279 341 422 492
#
# _framework density 26.677662999999999
#
# number of rings (size 3 to 8) (size 9 to 14) (size 15 to 20)
#    0.000    0.533    2.667    4.000    5.600    4.800 
#    0.000    1.333    0.000    0.000    0.000    0.000 
#    0.000    0.000    0.000    0.000    0.000    0.000 
#
# Total GULP energy -83591.631076 kJ/mol
# GULP energy per Si atom -5572.775405 kJ/mol
# Density = 2.661694 g / cm^3
# Si number density = 26.677663 Si / 1000 Ang^3
#
#
#
# Elastic Constant Matrix: (Units=GPa)
#
#
# Indices 1 2 3 4 5 6 
#
# 1 109.9842 16.8040 33.6155 3.7810 21.5357 19.6984
# 2 16.8040 106.5808 47.4859 28.2071 0.3038 1.6222
# 3 33.6155 47.4859 199.1789 36.4051 -5.4844 10.3396
# 4 3.7810 28.2071 36.4051 58.9081 2.4429 3.1472
# 5 21.5357 0.3038 -5.4844 2.4429 54.6922 9.5202
# 6 19.6984 1.6222 10.3396 3.1472 9.5202 32.2106
#
#
#
# Elastic Compliance Matrix: (Units=1/GPa)
#
#
# Indices 1 2 3 4 5 6 
#
# 1 0.011483 -0.001330 -0.001700 0.001397 -0.003803 -0.005422
# 2 -0.001330 0.011531 -0.001770 -0.004415 0.000279 0.001149
# 3 -0.001700 -0.001770 0.006380 -0.002995 0.001646 -0.001113
# 4 0.001397 -0.004415 -0.002995 0.020983 -0.001543 -0.001265
# 5 -0.003803 0.000279 0.001646 -0.001543 0.020745 -0.004197
# 6 -0.005422 0.001149 -0.001113 -0.001265 -0.004197 0.036025
#
#
# Mechanical properties :
#
#
# Convention : Reuss Voigt Hill
#
# Bulk Modulus (GPa) = 50.51591 67.95053 59.23322
# Shear Modulus (GPa) = 40.53761 50.35141 45.44451
#
# Velocity S-wave (km/s) = 3.90235 4.34913 4.13179
# Velocity P-wave (km/s) = 6.26747 7.12364 6.70923
#
# Compressibility (1/GPa) = 0.01979574
#
# Stress axis : x y z
#
# Youngs Moduli (GPa) = 87.08858 86.72364 156.74206
#
# Poissons Ratio (x) = 0.11531 0.26640
# Poissons Ratio (y) = 0.11579 0.27737
# Poissons Ratio (z) = 0.14801 0.15347
#
# Static dielectric constant tensor:
#      x y z
#    x 2.793000 -0.364140 -0.165350 
#    y -0.364140 2.339680 -0.006960 
#    z -0.165350 -0.006960 2.234990 
# 
# From -- ./inp_files/592858.got.cif
#   From: 2010.05.17/outbox.cif.g08.bks.cpg/sg2_297_cif.got.tgz:592858.got - 2010.06.03 11:33:40.
