data_PCOD9039204
_publ_section_title
;
Structure prediction by ZEFSAII (Michael W. Deem and Ramdas Pophale) SiO2 
 PCOD9039204
Probable space group: P -1
;
_chemical_formula_sum "Si O2"
_cell_formula_units_Z 16
_cell_length_a 21.622253
_cell_length_b 5.111954
_cell_length_c 19.738825
_cell_angle_alpha 104.537531
_cell_angle_beta 19.809252
_cell_angle_gamma 103.533186
_cell_volume 715.692244
_symmetry_space_group_name_H-M "P -1"
_symmetry_group_IT_number 2
_symmetry_cell_setting 'triclinic'
loop_
_space_group_symop_operation_xyz
x,y,z
-x,-y,-z
loop_
_atom_site_type_symbol
_atom_site_label
_atom_site_fract_x
_atom_site_fract_y
_atom_site_fract_z
Si Si1 0.147242 0.612330 0.562660
Si Si2 0.129279 0.469818 0.429101
Si Si3 0.990835 0.202480 0.959819
Si Si4 0.705683 0.921686 0.140818
Si Si5 0.823153 0.340089 0.940216
Si Si6 0.353362 0.956120 0.205652
Si Si7 0.304059 0.061359 0.522664
Si Si8 0.474730 0.278904 0.225024
O O1 0.063180 0.631241 0.575707
O O2 0.354689 0.516096 0.332795
O O3 0.175558 0.854953 0.600705
O O4 0.027872 0.385750 0.708596
O O5 0.186613 0.166847 0.373196
O O6 0.000000 0.500000 0.500000
O O7 0.300308 0.646126 0.241643
O O8 0.164242 0.184176 0.729001
O O9 0.000000 0.500000 0.000000
O O10 0.807191 0.105994 0.103787
O O11 0.000000 0.000000 0.000000
O O12 0.780942 0.062421 0.003760
O O13 0.484957 0.939454 0.365741
O O14 0.769009 0.608554 0.057159
O O15 0.685173 0.344866 0.019659
O O16 0.431822 0.036058 0.203404
O O17 0.500000 0.000000 0.000000
O O18 0.395774 0.239344 0.380051
#
# Coordination Sequence:
#
# PCOD9039204 Si02
#       8
#     2   2   2   2   2   2   2   2
#     4  11  22  41  70  96 134 179 225 286 333 386
#     4  11  25  44  64  99 138 182 232 275 347 407
#     4  12  28  45  69  99 136 176 217 270 340 403
#     4  11  24  44  68 101 131 170 221 270 332 404
#     4  11  23  38  69 102 129 166 226 276 332 387
#     4  11  24  44  66  95 138 180 226 281 343 403
#     4  11  23  44  71  94 139 170 226 282 329 394
#     4  10  23  42  67 101 132 175 227 278 339 393
#
# _framework density 22.355978
#
# number of rings (size 3 to 8) (size 9 to 14) (size 15 to 20)
#    0.000    1.000    3.750    2.250    3.500    1.000 
#    4.500    0.000    0.000    0.000    0.000    0.000 
#    0.000    0.000    0.000    0.000    0.000    0.000 
#
# Total GULP energy -89314.906246 kJ/mol
# GULP energy per Si atom -5582.181640 kJ/mol
# Density = 2.230509 g / cm^3
# Si number density = 22.355978 Si / 1000 Ang^3
#
#
#
# Elastic Constant Matrix: (Units=GPa)
#
#
# Indices 1 2 3 4 5 6 
#
# 1 125.1709 17.2865 32.4784 3.7570 -10.9481 18.9317
# 2 17.2865 67.7575 8.5632 -7.9434 -2.2581 -1.4414
# 3 32.4784 8.5632 84.9217 -5.2474 -1.6968 3.1314
# 4 3.7570 -7.9434 -5.2474 29.3550 -0.6725 4.6734
# 5 -10.9481 -2.2581 -1.6968 -0.6725 42.0570 -9.9077
# 6 18.9317 -1.4414 3.1314 4.6734 -9.9077 30.9737
#
#
#
# Elastic Compliance Matrix: (Units=1/GPa)
#
#
# Indices 1 2 3 4 5 6 
#
# 1 0.010206 -0.002436 -0.003543 -0.001716 0.001087 -0.005387
# 2 -0.002436 0.016005 -0.000473 0.004278 0.000714 0.001864
# 3 -0.003543 -0.000473 0.013325 0.002653 -0.000297 0.000301
# 4 -0.001716 0.004278 0.002653 0.036660 -0.000645 -0.004758
# 5 0.001087 0.000714 -0.000297 -0.000645 0.025910 0.007784
# 6 -0.005387 0.001864 0.000301 -0.004758 0.007784 0.038842
#
#
# Mechanical properties :
#
#
# Convention : Reuss Voigt Hill
#
# Bulk Modulus (GPa) = 37.54762 43.83405 40.69084
# Shear Modulus (GPa) = 30.72602 35.11194 32.91898
#
# Velocity S-wave (km/s) = 3.71131 3.96736 3.84147
# Velocity P-wave (km/s) = 5.93270 6.37467 6.15765
#
# Compressibility (1/GPa) = 0.02663285
#
# Stress axis : x y z
#
# Youngs Moduli (GPa) = 97.98002 62.48239 75.04534
#
# Poissons Ratio (x) = 0.15218 0.26592
# Poissons Ratio (y) = 0.23864 0.03546
# Poissons Ratio (z) = 0.34719 0.02952
#
# Static dielectric constant tensor:
#      x y z
#    x 1.847370 -0.016400 -0.040700 
#    y -0.016400 1.857150 0.019060 
#    z -0.040700 0.019060 1.784130 
# 
# From -- ./inp_files/56946.got.cif
#   From: 2010.05.17/outbox.cif.g08.bks.cpg/sg2_29_cif.got.tgz:56946.got - 2010.06.03 11:33:40.
