data_PCOD9039853
_publ_section_title
;
Structure prediction by ZEFSAII (Michael W. Deem and Ramdas Pophale) SiO2 
 PCOD9039853
Probable space group: P -1
;
_chemical_formula_sum "Si O2"
_cell_formula_units_Z 14
_cell_length_a 9.244832
_cell_length_b 9.964455
_cell_length_c 8.379092
_cell_angle_alpha 112.783228
_cell_angle_beta 65.207329
_cell_angle_gamma 120.958053
_cell_volume 586.143902
_symmetry_space_group_name_H-M "P -1"
_symmetry_group_IT_number 2
_symmetry_cell_setting 'triclinic'
loop_
_space_group_symop_operation_xyz
x,y,z
-x,-y,-z
loop_
_atom_site_type_symbol
_atom_site_label
_atom_site_fract_x
_atom_site_fract_y
_atom_site_fract_z
Si Si1 0.180184 0.565645 0.269755
Si Si2 0.577721 0.141625 0.157973
Si Si3 0.330390 0.283242 0.343425
Si Si4 0.846792 0.236055 0.351858
Si Si5 0.041866 0.038042 0.184301
Si Si6 0.050103 0.279353 0.728175
Si Si7 0.652132 0.461692 0.104625
O O1 0.235704 0.675632 0.451929
O O2 0.030164 0.386694 0.288816
O O3 0.079828 0.650440 0.250501
O O4 0.341906 0.558274 0.096016
O O5 0.422607 0.176463 0.328168
O O6 0.717879 0.146587 0.225485
O O7 0.671667 0.305971 0.092676
O O8 0.500000 0.000000 0.000000
O O9 0.189020 0.296707 0.531344
O O10 0.483102 0.445851 0.278437
O O11 0.232045 0.182155 0.187232
O O12 0.902830 0.104681 0.342353
O O13 0.036973 0.895568 0.233822
O O14 0.000000 0.000000 0.000000
O O15 0.173393 0.387398 0.860771
#
# Coordination Sequence:
#
# PCOD9039853 Si02
#       7
#     2   2   2   2   2   2   2
#     4  11  23  43  74 101 137 184 236 279 341 418
#     4  10  23  42  71  94 139 183 225 274 346 411
#     4  10  24  45  69 101 138 182 222 287 350 411
#     4  11  24  44  68 106 139 179 235 288 333 412
#     4  12  26  42  71 102 140 174 234 289 343 402
#     4  12  23  46  73 100 136 187 231 277 350 420
#     4  10  24  41  72  98 131 186 232 271 345 416
#
# _framework density 23.884920999999999
#
# number of rings (size 3 to 8) (size 9 to 14) (size 15 to 20)
#    0.857    0.286    2.857    3.000    4.000    0.000 
#    2.571    2.857    0.000    0.000    0.000    0.000 
#    0.000    0.000    0.000    0.000    0.000    0.000 
#
# Total GULP energy -78170.720568 kJ/mol
# GULP energy per Si atom -5583.622898 kJ/mol
# Density = 2.383056 g / cm^3
# Si number density = 23.884921 Si / 1000 Ang^3
#
#
#
# Elastic Constant Matrix: (Units=GPa)
#
#
# Indices 1 2 3 4 5 6 
#
# 1 67.3918 29.8440 -3.0137 3.6468 -0.1488 -13.5633
# 2 29.8440 56.1828 10.8195 8.1112 5.0688 -10.2698
# 3 -3.0137 10.8195 106.1193 -9.3236 -11.1400 10.5719
# 4 3.6468 8.1112 -9.3236 38.1484 12.5380 4.8346
# 5 -0.1488 5.0688 -11.1400 12.5380 41.9869 3.7796
# 6 -13.5633 -10.2698 10.5719 4.8346 3.7796 34.3394
#
#
#
# Elastic Compliance Matrix: (Units=1/GPa)
#
#
# Indices 1 2 3 4 5 6 
#
# 1 0.020399 -0.010323 0.001291 -0.000467 0.001397 0.004484
# 2 -0.010323 0.026372 -0.004437 -0.005402 -0.003352 0.006305
# 3 0.001291 -0.004437 0.010997 0.003165 0.002960 -0.004974
# 4 -0.000467 -0.005402 0.003165 0.031392 -0.007309 -0.006390
# 5 0.001397 -0.003352 0.002960 -0.007309 0.027497 -0.003360
# 6 0.004484 0.006305 -0.004974 -0.006390 -0.003360 0.035579
#
#
# Mechanical properties :
#
#
# Convention : Reuss Voigt Hill
#
# Bulk Modulus (GPa) = 32.43672 33.88816 33.16244
# Shear Modulus (GPa) = 26.39230 35.69788 31.04509
#
# Velocity S-wave (km/s) = 3.32773 3.87017 3.60915
# Velocity P-wave (km/s) = 5.32681 5.84721 5.59307
#
# Compressibility (1/GPa) = 0.03082926
#
# Stress axis : x y z
#
# Youngs Moduli (GPa) = 49.02267 37.91934 90.93620
#
# Poissons Ratio (x) = 0.39145 -0.11737
# Poissons Ratio (y) = 0.50607 0.40344
# Poissons Ratio (z) = -0.06327 0.16823
#
# Static dielectric constant tensor:
#      x y z
#    x 1.892020 -0.025240 -0.050670 
#    y -0.025240 1.826910 -0.009210 
#    z -0.050670 -0.009210 1.992000 
# 
# From -- ./inp_files/268814.got.cif
#   From: 2010.05.17/outbox.cif.g08.bks.cpg/sg2_135_cif.got.tgz:268814.got - 2010.06.03 11:33:40.
