data_PCOD9039966
_publ_section_title
;
Structure prediction by ZEFSAII (Michael W. Deem and Ramdas Pophale) SiO2 
 PCOD9039966
Probable space group: P -1
;
_chemical_formula_sum "Si O2"
_cell_formula_units_Z 12
_cell_length_a 12.412261
_cell_length_b 15.705927
_cell_length_c 9.144459
_cell_angle_alpha 143.876912
_cell_angle_beta 126.656520
_cell_angle_gamma 29.571006
_cell_volume 483.317262
_symmetry_space_group_name_H-M "P -1"
_symmetry_group_IT_number 2
_symmetry_cell_setting 'triclinic'
loop_
_space_group_symop_operation_xyz
x,y,z
-x,-y,-z
loop_
_atom_site_type_symbol
_atom_site_label
_atom_site_fract_x
_atom_site_fract_y
_atom_site_fract_z
Si Si1 0.673869 0.498126 0.239908
Si Si2 0.693232 0.750214 0.408657
Si Si3 0.222155 0.861242 0.576556
Si Si4 0.097161 0.559753 0.371409
Si Si5 0.978653 0.963191 0.766448
Si Si6 0.588446 0.029935 0.988525
O O1 0.643831 0.632633 0.265062
O O2 0.827615 0.448054 0.417699
O O3 0.444511 0.663089 0.377051
O O4 0.207606 0.758224 0.058948
O O5 0.941019 0.555153 0.257462
O O6 0.500000 0.000000 0.500000
O O7 0.695505 0.847305 0.690295
O O8 0.229701 0.017649 0.862159
O O9 0.000000 0.000000 0.500000
O O10 0.212606 0.778625 0.604138
O O11 0.340534 0.324807 0.156009
O O12 0.938582 0.827722 0.547203
O O13 0.000000 0.000000 0.000000
O O14 0.500000 0.000000 0.000000
#
# Coordination Sequence:
#
# PCOD9039966 Si02
#       6
#     2   2   2   2   2   2
#     4  10  23  45  72 103 143 192 240 293 364 431
#     4  12  26  44  74 109 144 185 247 300 360 428
#     4  11  25  44  72 105 147 188 242 295 363 426
#     4  10  23  42  73 102 144 184 244 293 363 426
#     4  10  23  43  71 103 140 185 238 291 359 424
#     4  11  23  45  74 103 142 190 239 295 364 427
#
# _framework density 24.828412
#
# number of rings (size 3 to 8) (size 9 to 14) (size 15 to 20)
#    0.000    1.333    3.333    2.500    4.667    8.667 
#    3.000    0.000    0.000    0.000    0.000    0.000 
#    0.000    0.000    0.000    0.000    0.000    0.000 
#
# Total GULP energy -67084.422677 kJ/mol
# GULP energy per Si atom -5590.368556 kJ/mol
# Density = 2.477190 g / cm^3
# Si number density = 24.828412 Si / 1000 Ang^3
#
#
#
# Elastic Constant Matrix: (Units=GPa)
#
#
# Indices 1 2 3 4 5 6 
#
# 1 193.4901 60.7846 33.3056 16.4391 -2.8197 -0.5039
# 2 60.7846 95.4844 26.5434 14.8044 7.2246 -3.2936
# 3 33.3056 26.5434 77.9971 15.2454 6.9349 4.9377
# 4 16.4391 14.8044 15.2454 44.7416 8.4406 9.8513
# 5 -2.8197 7.2246 6.9349 8.4406 28.0702 10.2900
# 6 -0.5039 -3.2936 4.9377 9.8513 10.2900 42.3364
#
#
#
# Elastic Compliance Matrix: (Units=1/GPa)
#
#
# Indices 1 2 3 4 5 6 
#
# 1 0.006800 -0.003940 -0.001557 -0.001053 0.002552 -0.000419
# 2 -0.003940 0.014462 -0.002621 -0.002355 -0.003810 0.002858
# 3 -0.001557 -0.002621 0.015231 -0.003204 -0.002000 -0.000767
# 4 -0.001053 -0.002355 -0.003204 0.026600 -0.004943 -0.004810
# 5 0.002552 -0.003810 -0.002000 -0.004943 0.042192 -0.009137
# 6 -0.000419 0.002858 -0.000767 -0.004810 -0.009137 0.027267
#
#
# Mechanical properties :
#
#
# Convention : Reuss Voigt Hill
#
# Bulk Modulus (GPa) = 49.36922 67.58210 58.47566
# Shear Modulus (GPa) = 32.14620 39.45218 35.79919
#
# Velocity S-wave (km/s) = 3.60215 3.99054 3.80131
# Velocity P-wave (km/s) = 6.10147 6.96501 6.54749
#
# Compressibility (1/GPa) = 0.02025553
#
# Stress axis : x y z
#
# Youngs Moduli (GPa) = 147.06817 69.14867 65.65761
#
# Poissons Ratio (x) = 0.27244 0.10224
# Poissons Ratio (y) = 0.57944 0.17209
# Poissons Ratio (z) = 0.22901 0.18124
#
# Static dielectric constant tensor:
#      x y z
#    x 5.276770 -0.951820 0.213230 
#    y -0.951820 2.378290 -0.005400 
#    z 0.213230 -0.005400 1.974380 
# 
# From -- ./inp_files/274449.got.cif
#   From: 2010.05.17/outbox.cif.g08.bks.cpg/sg2_138_cif.got.tgz:274449.got - 2010.06.03 11:33:40.
