data_PCOD9039754
_publ_section_title
;
Structure prediction by ZEFSAII (Michael W. Deem and Ramdas Pophale) SiO2 
 PCOD9039754
Probable space group: P -1
;
_chemical_formula_sum "Si O2"
_cell_formula_units_Z 14
_cell_length_a 12.195627
_cell_length_b 9.622897
_cell_length_c 11.002355
_cell_angle_alpha 98.543370
_cell_angle_beta 83.439685
_cell_angle_gamma 151.719501
_cell_volume 604.591663
_symmetry_space_group_name_H-M "P -1"
_symmetry_group_IT_number 2
_symmetry_cell_setting 'triclinic'
loop_
_space_group_symop_operation_xyz
x,y,z
-x,-y,-z
loop_
_atom_site_type_symbol
_atom_site_label
_atom_site_fract_x
_atom_site_fract_y
_atom_site_fract_z
Si Si1 0.011326 0.782959 0.479127
Si Si2 0.830269 0.348004 0.287815
Si Si3 0.245470 0.237483 0.933204
Si Si4 0.311012 0.329256 0.401120
Si Si5 0.184720 0.669945 0.102227
Si Si6 0.366380 0.667449 0.892305
Si Si7 0.663909 0.878245 0.282632
O O1 0.893990 0.507443 0.418607
O O2 0.829855 0.697064 0.531849
O O3 0.148455 0.010049 0.378515
O O4 0.182776 0.954580 0.592815
O O5 0.757533 0.380911 0.201804
O O6 0.054819 0.520153 0.227040
O O7 0.634149 0.010055 0.280322
O O8 0.292178 0.424646 0.866828
O O9 0.210844 0.057916 0.836390
O O10 0.500000 0.500000 0.000000
O O11 0.000000 0.000000 0.000000
O O12 0.500000 0.500000 0.500000
O O13 0.437586 0.530900 0.293064
O O14 0.365762 0.000312 0.120775
O O15 0.307388 0.668333 0.032454
O O16 0.000000 0.500000 0.000000
#
# Coordination Sequence:
#
# PCOD9039754 Si02
#       7
#     2   2   2   2   2   2   2
#     4  10  23  42  70  97 140 187 239 292 367 437
#     4  11  24  40  71 100 140 182 238 299 362 436
#     4  12  31  48  77 109 148 192 248 303 371 435
#     4   9  22  42  66  96 138 181 237 293 361 426
#     4   9  21  41  67  93 140 179 244 292 363 424
#     4  10  24  41  70 100 137 193 239 298 362 437
#     4  11  26  44  68 103 144 183 239 307 356 434
#
# _framework density 23.156126
#
# number of rings (size 3 to 8) (size 9 to 14) (size 15 to 20)
#    0.000    1.714    0.000    1.286   20.000    2.857 
#    0.000    0.000    0.000    0.000    0.000    0.000 
#    0.000    0.000    0.000    0.000    0.000    0.000 
#
# Total GULP energy -78183.851046 kJ/mol
# GULP energy per Si atom -5584.560789 kJ/mol
# Density = 2.310342 g / cm^3
# Si number density = 23.156126 Si / 1000 Ang^3
#
#
#
# Elastic Constant Matrix: (Units=GPa)
#
#
# Indices 1 2 3 4 5 6 
#
# 1 88.5875 31.9767 21.0607 4.1239 8.4980 -19.6789
# 2 31.9767 93.3455 19.6980 4.8646 -3.5048 -11.2755
# 3 21.0607 19.6980 69.2016 13.9657 -5.5731 -2.7220
# 4 4.1239 4.8646 13.9657 31.0107 -2.2176 -8.0219
# 5 8.4980 -3.5048 -5.5731 -2.2176 24.4636 2.6172
# 6 -19.6789 -11.2755 -2.7220 -8.0219 2.6172 44.4003
#
#
#
# Elastic Compliance Matrix: (Units=1/GPa)
#
#
# Indices 1 2 3 4 5 6 
#
# 1 0.015911 -0.004120 -0.004359 0.001623 -0.007657 0.006483
# 2 -0.004120 0.012812 -0.002131 -0.000018 0.002658 0.001137
# 3 -0.004359 -0.002131 0.018224 -0.007725 0.004986 -0.003045
# 4 0.001623 -0.000018 -0.007725 0.037338 0.000313 0.006968
# 5 -0.007657 0.002658 0.004986 0.000313 0.045622 -0.005046
# 6 0.006483 0.001137 -0.003045 0.006968 -0.005046 0.027054
#
#
# Mechanical properties :
#
#
# Convention : Reuss Voigt Hill
#
# Bulk Modulus (GPa) = 38.86697 44.06728 41.46712
# Shear Modulus (GPa) = 26.77317 31.86821 29.32069
#
# Velocity S-wave (km/s) = 3.40399 3.71379 3.56226
# Velocity P-wave (km/s) = 5.68073 6.12057 5.90475
#
# Compressibility (1/GPa) = 0.02572879
#
# Stress axis : x y z
#
# Youngs Moduli (GPa) = 62.85134 78.05304 54.87202
#
# Poissons Ratio (x) = 0.32154 0.23917
# Poissons Ratio (y) = 0.25892 0.11691
# Poissons Ratio (z) = 0.27395 0.16630
#
# Static dielectric constant tensor:
#      x y z
#    x 1.871240 0.014260 -0.001640 
#    y 0.014260 1.916130 -0.042420 
#    z -0.001640 -0.042420 1.904290 
# 
# From -- ./inp_files/78584.got.cif
#   From: 2010.05.17/outbox.cif.g08.bks.cpg/sg2_40_cif.got.tgz:78584.got - 2010.06.03 11:33:40.
