data_PCOD9039078
_publ_section_title
;
Structure prediction by ZEFSAII (Michael W. Deem and Ramdas Pophale) SiO2 
 PCOD9039078
Probable space group: P -1
;
_chemical_formula_sum "Si O2"
_cell_formula_units_Z 16
_cell_length_a 5.073548
_cell_length_b 21.642276
_cell_length_c 5.769272
_cell_angle_alpha 81.693924
_cell_angle_beta 98.396547
_cell_angle_gamma 91.845486
_cell_volume 620.080213
_symmetry_space_group_name_H-M "P -1"
_symmetry_group_IT_number 2
_symmetry_cell_setting 'triclinic'
loop_
_space_group_symop_operation_xyz
x,y,z
-x,-y,-z
loop_
_atom_site_type_symbol
_atom_site_label
_atom_site_fract_x
_atom_site_fract_y
_atom_site_fract_z
Si Si1 0.872591 0.714573 0.180241
Si Si2 0.352768 0.252526 0.350447
Si Si3 0.746434 0.047308 0.983826
Si Si4 0.168885 0.538975 0.815405
Si Si5 0.355893 0.875050 0.487466
Si Si6 0.730052 0.353234 0.484597
Si Si7 0.899724 0.929795 0.593554
Si Si8 0.595828 0.579962 0.223765
O O1 0.774646 0.741231 0.407362
O O2 0.760101 0.643809 0.174636
O O3 0.175466 0.698465 0.289729
O O4 0.822973 0.749138 0.909896
O O5 0.538650 0.192130 0.408304
O O6 0.540370 0.313221 0.318131
O O7 0.611843 0.098950 0.779337
O O8 0.890562 0.088131 0.173796
O O9 0.500000 0.000000 0.000000
O O10 0.000000 0.000000 0.000000
O O11 0.061512 0.603773 0.657203
O O12 0.244502 0.483276 0.682532
O O13 0.420101 0.564674 0.982704
O O14 0.000000 0.500000 0.000000
O O15 0.589820 0.921031 0.608822
O O16 0.033421 0.884478 0.448941
O O17 0.582025 0.404507 0.587017
O O18 0.000000 0.000000 0.500000
#
# Coordination Sequence:
#
# PCOD9039078 Si02
#       8
#     2   2   2   2   2   2   2   2
#     4  11  26  48  77 100 147 197 255 307 385 437
#     4  11  29  49  72 109 144 201 257 312 365 463
#     4  12  23  42  73 108 151 193 244 302 387 452
#     4  11  23  39  71 107 144 182 245 306 390 446
#     4  12  27  46  73 109 151 196 256 310 379 457
#     4  11  25  46  75  94 152 191 247 309 387 438
#     4  12  24  45  74 107 151 193 243 309 385 452
#     4  10  23  42  66 104 142 185 243 308 375 459
#
# _framework density 25.803111000000001
#
# number of rings (size 3 to 8) (size 9 to 14) (size 15 to 20)
#    0.000    0.750    3.750    2.250    7.000    4.000 
#    0.000    0.000    0.000    0.000    0.000    0.000 
#    0.000    0.000    0.000    0.000    0.000    0.000 
#
# Total GULP energy -89091.333026 kJ/mol
# GULP energy per Si atom -5568.208314 kJ/mol
# Density = 2.574438 g / cm^3
# Si number density = 25.803111 Si / 1000 Ang^3
#
#
#
# Elastic Constant Matrix: (Units=GPa)
#
#
# Indices 1 2 3 4 5 6 
#
# 1 88.7492 20.5262 12.7844 -1.4129 16.2864 -10.6645
# 2 20.5262 97.9852 20.7150 -20.8187 -10.2715 -15.8224
# 3 12.7844 20.7150 113.7424 -28.8213 29.5691 -4.2742
# 4 -1.4129 -20.8187 -28.8213 32.9603 -4.7000 18.6217
# 5 16.2864 -10.2715 29.5691 -4.7000 34.7418 -0.7779
# 6 -10.6645 -15.8224 -4.2742 18.6217 -0.7779 31.2283
#
#
#
# Elastic Compliance Matrix: (Units=1/GPa)
#
#
# Indices 1 2 3 4 5 6 
#
# 1 0.014682 -0.004447 -0.000181 -0.007584 -0.008912 0.007036
# 2 -0.004447 0.014498 -0.002844 0.007034 0.009776 0.001487
# 3 -0.000181 -0.002844 0.016252 0.015640 -0.012672 -0.008920
# 4 -0.007584 0.007034 0.015640 0.070117 0.000943 -0.038673
# 5 -0.008912 0.009776 -0.012672 0.000943 0.046783 0.000778
# 6 0.007036 0.001487 -0.008920 -0.038673 0.000778 0.057038
#
#
# Mechanical properties :
#
#
# Convention : Reuss Voigt Hill
#
# Bulk Modulus (GPa) = 32.79804 45.39201 39.09502
# Shear Modulus (GPa) = 20.45191 36.21618 28.33404
#
# Velocity S-wave (km/s) = 2.81839 3.75047 3.31733
# Velocity P-wave (km/s) = 4.83007 6.03197 5.46417
#
# Compressibility (1/GPa) = 0.03048963
#
# Stress axis : x y z
#
# Youngs Moduli (GPa) = 68.10843 68.97630 61.52997
#
# Poissons Ratio (x) = 0.30672 0.01112
# Poissons Ratio (y) = 0.30286 0.17498
# Poissons Ratio (z) = 0.01231 0.19616
#
# Static dielectric constant tensor:
#      x y z
#    x 1.722730 0.535510 0.697420 
#    y 0.535510 1.432570 -0.867210 
#    z 0.697420 -0.867210 0.804770 
# 
# From -- ./inp_files/10836.got.cif
#   From: 2010.05.17/outbox.cif.g08.bks.cpg/sg2_6_cif.got.tgz:10836.got - 2010.06.03 11:33:40.
