data_PCOD9039469
_publ_section_title
;
Structure prediction by ZEFSAII (Michael W. Deem and Ramdas Pophale) SiO2 
 PCOD9039469
Probable space group: P -1
;
_chemical_formula_sum "Si O2"
_cell_formula_units_Z 16
_cell_length_a 7.855654
_cell_length_b 12.659271
_cell_length_c 12.564693
_cell_angle_alpha 42.477930
_cell_angle_beta 131.293200
_cell_angle_gamma 114.748161
_cell_volume 628.255845
_symmetry_space_group_name_H-M "P -1"
_symmetry_group_IT_number 2
_symmetry_cell_setting 'triclinic'
loop_
_space_group_symop_operation_xyz
x,y,z
-x,-y,-z
loop_
_atom_site_type_symbol
_atom_site_label
_atom_site_fract_x
_atom_site_fract_y
_atom_site_fract_z
Si Si1 0.085307 0.366329 0.358951
Si Si2 0.140432 0.104913 0.403577
Si Si3 0.262663 0.715586 0.002961
Si Si4 0.680076 0.552193 0.949450
Si Si5 0.586362 0.299486 0.679486
Si Si6 0.081743 0.842663 0.222009
Si Si7 0.589550 0.941162 0.965666
Si Si8 0.696984 0.175669 0.449625
O O1 0.329512 0.387649 0.495807
O O2 0.171372 0.252463 0.380278
O O3 0.903947 0.273389 0.418778
O O4 0.926347 0.520780 0.132765
O O5 0.983922 0.183793 0.184069
O O6 0.000000 0.000000 0.500000
O O7 0.318349 0.971855 0.523532
O O8 0.287979 0.561455 0.055641
O O9 0.342030 0.694352 0.172741
O O10 0.421769 0.832552 0.926010
O O11 0.546331 0.716508 0.733846
O O12 0.500000 0.500000 0.000000
O O13 0.796543 0.310133 0.677439
O O14 0.577515 0.113352 0.780231
O O15 0.224066 0.870829 0.364291
O O16 0.824481 0.826610 0.165083
O O17 0.000000 0.000000 0.000000
O O18 0.500000 0.000000 0.000000
#
# Coordination Sequence:
#
# PCOD9039469 Si02
#       8
#     2   2   2   2   2   2   2   2
#     4   9  18  34  55  80 108 142 181 224 273 325
#     4   9  16  28  54  81 103 136 177 219 269 322
#     4  10  18  33  57  82 106 142 182 224 276 328
#     4   9  20  35  56  83 110 138 182 233 275 321
#     4  10  19  32  52  79 109 144 181 222 268 326
#     4  10  20  32  50  81 116 143 178 226 271 321
#     4   9  16  29  52  81 107 135 174 225 273 310
#     4  10  17  33  55  77 107 144 180 227 273 317
#
# _framework density 25.467331999999999
#
# number of rings (size 3 to 8) (size 9 to 14) (size 15 to 20)
#    0.000    2.500    0.000    6.000    0.000    0.000 
#    0.000    7.500    0.000   13.500    0.000    0.000 
#    0.000    0.000    0.000    0.000    0.000    0.000 
#
# Total GULP energy -89341.701999 kJ/mol
# GULP energy per Si atom -5583.856375 kJ/mol
# Density = 2.540937 g / cm^3
# Si number density = 25.467332 Si / 1000 Ang^3
#
#
#
# Elastic Constant Matrix: (Units=GPa)
#
#
# Indices 1 2 3 4 5 6 
#
# 1 87.1094 38.8741 55.8749 1.1159 23.4811 -24.0797
# 2 38.8741 91.2502 68.6239 -5.0815 16.6041 -25.9127
# 3 55.8749 68.6239 212.2504 9.2307 37.9545 -17.2775
# 4 1.1159 -5.0815 9.2307 53.0131 -5.2853 7.4022
# 5 23.4811 16.6041 37.9545 -5.2853 59.5358 -6.6080
# 6 -24.0797 -25.9127 -17.2775 7.4022 -6.6080 35.5849
#
#
#
# Elastic Compliance Matrix: (Units=1/GPa)
#
#
# Indices 1 2 3 4 5 6 
#
# 1 0.017586 -0.002785 -0.002259 -0.001813 -0.003945 0.008420
# 2 -0.002785 0.018077 -0.004448 0.001331 -0.000008 0.008841
# 3 -0.002259 -0.004448 0.007197 -0.001708 -0.002767 -0.001432
# 4 -0.001813 0.001331 -0.001708 0.020266 0.002699 -0.004801
# 5 -0.003945 -0.000008 -0.002767 0.002699 0.020268 -0.000817
# 6 0.008420 0.008841 -0.001432 -0.004801 -0.000817 0.040389
#
#
# Mechanical properties :
#
#
# Convention : Reuss Voigt Hill
#
# Bulk Modulus (GPa) = 41.88544 79.70623 60.79583
# Shear Modulus (GPa) = 33.17305 44.77589 38.97447
#
# Velocity S-wave (km/s) = 3.61303 4.19760 3.91624
# Velocity P-wave (km/s) = 5.82132 7.40665 6.66132
#
# Compressibility (1/GPa) = 0.02387465
#
# Stress axis : x y z
#
# Youngs Moduli (GPa) = 56.86326 55.32032 138.95028
#
# Poissons Ratio (x) = 0.15406 0.31395
# Poissons Ratio (y) = 0.15835 0.61807
# Poissons Ratio (z) = 0.12848 0.24607
#
# Static dielectric constant tensor:
#      x y z
#    x 7.774240 0.337170 2.162310 
#    y 0.337170 2.033670 0.085990 
#    z 2.162310 0.085990 2.925650 
# 
# From -- ./inp_files/302425.got.cif
#   From: 2010.05.17/outbox.cif.g08.bks.cpg/sg2_152_cif.got.tgz:302425.got - 2010.06.03 11:33:40.
