data_PCOD9039606
_publ_section_title
;
Structure prediction by ZEFSAII (Michael W. Deem and Ramdas Pophale) SiO2 
 PCOD9039606
Probable space group: P -1
;
_chemical_formula_sum "Si O2"
_cell_formula_units_Z 16
_cell_length_a 8.744337
_cell_length_b 12.181216
_cell_length_c 9.676879
_cell_angle_alpha 58.624476
_cell_angle_beta 56.664551
_cell_angle_gamma 66.938574
_cell_volume 727.130834
_symmetry_space_group_name_H-M "P -1"
_symmetry_group_IT_number 2
_symmetry_cell_setting 'triclinic'
loop_
_space_group_symop_operation_xyz
x,y,z
-x,-y,-z
loop_
_atom_site_type_symbol
_atom_site_label
_atom_site_fract_x
_atom_site_fract_y
_atom_site_fract_z
Si Si1 0.057939 0.374079 0.646126
Si Si2 0.438689 0.360101 0.603572
Si Si3 0.286405 0.891330 0.395822
Si Si4 0.094014 0.881229 0.219421
Si Si5 0.127226 0.626194 0.963851
Si Si6 0.479300 0.892585 0.862203
Si Si7 0.766293 0.095244 0.270800
Si Si8 0.260285 0.344968 0.997494
O O1 0.276678 0.357874 0.574910
O O2 0.000000 0.500000 0.500000
O O3 0.992974 0.246121 0.697168
O O4 0.964515 0.397153 0.828122
O O5 0.500000 0.500000 0.500000
O O6 0.608933 0.254207 0.548845
O O7 0.359405 0.321438 0.815690
O O8 0.131864 0.886446 0.360885
O O9 0.233890 0.936540 0.546628
O O10 0.424465 0.987991 0.210422
O O11 0.292477 0.877137 0.048915
O O12 0.949147 0.009241 0.174191
O O13 0.223057 0.752500 0.847677
O O14 0.258688 0.494643 0.943458
O O15 0.957930 0.660442 0.915822
O O16 0.408609 0.926055 0.720075
O O17 0.629524 0.762650 0.887126
#
# Coordination Sequence:
#
# PCOD9039606 Si02
#       8
#     2   2   2   2   2   2   2   2
#     4  11  25  42  68 100 135 184 230 279 342 412
#     4  11  23  42  68  98 139 177 230 283 340 406
#     4  12  26  43  69 103 134 182 233 282 343 402
#     4  12  25  46  70  98 141 187 227 277 345 414
#     4  10  23  44  66  99 134 183 221 288 341 409
#     4  12  25  44  71 101 136 184 231 284 341 407
#     4  12  26  43  69 101 141 174 232 284 348 396
#     4  10  23  42  69  95 134 178 232 273 346 410
#
# _framework density 22.004293000000001
#
# number of rings (size 3 to 8) (size 9 to 14) (size 15 to 20)
#    0.000    0.750    2.500    4.500    3.500    4.500 
#    0.000    0.000    0.000    0.000    0.000    0.000 
#    0.000    0.000    0.000    0.000    0.000    0.000 
#
# Total GULP energy -89540.030492 kJ/mol
# GULP energy per Si atom -5596.251906 kJ/mol
# Density = 2.195421 g / cm^3
# Si number density = 22.004293 Si / 1000 Ang^3
#
#
#
# Elastic Constant Matrix: (Units=GPa)
#
#
# Indices 1 2 3 4 5 6 
#
# 1 133.0440 70.4045 29.0192 -2.0647 23.1271 -1.9187
# 2 70.4045 140.4986 13.0804 -8.5357 -1.5462 -2.3681
# 3 29.0192 13.0804 54.3984 4.6358 13.4719 -1.2210
# 4 -2.0647 -8.5357 4.6358 29.5273 9.6935 -1.3038
# 5 23.1271 -1.5462 13.4719 9.6935 36.9131 -8.3392
# 6 -1.9187 -2.3681 -1.2210 -1.3038 -8.3392 39.3223
#
#
#
# Elastic Compliance Matrix: (Units=1/GPa)
#
#
# Indices 1 2 3 4 5 6 
#
# 1 0.012960 -0.006125 -0.003697 0.002262 -0.007952 -0.001463
# 2 -0.006125 0.010368 -0.000387 0.001250 0.004374 0.001283
# 3 -0.003697 -0.000387 0.021927 -0.002100 -0.005313 -0.000719
# 4 0.002262 0.001250 -0.002100 0.038236 -0.010845 -0.000912
# 5 -0.007952 0.004374 -0.005313 -0.010845 0.038753 0.007569
# 6 -0.001463 0.001283 -0.000719 -0.000912 0.007569 0.026989
#
#
# Mechanical properties :
#
#
# Convention : Reuss Voigt Hill
#
# Bulk Modulus (GPa) = 40.26184 61.43879 50.85032
# Shear Modulus (GPa) = 28.10069 35.51501 31.80785
#
# Velocity S-wave (km/s) = 3.57747 4.02182 3.80614
# Velocity P-wave (km/s) = 5.94990 7.03908 6.51728
#
# Compressibility (1/GPa) = 0.02483741
#
# Stress axis : x y z
#
# Youngs Moduli (GPa) = 77.15941 96.44626 45.60606
#
# Poissons Ratio (x) = 0.59073 0.16862
# Poissons Ratio (y) = 0.47260 0.01764
# Poissons Ratio (z) = 0.28528 0.03731
#
# Static dielectric constant tensor:
#      x y z
#    x 1.859160 -0.003820 -0.007640 
#    y -0.003820 1.756210 0.027970 
#    z -0.007640 0.027970 1.833910 
# 
# From -- ./inp_files/184831.got.cif
#   From: 2010.05.17/outbox.cif.g08.bks.cpg/sg2_93_cif.got.tgz:184831.got - 2010.06.03 11:33:40.
