data_PCOD9039600
_publ_section_title
;
Structure prediction by ZEFSAII (Michael W. Deem and Ramdas Pophale) SiO2 
 PCOD9039600
Probable space group: P -1
;
_chemical_formula_sum "Si O2"
_cell_formula_units_Z 15
_cell_length_a 19.778566
_cell_length_b 5.017582
_cell_length_c 9.233068
_cell_angle_alpha 60.937694
_cell_angle_beta 123.271519
_cell_angle_gamma 115.512139
_cell_volume 652.514994
_symmetry_space_group_name_H-M "P -1"
_symmetry_group_IT_number 2
_symmetry_cell_setting 'triclinic'
loop_
_space_group_symop_operation_xyz
x,y,z
-x,-y,-z
loop_
_atom_site_type_symbol
_atom_site_label
_atom_site_fract_x
_atom_site_fract_y
_atom_site_fract_z
Si Si1 0.235079 0.524289 0.780654
Si Si2 0.053837 0.345291 0.496762
Si Si3 0.500000 0.000000 0.500000
Si Si4 0.760039 0.923823 0.843573
Si Si5 0.331542 0.163590 0.785824
Si Si6 0.619488 0.085086 0.807216
Si Si7 0.382925 0.264062 0.497508
Si Si8 0.945575 0.254184 0.893717
O O1 0.143763 0.360018 0.665186
O O2 0.251244 0.895597 0.715107
O O3 0.300386 0.427458 0.771283
O O4 0.246853 0.389300 0.988535
O O5 0.000000 0.500000 0.500000
O O6 0.066346 0.553804 0.313151
O O7 0.000000 0.000000 0.500000
O O8 0.557305 0.811207 0.720505
O O9 0.438054 0.040699 0.557707
O O10 0.707391 0.849362 0.654315
O O11 0.710558 0.115966 0.838667
O O12 0.854537 0.092300 0.886851
O O13 0.377241 0.263982 0.663410
O O14 0.379368 0.987954 0.004272
O O15 0.585793 0.366857 0.612030
O O16 0.000000 0.500000 0.000000
O O17 0.000000 0.000000 0.000000
#
# Coordination Sequence:
#
# PCOD9039600 Si02
#       8
#     2   2   1   2   2   2   2   2
#     4  11  23  44  65  98 133 173 231 286 338 402
#     4  12  25  43  64  95 136 181 228 290 351 409
#     4  10  24  44  68 104 136 180 220 288 338 414
#     4  10  23  42  69  94 135 178 228 284 343 406
#     4  11  25  41  70 102 132 179 229 278 335 410
#     4  10  23  45  67 100 137 178 225 282 344 405
#     4  11  23  43  71  97 137 178 229 276 347 408
#     4  12  27  43  67 100 137 183 234 284 352 408
#
# _framework density 22.987976
#
# number of rings (size 3 to 8) (size 9 to 14) (size 15 to 20)
#    0.000    1.067    1.333    4.400    7.467    1.600 
#    0.000    1.333    0.000    0.000    0.000    0.000 
#    0.000    0.000    0.000    0.000    0.000    0.000 
#
# Total GULP energy -83689.424775 kJ/mol
# GULP energy per Si atom -5579.294985 kJ/mol
# Density = 2.293565 g / cm^3
# Si number density = 22.987976 Si / 1000 Ang^3
#
#
#
# Elastic Constant Matrix: (Units=GPa)
#
#
# Indices 1 2 3 4 5 6 
#
# 1 133.3903 31.1801 70.4116 0.6778 -5.3806 4.1190
# 2 31.1801 79.5072 15.6159 2.4499 -5.4704 -2.3372
# 3 70.4116 15.6159 142.9723 5.5181 -27.7387 8.3940
# 4 0.6778 2.4499 5.5181 31.9496 1.6288 6.7442
# 5 -5.3806 -5.4704 -27.7387 1.6288 45.4007 7.6600
# 6 4.1190 -2.3372 8.3940 6.7442 7.6600 34.1809
#
#
#
# Elastic Compliance Matrix: (Units=1/GPa)
#
#
# Indices 1 2 3 4 5 6 
#
# 1 0.011205 -0.003485 -0.005705 0.001110 -0.002649 0.000187
# 2 -0.003485 0.014034 0.000433 -0.001410 0.001384 0.001241
# 3 -0.005705 0.000433 0.011355 -0.001525 0.006929 -0.003323
# 4 0.001110 -0.001410 -0.001525 0.032995 -0.001122 -0.006114
# 5 -0.002649 0.001384 0.006929 -0.001122 0.027367 -0.007199
# 6 0.000187 0.001241 -0.003323 -0.006114 -0.007199 0.032954
#
#
# Mechanical properties :
#
#
# Convention : Reuss Voigt Hill
#
# Bulk Modulus (GPa) = 52.40914 65.58723 58.99818
# Shear Modulus (GPa) = 32.51309 38.21705 35.36507
#
# Velocity S-wave (km/s) = 3.76487 4.08178 3.92652
# Velocity P-wave (km/s) = 6.46119 7.12794 6.80274
#
# Compressibility (1/GPa) = 0.01908064
#
# Stress axis : x y z
#
# Youngs Moduli (GPa) = 89.24851 71.25541 88.06542
#
# Poissons Ratio (x) = 0.24829 0.50245
# Poissons Ratio (y) = 0.31099 -0.03816
# Poissons Ratio (z) = 0.50920 -0.03087
#
# Static dielectric constant tensor:
#      x y z
#    x 1.827350 -0.045420 -0.018370 
#    y -0.045420 1.597010 -0.050980 
#    z -0.018370 -0.050980 1.896040 
# 
# From -- ./inp_files/140104.got.cif
#   From: 2010.05.17/outbox.cif.g08.bks.cpg/sg2_71_cif.got.tgz:140104.got - 2010.06.03 11:33:40.
