data_PCOD9039011
_publ_section_title
;
Structure prediction by ZEFSAII (Michael W. Deem and Ramdas Pophale) SiO2 
 PCOD9039011
Probable space group: P -1
;
_chemical_formula_sum "Si O2"
_cell_formula_units_Z 14
_cell_length_a 17.103849
_cell_length_b 11.384312
_cell_length_c 14.394772
_cell_angle_alpha 139.531004
_cell_angle_beta 22.634695
_cell_angle_gamma 149.014548
_cell_volume 548.714672
_symmetry_space_group_name_H-M "P -1"
_symmetry_group_IT_number 2
_symmetry_cell_setting 'triclinic'
loop_
_space_group_symop_operation_xyz
x,y,z
-x,-y,-z
loop_
_atom_site_type_symbol
_atom_site_label
_atom_site_fract_x
_atom_site_fract_y
_atom_site_fract_z
Si Si1 0.293417 0.779854 0.482997
Si Si2 0.132351 0.287153 0.202087
Si Si3 0.549820 0.316966 0.163348
Si Si4 0.617832 0.569746 0.745090
Si Si5 0.909257 0.863174 0.310623
Si Si6 0.139244 0.897584 0.905996
Si Si7 0.138675 0.839573 0.229023
O O1 0.320017 0.588730 0.371144
O O2 0.166099 0.813057 0.729394
O O3 0.106953 0.719777 0.566353
O O4 0.590372 0.005629 0.280375
O O5 0.407792 0.534430 0.028531
O O6 0.064002 0.135467 0.278705
O O7 0.140843 0.115332 0.021434
O O8 0.547593 0.495755 0.210174
O O9 0.368821 0.243477 0.407119
O O10 0.390783 0.094238 0.133318
O O11 0.798923 0.335914 0.926281
O O12 0.902307 0.772685 0.513235
O O13 0.057860 0.834315 0.209309
O O14 0.912244 0.754866 0.145138
#
# Coordination Sequence:
#
# PCOD9039011 Si02
#       7
#     2   2   2   2   2   2   2
#     4  10  17  33  54  80 113 140 169 208 261 314
#     4   9  19  31  55  81 108 137 172 213 259 303
#     4  10  21  38  57  75  98 145 178 215 269 313
#     4  10  19  34  54  81 106 138 174 216 258 316
#     4   9  19  33  55  83 104 133 178 222 250 308
#     4   8  19  31  52  83 108 140 173 210 253 307
#     4  10  21  39  58  71 103 141 180 217 265 316
#
# _framework density 25.514173
#
# number of rings (size 3 to 8) (size 9 to 14) (size 15 to 20)
#    0.857    1.714    0.000    3.000    2.000    0.000 
#    0.000    5.714    0.000   12.000    0.000    0.000 
#    0.000    0.000    0.000    0.000    0.000    0.000 
#
# Total GULP energy -78056.104094 kJ/mol
# GULP energy per Si atom -5575.436007 kJ/mol
# Density = 2.545610 g / cm^3
# Si number density = 25.514173 Si / 1000 Ang^3
#
#
#
# Elastic Constant Matrix: (Units=GPa)
#
#
# Indices 1 2 3 4 5 6 
#
# 1 92.2780 26.3177 56.7366 2.5729 -10.7428 -43.7134
# 2 26.3177 56.8749 31.1221 -4.9687 -2.3595 -22.7333
# 3 56.7366 31.1221 141.0604 -3.9275 -7.1155 -28.6621
# 4 2.5729 -4.9687 -3.9275 53.7814 -10.2760 6.2172
# 5 -10.7428 -2.3595 -7.1155 -10.2760 59.2410 9.3156
# 6 -43.7134 -22.7333 -28.6621 6.2172 9.3156 47.2313
#
#
#
# Elastic Compliance Matrix: (Units=1/GPa)
#
#
# Indices 1 2 3 4 5 6 
#
# 1 0.023214 -0.000724 -0.005574 -0.003692 0.000003 0.018240
# 2 -0.000724 0.023081 -0.003066 0.000792 -0.000800 0.008633
# 3 -0.005574 -0.003066 0.009882 0.000863 0.000332 -0.000816
# 4 -0.003692 0.000792 0.000863 0.020348 0.003933 -0.005967
# 5 0.000003 -0.000800 0.000332 0.003933 0.018247 -0.004298
# 6 0.018240 0.008633 -0.000816 -0.005967 -0.004298 0.043346
#
#
# Mechanical properties :
#
#
# Convention : Reuss Voigt Hill
#
# Bulk Modulus (GPa) = 26.70124 57.61848 42.15986
# Shear Modulus (GPa) = 29.52831 43.78652 36.65742
#
# Velocity S-wave (km/s) = 3.40565 4.14716 3.79456
# Velocity P-wave (km/s) = 5.09436 6.75010 5.97981
#
# Compressibility (1/GPa) = 0.03745145
#
# Stress axis : x y z
#
# Youngs Moduli (GPa) = 43.07761 43.32481 101.19065
#
# Poissons Ratio (x) = 0.03135 0.56403
# Poissons Ratio (y) = 0.03118 0.31021
# Poissons Ratio (z) = 0.24011 0.13281
#
# Static dielectric constant tensor:
#      x y z
#    x 2.060940 0.122330 -0.045170 
#    y 0.122330 2.216960 -0.076110 
#    z -0.045170 -0.076110 1.965660 
# 
# From -- ./inp_files/577722.got.cif
#   From: 2010.05.17/outbox.cif.g08.bks.cpg/sg2_289_cif.got.tgz:577722.got - 2010.06.03 11:33:40.
