data_PCOD9039852
_publ_section_title
;
Structure prediction by ZEFSAII (Michael W. Deem and Ramdas Pophale) SiO2 
 PCOD9039852
Probable space group: P -1
;
_chemical_formula_sum "Si O2"
_cell_formula_units_Z 14
_cell_length_a 17.287267
_cell_length_b 5.168199
_cell_length_c 8.495418
_cell_angle_alpha 60.181495
_cell_angle_beta 121.595978
_cell_angle_gamma 102.572756
_cell_volume 559.964243
_symmetry_space_group_name_H-M "P -1"
_symmetry_group_IT_number 2
_symmetry_cell_setting 'triclinic'
loop_
_space_group_symop_operation_xyz
x,y,z
-x,-y,-z
loop_
_atom_site_type_symbol
_atom_site_label
_atom_site_fract_x
_atom_site_fract_y
_atom_site_fract_z
Si Si1 0.912552 0.337675 0.402221
Si Si2 0.467240 0.238002 0.762302
Si Si3 0.806332 0.876572 0.562599
Si Si4 0.363830 0.850000 0.520569
Si Si5 0.748614 0.771677 0.188178
Si Si6 0.631016 0.650864 0.845925
Si Si7 0.813857 0.365185 0.969134
O O1 0.825378 0.510705 0.334469
O O2 0.000000 0.500000 0.500000
O O3 0.900563 0.013030 0.564641
O O4 0.893723 0.355041 0.189250
O O5 0.390410 0.502982 0.634815
O O6 0.553675 0.440829 0.772635
O O7 0.428962 0.027617 0.651359
O O8 0.500000 0.000000 0.000000
O O9 0.751552 0.883618 0.335749
O O10 0.826821 0.557181 0.767450
O O11 0.738482 0.065195 0.552681
O O12 0.382987 0.011737 0.328405
O O13 0.654454 0.665859 0.050520
O O14 0.785857 0.024705 0.034595
O O15 0.724015 0.521225 0.905945
#
# Coordination Sequence:
#
# PCOD9039852 Si02
#       7
#     2   2   2   2   2   2   2
#     4  10  23  43  67  98 138 178 224 284 350 423
#     4  12  28  43  67 104 140 183 241 293 343 406
#     4  10  24  42  69 101 135 177 233 284 351 414
#     4  11  27  45  70  98 139 189 236 287 352 408
#     4  10  23  42  71  94 138 177 229 282 352 412
#     4  10  24  44  66  96 136 183 233 285 346 412
#     4   9  22  42  66  99 133 180 229 282 349 410
#
# _framework density 25.001595999999999
#
# number of rings (size 3 to 8) (size 9 to 14) (size 15 to 20)
#    0.000    1.714    0.000    1.286   14.000    5.143 
#    0.000    1.429    0.000    0.000    0.000    0.000 
#    0.000    0.000    0.000    0.000    0.000    0.000 
#
# Total GULP energy -78302.663221 kJ/mol
# GULP energy per Si atom -5593.047373 kJ/mol
# Density = 2.494469 g / cm^3
# Si number density = 25.001596 Si / 1000 Ang^3
#
#
#
# Elastic Constant Matrix: (Units=GPa)
#
#
# Indices 1 2 3 4 5 6 
#
# 1 47.3261 18.1891 28.4114 0.7502 -3.3645 22.9381
# 2 18.1891 108.2305 24.0118 1.2467 2.4258 30.2643
# 3 28.4114 24.0118 102.4336 -18.2603 -18.3540 28.1134
# 4 0.7502 1.2467 -18.2603 56.2604 9.0300 8.0990
# 5 -3.3645 2.4258 -18.3540 9.0300 29.3663 -5.8309
# 6 22.9381 30.2643 28.1134 8.0990 -5.8309 58.3110
#
#
#
# Elastic Compliance Matrix: (Units=1/GPa)
#
#
# Indices 1 2 3 4 5 6 
#
# 1 0.028946 -0.001286 -0.006029 -0.000925 -0.001619 -0.007846
# 2 -0.001286 0.011232 -0.001341 0.000558 -0.003090 -0.005064
# 3 -0.006029 -0.001341 0.014820 0.004458 0.006508 -0.004046
# 4 -0.000925 0.000558 0.004458 0.020782 -0.004837 -0.005445
# 5 -0.001619 -0.003090 0.006508 -0.004837 0.040436 0.003818
# 6 -0.007846 -0.005064 -0.004046 -0.005445 0.003818 0.025953
#
#
# Mechanical properties :
#
#
# Convention : Reuss Voigt Hill
#
# Bulk Modulus (GPa) = 26.53430 44.35722 35.44576
# Shear Modulus (GPa) = 29.06273 41.27941 35.17107
#
# Velocity S-wave (km/s) = 3.41315 4.06775 3.75474
# Velocity P-wave (km/s) = 5.11555 6.31208 5.74505
#
# Compressibility (1/GPa) = 0.03768706
#
# Stress axis : x y z
#
# Youngs Moduli (GPa) = 34.54727 89.03194 67.47534
#
# Poissons Ratio (x) = 0.11452 0.40678
# Poissons Ratio (y) = 0.04444 0.09046
# Poissons Ratio (z) = 0.20827 0.11935
#
# Static dielectric constant tensor:
#      x y z
#    x 1.983130 0.012680 -0.024270 
#    y 0.012680 2.038960 -0.014680 
#    z -0.024270 -0.014680 2.038100 
# 
# From -- ./inp_files/323232.got.cif
#   From: 2010.05.17/outbox.cif.g08.bks.cpg/sg2_162_cif.got.tgz:323232.got - 2010.06.03 11:33:40.
