data_PCOD9039734
_publ_section_title
;
Structure prediction by ZEFSAII (Michael W. Deem and Ramdas Pophale) SiO2 
 PCOD9039734
Probable space group: P -1
;
_chemical_formula_sum "Si O2"
_cell_formula_units_Z 14
_cell_length_a 19.033157
_cell_length_b 15.509285
_cell_length_c 5.194803
_cell_angle_alpha 57.223929
_cell_angle_beta 48.175059
_cell_angle_gamma 28.979414
_cell_volume 549.878105
_symmetry_space_group_name_H-M "P -1"
_symmetry_group_IT_number 2
_symmetry_cell_setting 'triclinic'
loop_
_space_group_symop_operation_xyz
x,y,z
-x,-y,-z
loop_
_atom_site_type_symbol
_atom_site_label
_atom_site_fract_x
_atom_site_fract_y
_atom_site_fract_z
Si Si1 0.689489 0.145347 0.622998
Si Si2 0.036936 0.400468 0.817633
Si Si3 0.417560 0.508632 0.960394
Si Si4 0.400829 0.992273 0.644758
Si Si5 0.865884 0.368555 0.022529
Si Si6 0.535290 0.716303 0.433726
Si Si7 0.940512 0.195994 0.616206
O O1 0.644884 0.162318 0.407678
O O2 0.562473 0.350900 0.663947
O O3 0.873347 0.008548 0.475647
O O4 0.637231 0.080326 0.984405
O O5 0.222555 0.195232 0.691334
O O6 0.000000 0.500000 0.500000
O O7 0.000000 0.500000 0.000000
O O8 0.927417 0.399931 0.020604
O O9 0.394589 0.416930 0.297536
O O10 0.229845 0.706449 0.035298
O O11 0.500000 0.500000 0.000000
O O12 0.500000 0.000000 0.500000
O O13 0.508148 0.855275 0.364424
O O14 0.675383 0.569459 0.118336
O O15 0.907587 0.236350 0.323169
O O16 0.945658 0.282454 0.686723
#
# Coordination Sequence:
#
# PCOD9039734 Si02
#       7
#     2   2   2   2   2   2   2
#     4  11  23  43  70  98 135 183 228 280 348 408
#     4  12  26  40  61  96 131 179 233 286 336 397
#     4  10  24  46  69 103 137 174 228 288 351 422
#     4  11  25  42  63  97 136 182 234 285 335 404
#     4  11  22  44  65  95 136 181 226 280 345 405
#     4  10  23  42  70  93 135 183 224 285 347 407
#     4  11  23  43  71  98 135 181 224 281 346 413
#
# _framework density 25.460186
#
# number of rings (size 3 to 8) (size 9 to 14) (size 15 to 20)
#    0.000    1.143    2.857    2.571    6.000    1.714 
#    0.000    0.714    0.000    0.000    0.000    0.000 
#    0.000    0.000    0.000    0.000    0.000    0.000 
#
# Total GULP energy -78080.699129 kJ/mol
# GULP energy per Si atom -5577.192795 kJ/mol
# Density = 2.540224 g / cm^3
# Si number density = 25.460186 Si / 1000 Ang^3
#
#
#
# Elastic Constant Matrix: (Units=GPa)
#
#
# Indices 1 2 3 4 5 6 
#
# 1 163.8520 57.7349 22.5948 14.0052 -2.3183 -15.1345
# 2 57.7349 174.0148 30.8667 15.4165 -15.9841 -24.7461
# 3 22.5948 30.8667 63.9676 -0.5205 -2.9972 -11.6297
# 4 14.0052 15.4165 -0.5205 33.0243 -12.4560 -5.1828
# 5 -2.3183 -15.9841 -2.9972 -12.4560 50.4595 13.5512
# 6 -15.1345 -24.7461 -11.6297 -5.1828 13.5512 53.6223
#
#
#
# Elastic Compliance Matrix: (Units=1/GPa)
#
#
# Indices 1 2 3 4 5 6 
#
# 1 0.007270 -0.001893 -0.001569 -0.002546 -0.001230 0.000903
# 2 -0.001893 0.007359 -0.002510 -0.001962 0.001115 0.001846
# 3 -0.001569 -0.002510 0.017878 0.002570 0.000162 0.002484
# 4 -0.002546 -0.001962 0.002570 0.035411 0.008070 0.000316
# 5 -0.001230 0.001115 0.000162 0.008070 0.023444 -0.004942
# 6 0.000903 0.001846 0.002484 0.000316 -0.004942 0.021574
#
#
# Mechanical properties :
#
#
# Convention : Reuss Voigt Hill
#
# Bulk Modulus (GPa) = 48.63058 69.35856 58.99457
# Shear Modulus (GPa) = 37.95548 46.79708 42.37628
#
# Velocity S-wave (km/s) = 3.86525 4.29190 4.08415
# Velocity P-wave (km/s) = 6.24998 7.20150 6.74255
#
# Compressibility (1/GPa) = 0.02056319
#
# Stress axis : x y z
#
# Youngs Moduli (GPa) = 137.55205 135.89510 55.93330
#
# Poissons Ratio (x) = 0.25722 0.08775
# Poissons Ratio (y) = 0.26035 0.14041
# Poissons Ratio (z) = 0.21579 0.34115
#
# Static dielectric constant tensor:
#      x y z
#    x 2.109540 -0.051340 0.012890 
#    y -0.051340 2.018510 0.005820 
#    z 0.012890 0.005820 2.163950 
# 
# From -- ./inp_files/35374.got.cif
#   From: 2010.05.17/outbox.cif.g08.bks.cpg/sg2_18_cif.got.tgz:35374.got - 2010.06.03 11:33:40.
