data_PCOD9039919
_publ_section_title
;
Structure prediction by ZEFSAII (Michael W. Deem and Ramdas Pophale) SiO2 
 PCOD9039919
Probable space group: P -1
;
_chemical_formula_sum "Si O2"
_cell_formula_units_Z 16
_cell_length_a 8.797350
_cell_length_b 9.633759
_cell_length_c 9.718913
_cell_angle_alpha 58.533662
_cell_angle_beta 117.888462
_cell_angle_gamma 111.619517
_cell_volume 612.474817
_symmetry_space_group_name_H-M "P -1"
_symmetry_group_IT_number 2
_symmetry_cell_setting 'triclinic'
loop_
_space_group_symop_operation_xyz
x,y,z
-x,-y,-z
loop_
_atom_site_type_symbol
_atom_site_label
_atom_site_fract_x
_atom_site_fract_y
_atom_site_fract_z
Si Si1 0.359135 0.078499 0.989258
Si Si2 0.777258 0.700795 0.375771
Si Si3 0.861524 0.753397 0.681367
Si Si4 0.802560 0.639738 0.134340
Si Si5 0.764798 0.300424 0.132464
Si Si6 0.624625 0.421941 0.740576
Si Si7 0.180387 0.783134 0.251257
Si Si8 0.306382 0.924419 0.514019
O O1 0.695661 0.166289 0.290904
O O2 0.288481 0.940130 0.140500
O O3 0.351813 0.250472 0.985267
O O4 0.500000 0.000000 0.000000
O O5 0.889526 0.732071 0.540985
O O6 0.823340 0.589087 0.328949
O O7 0.575138 0.629457 0.360399
O O8 0.771829 0.877172 0.208662
O O9 0.700801 0.607558 0.722086
O O10 0.046206 0.726265 0.830883
O O11 0.800039 0.924552 0.594364
O O12 0.779422 0.480000 0.115195
O O13 0.983445 0.760342 0.125139
O O14 0.653651 0.311429 0.942203
O O15 0.743331 0.373273 0.693191
O O16 0.211624 0.808011 0.413467
O O17 0.500000 0.000000 0.500000
#
# Coordination Sequence:
#
# PCOD9039919 Si02
#       8
#     2   2   2   2   2   2   2   2
#     4  10  23  42  72 108 149 192 250 303 373 441
#     4  10  25  44  77 107 151 207 246 303 378 458
#     4  12  27  51  76 110 158 199 254 311 390 445
#     4  10  25  44  76 107 149 199 256 305 372 448
#     4  12  29  51  75 114 157 199 248 324 380 446
#     4  12  27  47  84 107 155 200 259 304 385 452
#     4  12  24  46  76 108 149 197 256 305 373 456
#     4  12  32  47  76 112 159 194 257 320 384 442
#
# _framework density 26.123522999999999
#
# number of rings (size 3 to 8) (size 9 to 14) (size 15 to 20)
#    0.750    0.000    2.500    3.000    8.750    2.500 
#    0.000    0.000    0.000    0.000    0.000    0.000 
#    0.000    0.000    0.000    0.000    0.000    0.000 
#
# Total GULP energy -89526.736352 kJ/mol
# GULP energy per Si atom -5595.421022 kJ/mol
# Density = 2.606406 g / cm^3
# Si number density = 26.123523 Si / 1000 Ang^3
#
#
#
# Elastic Constant Matrix: (Units=GPa)
#
#
# Indices 1 2 3 4 5 6 
#
# 1 123.1209 53.3292 28.3307 0.4445 3.9350 -17.8668
# 2 53.3292 148.6284 31.3103 -10.4316 8.8333 -32.4058
# 3 28.3307 31.3103 92.1480 -13.3894 -4.0761 -8.6459
# 4 0.4445 -10.4316 -13.3894 34.2431 -3.1700 0.6310
# 5 3.9350 8.8333 -4.0761 -3.1700 47.1049 1.1991
# 6 -17.8668 -32.4058 -8.6459 0.6310 1.1991 44.0652
#
#
#
# Elastic Compliance Matrix: (Units=1/GPa)
#
#
# Indices 1 2 3 4 5 6 
#
# 1 0.010177 -0.002924 -0.002311 -0.002018 -0.000678 0.001570
# 2 -0.002924 0.009573 -0.001607 0.002067 -0.001692 0.005556
# 3 -0.002311 -0.001607 0.012914 0.004763 0.001925 0.000294
# 4 -0.002018 0.002067 0.004763 0.031914 0.002312 0.001116
# 5 -0.000678 -0.001692 0.001925 0.002312 0.021970 -0.001773
# 6 0.001570 0.005556 0.000294 0.001116 -0.001773 0.027506
#
#
# Mechanical properties :
#
#
# Convention : Reuss Voigt Hill
#
# Bulk Modulus (GPa) = 52.68984 65.53751 59.11367
# Shear Modulus (GPa) = 37.29534 41.81111 39.55323
#
# Velocity S-wave (km/s) = 3.78253 4.00498 3.89535
# Velocity P-wave (km/s) = 6.26817 6.82118 6.55052
#
# Compressibility (1/GPa) = 0.01897899
#
# Stress axis : x y z
#
# Youngs Moduli (GPa) = 98.25900 104.46354 77.43805
#
# Poissons Ratio (x) = 0.30543 0.17899
# Poissons Ratio (y) = 0.28729 0.12445
# Poissons Ratio (z) = 0.22712 0.16788
#
# Static dielectric constant tensor:
#      x y z
#    x 2.145430 0.119900 -0.031520 
#    y 0.119900 2.111360 -0.021350 
#    z -0.031520 -0.021350 2.054610 
# 
# From -- ./inp_files/381805.got.cif
#   From: 2010.05.17/outbox.cif.g08.bks.cpg/sg2_191_cif.got.tgz:381805.got - 2010.06.03 11:33:40.
