data_PCOD9039994
_publ_section_title
;
Structure prediction by ZEFSAII (Michael W. Deem and Ramdas Pophale) SiO2 
 PCOD9039994
Probable space group: P -1
;
_chemical_formula_sum "Si O2"
_cell_formula_units_Z 14
_cell_length_a 15.921271
_cell_length_b 11.563429
_cell_length_c 7.992847
_cell_angle_alpha 40.030143
_cell_angle_beta 133.756810
_cell_angle_gamma 140.713688
_cell_volume 581.342099
_symmetry_space_group_name_H-M "P -1"
_symmetry_group_IT_number 2
_symmetry_cell_setting 'triclinic'
loop_
_space_group_symop_operation_xyz
x,y,z
-x,-y,-z
loop_
_atom_site_type_symbol
_atom_site_label
_atom_site_fract_x
_atom_site_fract_y
_atom_site_fract_z
Si Si1 0.783201 0.870999 0.062291
Si Si2 0.464842 0.766008 0.248735
Si Si3 0.252668 0.135697 0.606812
Si Si4 0.173066 0.431889 0.063371
Si Si5 0.895228 0.284312 0.944342
Si Si6 0.492443 0.789865 0.653774
Si Si7 0.199783 0.474135 0.683961
O O1 0.748544 0.777215 0.306685
O O2 0.848313 0.762874 0.170452
O O3 0.639175 0.820705 0.847970
O O4 0.874444 0.119246 0.948440
O O5 0.595339 0.762910 0.363808
O O6 0.324022 0.601563 0.147719
O O7 0.457550 0.747781 0.457907
O O8 0.500000 0.000000 0.000000
O O9 0.168772 0.210025 0.300471
O O10 0.184593 0.884453 0.828965
O O11 0.151595 0.490510 0.782934
O O12 0.057776 0.417651 0.042965
O O13 0.836785 0.415563 0.634872
O O14 0.365332 0.597205 0.786890
O O15 0.500000 0.000000 0.500000
#
# Coordination Sequence:
#
# PCOD9039994 Si02
#       7
#     2   2   2   2   2   2   2
#     4  10  23  42  73  98 142 184 243 280 357 411
#     4  12  25  42  72 108 136 186 238 297 357 412
#     4  10  23  47  69 102 143 182 236 295 348 416
#     4  12  25  45  71 106 146 181 243 294 355 423
#     4  10  25  47  72 101 151 191 233 290 356 429
#     4  12  22  44  71 102 143 181 237 297 349 421
#     4  12  23  43  72 105 141 193 239 288 353 423
#
# _framework density 24.082204000000001
#
# number of rings (size 3 to 8) (size 9 to 14) (size 15 to 20)
#    0.857    0.000    1.429    6.857    0.000    0.571 
#    2.571    3.571    0.000    0.000    0.000    0.000 
#    0.000    0.000    0.000    0.000    0.000    0.000 
#
# Total GULP energy -78326.642531 kJ/mol
# GULP energy per Si atom -5594.760181 kJ/mol
# Density = 2.402739 g / cm^3
# Si number density = 24.082204 Si / 1000 Ang^3
#
#
#
# Elastic Constant Matrix: (Units=GPa)
#
#
# Indices 1 2 3 4 5 6 
#
# 1 101.4676 10.9471 9.3785 15.9495 -7.6541 19.7624
# 2 10.9471 63.4911 24.7864 -1.3415 -0.6491 5.0454
# 3 9.3785 24.7864 110.2637 -1.5303 6.6191 11.4872
# 4 15.9495 -1.3415 -1.5303 32.0099 -2.7342 6.3336
# 5 -7.6541 -0.6491 6.6191 -2.7342 44.5552 7.5176
# 6 19.7624 5.0454 11.4872 6.3336 7.5176 38.5295
#
#
#
# Elastic Compliance Matrix: (Units=1/GPa)
#
#
# Indices 1 2 3 4 5 6 
#
# 1 0.012118 -0.001588 -0.000315 -0.004761 0.002770 -0.005671
# 2 -0.001588 0.017596 -0.003764 0.001568 0.000770 -0.000775
# 3 -0.000315 -0.003764 0.010266 0.000846 -0.001192 -0.002313
# 4 -0.004761 0.001568 0.000846 0.034690 0.001898 -0.004088
# 5 0.002770 0.000770 -0.001192 0.001898 0.024273 -0.006214
# 6 -0.005671 -0.000775 -0.002313 -0.004088 -0.006214 0.031539
#
#
# Mechanical properties :
#
#
# Convention : Reuss Voigt Hill
#
# Bulk Modulus (GPa) = 34.90914 40.60515 37.75714
# Shear Modulus (GPa) = 33.03283 38.35961 35.69622
#
# Velocity S-wave (km/s) = 3.70762 3.99540 3.85420
# Velocity P-wave (km/s) = 5.73201 6.17915 5.95978
#
# Compressibility (1/GPa) = 0.02864579
#
# Stress axis : x y z
#
# Youngs Moduli (GPa) = 82.52402 56.83080 97.40570
#
# Poissons Ratio (x) = 0.09024 0.03071
# Poissons Ratio (y) = 0.13103 0.36664
# Poissons Ratio (z) = 0.02602 0.21391
#
# Static dielectric constant tensor:
#      x y z
#    x 1.855610 -0.002350 0.088540 
#    y -0.002350 1.972880 -0.046270 
#    z 0.088540 -0.046270 1.850700 
# 
# From -- ./inp_files/332781.got.cif
#   From: 2010.05.17/outbox.cif.g08.bks.cpg/sg2_167_cif.got.tgz:332781.got - 2010.06.03 11:33:40.
