data_PCOD9039420
_publ_section_title
;
Structure prediction by ZEFSAII (Michael W. Deem and Ramdas Pophale) SiO2 
 PCOD9039420
Probable space group: P -1
;
_chemical_formula_sum "Si O2"
_cell_formula_units_Z 16
_cell_length_a 9.474915
_cell_length_b 5.225570
_cell_length_c 20.896913
_cell_angle_alpha 125.892499
_cell_angle_beta 43.003130
_cell_angle_gamma 119.053199
_cell_volume 568.637207
_symmetry_space_group_name_H-M "P -1"
_symmetry_group_IT_number 2
_symmetry_cell_setting 'triclinic'
loop_
_space_group_symop_operation_xyz
x,y,z
-x,-y,-z
loop_
_atom_site_type_symbol
_atom_site_label
_atom_site_fract_x
_atom_site_fract_y
_atom_site_fract_z
Si Si1 0.931384 0.259245 0.242655
Si Si2 0.247689 0.734413 0.169145
Si Si3 0.268549 0.474126 0.539326
Si Si4 0.649748 0.384694 0.256096
Si Si5 0.568515 0.172284 0.069268
Si Si6 0.676427 0.235078 0.718476
Si Si7 0.722131 0.254216 0.567934
Si Si8 0.991162 0.359890 0.897263
O O1 0.875235 0.305265 0.340856
O O2 0.777184 0.479600 0.291585
O O3 0.162555 0.369094 0.156180
O O4 0.877225 0.930427 0.176058
O O5 0.192212 0.853714 0.275328
O O6 0.123575 0.778959 0.151524
O O7 0.487075 0.876697 0.100171
O O8 0.500000 0.500000 0.500000
O O9 0.251396 0.571301 0.484136
O O10 0.217597 0.098572 0.509865
O O11 0.516235 0.676235 0.328787
O O12 0.834729 0.358409 0.138692
O O13 0.486689 0.079253 0.277009
O O14 0.437832 0.455689 0.178250
O O15 0.802177 0.345576 0.007201
O O16 0.500000 0.000000 0.000000
O O17 0.800691 0.328244 0.625942
#
# Coordination Sequence:
#
# PCOD9039420 Si02
#       8
#     2   2   2   2   2   2   2   2
#     4  11  24  43  71 108 141 190 244 312 350 439
#     4  10  23  42  70  96 140 191 239 298 360 430
#     4  12  24  42  77 107 148 193 246 298 367 436
#     4  11  23  42  70 103 151 187 235 310 367 428
#     4  10  23  43  72 102 139 196 249 298 365 442
#     4  12  24  45  70 102 149 199 237 304 371 434
#     4  12  25  45  69 112 146 193 241 298 372 433
#     4  10  23  42  68 108 141 182 255 303 362 431
#
# _framework density 28.137450999999999
#
# number of rings (size 3 to 8) (size 9 to 14) (size 15 to 20)
#    0.000    1.000    2.500    4.125    3.500    6.000 
#    0.000    5.625    0.000    0.000    0.000    0.000 
#    0.000    0.000    0.000    0.000    0.000    0.000 
#
# Total GULP energy -89107.376740 kJ/mol
# GULP energy per Si atom -5569.211046 kJ/mol
# Density = 2.807341 g / cm^3
# Si number density = 28.137451 Si / 1000 Ang^3
#
#
#
# Elastic Constant Matrix: (Units=GPa)
#
#
# Indices 1 2 3 4 5 6 
#
# 1 87.3612 24.5698 25.4053 -12.9454 17.1560 -25.0414
# 2 24.5698 158.6200 46.3985 -29.2819 2.0896 -7.8501
# 3 25.4053 46.3985 150.6583 -15.6762 17.5504 -10.8348
# 4 -12.9454 -29.2819 -15.6762 52.3370 -9.7301 1.2011
# 5 17.1560 2.0896 17.5504 -9.7301 45.5205 -16.3995
# 6 -25.0414 -7.8501 -10.8348 1.2011 -16.3995 42.5877
#
#
#
# Elastic Compliance Matrix: (Units=1/GPa)
#
#
# Indices 1 2 3 4 5 6 
#
# 1 0.014966 -0.001185 -0.001167 0.002148 -0.001990 0.007458
# 2 -0.001185 0.007788 -0.001968 0.003823 0.001988 0.000896
# 3 -0.001167 -0.001968 0.007767 0.000499 -0.002356 0.000006
# 4 0.002148 0.003823 0.000499 0.022759 0.004889 0.003336
# 5 -0.001990 0.001988 -0.002356 0.004889 0.027895 0.009201
# 6 0.007458 0.000896 0.000006 0.003336 0.009201 0.031482
#
#
# Mechanical properties :
#
#
# Convention : Reuss Voigt Hill
#
# Bulk Modulus (GPa) = 45.70158 65.48740 55.59449
# Shear Modulus (GPa) = 38.88324 48.10677 43.49501
#
# Velocity S-wave (km/s) = 3.72143 4.13935 3.93594
# Velocity P-wave (km/s) = 5.89431 6.79487 6.36055
#
# Compressibility (1/GPa) = 0.02188108
#
# Stress axis : x y z
#
# Youngs Moduli (GPa) = 66.81693 128.41071 128.74807
#
# Poissons Ratio (x) = 0.15217 0.15026
# Poissons Ratio (y) = 0.07918 0.25335
# Poissons Ratio (z) = 0.07798 0.25269
#
# Static dielectric constant tensor:
#      x y z
#    x 2.389370 0.031630 0.017950 
#    y 0.031630 2.340800 0.023560 
#    z 0.017950 0.023560 2.245920 
# 
# From -- ./inp_files/609111.got.cif
#   From: 2010.05.17/outbox.cif.g08.bks.cpg/sg2_305_cif.got.tgz:609111.got - 2010.06.03 11:33:40.
