data_PCOD9039816
_publ_section_title
;
Structure prediction by ZEFSAII (Michael W. Deem and Ramdas Pophale) SiO2 
 PCOD9039816
Probable space group: P -1
;
_chemical_formula_sum "Si O2"
_cell_formula_units_Z 12
_cell_length_a 6.724447
_cell_length_b 9.277778
_cell_length_c 14.500759
_cell_angle_alpha 46.903778
_cell_angle_beta 80.867189
_cell_angle_gamma 107.917113
_cell_volume 532.638546
_symmetry_space_group_name_H-M "P -1"
_symmetry_group_IT_number 2
_symmetry_cell_setting 'triclinic'
loop_
_space_group_symop_operation_xyz
x,y,z
-x,-y,-z
loop_
_atom_site_type_symbol
_atom_site_label
_atom_site_fract_x
_atom_site_fract_y
_atom_site_fract_z
Si Si1 0.455958 0.255522 0.574103
Si Si2 0.789204 0.320165 0.665051
Si Si3 0.840946 0.077724 0.926171
Si Si4 0.246582 0.599815 0.696107
Si Si5 0.607533 0.455625 0.789923
Si Si6 0.950603 0.106959 0.365255
O O1 0.533645 0.162801 0.695090
O O2 0.249343 0.527528 0.322153
O O3 0.657002 0.336119 0.443673
O O4 0.185248 0.077707 0.627843
O O5 0.500000 0.500000 0.500000
O O6 0.000000 0.500000 0.500000
O O7 0.856364 0.155662 0.784340
O O8 0.976032 0.348068 0.840063
O O9 0.567525 0.833244 0.058929
O O10 0.000000 0.000000 0.000000
O O11 0.435712 0.549617 0.746210
O O12 0.234651 0.815509 0.636489
O O13 0.790286 0.633840 0.778122
O O14 0.000000 0.000000 0.500000
#
# Coordination Sequence:
#
# PCOD9039816 Si02
#       6
#     2   2   2   2   2   2
#     4  12  24  40  64 106 139 173 232 300 348 398
#     4  12  22  40  71 107 139 180 235 299 350 399
#     4  10  23  42  71 104 137 190 241 275 346 439
#     4  11  22  42  71 103 137 185 240 282 339 426
#     4  11  23  44  71 100 139 193 235 283 346 427
#     4  12  24  41  68 103 142 187 236 287 346 422
#
# _framework density 22.529350000000001
#
# number of rings (size 3 to 8) (size 9 to 14) (size 15 to 20)
#    0.000    0.667    6.667    1.000    0.000    0.000 
#    0.000    0.833    0.000    3.000    0.000    0.000 
#    0.000    0.000    0.000    0.000    0.000    0.000 
#
# Total GULP energy -66829.555208 kJ/mol
# GULP energy per Si atom -5569.129601 kJ/mol
# Density = 2.247807 g / cm^3
# Si number density = 22.529350 Si / 1000 Ang^3
#
#
#
# Elastic Constant Matrix: (Units=GPa)
#
#
# Indices 1 2 3 4 5 6 
#
# 1 107.1972 57.1392 52.7773 -10.0810 7.3793 25.7524
# 2 57.1392 127.4704 47.3725 -25.6933 1.9468 35.2803
# 3 52.7773 47.3725 118.7799 -6.5798 15.0746 13.9746
# 4 -10.0810 -25.6933 -6.5798 37.0131 11.9964 0.6660
# 5 7.3793 1.9468 15.0746 11.9964 56.3609 -2.2466
# 6 25.7524 35.2803 13.9746 0.6660 -2.2466 58.7893
#
#
#
# Elastic Compliance Matrix: (Units=1/GPa)
#
#
# Indices 1 2 3 4 5 6 
#
# 1 0.014363 -0.003803 -0.004351 0.000839 -0.000884 -0.003018
# 2 -0.003803 0.014027 -0.002487 0.008845 -0.001456 -0.006317
# 3 -0.004351 -0.002487 0.011579 -0.000085 -0.002401 0.000555
# 4 0.000839 0.008845 -0.000085 0.036192 -0.008351 -0.006385
# 5 -0.000884 -0.001456 -0.002401 -0.008351 0.020436 0.002707
# 6 -0.003018 -0.006317 0.000555 -0.006385 0.002707 0.022167
#
#
# Mechanical properties :
#
#
# Convention : Reuss Voigt Hill
#
# Bulk Modulus (GPa) = 53.51354 74.22505 63.86930
# Shear Modulus (GPa) = 34.18210 43.50990 38.84600
#
# Velocity S-wave (km/s) = 3.89938 4.39937 4.15690
# Velocity P-wave (km/s) = 6.63912 7.66964 7.17291
#
# Compressibility (1/GPa) = 0.01868686
#
# Stress axis : x y z
#
# Youngs Moduli (GPa) = 69.62342 71.29017 86.36477
#
# Poissons Ratio (x) = 0.27113 0.37580
# Poissons Ratio (y) = 0.26479 0.21476
# Poissons Ratio (z) = 0.30295 0.17728
#
# Static dielectric constant tensor:
#      x y z
#    x 2.001760 0.072130 0.014100 
#    y 0.072130 1.854910 -0.001720 
#    z 0.014100 -0.001720 1.900950 
# 
# From -- ./inp_files/59521.got.cif
#   From: 2010.05.17/outbox.cif.g08.bks.cpg/sg2_30_cif.got.tgz:59521.got - 2010.06.03 11:33:40.
