data_PCOD9039410
_publ_section_title
;
Structure prediction by ZEFSAII (Michael W. Deem and Ramdas Pophale) SiO2 
 PCOD9039410
Probable space group: P -1
;
_chemical_formula_sum "Si O2"
_cell_formula_units_Z 16
_cell_length_a 9.804079
_cell_length_b 19.292800
_cell_length_c 7.817936
_cell_angle_alpha 80.839148
_cell_angle_beta 98.789985
_cell_angle_gamma 152.512446
_cell_volume 673.601901
_symmetry_space_group_name_H-M "P -1"
_symmetry_group_IT_number 2
_symmetry_cell_setting 'triclinic'
loop_
_space_group_symop_operation_xyz
x,y,z
-x,-y,-z
loop_
_atom_site_type_symbol
_atom_site_label
_atom_site_fract_x
_atom_site_fract_y
_atom_site_fract_z
Si Si1 0.151961 0.267760 0.437233
Si Si2 0.115286 0.767478 0.089219
Si Si3 0.604863 0.225685 0.346247
Si Si4 0.536831 0.561356 0.216279
Si Si5 0.182563 0.534197 0.151892
Si Si6 0.576019 0.059539 0.271954
Si Si7 0.455361 0.790653 0.251383
Si Si8 0.095788 0.094196 0.323700
O O1 0.318247 0.404745 0.314000
O O2 0.288769 0.329428 0.627717
O O3 0.190400 0.211032 0.372531
O O4 0.801465 0.126047 0.422800
O O5 0.220597 0.734531 0.133386
O O6 0.777723 0.633372 0.113785
O O7 0.303730 0.890679 0.225331
O O8 0.225973 0.846376 0.899772
O O9 0.509087 0.108230 0.297637
O O10 0.595830 0.221455 0.551583
O O11 0.372853 0.180337 0.257112
O O12 0.936562 0.391455 0.287426
O O13 0.363157 0.549219 0.108962
O O14 0.398115 0.684851 0.231995
O O15 0.000000 0.500000 0.000000
O O16 0.793441 0.965214 0.208990
O O17 0.000000 0.000000 0.500000
#
# Coordination Sequence:
#
# PCOD9039410 Si02
#       8
#     2   2   2   2   2   2   2   2
#     4  11  23  45  72 103 140 177 243 287 343 417
#     4  11  26  43  69 105 143 183 228 293 352 421
#     4  11  24  44  71  98 138 187 234 291 341 414
#     4  11  26  43  72 105 135 188 237 288 345 422
#     4  12  27  48  67 105 147 185 228 287 357 426
#     4  11  24  46  67 101 143 182 234 285 357 410
#     4  11  24  43  71 103 135 183 237 288 349 415
#     4  10  23  42  68 105 135 178 229 294 344 409
#
# _framework density 23.752901999999999
#
# number of rings (size 3 to 8) (size 9 to 14) (size 15 to 20)
#    0.000    1.000    2.500    3.375    8.750    2.500 
#    0.000    1.250    0.000    0.000    0.000    0.000 
#    0.000    0.000    0.000    0.000    0.000    0.000 
#
# Total GULP energy -89668.298177 kJ/mol
# GULP energy per Si atom -5604.268636 kJ/mol
# Density = 2.369884 g / cm^3
# Si number density = 23.752902 Si / 1000 Ang^3
#
#
#
# Elastic Constant Matrix: (Units=GPa)
#
#
# Indices 1 2 3 4 5 6 
#
# 1 177.4507 60.2723 8.4435 23.2641 -4.0340 -5.1091
# 2 60.2723 113.7610 11.0365 18.3716 -8.2645 -3.2958
# 3 8.4435 11.0365 53.4491 17.5943 5.6308 -1.5099
# 4 23.2641 18.3716 17.5943 29.4232 -1.2207 -3.5707
# 5 -4.0340 -8.2645 5.6308 -1.2207 35.7922 9.6395
# 6 -5.1091 -3.2958 -1.5099 -3.5707 9.6395 55.2765
#
#
#
# Elastic Compliance Matrix: (Units=1/GPa)
#
#
# Indices 1 2 3 4 5 6 
#
# 1 0.007258 -0.003266 0.000970 -0.004258 -0.000310 0.000282
# 2 -0.003266 0.011405 -0.000771 -0.004019 0.002333 -0.000309
# 3 0.000970 -0.000771 0.024079 -0.014807 -0.004505 0.000531
# 4 -0.004258 -0.004019 -0.014807 0.049018 0.002120 0.001759
# 5 -0.000310 0.002333 -0.004505 0.002120 0.030629 -0.005217
# 6 0.000282 -0.000309 0.000531 0.001759 -0.005217 0.019136
#
#
# Mechanical properties :
#
#
# Convention : Reuss Voigt Hill
#
# Bulk Modulus (GPa) = 27.31610 56.01837 41.66724
# Shear Modulus (GPa) = 31.27710 41.75896 36.51803
#
# Velocity S-wave (km/s) = 3.63267 4.19747 3.92524
# Velocity P-wave (km/s) = 5.39631 6.86489 6.17441
#
# Compressibility (1/GPa) = 0.03660845
#
# Stress axis : x y z
#
# Youngs Moduli (GPa) = 137.78147 87.68015 41.53015
#
# Poissons Ratio (x) = 0.28638 -0.04029
# Poissons Ratio (y) = 0.45002 0.03201
# Poissons Ratio (z) = -0.13366 0.06757
#
# Static dielectric constant tensor:
#      x y z
#    x 1.885410 0.036880 0.038000 
#    y 0.036880 1.897810 0.013230 
#    z 0.038000 0.013230 1.933650 
# 
# From -- ./inp_files/186616.got.cif
#   From: 2010.05.17/outbox.cif.g08.bks.cpg/sg2_94_cif.got.tgz:186616.got - 2010.06.03 11:33:40.
