data_PCOD9039439
_publ_section_title
;
Structure prediction by ZEFSAII (Michael W. Deem and Ramdas Pophale) SiO2 
 PCOD9039439
Probable space group: P -1
;
_chemical_formula_sum "Si O2"
_cell_formula_units_Z 16
_cell_length_a 5.585911
_cell_length_b 7.669441
_cell_length_c 21.555148
_cell_angle_alpha 47.355428
_cell_angle_beta 84.813241
_cell_angle_gamma 104.417891
_cell_volume 612.816333
_symmetry_space_group_name_H-M "P -1"
_symmetry_group_IT_number 2
_symmetry_cell_setting 'triclinic'
loop_
_space_group_symop_operation_xyz
x,y,z
-x,-y,-z
loop_
_atom_site_type_symbol
_atom_site_label
_atom_site_fract_x
_atom_site_fract_y
_atom_site_fract_z
Si Si1 0.464469 0.508312 0.298709
Si Si2 0.258425 0.183684 0.988797
Si Si3 0.567046 0.634727 0.533103
Si Si4 0.723374 0.020787 0.713263
Si Si5 0.822777 0.326526 0.141147
Si Si6 0.027710 0.937601 0.174198
Si Si7 0.250171 0.535014 0.176371
Si Si8 0.190687 0.887714 0.445852
O O1 0.461946 0.547513 0.362880
O O2 0.272258 0.568281 0.241639
O O3 0.754152 0.694676 0.221741
O O4 0.375027 0.197534 0.371431
O O5 0.237459 0.030680 0.090551
O O6 0.263741 0.465878 0.938852
O O7 0.507826 0.261714 0.918591
O O8 0.000000 0.000000 0.000000
O O9 0.500000 0.500000 0.500000
O O10 0.347853 0.754718 0.513458
O O11 0.883951 0.826842 0.481548
O O12 0.419972 0.913536 0.765247
O O13 0.749833 0.751138 0.763055
O O14 0.887962 0.128628 0.745320
O O15 0.807933 0.187513 0.608802
O O16 0.990906 0.492261 0.155243
O O17 0.965686 0.191769 0.128032
#
# Coordination Sequence:
#
# PCOD9039439 Si02
#       8
#     2   2   2   2   2   2   2   2
#     4  11  24  46  70 105 140 185 235 294 360 427
#     4  11  22  42  63  98 139 179 233 290 357 418
#     4  12  27  49  77 109 146 190 238 301 360 437
#     4   9  22  41  69  97 132 184 228 293 348 422
#     4  10  23  42  68  94 134 190 230 290 355 418
#     4  11  23  43  66 101 137 178 243 287 350 430
#     4   9  21  43  66  94 135 178 231 289 345 430
#     4  11  26  49  75 106 150 190 237 297 365 432
#
# _framework density 26.108964
#
# number of rings (size 3 to 8) (size 9 to 14) (size 15 to 20)
#    0.000    1.500    1.250    2.250    7.000    6.000 
#    9.000    0.000    0.000    0.000    0.000    0.000 
#    0.000    0.000    0.000    0.000    0.000    0.000 
#
# Total GULP energy -89541.542747 kJ/mol
# GULP energy per Si atom -5596.346422 kJ/mol
# Density = 2.604954 g / cm^3
# Si number density = 26.108964 Si / 1000 Ang^3
#
#
#
# Elastic Constant Matrix: (Units=GPa)
#
#
# Indices 1 2 3 4 5 6 
#
# 1 86.0785 34.9422 42.9963 -4.6562 5.5879 8.2619
# 2 34.9422 105.3978 41.3619 -3.5563 -2.3461 -0.3315
# 3 42.9963 41.3619 143.6011 14.0655 16.1816 10.0447
# 4 -4.6562 -3.5563 14.0655 51.0286 -1.8136 -5.5238
# 5 5.5879 -2.3461 16.1816 -1.8136 35.5995 -1.9250
# 6 8.2619 -0.3315 10.0447 -5.5238 -1.9250 44.0139
#
#
#
# Elastic Compliance Matrix: (Units=1/GPa)
#
#
# Indices 1 2 3 4 5 6 
#
# 1 0.015156 -0.003656 -0.003408 0.001822 -0.001082 -0.001913
# 2 -0.003656 0.011989 -0.002967 0.001616 0.002891 0.001783
# 3 -0.003408 -0.002967 0.009856 -0.003640 -0.004450 -0.002284
# 4 0.001822 0.001616 -0.003640 0.021333 0.002740 0.003298
# 5 -0.001082 0.002891 -0.004450 0.002740 0.030771 0.002930
# 6 -0.001913 0.001783 -0.002284 0.003298 0.002930 0.024156
#
#
# Mechanical properties :
#
#
# Convention : Reuss Voigt Hill
#
# Bulk Modulus (GPa) = 59.03392 63.74202 61.38797
# Shear Modulus (GPa) = 35.97900 40.51353 38.24626
#
# Velocity S-wave (km/s) = 3.71621 3.94345 3.83152
# Velocity P-wave (km/s) = 6.40885 6.72319 6.56790
#
# Compressibility (1/GPa) = 0.01693941
#
# Stress axis : x y z
#
# Youngs Moduli (GPa) = 65.98100 83.41057 101.45717
#
# Poissons Ratio (x) = 0.30494 0.34572
# Poissons Ratio (y) = 0.24122 0.30106
# Poissons Ratio (z) = 0.22484 0.24751
#
# Static dielectric constant tensor:
#      x y z
#    x 2.114250 -0.062750 0.018190 
#    y -0.062750 2.157060 -0.020540 
#    z 0.018190 -0.020540 1.972230 
# 
# From -- ./inp_files/603987.got.cif
#   From: 2010.05.17/outbox.cif.g08.bks.cpg/sg2_302_cif.got.tgz:603987.got - 2010.06.03 11:33:40.
