data_PCOD9039670
_publ_section_title
;
Structure prediction by ZEFSAII (Michael W. Deem and Ramdas Pophale) SiO2 
 PCOD9039670
Probable space group: P -1
;
_chemical_formula_sum "Si O2"
_cell_formula_units_Z 16
_cell_length_a 9.770824
_cell_length_b 19.506421
_cell_length_c 11.524013
_cell_angle_alpha 129.836243
_cell_angle_beta 121.618278
_cell_angle_gamma 30.285285
_cell_volume 848.174391
_symmetry_space_group_name_H-M "P -1"
_symmetry_group_IT_number 2
_symmetry_cell_setting 'triclinic'
loop_
_space_group_symop_operation_xyz
x,y,z
-x,-y,-z
loop_
_atom_site_type_symbol
_atom_site_label
_atom_site_fract_x
_atom_site_fract_y
_atom_site_fract_z
Si Si1 0.250739 0.273227 0.402799
Si Si2 0.348035 0.424834 0.597889
Si Si3 0.294585 0.912528 0.054839
Si Si4 0.719966 0.572094 0.947388
Si Si5 0.755661 0.449531 0.062185
Si Si6 0.720058 0.901001 0.593461
Si Si7 0.296638 0.596286 0.405224
Si Si8 0.357198 0.154342 0.064765
O O1 0.414591 0.291857 0.505406
O O2 0.324173 0.160025 0.399670
O O3 0.297173 0.226877 0.239674
O O4 0.927968 0.441205 0.457092
O O5 0.264243 0.497566 0.764450
O O6 0.580714 0.382254 0.600989
O O7 0.279348 0.005579 0.234192
O O8 0.484803 0.748323 0.008824
O O9 0.441316 0.881566 0.968790
O O10 0.000000 0.000000 0.000000
O O11 0.717397 0.491409 0.766177
O O12 0.699841 0.540274 0.030891
O O13 0.000000 0.500000 0.000000
O O14 0.063990 0.273095 0.999838
O O15 0.500000 0.500000 0.000000
O O16 0.007072 0.753908 0.499059
O O17 0.500000 0.000000 0.500000
O O18 0.500000 0.500000 0.500000
O O19 0.500000 0.000000 0.000000
#
# Coordination Sequence:
#
# PCOD9039670 Si02
#       8
#     2   2   2   2   2   2   2   2
#     4  10  23  43  70  96 132 174 223 277 344 399
#     4  10  23  42  70 100 126 173 229 282 329 403
#     4  12  28  45  69 102 142 186 231 279 350 414
#     4  12  26  45  71 101 138 183 233 289 339 406
#     4  11  24  43  70  99 132 174 232 287 338 397
#     4  12  27  45  66 102 146 180 218 285 353 406
#     4  12  25  43  72 100 137 178 236 277 334 414
#     4  11  24  44  70  95 135 179 229 278 342 412
#
# _framework density 18.864044
#
# number of rings (size 3 to 8) (size 9 to 14) (size 15 to 20)
#    0.000    0.750    5.000    1.500    8.750    0.000 
#    0.000    0.625    0.000    0.000    0.000    0.000 
#    0.000    0.000    0.000    0.000    0.000    0.000 
#
# Total GULP energy -89299.141282 kJ/mol
# GULP energy per Si atom -5581.196330 kJ/mol
# Density = 1.882111 g / cm^3
# Si number density = 18.864044 Si / 1000 Ang^3
#
#
#
# Elastic Constant Matrix: (Units=GPa)
#
#
# Indices 1 2 3 4 5 6 
#
# 1 201.5488 102.1145 77.1418 1.2971 5.2080 7.6867
# 2 102.1145 169.7693 57.2786 3.6683 5.1750 1.4540
# 3 77.1418 57.2786 114.2763 3.0243 13.4452 -1.3373
# 4 1.2971 3.6683 3.0243 33.0190 0.6345 -1.0123
# 5 5.2080 5.1750 13.4452 0.6345 40.4106 -2.6588
# 6 7.6867 1.4540 -1.3373 -1.0123 -2.6588 34.8601
#
#
#
# Elastic Compliance Matrix: (Units=1/GPa)
#
#
# Indices 1 2 3 4 5 6 
#
# 1 0.008402 -0.003752 -0.003889 0.000377 0.000568 -0.001791
# 2 -0.003752 0.008781 -0.001848 -0.000648 0.000009 0.000372
# 3 -0.003889 -0.001848 0.012736 -0.000708 -0.003413 0.001142
# 4 0.000377 -0.000648 -0.000708 0.030435 -0.000156 0.000789
# 5 0.000568 0.000009 -0.003413 -0.000156 0.025923 0.001716
# 6 -0.001791 0.000372 0.001142 0.000789 0.001716 0.029263
#
#
# Mechanical properties :
#
#
# Convention : Reuss Voigt Hill
#
# Bulk Modulus (GPa) = 91.39784 106.51823 98.95803
# Shear Modulus (GPa) = 36.18854 38.26191 37.22523
#
# Velocity S-wave (km/s) = 4.38469 4.50855 4.44705
# Velocity P-wave (km/s) = 8.61336 9.14831 8.88486
#
# Compressibility (1/GPa) = 0.01094118
#
# Stress axis : x y z
#
# Youngs Moduli (GPa) = 119.01718 113.88047 78.51685
#
# Poissons Ratio (x) = 0.42725 0.30536
# Poissons Ratio (y) = 0.44653 0.14512
# Poissons Ratio (z) = 0.46287 0.21048
#
# Static dielectric constant tensor:
#      x y z
#    x 1.584640 -0.005590 -0.084530 
#    y -0.005590 1.671640 0.025970 
#    z -0.084530 0.025970 1.300880 
# 
# From -- ./inp_files/280266.got.cif
#   From: 2010.05.17/outbox.cif.g08.bks.cpg/sg2_141_cif.got.tgz:280266.got - 2010.06.03 11:33:40.
