data_PCOD9039938
_publ_section_title
;
Structure prediction by ZEFSAII (Michael W. Deem and Ramdas Pophale) SiO2 
 PCOD9039938
Probable space group: P -1
;
_chemical_formula_sum "Si O2"
_cell_formula_units_Z 16
_cell_length_a 10.715951
_cell_length_b 10.843898
_cell_length_c 19.693847
_cell_angle_alpha 29.548309
_cell_angle_beta 44.607842
_cell_angle_gamma 35.135913
_cell_volume 649.516669
_symmetry_space_group_name_H-M "P -1"
_symmetry_group_IT_number 2
_symmetry_cell_setting 'triclinic'
loop_
_space_group_symop_operation_xyz
x,y,z
-x,-y,-z
loop_
_atom_site_type_symbol
_atom_site_label
_atom_site_fract_x
_atom_site_fract_y
_atom_site_fract_z
Si Si1 0.001567 0.141262 0.554101
Si Si2 0.329994 0.335393 0.934718
Si Si3 0.902538 0.664149 0.848498
Si Si4 0.613230 0.929541 0.614660
Si Si5 0.839668 0.827810 0.115595
Si Si6 0.218621 0.988482 0.681825
Si Si7 0.928056 0.209457 0.822264
Si Si8 0.613996 0.673997 0.367552
O O1 0.235646 0.953281 0.516234
O O2 0.839622 0.446842 0.429091
O O3 0.889264 0.963261 0.689556
O O4 0.065057 0.175535 0.588436
O O5 0.119805 0.469465 0.903443
O O6 0.346986 0.624937 0.790077
O O7 0.277705 0.294494 0.051488
O O8 0.500000 0.000000 0.000000
O O9 0.947862 0.468533 0.857713
O O10 0.395961 0.059266 0.593358
O O11 0.770177 0.572503 0.709395
O O12 0.530628 0.018441 0.680582
O O13 0.672399 0.743634 0.239129
O O14 0.900609 0.897628 0.131078
O O15 0.784281 0.086802 0.959231
O O16 0.063225 0.068046 0.768774
O O17 0.500000 0.500000 0.500000
#
# Coordination Sequence:
#
# PCOD9039938 Si02
#       8
#     2   2   2   2   2   2   2   2
#     4  11  26  47  72 102 150 192 238 311 356 422
#     4  10  23  43  68 107 139 180 240 294 358 429
#     4  10  23  42  72  97 143 190 227 294 368 421
#     4  12  25  45  72 110 139 196 246 298 363 428
#     4  11  23  48  71 102 146 193 238 296 371 422
#     4  11  24  47  75 109 145 187 246 299 371 430
#     4  11  25  46  73 103 149 188 239 312 355 428
#     4  12  28  48  72 108 147 195 252 289 362 438
#
# _framework density 24.633702
#
# number of rings (size 3 to 8) (size 9 to 14) (size 15 to 20)
#    0.000    1.000    3.750    1.125    3.500    7.500 
#    0.000    0.000    0.000    0.000    0.000    0.000 
#    0.000    0.000    0.000    0.000    0.000    0.000 
#
# Total GULP energy -89539.870707 kJ/mol
# GULP energy per Si atom -5596.241919 kJ/mol
# Density = 2.457763 g / cm^3
# Si number density = 24.633702 Si / 1000 Ang^3
#
#
#
# Elastic Constant Matrix: (Units=GPa)
#
#
# Indices 1 2 3 4 5 6 
#
# 1 59.8004 21.3414 6.1383 1.9021 2.0222 -12.1329
# 2 21.3414 111.1864 29.4820 13.8648 9.2783 12.9839
# 3 6.1383 29.4820 115.0131 17.6746 0.6092 -13.1363
# 4 1.9021 13.8648 17.6746 49.4859 -1.3423 3.5838
# 5 2.0222 9.2783 0.6092 -1.3423 41.7048 2.1280
# 6 -12.1329 12.9839 -13.1363 3.5838 2.1280 38.4732
#
#
#
# Elastic Compliance Matrix: (Units=1/GPa)
#
#
# Indices 1 2 3 4 5 6 
#
# 1 0.020195 -0.005144 0.001291 -0.000427 -0.000306 0.008602
# 2 -0.005144 0.011986 -0.003292 -0.001569 -0.002086 -0.006530
# 3 0.001291 -0.003292 0.010597 -0.003303 0.000131 0.005437
# 4 -0.000427 -0.001569 -0.003303 0.022085 0.001275 -0.002861
# 5 -0.000306 -0.002086 0.000131 0.001275 0.024538 -0.000824
# 6 0.008602 -0.006530 0.005437 -0.002861 -0.000824 0.033077
#
#
# Mechanical properties :
#
#
# Convention : Reuss Voigt Hill
#
# Bulk Modulus (GPa) = 35.10242 44.43590 39.76916
# Shear Modulus (GPa) = 34.18450 41.20201 37.69326
#
# Velocity S-wave (km/s) = 3.72924 4.09416 3.91596
# Velocity P-wave (km/s) = 5.72920 6.35825 6.05190
#
# Compressibility (1/GPa) = 0.02848807
#
# Stress axis : x y z
#
# Youngs Moduli (GPa) = 49.51747 83.42832 94.36342
#
# Poissons Ratio (x) = 0.42917 -0.12179
# Poissons Ratio (y) = 0.25473 0.31061
# Poissons Ratio (z) = -0.06391 0.27462
#
# Static dielectric constant tensor:
#      x y z
#    x 2.004450 -0.032460 -0.058570 
#    y -0.032460 1.926880 0.013490 
#    z -0.058570 0.013490 1.988930 
# 
# From -- ./inp_files/595050.got.cif
#   From: 2010.05.17/outbox.cif.g08.bks.cpg/sg2_298_cif.got.tgz:595050.got - 2010.06.03 11:33:40.
