data_PCOD9039928
_publ_section_title
;
Structure prediction by ZEFSAII (Michael W. Deem and Ramdas Pophale) SiO2 
 PCOD9039928
Probable space group: P -1
;
_chemical_formula_sum "Si O2"
_cell_formula_units_Z 14
_cell_length_a 9.256490
_cell_length_b 12.130850
_cell_length_c 9.391781
_cell_angle_alpha 129.708625
_cell_angle_beta 73.519024
_cell_angle_gamma 132.876102
_cell_volume 572.819079
_symmetry_space_group_name_H-M "P -1"
_symmetry_group_IT_number 2
_symmetry_cell_setting 'triclinic'
loop_
_space_group_symop_operation_xyz
x,y,z
-x,-y,-z
loop_
_atom_site_type_symbol
_atom_site_label
_atom_site_fract_x
_atom_site_fract_y
_atom_site_fract_z
Si Si1 0.600808 0.816280 0.563684
Si Si2 0.855400 0.133131 0.163535
Si Si3 0.701190 0.704374 0.174526
Si Si4 0.829215 0.414968 0.352733
Si Si5 0.533945 0.073308 0.713238
Si Si6 0.173468 0.505760 0.900672
Si Si7 0.911522 0.909014 0.767606
O O1 0.610912 0.760538 0.356996
O O2 0.381106 0.676257 0.586629
O O3 0.656999 0.020291 0.706297
O O4 0.758876 0.819467 0.606586
O O5 0.837672 0.254251 0.162274
O O6 0.689457 0.065214 0.270709
O O7 0.818619 0.964163 0.948993
O O8 0.059149 0.222979 0.269457
O O9 0.824225 0.653667 0.173046
O O10 0.865779 0.888663 0.178140
O O11 0.500000 0.500000 0.000000
O O12 0.845957 0.511048 0.279693
O O13 0.000000 0.500000 0.500000
O O14 0.500000 0.000000 0.500000
O O15 0.631346 0.285275 0.912166
O O16 0.000000 0.500000 0.000000
#
# Coordination Sequence:
#
# PCOD9039928 Si02
#       7
#     2   2   2   2   2   2   2
#     4  11  25  44  71  96 136 184 239 282 345 411
#     4  10  23  42  72  94 138 180 234 280 350 406
#     4  12  27  44  69 107 147 180 225 294 359 414
#     4  11  27  46  70 101 143 185 237 292 350 418
#     4  11  23  44  69  99 137 185 236 281 346 426
#     4  12  27  44  72 105 145 184 231 290 356 414
#     4  11  23  44  70 102 134 182 234 289 339 427
#
# _framework density 24.440525999999998
#
# number of rings (size 3 to 8) (size 9 to 14) (size 15 to 20)
#    0.000    0.857    0.000    6.429   10.000    4.000 
#    0.000    0.000    0.000    0.000    0.000    0.000 
#    0.000    0.000    0.000    0.000    0.000    0.000 
#
# Total GULP energy -78205.407356 kJ/mol
# GULP energy per Si atom -5586.100525 kJ/mol
# Density = 2.438490 g / cm^3
# Si number density = 24.440526 Si / 1000 Ang^3
#
#
#
# Elastic Constant Matrix: (Units=GPa)
#
#
# Indices 1 2 3 4 5 6 
#
# 1 124.8435 29.2703 7.0851 -0.9329 -13.8903 -11.2361
# 2 29.2703 74.1739 17.7939 -13.9447 -2.8586 -2.1844
# 3 7.0851 17.7939 115.4099 -24.3195 -2.0702 12.8078
# 4 -0.9329 -13.9447 -24.3195 36.7040 5.1031 -2.2455
# 5 -13.8903 -2.8586 -2.0702 5.1031 48.5800 2.3451
# 6 -11.2361 -2.1844 12.8078 -2.2455 2.3451 45.5549
#
#
#
# Elastic Compliance Matrix: (Units=1/GPa)
#
#
# Indices 1 2 3 4 5 6 
#
# 1 0.009373 -0.003740 -0.000558 -0.001776 0.002523 0.002072
# 2 -0.003740 0.016251 -0.001203 0.005418 -0.000758 0.000501
# 3 -0.000558 -0.001203 0.010537 0.006381 -0.000315 -0.002827
# 4 -0.001776 0.005418 0.006381 0.033963 -0.003479 -0.000119
# 5 0.002523 -0.000758 -0.000315 -0.003479 0.021643 -0.000611
# 6 0.002072 0.000501 -0.002827 -0.000119 -0.000611 0.023307
#
#
# Mechanical properties :
#
#
# Convention : Reuss Voigt Hill
#
# Bulk Modulus (GPa) = 39.75007 46.96953 43.35980
# Shear Modulus (GPa) = 37.18527 43.51968 40.35248
#
# Velocity S-wave (km/s) = 3.90482 4.22434 4.06772
# Velocity P-wave (km/s) = 6.05223 6.56148 6.31199
#
# Compressibility (1/GPa) = 0.02515719
#
# Stress axis : x y z
#
# Youngs Moduli (GPa) = 106.69501 61.53600 94.90073
#
# Poissons Ratio (x) = 0.23018 0.05292
# Poissons Ratio (y) = 0.39909 0.11421
# Poissons Ratio (z) = 0.05950 0.07406
#
# Static dielectric constant tensor:
#      x y z
#    x 2.114740 -0.044200 0.182290 
#    y -0.044200 2.031760 0.124890 
#    z 0.182290 0.124890 2.130990 
# 
# From -- ./inp_files/157661.got.cif
#   From: 2010.05.17/outbox.cif.g08.bks.cpg/sg2_79_cif.got.tgz:157661.got - 2010.06.03 11:33:40.
