data_PCOD9039453
_publ_section_title
;
Structure prediction by ZEFSAII (Michael W. Deem and Ramdas Pophale) SiO2 
 PCOD9039453
Probable space group: P -1
;
_chemical_formula_sum "Si O2"
_cell_formula_units_Z 13
_cell_length_a 8.014250
_cell_length_b 10.481906
_cell_length_c 8.499698
_cell_angle_alpha 57.163842
_cell_angle_beta 108.560913
_cell_angle_gamma 123.859895
_cell_volume 498.050767
_symmetry_space_group_name_H-M "P -1"
_symmetry_group_IT_number 2
_symmetry_cell_setting 'triclinic'
loop_
_space_group_symop_operation_xyz
x,y,z
-x,-y,-z
loop_
_atom_site_type_symbol
_atom_site_label
_atom_site_fract_x
_atom_site_fract_y
_atom_site_fract_z
Si Si1 0.624257 0.145691 0.596583
Si Si2 0.429559 0.563380 0.091557
Si Si3 0.868460 0.713874 0.596549
Si Si4 0.185107 0.600699 0.750492
Si Si5 0.229687 0.047757 0.039435
Si Si6 0.000000 0.500000 0.500000
Si Si7 0.799127 0.009955 0.262463
O O1 0.635982 0.216076 0.376244
O O2 0.403975 0.062678 0.652526
O O3 0.784606 0.326028 0.601924
O O4 0.719779 0.022937 0.741293
O O5 0.340804 0.425095 0.297460
O O6 0.603361 0.751936 0.060641
O O7 0.500000 0.500000 0.000000
O O8 0.232512 0.571636 0.958010
O O9 0.850372 0.851668 0.389013
O O10 0.989910 0.622069 0.617194
O O11 0.019797 0.826958 0.707035
O O12 0.138069 0.452788 0.708819
O O13 0.246684 0.953655 0.950026
O O14 0.000000 0.000000 0.000000
#
# Coordination Sequence:
#
# PCOD9039453 Si02
#       7
#     2   2   2   2   2   1   2
#     4  10  23  42  68  96 131 169 215 261 325 383
#     4  12  27  42  67  96 131 174 217 269 321 385
#     4  11  25  43  67  96 130 170 217 271 324 384
#     4  10  23  42  68  96 131 169 215 261 325 383
#     4  12  27  42  67  96 131 174 217 269 321 385
#     4   8  24  40  72  96 130 176 204 272 324 388
#     4  11  25  43  67  96 130 170 217 271 324 384
#
# _framework density 26.101756999999999
#
# number of rings (size 3 to 8) (size 9 to 14) (size 15 to 20)
#    0.923    0.308    0.000    4.615    6.462    5.538 
#    0.000    0.000    0.000    0.000    0.000    0.000 
#    0.000    0.000    0.000    0.000    0.000    0.000 
#
# Total GULP energy -72467.594767 kJ/mol
# GULP energy per Si atom -5574.430367 kJ/mol
# Density = 2.604235 g / cm^3
# Si number density = 26.101757 Si / 1000 Ang^3
#
#
#
# Elastic Constant Matrix: (Units=GPa)
#
#
# Indices 1 2 3 4 5 6 
#
# 1 79.8408 11.8886 -17.2801 -15.3633 3.4052 11.9430
# 2 11.8886 146.8175 27.5909 9.4633 6.7250 34.5138
# 3 -17.2801 27.5909 66.7408 -2.5441 8.8004 3.4740
# 4 -15.3633 9.4633 -2.5441 46.4141 10.4068 -2.6227
# 5 3.4052 6.7250 8.8004 10.4068 41.7867 -2.9181
# 6 11.9430 34.5138 3.4740 -2.6227 -2.9181 36.0292
#
#
#
# Elastic Compliance Matrix: (Units=1/GPa)
#
#
# Indices 1 2 3 4 5 6 
#
# 1 0.016156 -0.001677 0.005912 0.006733 -0.004260 -0.004174
# 2 -0.001677 0.010070 -0.004200 -0.003251 -0.000415 -0.008956
# 3 0.005912 -0.004200 0.019099 0.005005 -0.005062 0.000177
# 4 0.006733 -0.003251 0.005005 0.026503 -0.007560 0.001717
# 5 -0.004260 -0.000415 -0.005062 -0.007560 0.027572 0.003981
# 6 -0.004174 -0.008956 0.000177 0.001717 0.003981 0.038149
#
#
# Mechanical properties :
#
#
# Convention : Reuss Voigt Hill
#
# Bulk Modulus (GPa) = 22.02893 37.53312 29.78102
# Shear Modulus (GPa) = 32.76290 42.92599 37.84445
#
# Velocity S-wave (km/s) = 3.54672 4.05972 3.81186
# Velocity P-wave (km/s) = 5.02297 6.03207 5.55050
#
# Compressibility (1/GPa) = 0.04539486
#
# Stress axis : x y z
#
# Youngs Moduli (GPa) = 61.89760 99.30181 52.35744
#
# Poissons Ratio (x) = 0.16651 -0.30952
# Poissons Ratio (y) = 0.10379 0.21992
# Poissons Ratio (z) = -0.36592 0.41709
#
# Static dielectric constant tensor:
#      x y z
#    x 1.691680 0.655870 0.318250 
#    y 0.655870 0.879260 -0.383080 
#    z 0.318250 -0.383080 1.939360 
# 
# From -- ./inp_files/168079.got.cif
#   From: 2010.05.17/outbox.cif.g08.bks.cpg/sg2_85_cif.got.tgz:168079.got - 2010.06.03 11:33:40.
