data_PCOD9039257
_publ_section_title
;
Structure prediction by ZEFSAII (Michael W. Deem and Ramdas Pophale) SiO2 
 PCOD9039257
Probable space group: P -1
;
_chemical_formula_sum "Si O2"
_cell_formula_units_Z 14
_cell_length_a 8.553354
_cell_length_b 11.782202
_cell_length_c 23.405128
_cell_angle_alpha 157.116528
_cell_angle_beta 51.193276
_cell_angle_gamma 118.878071
_cell_volume 679.155855
_symmetry_space_group_name_H-M "P -1"
_symmetry_group_IT_number 2
_symmetry_cell_setting 'triclinic'
loop_
_space_group_symop_operation_xyz
x,y,z
-x,-y,-z
loop_
_atom_site_type_symbol
_atom_site_label
_atom_site_fract_x
_atom_site_fract_y
_atom_site_fract_z
Si Si1 0.156204 0.456344 0.103383
Si Si2 0.302303 0.214154 0.609959
Si Si3 0.384355 0.802946 0.295000
Si Si4 0.194044 0.235958 0.358158
Si Si5 0.801958 0.440387 0.987101
Si Si6 0.328249 0.778022 0.790253
Si Si7 0.320775 0.385193 0.514618
O O1 0.251681 0.668009 0.219127
O O2 0.247194 0.400997 0.991848
O O3 0.910595 0.644488 0.240263
O O4 0.204242 0.141429 0.983249
O O5 0.339388 0.524096 0.718956
O O6 0.500000 0.000000 0.500000
O O7 0.272465 0.974385 0.456944
O O8 0.437236 0.083957 0.383135
O O9 0.609949 0.545158 0.125074
O O10 0.427092 0.242258 0.288056
O O11 0.186134 0.296272 0.455682
O O12 0.000000 0.500000 0.500000
O O13 0.167704 0.912249 0.197897
O O14 0.000000 0.500000 0.000000
O O15 0.211745 0.646148 0.705530
O O16 0.500000 0.500000 0.500000
#
# Coordination Sequence:
#
# PCOD9039257 Si02
#       7
#     2   2   2   2   2   2   2
#     4  12  23  44  69  97 132 175 225 267 323 400
#     4  11  26  45  68  94 134 174 217 273 337 394
#     4  11  22  43  66  93 127 175 222 266 326 394
#     4  11  23  37  61  99 138 167 215 270 335 382
#     4  12  25  38  67 102 136 168 217 279 332 376
#     4  10  23  42  67  92 131 174 224 263 324 396
#     4   9  19  36  60  89 125 170 205 260 318 388
#
# _framework density 20.613827000000001
#
# number of rings (size 3 to 8) (size 9 to 14) (size 15 to 20)
#    0.000    1.143    2.857    3.857   10.000    0.000 
#    0.000    0.714    0.000    0.000    0.000    0.000 
#    0.000    0.000    0.000    0.000    0.000    0.000 
#
# Total GULP energy -77974.286623 kJ/mol
# GULP energy per Si atom -5569.591902 kJ/mol
# Density = 2.056691 g / cm^3
# Si number density = 20.613827 Si / 1000 Ang^3
#
#
#
# Elastic Constant Matrix: (Units=GPa)
#
#
# Indices 1 2 3 4 5 6 
#
# 1 70.9001 -8.3854 22.3660 0.0805 7.7056 11.1389
# 2 -8.3854 31.0727 21.6408 6.7656 7.3615 1.5197
# 3 22.3660 21.6408 106.6298 12.5260 2.2973 7.6490
# 4 0.0805 6.7656 12.5260 36.4190 8.0025 -0.0356
# 5 7.7056 7.3615 2.2973 8.0025 47.3933 2.7783
# 6 11.1389 1.5197 7.6490 -0.0356 2.7783 24.9665
#
#
#
# Elastic Compliance Matrix: (Units=1/GPa)
#
#
# Indices 1 2 3 4 5 6 
#
# 1 0.018466 0.009839 -0.005402 0.000866 -0.004020 -0.006734
# 2 0.009839 0.044631 -0.010371 -0.003141 -0.007316 -0.003119
# 3 -0.005402 -0.010371 0.013013 -0.003076 0.002450 -0.001222
# 4 0.000866 -0.003141 -0.003076 0.030125 -0.004667 0.001310
# 5 -0.004020 -0.007316 0.002450 -0.004667 0.023627 -0.001147
# 6 -0.006734 -0.003119 -0.001222 0.001310 -0.001147 0.043752
#
#
# Mechanical properties :
#
#
# Convention : Reuss Voigt Hill
#
# Bulk Modulus (GPa) = 15.56662 31.09392 23.33027
# Shear Modulus (GPa) = 24.16686 33.28787 28.72737
#
# Velocity S-wave (km/s) = 3.42769 4.02286 3.73714
# Velocity P-wave (km/s) = 4.82010 6.05761 5.47394
#
# Compressibility (1/GPa) = 0.06424003
#
# Stress axis : x y z
#
# Youngs Moduli (GPa) = 54.15337 22.40615 76.84897
#
# Poissons Ratio (x) = -0.22045 0.41516
# Poissons Ratio (y) = -0.53281 0.79702
# Poissons Ratio (z) = 0.29255 0.23238
#
# Static dielectric constant tensor:
#      x y z
#    x 1.734780 -0.023820 0.012100 
#    y -0.023820 1.790050 -0.022890 
#    z 0.012100 -0.022890 1.798380 
# 
# From -- ./inp_files/157273.got.cif
#   From: 2010.05.17/outbox.cif.g08.bks.cpg/sg2_79_cif.got.tgz:157273.got - 2010.06.03 11:33:40.
