data_PCOD9039256
_publ_section_title
;
Structure prediction by ZEFSAII (Michael W. Deem and Ramdas Pophale) SiO2 
 PCOD9039256
Probable space group: P -1
;
_chemical_formula_sum "Si O2"
_cell_formula_units_Z 15
_cell_length_a 10.295364
_cell_length_b 9.620717
_cell_length_c 8.176758
_cell_angle_alpha 60.902563
_cell_angle_beta 84.912869
_cell_angle_gamma 59.847795
_cell_volume 598.814111
_symmetry_space_group_name_H-M "P -1"
_symmetry_group_IT_number 2
_symmetry_cell_setting 'triclinic'
loop_
_space_group_symop_operation_xyz
x,y,z
-x,-y,-z
loop_
_atom_site_type_symbol
_atom_site_label
_atom_site_fract_x
_atom_site_fract_y
_atom_site_fract_z
Si Si1 0.099631 0.839394 0.944462
Si Si2 0.626627 0.026976 0.887991
Si Si3 0.549044 0.369542 0.868589
Si Si4 0.047878 0.683735 0.549584
Si Si5 0.714020 0.902522 0.579337
Si Si6 0.070131 0.308680 0.808103
Si Si7 0.542080 0.717124 0.744786
Si Si8 0.000000 0.000000 0.500000
O O1 0.278605 0.741571 0.012969
O O2 0.054238 0.925116 0.723331
O O3 0.053451 0.684264 0.058528
O O4 0.000000 0.000000 0.000000
O O5 0.662786 0.964190 0.734059
O O6 0.777148 0.887236 0.056237
O O7 0.500000 0.000000 0.000000
O O8 0.563801 0.245303 0.785414
O O9 0.444989 0.353464 0.029798
O O10 0.513664 0.575696 0.728026
O O11 0.890238 0.841407 0.573700
O O12 0.994351 0.688231 0.367517
O O13 0.098062 0.479043 0.723075
O O14 0.138957 0.781866 0.528168
O O15 0.681919 0.735784 0.651674
O O16 0.604273 0.072182 0.375901
#
# Coordination Sequence:
#
# PCOD9039256 Si02
#       8
#     2   2   2   2   2   2   2   1
#     4  12  23  43  72  99 138 178 223 294 346 399
#     4  12  24  42  65  96 138 178 219 282 337 405
#     4  11  23  44  66  96 132 173 228 272 346 400
#     4  11  25  44  70 103 133 181 232 285 346 412
#     4  11  23  41  67  95 132 175 227 275 340 409
#     4  11  25  46  69  99 142 180 224 287 352 406
#     4  10  23  42  67  92 128 178 220 278 329 413
#     4  12  24  42  68 100 136 174 230 280 338 412
#
# _framework density 25.049510000000001
#
# number of rings (size 3 to 8) (size 9 to 14) (size 15 to 20)
#    0.000    0.800    4.000    3.200    1.867    3.733 
#    2.400    0.000    0.000    0.000    0.000    0.000 
#    0.000    0.000    0.000    0.000    0.000    0.000 
#
# Total GULP energy -83771.608292 kJ/mol
# GULP energy per Si atom -5584.773886 kJ/mol
# Density = 2.499250 g / cm^3
# Si number density = 25.049510 Si / 1000 Ang^3
#
#
#
# Elastic Constant Matrix: (Units=GPa)
#
#
# Indices 1 2 3 4 5 6 
#
# 1 51.9017 -7.0716 21.7693 3.5585 -5.1952 0.7212
# 2 -7.0716 119.0770 28.8044 -18.4561 -8.4787 28.2206
# 3 21.7693 28.8044 71.2147 1.6340 -15.4109 10.8266
# 4 3.5585 -18.4561 1.6340 44.2067 7.2454 -15.0343
# 5 -5.1952 -8.4787 -15.4109 7.2454 24.2324 -3.4396
# 6 0.7212 28.2206 10.8266 -15.0343 -3.4396 30.7456
#
#
#
# Elastic Compliance Matrix: (Units=1/GPa)
#
#
# Indices 1 2 3 4 5 6 
#
# 1 0.023360 0.003624 -0.008171 -0.000652 0.001105 -0.001192
# 2 0.003624 0.012098 -0.004704 0.001996 0.000210 -0.008533
# 3 -0.008171 -0.004704 0.021740 -0.005540 0.011435 -0.004576
# 4 -0.000652 0.001996 -0.005540 0.030005 -0.009993 0.013688
# 5 0.001105 0.000210 0.011435 -0.009993 0.051357 -0.003386
# 6 -0.001192 -0.008533 -0.004576 0.013688 -0.003386 0.048311
#
#
# Mechanical properties :
#
#
# Convention : Reuss Voigt Hill
#
# Bulk Modulus (GPa) = 25.84309 36.57752 31.21031
# Shear Modulus (GPa) = 22.90730 33.08302 27.99516
#
# Velocity S-wave (km/s) = 3.02732 3.63809 3.34667
# Velocity P-wave (km/s) = 4.74961 5.68167 5.23642
#
# Compressibility (1/GPa) = 0.03869506
#
# Stress axis : x y z
#
# Youngs Moduli (GPa) = 42.80787 82.65999 45.99852
#
# Poissons Ratio (x) = -0.29957 0.37587
# Poissons Ratio (y) = -0.15514 0.21638
# Poissons Ratio (z) = 0.34980 0.38884
#
# Static dielectric constant tensor:
#      x y z
#    x 2.065240 -0.196440 -0.084780 
#    y -0.196440 1.975250 -0.007860 
#    z -0.084780 -0.007860 1.918080 
# 
# From -- ./inp_files/237084.got.cif
#   From: 2010.05.17/outbox.cif.g08.bks.cpg/sg2_119_cif.got.tgz:237084.got - 2010.06.03 11:33:40.
