data_PCOD9039509
_publ_section_title
;
Structure prediction by ZEFSAII (Michael W. Deem and Ramdas Pophale) SiO2 
 PCOD9039509
Probable space group: P -1
;
_chemical_formula_sum "Si O2"
_cell_formula_units_Z 10
_cell_length_a 9.675225
_cell_length_b 9.820515
_cell_length_c 7.411715
_cell_angle_alpha 125.102319
_cell_angle_beta 54.188330
_cell_angle_gamma 137.093879
_cell_volume 374.869130
_symmetry_space_group_name_H-M "P -1"
_symmetry_group_IT_number 2
_symmetry_cell_setting 'triclinic'
loop_
_space_group_symop_operation_xyz
x,y,z
-x,-y,-z
loop_
_atom_site_type_symbol
_atom_site_label
_atom_site_fract_x
_atom_site_fract_y
_atom_site_fract_z
Si Si1 0.071953 0.215366 0.519961
Si Si2 0.723822 0.203321 0.143023
Si Si3 0.636580 0.771621 0.980391
Si Si4 0.356169 0.051533 0.542077
Si Si5 0.815378 0.499980 0.000698
O O1 0.160693 0.368109 0.740164
O O2 0.243930 0.283133 0.284588
O O3 0.000000 0.000000 0.500000
O O4 0.860620 0.146684 0.520746
O O5 0.527399 0.193201 0.365368
O O6 0.763699 0.295744 0.984116
O O7 0.323445 0.019877 0.977609
O O8 0.958973 0.366733 0.171869
O O9 0.705689 0.840765 0.187146
O O10 0.387835 0.585192 0.029074
O O11 0.500000 0.000000 0.500000
#
# Coordination Sequence:
#
# PCOD9039509 Si02
#       5
#     2   2   2   2   2
#     4  12  24  45  71 100 137 178 226 279 335 398
#     4  10  23  42  68  99 137 174 231 269 332 401
#     4  11  23  45  67  99 139 173 224 282 339 390
#     4  10  25  44  69  98 142 178 216 282 340 395
#     4  11  24  40  74 100 130 183 231 270 333 406
#
# _framework density 26.675975000000001
#
# number of rings (size 3 to 8) (size 9 to 14) (size 15 to 20)
#    0.000    1.200    2.000    3.000   11.200    0.800 
#    3.600    2.000    0.000    0.000    0.000    0.000 
#    0.000    0.000    0.000    0.000    0.000    0.000 
#
# Total GULP energy -55962.774639 kJ/mol
# GULP energy per Si atom -5596.277464 kJ/mol
# Density = 2.661526 g / cm^3
# Si number density = 26.675975 Si / 1000 Ang^3
#
#
#
# Elastic Constant Matrix: (Units=GPa)
#
#
# Indices 1 2 3 4 5 6 
#
# 1 53.4237 19.3840 -2.7882 4.1207 10.6362 21.4457
# 2 19.3840 111.6033 21.3567 3.2220 1.3339 21.4727
# 3 -2.7882 21.3567 158.7543 17.1889 -9.3859 22.7775
# 4 4.1207 3.2220 17.1889 39.0266 16.7299 -5.3040
# 5 10.6362 1.3339 -9.3859 16.7299 32.6231 -2.2919
# 6 21.4457 21.4727 22.7775 -5.3040 -2.2919 60.0695
#
#
#
# Elastic Compliance Matrix: (Units=1/GPa)
#
#
# Indices 1 2 3 4 5 6 
#
# 1 0.025052 -0.002838 0.001795 -0.001184 -0.007561 -0.009003
# 2 -0.002838 0.010090 -0.001006 -0.000543 0.000344 -0.002247
# 3 0.001795 -0.001006 0.007914 -0.006050 0.004580 -0.003642
# 4 -0.001184 -0.000543 -0.006050 0.037953 -0.020411 0.005484
# 5 -0.007561 0.000344 0.004580 -0.020411 0.044942 0.000752
# 6 -0.009003 -0.002247 -0.003642 0.005484 0.000752 0.022559
#
#
# Mechanical properties :
#
#
# Convention : Reuss Voigt Hill
#
# Bulk Modulus (GPa) = 25.66840 44.40958 35.03899
# Shear Modulus (GPa) = 30.19440 45.39909 37.79675
#
# Velocity S-wave (km/s) = 3.36801 4.12985 3.76823
# Velocity P-wave (km/s) = 4.97673 6.27892 5.66536
#
# Compressibility (1/GPa) = 0.03895841
#
# Stress axis : x y z
#
# Youngs Moduli (GPa) = 39.91642 99.11248 126.35484
#
# Poissons Ratio (x) = 0.28127 -0.22676
# Poissons Ratio (y) = 0.11328 0.12706
# Poissons Ratio (z) = -0.07164 0.09967
#
# Static dielectric constant tensor:
#      x y z
#    x 2.266510 -0.054140 -0.040350 
#    y -0.054140 2.125270 -0.028360 
#    z -0.040350 -0.028360 2.186530 
# 
# From -- ./inp_files/15997.got.cif
#   From: 2010.05.17/outbox.cif.g08.bks.cpg/sg2_8_cif.got.tgz:15997.got - 2010.06.03 11:33:40.
