data_PCOD9039645
_publ_section_title
;
Structure prediction by ZEFSAII (Michael W. Deem and Ramdas Pophale) SiO2 
 PCOD9039645
Probable space group: P -1
;
_chemical_formula_sum "Si O2"
_cell_formula_units_Z 14
_cell_length_a 21.595627
_cell_length_b 8.217450
_cell_length_c 8.672534
_cell_angle_alpha 112.973904
_cell_angle_beta 41.130226
_cell_angle_gamma 143.290788
_cell_volume 508.119640
_symmetry_space_group_name_H-M "P -1"
_symmetry_group_IT_number 2
_symmetry_cell_setting 'triclinic'
loop_
_space_group_symop_operation_xyz
x,y,z
-x,-y,-z
loop_
_atom_site_type_symbol
_atom_site_label
_atom_site_fract_x
_atom_site_fract_y
_atom_site_fract_z
Si Si1 0.156517 0.112261 0.102914
Si Si2 0.693775 0.033710 0.794143
Si Si3 0.686277 0.623141 0.775976
Si Si4 0.572915 0.180902 0.265671
Si Si5 0.961929 0.376938 0.197964
Si Si6 0.123981 0.310519 0.778906
Si Si7 0.660964 0.876321 0.377450
O O1 0.188385 0.221054 0.257776
O O2 0.276077 0.432750 0.893174
O O3 0.220442 0.006661 0.943736
O O4 0.978546 0.819178 0.237265
O O5 0.706002 0.861073 0.788043
O O6 0.880654 0.358302 0.482397
O O7 0.509492 0.726605 0.935004
O O8 0.651075 0.135953 0.015742
O O9 0.720582 0.561163 0.533684
O O10 0.407593 0.031380 0.451302
O O11 0.500000 0.000000 0.500000
O O12 0.770524 0.990149 0.363834
O O13 0.000000 0.500000 0.000000
O O14 0.111030 0.466353 0.967361
O O15 0.000000 0.000000 0.000000
O O16 0.500000 0.500000 0.500000
#
# Coordination Sequence:
#
# PCOD9039645 Si02
#       7
#     2   2   2   2   2   2   2
#     4  10  23  42  69  98 137 180 229 276 348 405
#     4  11  25  43  70 102 139 181 231 281 342 408
#     4  11  24  45  71 100 138 183 235 278 333 422
#     4  11  24  39  67 101 136 174 228 284 343 404
#     4  11  25  42  67 102 138 175 226 288 349 406
#     4  11  24  45  71  96 137 184 228 279 348 410
#     4   9  20  41  66  92 133 177 223 271 335 409
#
# _framework density 27.552565000000001
#
# number of rings (size 3 to 8) (size 9 to 14) (size 15 to 20)
#    0.000    1.429    1.429    3.000    6.000    3.429 
#    0.000    0.714    0.000    0.000    0.000    0.000 
#    0.000    0.000    0.000    0.000    0.000    0.000 
#
# Total GULP energy -77971.336371 kJ/mol
# GULP energy per Si atom -5569.381169 kJ/mol
# Density = 2.748985 g / cm^3
# Si number density = 27.552565 Si / 1000 Ang^3
#
#
#
# Elastic Constant Matrix: (Units=GPa)
#
#
# Indices 1 2 3 4 5 6 
#
# 1 101.0193 21.9548 25.9558 14.6840 1.5566 -10.5413
# 2 21.9548 77.3900 39.2890 28.3688 -5.2439 -26.6582
# 3 25.9558 39.2890 226.5550 48.3834 -8.7709 -33.2647
# 4 14.6840 28.3688 48.3834 47.0896 -6.8475 -12.9416
# 5 1.5566 -5.2439 -8.7709 -6.8475 41.9207 -2.2124
# 6 -10.5413 -26.6582 -33.2647 -12.9416 -2.2124 59.5226
#
#
#
# Elastic Compliance Matrix: (Units=1/GPa)
#
#
# Indices 1 2 3 4 5 6 
#
# 1 0.010783 -0.002197 -0.000518 -0.001587 -0.001029 0.000253
# 2 -0.002197 0.019060 -0.000247 -0.008653 0.001327 0.006177
# 3 -0.000518 -0.000247 0.005932 -0.005161 0.000493 0.002009
# 4 -0.001587 -0.008653 -0.005161 0.032778 0.003262 0.000207
# 5 -0.001029 0.001327 0.000493 0.003262 0.024817 0.002319
# 6 0.000253 0.006177 0.002009 0.000207 0.002319 0.020866
#
#
# Mechanical properties :
#
#
# Convention : Reuss Voigt Hill
#
# Bulk Modulus (GPa) = 33.50126 64.37374 48.93750
# Shear Modulus (GPa) = 38.42897 50.89089 44.65993
#
# Velocity S-wave (km/s) = 3.73869 4.30239 4.03041
# Velocity P-wave (km/s) = 5.55180 6.93509 6.28164
#
# Compressibility (1/GPa) = 0.02984962
#
# Stress axis : x y z
#
# Youngs Moduli (GPa) = 92.74214 52.46631 168.56392
#
# Poissons Ratio (x) = 0.11526 0.08736
# Poissons Ratio (y) = 0.20375 0.04172
# Poissons Ratio (z) = 0.04806 0.01298
#
# Static dielectric constant tensor:
#      x y z
#    x 2.490040 0.085580 -0.222000 
#    y 0.085580 2.002580 0.247690 
#    z -0.222000 0.247690 2.130210 
# 
# From -- ./inp_files/352293.got.cif
#   From: 2010.05.17/outbox.cif.g08.bks.cpg/sg2_177_cif.got.tgz:352293.got - 2010.06.03 11:33:40.
