data_PCOD9039764
_publ_section_title
;
Structure prediction by ZEFSAII (Michael W. Deem and Ramdas Pophale) SiO2 
 PCOD9039764
Probable space group: P -1
;
_chemical_formula_sum "Si O2"
_cell_formula_units_Z 14
_cell_length_a 9.208908
_cell_length_b 8.173184
_cell_length_c 16.864784
_cell_angle_alpha 144.698277
_cell_angle_beta 119.013883
_cell_angle_gamma 74.008147
_cell_volume 623.024689
_symmetry_space_group_name_H-M "P -1"
_symmetry_group_IT_number 2
_symmetry_cell_setting 'triclinic'
loop_
_space_group_symop_operation_xyz
x,y,z
-x,-y,-z
loop_
_atom_site_type_symbol
_atom_site_label
_atom_site_fract_x
_atom_site_fract_y
_atom_site_fract_z
Si Si1 0.203343 0.357511 0.181697
Si Si2 0.121942 0.926992 0.434932
Si Si3 0.244508 0.734128 0.714509
Si Si4 0.649465 0.583535 0.010194
Si Si5 0.878952 0.150332 0.917642
Si Si6 0.120340 0.216819 0.379498
Si Si7 0.461371 0.408577 0.729135
O O1 0.116565 0.586253 0.294215
O O2 0.391353 0.530604 0.274255
O O3 0.202534 0.081716 0.127777
O O4 0.081010 0.242967 0.028391
O O5 0.078546 0.038991 0.380786
O O6 0.317935 0.108079 0.571594
O O7 0.000000 0.000000 0.500000
O O8 0.258361 0.508734 0.558003
O O9 0.351586 0.649744 0.781423
O O10 0.042571 0.676314 0.653904
O O11 0.297825 0.069672 0.841442
O O12 0.802376 0.432244 0.010670
O O13 0.565725 0.456499 0.855746
O O14 0.500000 0.500000 0.000000
O O15 0.837937 0.990583 0.759227
#
# Coordination Sequence:
#
# PCOD9039764 Si02
#       7
#     2   2   2   2   2   2   2
#     4  11  25  46  71 103 144 187 236 288 353 417
#     4  11  26  45  74 103 142 184 236 294 356 418
#     4  10  23  42  70  99 141 176 236 280 353 403
#     4  12  26  42  68 104 142 185 235 288 347 420
#     4  11  26  45  74 103 145 187 238 284 353 423
#     4  10  23  44  73 103 135 188 235 286 349 418
#     4  11  25  45  68 103 145 185 231 297 352 413
#
# _framework density 22.471018999999998
#
# number of rings (size 3 to 8) (size 9 to 14) (size 15 to 20)
#    0.000    1.143    0.000    4.286   10.000    4.000 
#    0.000    4.286    0.000    0.000    0.000    0.000 
#    0.000    0.000    0.000    0.000    0.000    0.000 
#
# Total GULP energy -78324.982428 kJ/mol
# GULP energy per Si atom -5594.641602 kJ/mol
# Density = 2.241987 g / cm^3
# Si number density = 22.471019 Si / 1000 Ang^3
#
#
#
# Elastic Constant Matrix: (Units=GPa)
#
#
# Indices 1 2 3 4 5 6 
#
# 1 55.8559 16.4914 9.5965 -21.6000 3.5750 1.1498
# 2 16.4914 123.7491 38.4805 1.7792 -4.6016 -7.9021
# 3 9.5965 38.4805 99.7259 6.0556 5.1085 1.1695
# 4 -21.6000 1.7792 6.0556 36.4983 -7.2885 -3.1977
# 5 3.5750 -4.6016 5.1085 -7.2885 33.2528 -1.8602
# 6 1.1498 -7.9021 1.1695 -3.1977 -1.8602 22.8231
#
#
#
# Elastic Compliance Matrix: (Units=1/GPa)
#
#
# Indices 1 2 3 4 5 6 
#
# 1 0.025082 -0.002817 -0.002304 0.015507 0.000672 0.000106
# 2 -0.002817 0.009944 -0.003684 -0.000744 0.002298 0.003857
# 3 -0.002304 -0.003684 0.012109 -0.004051 -0.003156 -0.002605
# 4 0.015507 -0.000744 -0.004051 0.039299 0.007763 0.005308
# 5 0.000672 0.002298 -0.003156 0.007763 0.032767 0.004682
# 6 0.000106 0.003857 -0.002605 0.005308 0.004682 0.046404
#
#
# Mechanical properties :
#
#
# Convention : Reuss Voigt Hill
#
# Bulk Modulus (GPa) = 33.86899 45.38532 39.62715
# Shear Modulus (GPa) = 25.89908 32.83235 29.36572
#
# Velocity S-wave (km/s) = 3.39861 3.82658 3.61893
# Velocity P-wave (km/s) = 5.52320 6.30593 5.92750
#
# Compressibility (1/GPa) = 0.02952553
#
# Stress axis : x y z
#
# Youngs Moduli (GPa) = 39.86858 100.56113 82.58453
#
# Poissons Ratio (x) = 0.28332 0.19026
# Poissons Ratio (y) = 0.11232 0.30422
# Poissons Ratio (z) = 0.09185 0.37044
#
# Static dielectric constant tensor:
#      x y z
#    x 1.836880 0.011980 0.001640 
#    y 0.011980 1.818370 0.001590 
#    z 0.001640 0.001590 1.839560 
# 
# From -- ./inp_files/557061.got.cif
#   From: 2010.05.17/outbox.cif.g08.bks.cpg/sg2_279_cif.got.tgz:557061.got - 2010.06.03 11:33:40.
