data_PCOD9039165
_publ_section_title
;
Structure prediction by ZEFSAII (Michael W. Deem and Ramdas Pophale) SiO2 
 PCOD9039165
Probable space group: P -1
;
_chemical_formula_sum "Si O2"
_cell_formula_units_Z 14
_cell_length_a 10.310788
_cell_length_b 16.425981
_cell_length_c 7.458610
_cell_angle_alpha 117.931453
_cell_angle_beta 115.999887
_cell_angle_gamma 29.973169
_cell_volume 556.059988
_symmetry_space_group_name_H-M "P -1"
_symmetry_group_IT_number 2
_symmetry_cell_setting 'triclinic'
loop_
_space_group_symop_operation_xyz
x,y,z
-x,-y,-z
loop_
_atom_site_type_symbol
_atom_site_label
_atom_site_fract_x
_atom_site_fract_y
_atom_site_fract_z
Si Si1 0.641716 0.854641 0.743400
Si Si2 0.115443 0.450910 0.316236
Si Si3 0.836065 0.139794 0.785062
Si Si4 0.932975 0.801148 0.133133
Si Si5 0.020559 0.113696 0.232617
Si Si6 0.231826 0.588135 0.414600
Si Si7 0.425111 0.228387 0.719283
O O1 0.691881 0.737379 0.777196
O O2 0.639440 0.821151 0.504399
O O3 0.355851 0.045782 0.801769
O O4 0.874178 0.796726 0.891977
O O5 0.244065 0.480983 0.395245
O O6 0.000000 0.500000 0.500000
O O7 0.847845 0.594201 0.185500
O O8 0.554171 0.243687 0.697823
O O9 0.949173 0.158956 0.750811
O O10 0.839726 0.186091 0.030812
O O11 0.015513 0.953647 0.721331
O O12 0.127287 0.637448 0.199015
O O13 0.965583 0.237814 0.424078
O O14 0.327250 0.936150 0.184544
O O15 0.500000 0.500000 0.500000
#
# Coordination Sequence:
#
# PCOD9039165 Si02
#       7
#     2   2   2   2   2   2   2
#     4  10  23  42  66  98 136 177 220 273 338 400
#     4  10  25  43  66  99 132 180 222 276 339 394
#     4   9  21  40  72  98 130 176 231 272 332 394
#     4  11  24  43  68 103 134 180 220 280 337 402
#     4   9  21  42  65 104 129 181 225 275 322 415
#     4  12  28  43  68 103 139 175 226 279 341 393
#     4   9  19  41  70  92 132 177 221 270 330 395
#
# _framework density 25.177137999999999
#
# number of rings (size 3 to 8) (size 9 to 14) (size 15 to 20)
#    0.857    1.143    1.429    0.000   10.000    5.714 
#    0.000    1.429    0.000    0.000    0.000    0.000 
#    0.000    0.000    0.000    0.000    0.000    0.000 
#
# Total GULP energy -78185.388900 kJ/mol
# GULP energy per Si atom -5584.670636 kJ/mol
# Density = 2.511983 g / cm^3
# Si number density = 25.177138 Si / 1000 Ang^3
#
#
#
# Elastic Constant Matrix: (Units=GPa)
#
#
# Indices 1 2 3 4 5 6 
#
# 1 159.1191 30.4854 24.0034 -8.7633 33.7840 9.0267
# 2 30.4854 92.2800 9.3100 -20.1522 10.8564 -3.6556
# 3 24.0034 9.3100 95.0749 -13.3708 20.0069 -9.0565
# 4 -8.7633 -20.1522 -13.3708 30.5813 2.3118 11.2507
# 5 33.7840 10.8564 20.0069 2.3118 35.1538 -4.4168
# 6 9.0267 -3.6556 -9.0565 11.2507 -4.4168 39.4713
#
#
#
# Elastic Compliance Matrix: (Units=1/GPa)
#
#
# Indices 1 2 3 4 5 6 
#
# 1 0.008881 -0.001176 -0.000100 0.003981 -0.008916 -0.004295
# 2 -0.001176 0.013835 0.001225 0.010270 -0.004719 -0.001624
# 3 -0.000100 0.001225 0.013168 0.007075 -0.008214 0.000222
# 4 0.003981 0.010270 0.007075 0.050243 -0.016145 -0.014463
# 5 -0.008916 -0.004719 -0.008214 -0.016145 0.045390 0.009398
# 6 -0.004295 -0.001624 0.000222 -0.014463 0.009398 0.031392
#
#
# Mechanical properties :
#
#
# Convention : Reuss Voigt Hill
#
# Bulk Modulus (GPa) = 27.94731 52.67461 40.31096
# Shear Modulus (GPa) = 28.58170 39.88630 34.23400
#
# Velocity S-wave (km/s) = 3.37296 3.98455 3.69145
# Velocity P-wave (km/s) = 5.12772 6.49122 5.84934
#
# Compressibility (1/GPa) = 0.03578162
#
# Stress axis : x y z
#
# Youngs Moduli (GPa) = 112.60092 72.28058 75.94222
#
# Poissons Ratio (x) = 0.08498 0.00760
# Poissons Ratio (y) = 0.13238 -0.09301
# Poissons Ratio (z) = 0.01127 -0.08852
#
# Static dielectric constant tensor:
#      x y z
#    x 2.040720 0.022600 -0.058260 
#    y 0.022600 2.016870 0.009580 
#    z -0.058260 0.009580 2.027460 
# 
# From -- ./inp_files/208443.got.cif
#   From: 2010.05.17/outbox.cif.g08.bks.cpg/sg2_105_cif.got.tgz:208443.got - 2010.06.03 11:33:40.
