data_PCOD9039692
_publ_section_title
;
Structure prediction by ZEFSAII (Michael W. Deem and Ramdas Pophale) SiO2 
 PCOD9039692
Probable space group: P -1
;
_chemical_formula_sum "Si O2"
_cell_formula_units_Z 11
_cell_length_a 6.911933
_cell_length_b 7.736745
_cell_length_c 12.078621
_cell_angle_alpha 56.789071
_cell_angle_beta 63.729384
_cell_angle_gamma 103.890878
_cell_volume 371.082543
_symmetry_space_group_name_H-M "P -1"
_symmetry_group_IT_number 2
_symmetry_cell_setting 'triclinic'
loop_
_space_group_symop_operation_xyz
x,y,z
-x,-y,-z
loop_
_atom_site_type_symbol
_atom_site_label
_atom_site_fract_x
_atom_site_fract_y
_atom_site_fract_z
Si Si1 0.000000 0.000000 0.000000
Si Si2 0.458434 0.651111 0.116354
Si Si3 0.540169 0.842373 0.387195
Si Si4 0.290936 0.103922 0.334814
Si Si5 0.086365 0.675453 0.027933
Si Si6 0.150501 0.334612 0.526227
O O1 0.138540 0.327756 0.848244
O O2 0.238625 0.085486 0.011717
O O3 0.465743 0.415362 0.158521
O O4 0.265559 0.515663 0.323025
O O5 0.277508 0.661792 0.066047
O O6 0.273019 0.554120 0.512790
O O7 0.711329 0.804714 0.438986
O O8 0.456470 0.021129 0.381575
O O9 0.755151 0.012836 0.166811
O O10 0.000000 0.000000 0.500000
O O11 0.176317 0.915310 0.321182
O O12 0.000000 0.500000 0.000000
#
# Coordination Sequence:
#
# PCOD9039692 Si02
#       6
#     1   2   2   2   2   2
#     4  12  26  46  74 104 152 196 236 300 368 436
#     4  11  25  47  70 109 144 191 241 297 370 426
#     4  11  23  43  68 106 144 184 247 291 367 438
#     4  10  23  42  70 101 139 187 234 303 359 424
#     4  12  27  48  74 109 148 194 245 304 361 443
#     4  10  23  44  69 106 139 189 238 302 360 428
#
# _framework density 29.643000000000001
#
# number of rings (size 3 to 8) (size 9 to 14) (size 15 to 20)
#    0.000    1.091    1.818    3.273    0.000   10.182 
#    0.000    0.000    0.000    0.000    0.000    0.000 
#    0.000    0.000    0.000    0.000    0.000    0.000 
#
# Total GULP energy -61457.291484 kJ/mol
# GULP energy per Si atom -5587.026499 kJ/mol
# Density = 2.957553 g / cm^3
# Si number density = 29.643000 Si / 1000 Ang^3
#
#
#
# Elastic Constant Matrix: (Units=GPa)
#
#
# Indices 1 2 3 4 5 6 
#
# 1 252.2080 89.7492 66.0547 -11.6818 71.7004 8.3735
# 2 89.7492 168.4477 63.1260 -40.0808 42.9991 16.9337
# 3 66.0547 63.1260 100.2663 6.6202 19.4388 22.1076
# 4 -11.6818 -40.0808 6.6202 70.8876 1.0185 2.7424
# 5 71.7004 42.9991 19.4388 1.0185 57.5531 -5.1270
# 6 8.3735 16.9337 22.1076 2.7424 -5.1270 79.2295
#
#
#
# Elastic Compliance Matrix: (Units=1/GPa)
#
#
# Indices 1 2 3 4 5 6 
#
# 1 0.007132 -0.000352 -0.002996 0.001381 -0.007669 -0.000387
# 2 -0.000352 0.012160 -0.006272 0.007560 -0.006797 -0.001513
# 3 -0.002996 -0.006272 0.016271 -0.005502 0.002796 -0.002512
# 4 0.001381 0.007560 -0.005502 0.019258 -0.005965 -0.001279
# 5 -0.007669 -0.006797 0.002796 -0.005965 0.031501 0.003728
# 6 -0.000387 -0.001513 -0.002512 -0.001279 0.003728 0.013972
#
#
# Mechanical properties :
#
#
# Convention : Reuss Voigt Hill
#
# Bulk Modulus (GPa) = 61.26141 106.53129 83.89635
# Shear Modulus (GPa) = 40.00806 61.66682 50.83744
#
# Velocity S-wave (km/s) = 3.67776 4.56600 4.14574
# Velocity P-wave (km/s) = 6.22462 7.98836 7.16100
#
# Compressibility (1/GPa) = 0.01632349
#
# Stress axis : x y z
#
# Youngs Moduli (GPa) = 140.21353 82.23420 61.45993
#
# Poissons Ratio (x) = 0.02894 0.18414
# Poissons Ratio (y) = 0.04935 0.38547
# Poissons Ratio (z) = 0.42008 0.51576
#
# Static dielectric constant tensor:
#      x y z
#    x 1.490800 1.371750 0.716150 
#    y 1.371750 -0.058700 -1.209160 
#    z 0.716150 -1.209160 1.687240 
# 
# From -- ./inp_files/17547.got.cif
#   From: 2010.05.17/outbox.cif.g08.bks.cpg/sg2_9_cif.got.tgz:17547.got - 2010.06.03 11:33:40.
