data_PCOD9039452
_publ_section_title
;
Structure prediction by ZEFSAII (Michael W. Deem and Ramdas Pophale) SiO2 
 PCOD9039452
Probable space group: P -1
;
_chemical_formula_sum "Si O2"
_cell_formula_units_Z 16
_cell_length_a 12.153717
_cell_length_b 8.721237
_cell_length_c 11.784857
_cell_angle_alpha 107.116989
_cell_angle_beta 58.866305
_cell_angle_gamma 63.494213
_cell_volume 696.663021
_symmetry_space_group_name_H-M "P -1"
_symmetry_group_IT_number 2
_symmetry_cell_setting 'triclinic'
loop_
_space_group_symop_operation_xyz
x,y,z
-x,-y,-z
loop_
_atom_site_type_symbol
_atom_site_label
_atom_site_fract_x
_atom_site_fract_y
_atom_site_fract_z
Si Si1 0.265869 0.993301 0.037275
Si Si2 0.939744 0.033199 0.212953
Si Si3 0.319117 0.969316 0.748383
Si Si4 0.692990 0.535645 0.345151
Si Si5 0.440754 0.370018 0.012855
Si Si6 0.991892 0.162070 0.618461
Si Si7 0.271749 0.373727 0.892302
Si Si8 0.975746 0.541301 0.274702
O O1 0.129313 0.273447 0.182822
O O2 0.136019 0.952194 0.090966
O O3 0.365298 0.912781 0.844506
O O4 0.416586 0.843959 0.023980
O O5 0.880285 0.937607 0.144417
O O6 0.790139 0.301795 0.308949
O O7 0.932691 0.972323 0.330735
O O8 0.474503 0.746876 0.538232
O O9 0.314033 0.162410 0.770837
O O10 0.726795 0.503414 0.185210
O O11 0.798137 0.597928 0.348167
O O12 0.225264 0.581593 0.213760
O O13 0.500000 0.500000 0.000000
O O14 0.423920 0.295262 0.885642
O O15 0.086370 0.250385 0.570570
O O16 0.000000 0.000000 0.500000
O O17 0.082471 0.514380 0.099079
#
# Coordination Sequence:
#
# PCOD9039452 Si02
#       8
#     2   2   2   2   2   2   2   2
#     4  10  23  45  69  98 130 179 224 268 326 398
#     4  11  24  43  62  99 133 174 223 265 339 391
#     4  11  24  40  70  98 134 171 220 285 325 384
#     4  11  23  41  66 102 135 170 220 278 334 386
#     4  11  24  43  70  98 132 175 227 263 328 400
#     4  11  25  43  68  97 135 176 215 278 333 393
#     4  10  23  42  68  96 130 179 219 270 329 396
#     4   9  22  44  68  96 133 175 224 269 329 398
#
# _framework density 22.966626000000002
#
# number of rings (size 3 to 8) (size 9 to 14) (size 15 to 20)
#    0.000    1.500    1.250    2.250    3.500   11.500 
#    0.000    1.250    0.000    0.000    0.000    0.000 
#    0.000    0.000    0.000    0.000    0.000    0.000 
#
# Total GULP energy -89381.130067 kJ/mol
# GULP energy per Si atom -5586.320629 kJ/mol
# Density = 2.291435 g / cm^3
# Si number density = 22.966626 Si / 1000 Ang^3
#
#
#
# Elastic Constant Matrix: (Units=GPa)
#
#
# Indices 1 2 3 4 5 6 
#
# 1 143.5774 85.0939 32.5445 4.0540 18.0699 -0.6657
# 2 85.0939 149.2378 39.7281 11.8446 18.9660 -12.2924
# 3 32.5445 39.7281 54.7362 16.8710 0.5058 -8.0437
# 4 4.0540 11.8446 16.8710 17.8358 3.7839 1.3792
# 5 18.0699 18.9660 0.5058 3.7839 33.7388 4.6984
# 6 -0.6657 -12.2924 -8.0437 1.3792 4.6984 42.1641
#
#
#
# Elastic Compliance Matrix: (Units=1/GPa)
#
#
# Indices 1 2 3 4 5 6 
#
# 1 0.011712 -0.005530 -0.005440 0.007089 -0.003557 -0.002301
# 2 -0.005530 0.011881 -0.004210 -0.002071 -0.003849 0.003070
# 3 -0.005440 -0.004210 0.034833 -0.030925 0.007459 0.005512
# 4 0.007089 -0.002071 -0.030925 0.088022 -0.010919 -0.008054
# 5 -0.003557 -0.003849 0.007459 -0.010919 0.035285 -0.003330
# 6 -0.002301 0.003070 0.005512 -0.008054 -0.003330 0.026262
#
#
# Mechanical properties :
#
#
# Convention : Reuss Voigt Hill
#
# Bulk Modulus (GPa) = 35.63135 73.58715 54.60925
# Shear Modulus (GPa) = 20.18480 31.42674 25.80577
#
# Velocity S-wave (km/s) = 2.96780 3.70316 3.35568
# Velocity P-wave (km/s) = 5.22416 7.09894 6.23245
#
# Compressibility (1/GPa) = 0.02806518
#
# Stress axis : x y z
#
# Youngs Moduli (GPa) = 85.37948 84.16670 28.70869
#
# Poissons Ratio (x) = 0.46545 0.15618
# Poissons Ratio (y) = 0.47216 0.12087
# Poissons Ratio (z) = 0.46448 0.35436
#
# Static dielectric constant tensor:
#      x y z
#    x 1.997840 0.000020 -0.028350 
#    y 0.000020 1.877310 0.018350 
#    z -0.028350 0.018350 1.912720 
# 
# From -- ./inp_files/417825.got.cif
#   From: 2010.05.17/outbox.cif.g08.bks.cpg/sg2_209_cif.got.tgz:417825.got - 2010.06.03 11:33:40.
