data_PCOD9039604
_publ_section_title
;
Structure prediction by ZEFSAII (Michael W. Deem and Ramdas Pophale) SiO2 
 PCOD9039604
Probable space group: P -1
;
_chemical_formula_sum "Si O2"
_cell_formula_units_Z 16
_cell_length_a 11.770801
_cell_length_b 15.561680
_cell_length_c 9.512595
_cell_angle_alpha 47.125878
_cell_angle_beta 110.852873
_cell_angle_gamma 72.928027
_cell_volume 743.284713
_symmetry_space_group_name_H-M "P -1"
_symmetry_group_IT_number 2
_symmetry_cell_setting 'triclinic'
loop_
_space_group_symop_operation_xyz
x,y,z
-x,-y,-z
loop_
_atom_site_type_symbol
_atom_site_label
_atom_site_fract_x
_atom_site_fract_y
_atom_site_fract_z
Si Si1 0.405463 0.269132 0.087407
Si Si2 0.324707 0.066745 0.632206
Si Si3 0.108338 0.696914 0.382801
Si Si4 0.938899 0.634868 0.201970
Si Si5 0.729753 0.302588 0.813332
Si Si6 0.218380 0.987076 0.916704
Si Si7 0.532719 0.777714 0.519913
Si Si8 0.891114 0.396001 0.950173
O O1 0.505626 0.215778 0.340186
O O2 0.551206 0.119246 0.197255
O O3 0.271072 0.479308 0.744412
O O4 0.262014 0.265256 0.054361
O O5 0.428709 0.113755 0.613292
O O6 0.296512 0.039465 0.806792
O O7 0.106387 0.236965 0.285099
O O8 0.200070 0.718386 0.290311
O O9 0.943171 0.754343 0.152180
O O10 0.996312 0.831267 0.317697
O O11 0.000000 0.500000 0.500000
O O12 0.095437 0.528885 0.264302
O O13 0.500000 0.500000 0.500000
O O14 0.833628 0.312844 0.955597
O O15 0.774235 0.132901 0.044115
O O16 0.365728 0.857296 0.255246
O O17 0.732555 0.561543 0.804722
#
# Coordination Sequence:
#
# PCOD9039604 Si02
#       8
#     2   2   2   2   2   2   2   2
#     4  11  23  42  64 100 138 173 211 272 333 395
#     4  12  26  41  67 102 138 172 219 267 337 392
#     4  10  23  42  69  95 129 175 225 269 326 387
#     4   9  20  35  66  93 134 171 213 261 337 384
#     4  11  23  47  70  94 133 173 224 272 330 387
#     4  12  26  43  69  99 132 178 223 270 322 394
#     4  12  25  41  68 101 139 169 221 271 330 392
#     4  11  24  42  68  95 133 178 215 276 327 390
#
# _framework density 21.526073
#
# number of rings (size 3 to 8) (size 9 to 14) (size 15 to 20)
#    0.000    1.000    2.500    3.750   10.500    0.500 
#    0.000    0.625    0.000    0.000    0.000    0.000 
#    0.000    0.000    0.000    0.000    0.000    0.000 
#
# Total GULP energy -89480.064948 kJ/mol
# GULP energy per Si atom -5592.504059 kJ/mol
# Density = 2.147708 g / cm^3
# Si number density = 21.526073 Si / 1000 Ang^3
#
#
#
# Elastic Constant Matrix: (Units=GPa)
#
#
# Indices 1 2 3 4 5 6 
#
# 1 52.2203 2.6698 1.7653 -1.3992 0.9298 8.0084
# 2 2.6698 76.6040 15.9371 -16.3726 5.9911 -5.9626
# 3 1.7653 15.9371 62.2192 -7.2762 6.3429 6.3133
# 4 -1.3992 -16.3726 -7.2762 48.2115 -4.2276 6.0000
# 5 0.9298 5.9911 6.3429 -4.2276 21.0874 -3.5721
# 6 8.0084 -5.9626 6.3133 6.0000 -3.5721 31.0414
#
#
#
# Elastic Compliance Matrix: (Units=1/GPa)
#
#
# Indices 1 2 3 4 5 6 
#
# 1 0.020130 -0.000945 0.000534 0.000933 -0.001583 -0.005846
# 2 -0.000945 0.015037 -0.003446 0.004039 -0.001904 0.002833
# 3 0.000534 -0.003446 0.018224 0.001828 -0.005082 -0.005444
# 4 0.000933 0.004039 0.001828 0.023114 0.002209 -0.004050
# 5 -0.001583 -0.001904 -0.005082 0.002209 0.051110 0.006531
# 6 -0.005846 0.002833 -0.005444 -0.004050 0.006531 0.036909
#
#
# Mechanical properties :
#
#
# Convention : Reuss Voigt Hill
#
# Bulk Modulus (GPa) = 21.89213 25.75422 23.82317
# Shear Modulus (GPa) = 26.67211 31.44614 29.05912
#
# Velocity S-wave (km/s) = 3.52385 3.82624 3.67815
# Velocity P-wave (km/s) = 5.17192 5.61341 5.39718
#
# Compressibility (1/GPa) = 0.04567852
#
# Stress axis : x y z
#
# Youngs Moduli (GPa) = 49.67822 66.50383 54.87303
#
# Poissons Ratio (x) = 0.06282 -0.02933
# Poissons Ratio (y) = 0.04693 0.18908
# Poissons Ratio (z) = -0.02655 0.22915
#
# Static dielectric constant tensor:
#      x y z
#    x 1.770760 0.001710 -0.010510 
#    y 0.001710 1.796510 0.006600 
#    z -0.010510 0.006600 1.784180 
# 
# From -- ./inp_files/184863.got.cif
#   From: 2010.05.17/outbox.cif.g08.bks.cpg/sg2_93_cif.got.tgz:184863.got - 2010.06.03 11:33:40.
