data_PCOD9039481
_publ_section_title
;
Structure prediction by ZEFSAII (Michael W. Deem and Ramdas Pophale) SiO2 
 PCOD9039481
Probable space group: P -1
;
_chemical_formula_sum "Si O2"
_cell_formula_units_Z 16
_cell_length_a 8.027958
_cell_length_b 16.322187
_cell_length_c 5.088758
_cell_angle_alpha 70.944923
_cell_angle_beta 95.498121
_cell_angle_gamma 93.408459
_cell_volume 627.081357
_symmetry_space_group_name_H-M "P -1"
_symmetry_group_IT_number 2
_symmetry_cell_setting 'triclinic'
loop_
_space_group_symop_operation_xyz
x,y,z
-x,-y,-z
loop_
_atom_site_type_symbol
_atom_site_label
_atom_site_fract_x
_atom_site_fract_y
_atom_site_fract_z
Si Si1 0.437259 0.421744 0.754098
Si Si2 0.232762 0.645699 0.850493
Si Si3 0.262145 0.185724 0.323156
Si Si4 0.060821 0.425062 0.783847
Si Si5 0.379306 0.004724 0.721904
Si Si6 0.242725 0.823364 0.988025
Si Si7 0.468062 0.720548 0.445635
Si Si8 0.923083 0.764602 0.262922
O O1 0.500000 0.500000 0.500000
O O2 0.261185 0.438428 0.854074
O O3 0.414668 0.340666 0.637306
O O4 0.599085 0.398858 0.972334
O O5 0.069214 0.590457 0.976306
O O6 0.217542 0.742103 0.871783
O O7 0.296939 0.665915 0.543816
O O8 0.434116 0.241455 0.329718
O O9 0.132662 0.231567 0.449505
O O10 0.282988 0.092616 0.558047
O O11 0.202001 0.191119 0.011022
O O12 0.054023 0.333639 0.724023
O O13 0.000000 0.500000 0.500000
O O14 0.258815 0.919465 0.781670
O O15 0.500000 0.000000 0.500000
O O16 0.500000 0.000000 0.000000
O O17 0.413881 0.801741 0.184256
O O18 0.095352 0.817131 0.183434
#
# Coordination Sequence:
#
# PCOD9039481 Si02
#       8
#     2   2   2   2   2   2   2   2
#     4  11  22  42  65  99 141 178 244 307 369 445
#     4  10  23  42  68  97 138 195 239 301 374 437
#     4  12  25  46  75 106 145 194 242 299 377 438
#     4  11  22  45  68  99 144 187 246 309 368 437
#     4  12  25  43  74 110 143 187 248 303 358 441
#     4  10  25  44  69 103 144 186 241 302 359 440
#     4  11  23  43  73  97 140 193 245 295 371 444
#     4  11  27  46  71 105 148 192 241 303 378 442
#
# _framework density 25.515034
#
# number of rings (size 3 to 8) (size 9 to 14) (size 15 to 20)
#    0.000    1.000    3.750    2.250    5.250    1.500 
#    0.000    1.250    0.000    0.000    0.000    0.000 
#    0.000    0.000    0.000    0.000    0.000    0.000 
#
# Total GULP energy -89623.200399 kJ/mol
# GULP energy per Si atom -5601.450025 kJ/mol
# Density = 2.545696 g / cm^3
# Si number density = 25.515034 Si / 1000 Ang^3
#
#
#
# Elastic Constant Matrix: (Units=GPa)
#
#
# Indices 1 2 3 4 5 6 
#
# 1 182.7722 40.6699 46.0551 -12.7436 -22.0455 2.4761
# 2 40.6699 90.0671 35.1716 -34.9603 0.8690 10.3867
# 3 46.0551 35.1716 115.4843 -20.5071 6.4831 -1.7167
# 4 -12.7436 -34.9603 -20.5071 52.5037 -1.7460 -9.7798
# 5 -22.0455 0.8690 6.4831 -1.7460 63.0986 -5.2531
# 6 2.4761 10.3867 -1.7167 -9.7798 -5.2531 32.9655
#
#
#
# Elastic Compliance Matrix: (Units=1/GPa)
#
#
# Indices 1 2 3 4 5 6 
#
# 1 0.006877 -0.002606 -0.002232 -0.000777 0.002678 0.000385
# 2 -0.002606 0.017203 -0.002543 0.009291 -0.000857 -0.002737
# 3 -0.002232 -0.002543 0.010856 0.002316 -0.001633 0.001961
# 4 -0.000777 0.009291 0.002316 0.026961 0.000553 0.005338
# 5 0.002678 -0.000857 -0.001633 0.000553 0.017220 0.002892
# 6 0.000385 -0.002737 0.001961 0.005338 0.002892 0.033315
#
#
# Mechanical properties :
#
#
# Convention : Reuss Voigt Hill
#
# Bulk Modulus (GPa) = 49.56575 70.23519 59.90047
# Shear Modulus (GPa) = 37.33667 47.47534 42.40600
#
# Velocity S-wave (km/s) = 3.82949 4.31824 4.08119
# Velocity P-wave (km/s) = 6.24672 7.24222 6.76281
#
# Compressibility (1/GPa) = 0.02017522
#
# Stress axis : x y z
#
# Youngs Moduli (GPa) = 145.41011 58.13099 92.11746
#
# Poissons Ratio (x) = 0.15147 0.20557
# Poissons Ratio (y) = 0.37888 0.23424
# Poissons Ratio (z) = 0.32450 0.14782
#
# Static dielectric constant tensor:
#      x y z
#    x 1.875280 0.181650 -0.137060 
#    y 0.181650 1.863470 0.192090 
#    z -0.137060 0.192090 1.851760 
# 
# From -- ./inp_files/37587.got.cif
#   From: 2010.05.17/outbox.cif.g08.bks.cpg/sg2_19_cif.got.tgz:37587.got - 2010.06.03 11:33:40.
