data_PCOD9039578
_publ_section_title
;
Structure prediction by ZEFSAII (Michael W. Deem and Ramdas Pophale) SiO2 
 PCOD9039578
Probable space group: P -1
;
_chemical_formula_sum "Si O2"
_cell_formula_units_Z 14
_cell_length_a 4.939990
_cell_length_b 14.077887
_cell_length_c 14.273322
_cell_angle_alpha 32.922531
_cell_angle_beta 94.157711
_cell_angle_gamma 102.773712
_cell_volume 514.033172
_symmetry_space_group_name_H-M "P -1"
_symmetry_group_IT_number 2
_symmetry_cell_setting 'triclinic'
loop_
_space_group_symop_operation_xyz
x,y,z
-x,-y,-z
loop_
_atom_site_type_symbol
_atom_site_label
_atom_site_fract_x
_atom_site_fract_y
_atom_site_fract_z
Si Si1 0.390277 0.655866 0.416663
Si Si2 0.093325 0.979896 0.836223
Si Si3 0.308105 0.569980 0.863694
Si Si4 0.229483 0.479726 0.215628
Si Si5 0.965391 0.348270 0.765487
Si Si6 0.213771 0.900322 0.703494
Si Si7 0.807832 0.090032 0.577498
O O1 0.500000 0.500000 0.500000
O O2 0.214110 0.539833 0.595390
O O3 0.176274 0.701326 0.298607
O O4 0.654881 0.835764 0.288406
O O5 0.204344 0.885244 0.829048
O O6 0.843724 0.040653 0.727618
O O7 0.983692 0.831844 0.037632
O O8 0.978568 0.474486 0.906883
O O9 0.276258 0.754109 0.757638
O O10 0.476834 0.535435 0.804476
O O11 0.500000 0.500000 0.000000
O O12 0.247906 0.602083 0.206574
O O13 0.036432 0.278905 0.406424
O O14 0.490995 0.074718 0.555695
O O15 0.915621 0.940004 0.646530
#
# Coordination Sequence:
#
# PCOD9039578 Si02
#       7
#     2   2   2   2   2   2   2
#     4  11  25  46  75 107 150 188 257 312 378 457
#     4  10  24  45  73 108 154 195 250 309 378 452
#     4  12  27  43  71 106 150 197 256 307 369 449
#     4  12  26  44  75 103 152 197 250 308 377 441
#     4  11  26  45  74 110 146 203 245 314 382 444
#     4  10  23  43  70 104 151 194 250 306 369 448
#     4  10  23  42  69 105 146 196 249 305 373 435
#
# _framework density 27.235599000000001
#
# number of rings (size 3 to 8) (size 9 to 14) (size 15 to 20)
#    0.857    0.286    0.000    5.143    6.000    6.286 
#    0.000    0.000    0.000    0.000    0.000    0.000 
#    0.000    0.000    0.000    0.000    0.000    0.000 
#
# Total GULP energy -78263.877430 kJ/mol
# GULP energy per Si atom -5590.276959 kJ/mol
# Density = 2.717361 g / cm^3
# Si number density = 27.235599 Si / 1000 Ang^3
#
#
#
# Elastic Constant Matrix: (Units=GPa)
#
#
# Indices 1 2 3 4 5 6 
#
# 1 124.7423 21.0263 12.9109 -0.9324 -2.9423 -0.2870
# 2 21.0263 117.2562 42.9639 0.1557 4.5956 -1.9612
# 3 12.9109 42.9639 150.1259 16.8962 -4.1580 8.8805
# 4 -0.9324 0.1557 16.8962 62.3553 1.2215 1.3158
# 5 -2.9423 4.5956 -4.1580 1.2215 35.1772 2.9857
# 6 -0.2870 -1.9612 8.8805 1.3158 2.9857 47.0911
#
#
#
# Elastic Compliance Matrix: (Units=1/GPa)
#
#
# Indices 1 2 3 4 5 6 
#
# 1 0.008307 -0.001409 -0.000309 0.000195 0.000836 -0.000008
# 2 -0.001409 0.009943 -0.002924 0.000761 -0.001878 0.001055
# 3 -0.000309 -0.002924 0.007904 -0.002134 0.001505 -0.001650
# 4 0.000195 0.000761 -0.002134 0.016634 -0.000915 0.000029
# 5 0.000836 -0.001878 0.001505 -0.000915 0.029137 -0.002179
# 6 -0.000008 0.001055 -0.001650 0.000029 -0.002179 0.021728
#
#
# Mechanical properties :
#
#
# Convention : Reuss Voigt Hill
#
# Bulk Modulus (GPa) = 59.28490 60.65850 59.97170
# Shear Modulus (GPa) = 46.05660 49.93960 47.99810
#
# Velocity S-wave (km/s) = 4.11669 4.28672 4.20257
# Velocity P-wave (km/s) = 6.66415 6.84262 6.75397
#
# Compressibility (1/GPa) = 0.01686770
#
# Stress axis : x y z
#
# Youngs Moduli (GPa) = 120.37610 100.57473 126.51794
#
# Poissons Ratio (x) = 0.14176 0.03914
# Poissons Ratio (y) = 0.16967 0.36999
# Poissons Ratio (z) = 0.03724 0.29412
#
# Static dielectric constant tensor:
#      x y z
#    x 2.095260 0.003110 0.024290 
#    y 0.003110 2.123780 0.031910 
#    z 0.024290 0.031910 2.292340 
# 
# From -- ./inp_files/484150.got.cif
#   From: 2010.05.17/outbox.cif.g08.bks.cpg/sg2_243_cif.got.tgz:484150.got - 2010.06.03 11:33:40.
