data_PCOD9039719
_publ_section_title
;
Structure prediction by ZEFSAII (Michael W. Deem and Ramdas Pophale) SiO2 
 PCOD9039719
Probable space group: P -1
;
_chemical_formula_sum "Si O2"
_cell_formula_units_Z 15
_cell_length_a 24.792463
_cell_length_b 5.185923
_cell_length_c 5.125912
_cell_angle_alpha 93.072111
_cell_angle_beta 121.180784
_cell_angle_gamma 104.444046
_cell_volume 532.571469
_symmetry_space_group_name_H-M "P -1"
_symmetry_group_IT_number 2
_symmetry_cell_setting 'triclinic'
loop_
_space_group_symop_operation_xyz
x,y,z
-x,-y,-z
loop_
_atom_site_type_symbol
_atom_site_label
_atom_site_fract_x
_atom_site_fract_y
_atom_site_fract_z
Si Si1 0.959766 0.653087 0.570809
Si Si2 0.377311 0.704461 0.211277
Si Si3 0.558348 0.613002 0.955118
Si Si4 0.737094 0.283809 0.456053
Si Si5 0.695727 0.744640 0.604637
Si Si6 0.500000 0.000000 0.500000
Si Si7 0.861753 0.186158 0.506893
Si Si8 0.900718 0.938570 0.074528
O O1 0.923966 0.465491 0.709937
O O2 0.000000 0.500000 0.500000
O O3 0.019604 0.930605 0.785423
O O4 0.901838 0.683899 0.238101
O O5 0.443642 0.657892 0.237735
O O6 0.333921 0.414156 0.212673
O O7 0.426157 0.916496 0.540124
O O8 0.326681 0.779788 0.898665
O O9 0.543969 0.849280 0.774765
O O10 0.500000 0.500000 0.000000
O O11 0.630803 0.675816 0.258009
O O12 0.743132 0.578508 0.607080
O O13 0.796479 0.254273 0.427864
O O14 0.726536 0.067389 0.656032
O O15 0.870472 0.092512 0.229195
O O16 0.868889 0.963268 0.719287
#
# Coordination Sequence:
#
# PCOD9039719 Si02
#       8
#     2   2   2   2   2   1   2   2
#     4   9  21  42  70 105 144 185 235 298 363 425
#     4  11  26  42  68  98 135 178 229 292 357 430
#     4  11  24  40  64 101 129 171 224 290 354 431
#     4  11  28  46  68  99 138 187 237 290 353 431
#     4  11  26  46  68  96 138 180 233 288 357 424
#     4  12  22  40  70  90 130 170 224 280 360 406
#     4  11  25  43  70 101 142 188 244 294 361 429
#     4  10  23  42  70 105 142 184 238 300 361 427
#
# _framework density 28.165233000000001
#
# number of rings (size 3 to 8) (size 9 to 14) (size 15 to 20)
#    0.000    1.333    2.667    0.800    5.600    8.533 
#    0.000    0.000    0.000    0.000    0.000    0.000 
#    0.000    0.000    0.000    0.000    0.000    0.000 
#
# Total GULP energy -83793.306867 kJ/mol
# GULP energy per Si atom -5586.220458 kJ/mol
# Density = 2.810113 g / cm^3
# Si number density = 28.165233 Si / 1000 Ang^3
#
#
#
# Elastic Constant Matrix: (Units=GPa)
#
#
# Indices 1 2 3 4 5 6 
#
# 1 182.1496 45.1066 54.3386 -24.4331 1.7279 5.4451
# 2 45.1066 155.8737 31.0629 -50.0648 2.5485 -0.0377
# 3 54.3386 31.0629 101.5149 -28.2370 5.9857 -5.3129
# 4 -24.4331 -50.0648 -28.2370 43.3070 -7.9194 6.7144
# 5 1.7279 2.5485 5.9857 -7.9194 46.5569 -3.7573
# 6 5.4451 -0.0377 -5.3129 6.7144 -3.7573 48.2216
#
#
#
# Elastic Compliance Matrix: (Units=1/GPa)
#
#
# Indices 1 2 3 4 5 6 
#
# 1 0.006853 -0.001119 -0.003204 0.000715 0.000243 -0.001208
# 2 -0.001119 0.010615 0.000689 0.012566 0.001394 -0.001430
# 3 -0.003204 0.000689 0.013539 0.007643 -0.000297 0.000767
# 4 0.000715 0.012566 0.007643 0.044794 0.005516 -0.005036
# 5 0.000243 0.001394 -0.000297 0.005516 0.022445 0.000922
# 6 -0.001208 -0.001430 0.000767 -0.005036 0.000922 0.021730
#
#
# Mechanical properties :
#
#
# Convention : Reuss Voigt Hill
#
# Bulk Modulus (GPa) = 42.12702 77.83938 59.98320
# Shear Modulus (GPa) = 36.99408 48.21911 42.60660
#
# Velocity S-wave (km/s) = 3.62811 4.14213 3.89361
# Velocity P-wave (km/s) = 5.70443 7.11147 6.44645
#
# Compressibility (1/GPa) = 0.02373773
#
# Stress axis : x y z
#
# Youngs Moduli (GPa) = 145.92636 94.20782 73.86195
#
# Poissons Ratio (x) = 0.10543 0.23668
# Poissons Ratio (y) = 0.16331 -0.05090
# Poissons Ratio (z) = 0.46761 -0.06493
#
# Static dielectric constant tensor:
#      x y z
#    x 2.700230 0.156450 -0.132440 
#    y 0.156450 2.587750 0.093160 
#    z -0.132440 0.093160 2.213950 
# 
# From -- ./inp_files/9431.got.cif
#   From: 2010.05.17/outbox.cif.g08.bks.cpg/sg2_5_cif.got.tgz:9431.got - 2010.06.03 11:33:40.
