data_PCOD9039615
_publ_section_title
;
Structure prediction by ZEFSAII (Michael W. Deem and Ramdas Pophale) SiO2 
 PCOD9039615
Probable space group: P -1
;
_chemical_formula_sum "Si O2"
_cell_formula_units_Z 12
_cell_length_a 9.391887
_cell_length_b 6.306169
_cell_length_c 14.582436
_cell_angle_alpha 82.325349
_cell_angle_beta 48.710434
_cell_angle_gamma 61.495914
_cell_volume 548.354423
_symmetry_space_group_name_H-M "P -1"
_symmetry_group_IT_number 2
_symmetry_cell_setting 'triclinic'
loop_
_space_group_symop_operation_xyz
x,y,z
-x,-y,-z
loop_
_atom_site_type_symbol
_atom_site_label
_atom_site_fract_x
_atom_site_fract_y
_atom_site_fract_z
Si Si1 0.230475 0.697515 0.998599
Si Si2 0.615800 0.755546 0.900945
Si Si3 0.680604 0.631717 0.578570
Si Si4 0.948070 0.271523 0.319330
Si Si5 0.014143 0.158545 0.568157
Si Si6 0.192360 0.763336 0.810009
O O1 0.428189 0.755279 0.919320
O O2 0.221049 0.623769 0.902168
O O3 0.284125 0.483333 0.060841
O O4 0.003680 0.951583 0.105636
O O5 0.818409 0.748814 0.763406
O O6 0.500000 0.000000 0.000000
O O7 0.772951 0.466552 0.455510
O O8 0.808588 0.436671 0.619105
O O9 0.421080 0.748294 0.690480
O O10 0.768045 0.822715 0.528581
O O11 0.871630 0.343915 0.243240
O O12 0.985668 0.995203 0.335521
O O13 0.000000 0.000000 0.500000
#
# Coordination Sequence:
#
# PCOD9039615 Si02
#       6
#     2   2   2   2   2   2
#     4  10  26  46  66  98 134 178 225 273 332 395
#     4  11  24  46  72  94 129 183 229 271 321 406
#     4  10  23  42  69  96 137 177 215 281 333 390
#     4  11  24  42  68 103 130 175 228 269 337 394
#     4   9  22  42  64 100 129 177 227 263 325 405
#     4  11  24  45  65 101 141 170 218 281 342 389
#
# _framework density 21.883656999999999
#
# number of rings (size 3 to 8) (size 9 to 14) (size 15 to 20)
#    0.000    1.667    1.667    0.500   11.667    1.333 
#    6.000    0.000    0.000    0.000    0.000    0.000 
#    0.000    0.000    0.000    0.000    0.000    0.000 
#
# Total GULP energy -67121.315843 kJ/mol
# GULP energy per Si atom -5593.442987 kJ/mol
# Density = 2.183385 g / cm^3
# Si number density = 21.883657 Si / 1000 Ang^3
#
#
#
# Elastic Constant Matrix: (Units=GPa)
#
#
# Indices 1 2 3 4 5 6 
#
# 1 83.6515 15.2905 49.6300 8.8561 -7.6193 0.9476
# 2 15.2905 53.8308 28.5621 -4.8467 -14.7436 7.5428
# 3 49.6300 28.5621 131.7256 14.3129 -22.7985 -6.0842
# 4 8.8561 -4.8467 14.3129 21.7577 1.3078 -5.9198
# 5 -7.6193 -14.7436 -22.7985 1.3078 59.2580 -1.5576
# 6 0.9476 7.5428 -6.0842 -5.9198 -1.5576 27.8108
#
#
#
# Elastic Compliance Matrix: (Units=1/GPa)
#
#
# Indices 1 2 3 4 5 6 
#
# 1 0.015843 -0.001866 -0.005311 -0.003902 -0.000438 -0.002051
# 2 -0.001866 0.024256 -0.005049 0.007699 0.003531 -0.005783
# 3 -0.005311 -0.005049 0.012003 -0.006212 0.002895 0.003016
# 4 -0.003902 0.007699 -0.006212 0.055768 -0.001985 0.008445
# 5 -0.000438 0.003531 0.002895 -0.001985 0.018864 0.000325
# 6 -0.002051 -0.005783 0.003016 0.008445 0.000325 0.040071
#
#
# Mechanical properties :
#
#
# Convention : Reuss Voigt Hill
#
# Bulk Modulus (GPa) = 36.16701 50.68594 43.42647
# Shear Modulus (GPa) = 24.94098 33.48031 29.21064
#
# Velocity S-wave (km/s) = 3.37962 3.91567 3.65748
# Velocity P-wave (km/s) = 5.63843 6.60720 6.14195
#
# Compressibility (1/GPa) = 0.02764951
#
# Stress axis : x y z
#
# Youngs Moduli (GPa) = 63.11967 41.22655 83.31454
#
# Poissons Ratio (x) = 0.07694 0.44249
# Poissons Ratio (y) = 0.11779 0.42065
# Poissons Ratio (z) = 0.33523 0.20815
#
# Static dielectric constant tensor:
#      x y z
#    x 1.801220 -0.020890 0.033610 
#    y -0.020890 1.805590 -0.023820 
#    z 0.033610 -0.023820 1.797070 
# 
# From -- ./inp_files/20305.got.cif
#   From: 2010.05.17/outbox.cif.g08.bks.cpg/sg2_11_cif.got.tgz:20305.got - 2010.06.03 11:33:40.
