data_PCOD9039438
_publ_section_title
;
Structure prediction by ZEFSAII (Michael W. Deem and Ramdas Pophale) SiO2 
 PCOD9039438
Probable space group: P -1
;
_chemical_formula_sum "Si O2"
_cell_formula_units_Z 16
_cell_length_a 24.665924
_cell_length_b 9.690700
_cell_length_c 7.810017
_cell_angle_alpha 52.991026
_cell_angle_beta 124.041064
_cell_angle_gamma 153.241371
_cell_volume 669.886938
_symmetry_space_group_name_H-M "P -1"
_symmetry_group_IT_number 2
_symmetry_cell_setting 'triclinic'
loop_
_space_group_symop_operation_xyz
x,y,z
-x,-y,-z
loop_
_atom_site_type_symbol
_atom_site_label
_atom_site_fract_x
_atom_site_fract_y
_atom_site_fract_z
Si Si1 0.036792 0.729406 0.530852
Si Si2 0.561404 0.145160 0.679425
Si Si3 0.310286 0.279329 0.162710
Si Si4 0.885668 0.368999 0.857145
Si Si5 0.116596 0.260648 0.388699
Si Si6 0.694284 0.352498 0.254307
Si Si7 0.718421 0.827049 0.417813
Si Si8 0.401690 0.092817 0.857400
O O1 0.000000 0.500000 0.500000
O O2 0.928429 0.513542 0.631344
O O3 0.087966 0.041753 0.366378
O O4 0.161530 0.917189 0.673351
O O5 0.655543 0.503455 0.551291
O O6 0.500000 0.000000 0.500000
O O7 0.449653 0.948772 0.747621
O O8 0.611332 0.077764 0.889482
O O9 0.264741 0.119524 0.387326
O O10 0.455701 0.585075 0.181512
O O11 0.240750 0.008274 0.105024
O O12 0.273307 0.396500 0.972043
O O13 0.877663 0.530328 0.826607
O O14 0.000000 0.500000 0.000000
O O15 0.229625 0.488366 0.552932
O O16 0.000000 0.000000 0.500000
O O17 0.690628 0.179675 0.250647
O O18 0.635086 0.798033 0.235315
#
# Coordination Sequence:
#
# PCOD9039438 Si02
#       8
#     2   2   2   2   2   2   2   2
#     4  11  24  45  66  98 138 178 229 285 347 408
#     4  11  24  43  64  97 141 178 220 290 351 406
#     4  11  20  40  70  99 133 177 233 289 335 413
#     4  11  24  45  70  98 133 183 236 282 343 415
#     4  10  23  42  68  94 132 180 227 282 339 403
#     4  11  21  42  69  98 133 175 236 284 333 423
#     4  12  23  42  68 100 140 174 228 287 347 405
#     4  11  24  41  70 104 130 183 238 277 346 417
#
# _framework density 23.884626999999998
#
# number of rings (size 3 to 8) (size 9 to 14) (size 15 to 20)
#    0.000    1.000    3.750    4.125    3.500    1.500 
#    4.500    0.625    0.000    0.000    0.000    0.000 
#    0.000    0.000    0.000    0.000    0.000    0.000 
#
# Total GULP energy -89201.973251 kJ/mol
# GULP energy per Si atom -5575.123328 kJ/mol
# Density = 2.383026 g / cm^3
# Si number density = 23.884627 Si / 1000 Ang^3
#
#
#
# Elastic Constant Matrix: (Units=GPa)
#
#
# Indices 1 2 3 4 5 6 
#
# 1 68.3387 32.1595 20.5268 -9.0624 14.7773 -8.0051
# 2 32.1595 158.8939 42.7198 -12.0277 13.3079 -19.6041
# 3 20.5268 42.7198 86.9852 -1.7666 24.9808 -13.7829
# 4 -9.0624 -12.0277 -1.7666 26.0812 -8.3426 4.8824
# 5 14.7773 13.3079 24.9808 -8.3426 26.6188 7.6298
# 6 -8.0051 -19.6041 -13.7829 4.8824 7.6298 37.3897
#
#
#
# Elastic Compliance Matrix: (Units=1/GPa)
#
#
# Indices 1 2 3 4 5 6 
#
# 1 0.018633 -0.002341 0.000787 0.000919 -0.011115 0.005200
# 2 -0.002341 0.008020 -0.003065 0.002349 0.000269 0.002212
# 3 0.000787 -0.003065 0.022833 -0.011154 -0.027876 0.014123
# 4 0.000919 0.002349 -0.011154 0.051209 0.029228 -0.015334
# 5 -0.011115 0.000269 -0.027876 0.029228 0.088800 -0.034452
# 6 0.005200 0.002212 0.014123 -0.015334 -0.034452 0.043257
#
#
# Mechanical properties :
#
#
# Convention : Reuss Voigt Hill
#
# Bulk Modulus (GPa) = 24.84614 56.11444 40.48029
# Shear Modulus (GPa) = 19.57685 32.60539 26.09112
#
# Velocity S-wave (km/s) = 2.86605 3.69876 3.30870
# Velocity P-wave (km/s) = 4.62357 6.46422 5.61976
#
# Compressibility (1/GPa) = 0.04024771
#
# Stress axis : x y z
#
# Youngs Moduli (GPa) = 53.66956 124.69446 43.79667
#
# Poissons Ratio (x) = 0.29188 -0.03448
# Poissons Ratio (y) = 0.12563 0.13424
# Poissons Ratio (z) = -0.04225 0.38221
#
# Static dielectric constant tensor:
#      x y z
#    x 1.635270 -0.155590 0.019190 
#    y -0.155590 1.780280 -0.000530 
#    z 0.019190 -0.000530 1.964010 
# 
# From -- ./inp_files/352054.got.cif
#   From: 2010.05.17/outbox.cif.g08.bks.cpg/sg2_177_cif.got.tgz:352054.got - 2010.06.03 11:33:40.
