data_PCOD9039758
_publ_section_title
;
Structure prediction by ZEFSAII (Michael W. Deem and Ramdas Pophale) SiO2 
 PCOD9039758
Probable space group: P -1
;
_chemical_formula_sum "Si O2"
_cell_formula_units_Z 16
_cell_length_a 26.893785
_cell_length_b 6.258690
_cell_length_c 6.400025
_cell_angle_alpha 108.262802
_cell_angle_beta 112.028015
_cell_angle_gamma 43.794376
_cell_volume 689.583467
_symmetry_space_group_name_H-M "P -1"
_symmetry_group_IT_number 2
_symmetry_cell_setting 'triclinic'
loop_
_space_group_symop_operation_xyz
x,y,z
-x,-y,-z
loop_
_atom_site_type_symbol
_atom_site_label
_atom_site_fract_x
_atom_site_fract_y
_atom_site_fract_z
Si Si1 0.322693 0.249943 0.165558
Si Si2 0.940108 0.501736 0.006152
Si Si3 0.617561 0.625755 0.036424
Si Si4 0.702947 0.706594 0.403411
Si Si5 0.268584 0.008415 0.731493
Si Si6 0.838708 0.023418 0.299172
Si Si7 0.527166 0.467100 0.781315
Si Si8 0.961037 0.008264 0.641919
O O1 0.288229 0.389966 0.376755
O O2 0.399970 0.899226 0.215428
O O3 0.341114 0.425725 0.127426
O O4 0.273555 0.209311 0.953655
O O5 0.923200 0.333819 0.787983
O O6 0.869025 0.844200 0.072935
O O7 0.000000 0.500000 0.000000
O O8 0.978597 0.278615 0.200776
O O9 0.623735 0.851238 0.231487
O O10 0.667222 0.335349 0.183295
O O11 0.548679 0.670086 0.887918
O O12 0.711629 0.944393 0.446135
O O13 0.769499 0.388554 0.293939
O O14 0.191852 0.100939 0.657312
O O15 0.904048 0.977107 0.488369
O O16 0.500000 0.500000 0.500000
O O17 0.500000 0.500000 0.000000
O O18 0.000000 0.000000 0.500000
#
# Coordination Sequence:
#
# PCOD9039758 Si02
#       8
#     2   2   2   2   2   2   2   2
#     4  10  23  44  69  96 140 179 229 292 354 416
#     4  11  25  44  65  92 135 176 223 285 350 421
#     4   9  22  44  66  95 142 175 226 288 354 403
#     4  10  23  42  70  98 129 180 229 287 351 424
#     4   9  22  42  63  96 134 172 225 287 347 411
#     4  11  24  41  68  99 133 173 234 285 353 430
#     4  11  27  43  71 107 144 194 246 296 362 438
#     4  11  25  44  65  95 131 178 221 279 353 417
#
# _framework density 23.202414999999998
#
# number of rings (size 3 to 8) (size 9 to 14) (size 15 to 20)
#    0.000    1.750    1.250    0.375   10.500    4.000 
#    4.500    0.000    0.000    0.000    0.000    0.000 
#    0.000    0.000    0.000    0.000    0.000    0.000 
#
# Total GULP energy -89146.630104 kJ/mol
# GULP energy per Si atom -5571.664382 kJ/mol
# Density = 2.314961 g / cm^3
# Si number density = 23.202415 Si / 1000 Ang^3
#
#
#
# Elastic Constant Matrix: (Units=GPa)
#
#
# Indices 1 2 3 4 5 6 
#
# 1 169.6617 13.4637 54.8230 -1.8024 2.2175 31.7238
# 2 13.4637 68.9726 28.6919 11.8369 -15.2265 5.5066
# 3 54.8230 28.6919 106.0156 2.9164 -4.6633 8.3856
# 4 -1.8024 11.8369 2.9164 35.0662 10.7703 -8.7996
# 5 2.2175 -15.2265 -4.6633 10.7703 42.0774 -6.8457
# 6 31.7238 5.5066 8.3856 -8.7996 -6.8457 36.6719
#
#
#
# Elastic Compliance Matrix: (Units=1/GPa)
#
#
# Indices 1 2 3 4 5 6 
#
# 1 0.008465 0.000235 -0.003960 -0.000496 -0.001797 -0.006907
# 2 0.000235 0.020309 -0.004726 -0.009902 0.008877 -0.002891
# 3 -0.003960 -0.004726 0.012626 0.000712 -0.000055 0.001409
# 4 -0.000496 -0.009902 0.000712 0.037516 -0.011686 0.008574
# 5 -0.001797 0.008877 -0.000055 -0.011686 0.030568 0.003136
# 6 -0.006907 -0.002891 0.001409 0.008574 0.003136 0.035998
#
#
# Mechanical properties :
#
#
# Convention : Reuss Voigt Hill
#
# Bulk Modulus (GPa) = 40.82161 59.84525 50.33343
# Shear Modulus (GPa) = 29.31690 39.27453 34.29572
#
# Velocity S-wave (km/s) = 3.55847 4.11870 3.84879
# Velocity P-wave (km/s) = 5.87499 6.96182 6.44137
#
# Compressibility (1/GPa) = 0.02449683
#
# Stress axis : x y z
#
# Youngs Moduli (GPa) = 118.13811 49.24010 79.20181
#
# Poissons Ratio (x) = -0.01157 0.31363
# Poissons Ratio (y) = -0.02775 0.37433
# Poissons Ratio (z) = 0.46782 0.23272
#
# Static dielectric constant tensor:
#      x y z
#    x 1.893060 0.001900 -0.027080 
#    y 0.001900 1.915440 -0.018050 
#    z -0.027080 -0.018050 1.991660 
# 
# From -- ./inp_files/125880.got.cif
#   From: 2010.05.17/outbox.cif.g08.bks.cpg/sg2_63_cif.got.tgz:125880.got - 2010.06.03 11:33:40.
