data_PCOD9039196
_publ_section_title
;
Structure prediction by ZEFSAII (Michael W. Deem and Ramdas Pophale) SiO2 
 PCOD9039196
Probable space group: P -1
;
_chemical_formula_sum "Si O2"
_cell_formula_units_Z 16
_cell_length_a 8.609911
_cell_length_b 6.501218
_cell_length_c 19.436135
_cell_angle_alpha 94.547741
_cell_angle_beta 42.475777
_cell_angle_gamma 96.737028
_cell_volume 729.544387
_symmetry_space_group_name_H-M "P -1"
_symmetry_group_IT_number 2
_symmetry_cell_setting 'triclinic'
loop_
_space_group_symop_operation_xyz
x,y,z
-x,-y,-z
loop_
_atom_site_type_symbol
_atom_site_label
_atom_site_fract_x
_atom_site_fract_y
_atom_site_fract_z
Si Si1 0.436289 0.671755 0.972402
Si Si2 0.048009 0.879741 0.667978
Si Si3 0.546508 0.671789 0.786631
Si Si4 0.590229 0.406396 0.396924
Si Si5 0.159536 0.973242 0.880739
Si Si6 0.140156 0.988912 0.137542
Si Si7 0.240653 0.022996 0.464032
Si Si8 0.559166 0.689454 0.289151
O O1 0.437694 0.587749 0.892376
O O2 0.634025 0.862938 0.912847
O O3 0.500000 0.500000 0.000000
O O4 0.214209 0.780929 0.072946
O O5 0.192885 0.715006 0.654863
O O6 0.801295 0.780640 0.718984
O O7 0.999564 0.044261 0.747215
O O8 0.187470 0.968219 0.559367
O O9 0.368781 0.834880 0.824331
O O10 0.565980 0.490028 0.721439
O O11 0.500000 0.500000 0.500000
O O12 0.390413 0.244288 0.424717
O O13 0.651255 0.575958 0.322764
O O14 0.995319 0.884064 0.870517
O O15 0.263744 0.186526 0.817369
O O16 0.000000 0.000000 0.000000
O O17 0.396042 0.856802 0.375525
O O18 0.000000 0.000000 0.500000
#
# Coordination Sequence:
#
# PCOD9039196 Si02
#       8
#     2   2   2   2   2   2   2   2
#     4  10  23  42  67 100 138 182 242 299 360 426
#     4  11  24  47  75 103 152 190 240 301 364 434
#     4  11  26  46  68 111 141 194 246 295 368 440
#     4  12  27  48  75 111 148 191 251 295 363 437
#     4  12  26  47  73 102 145 191 241 304 368 438
#     4  10  23  43  68  96 142 183 236 297 359 426
#     4  12  27  47  75 112 152 194 240 300 367 434
#     4  12  27  46  74 103 152 191 240 303 365 433
#
# _framework density 21.931495999999999
#
# number of rings (size 3 to 8) (size 9 to 14) (size 15 to 20)
#    0.000    0.750    2.500    4.125    5.250    5.500 
#    0.000    0.000    0.000    0.000    0.000    0.000 
#    0.000    0.000    0.000    0.000    0.000    0.000 
#
# Total GULP energy -89474.702179 kJ/mol
# GULP energy per Si atom -5592.168886 kJ/mol
# Density = 2.188158 g / cm^3
# Si number density = 21.931496 Si / 1000 Ang^3
#
#
#
# Elastic Constant Matrix: (Units=GPa)
#
#
# Indices 1 2 3 4 5 6 
#
# 1 116.2297 42.4600 57.5506 4.9696 5.5559 -6.7649
# 2 42.4600 94.7167 64.1959 -3.8159 6.6481 -5.1613
# 3 57.5506 64.1959 151.8398 -5.3699 24.3485 2.4936
# 4 4.9696 -3.8159 -5.3699 22.4841 -8.7675 14.7217
# 5 5.5559 6.6481 24.3485 -8.7675 54.5616 2.1502
# 6 -6.7649 -5.1613 2.4936 14.7217 2.1502 40.7523
#
#
#
# Elastic Compliance Matrix: (Units=1/GPa)
#
#
# Indices 1 2 3 4 5 6 
#
# 1 0.012043 -0.003018 -0.003516 -0.007172 -0.000617 0.004455
# 2 -0.003018 0.015817 -0.005686 0.001656 0.001137 0.001192
# 3 -0.003516 -0.005686 0.011001 0.003085 -0.003247 -0.002920
# 4 -0.007172 0.001656 0.003085 0.068939 0.011281 -0.026669
# 5 -0.000617 0.001137 -0.003247 0.011281 0.021710 -0.004980
# 6 0.004455 0.001192 -0.002920 -0.026669 -0.004980 0.035505
#
#
# Mechanical properties :
#
#
# Convention : Reuss Voigt Hill
#
# Bulk Modulus (GPa) = 69.35621 76.79990 73.07805
# Shear Modulus (GPa) = 25.73840 36.79825 31.26832
#
# Velocity S-wave (km/s) = 3.42947 4.10063 3.77998
# Velocity P-wave (km/s) = 6.88291 7.58382 7.24185
#
# Compressibility (1/GPa) = 0.01441832
#
# Stress axis : x y z
#
# Youngs Moduli (GPa) = 83.03774 63.22398 90.90446
#
# Poissons Ratio (x) = 0.19082 0.31964
# Poissons Ratio (y) = 0.25063 0.51693
# Poissons Ratio (z) = 0.29198 0.35952
#
# Static dielectric constant tensor:
#      x y z
#    x 1.826150 0.026710 -0.023110 
#    y 0.026710 1.815860 -0.029910 
#    z -0.023110 -0.029910 1.845370 
# 
# From -- ./inp_files/585676.got.cif
#   From: 2010.05.17/outbox.cif.g08.bks.cpg/sg2_293_cif.got.tgz:585676.got - 2010.06.03 11:33:40.
