data_PCOD9039833
_publ_section_title
;
Structure prediction by ZEFSAII (Michael W. Deem and Ramdas Pophale) SiO2 
 PCOD9039833
Probable space group: P -1
;
_chemical_formula_sum "Si O2"
_cell_formula_units_Z 16
_cell_length_a 11.875209
_cell_length_b 9.383743
_cell_length_c 17.225015
_cell_angle_alpha 47.388593
_cell_angle_beta 28.475920
_cell_angle_gamma 45.952573
_cell_volume 645.524497
_symmetry_space_group_name_H-M "P -1"
_symmetry_group_IT_number 2
_symmetry_cell_setting 'triclinic'
loop_
_space_group_symop_operation_xyz
x,y,z
-x,-y,-z
loop_
_atom_site_type_symbol
_atom_site_label
_atom_site_fract_x
_atom_site_fract_y
_atom_site_fract_z
Si Si1 0.923513 0.791084 0.222481
Si Si2 0.023858 0.750098 0.759094
Si Si3 0.724099 0.609729 0.872050
Si Si4 0.258191 0.975429 0.050500
Si Si5 0.207039 0.271372 0.378608
Si Si6 0.459548 0.834756 0.393980
Si Si7 0.311201 0.396237 0.800709
Si Si8 0.306893 0.426370 0.421964
O O1 0.710153 0.871573 0.259570
O O2 0.791534 0.684777 0.406748
O O3 0.151989 0.628208 0.101862
O O4 0.037379 0.942499 0.144085
O O5 0.290742 0.783970 0.581558
O O6 0.056820 0.554671 0.866943
O O7 0.932734 0.701242 0.748778
O O8 0.839147 0.949130 0.833224
O O9 0.707754 0.617977 0.785701
O O10 0.473694 0.764418 0.998411
O O11 0.320675 0.172204 0.905781
O O12 0.325699 0.299294 0.378551
O O13 0.916942 0.369571 0.529264
O O14 0.286179 0.041440 0.389241
O O15 0.528163 0.657869 0.355685
O O16 0.449311 0.510925 0.731305
#
# Coordination Sequence:
#
# PCOD9039833 Si02
#       8
#     2   2   2   2   2   2   2   2
#     4  11  24  47  75 105 144 186 241 294 351 425
#     4  12  26  46  74 106 146 188 235 297 354 424
#     4  11  24  50  69 101 146 192 236 287 354 433
#     4  12  28  47  69 108 146 191 234 288 366 420
#     4  10  23  42  71 107 136 189 237 295 345 417
#     4  12  23  44  78 107 138 189 243 292 353 418
#     4  12  25  48  71 110 141 186 237 297 359 413
#     4  10  23  45  72 105 146 180 239 298 349 416
#
# _framework density 24.786042999999999
#
# number of rings (size 3 to 8) (size 9 to 14) (size 15 to 20)
#    0.000    0.750    3.750    3.750    3.500    2.500 
#    9.000    0.000    0.000    0.000    0.000    0.000 
#    0.000    0.000    0.000    0.000    0.000    0.000 
#
# Total GULP energy -89495.947038 kJ/mol
# GULP energy per Si atom -5593.496690 kJ/mol
# Density = 2.472963 g / cm^3
# Si number density = 24.786043 Si / 1000 Ang^3
#
#
#
# Elastic Constant Matrix: (Units=GPa)
#
#
# Indices 1 2 3 4 5 6 
#
# 1 60.2174 -7.5561 8.6806 7.8993 -17.4422 11.7733
# 2 -7.5561 99.2067 13.8823 21.9543 5.5530 0.6042
# 3 8.6806 13.8823 62.4114 0.8050 -17.7814 1.6020
# 4 7.8993 21.9543 0.8050 37.6386 8.6681 6.8095
# 5 -17.4422 5.5530 -17.7814 8.6681 30.1352 -1.4708
# 6 11.7733 0.6042 1.6020 6.8095 -1.4708 35.5680
#
#
#
# Elastic Compliance Matrix: (Units=1/GPa)
#
#
# Indices 1 2 3 4 5 6 
#
# 1 0.023877 0.002907 0.000939 -0.009484 0.016298 -0.005506
# 2 0.002907 0.012491 -0.003147 -0.007869 -0.000190 0.000466
# 3 0.000939 -0.003147 0.020554 -0.001934 0.013796 -0.000242
# 4 -0.009484 -0.007869 -0.001934 0.037757 -0.016263 -0.004541
# 5 0.016298 -0.000190 0.013796 -0.016263 0.055441 -0.000607
# 6 -0.005506 0.000466 -0.000242 -0.004541 -0.000607 0.030785
#
#
# Mechanical properties :
#
#
# Convention : Reuss Voigt Hill
#
# Bulk Modulus (GPa) = 17.14647 27.98323 22.56485
# Shear Modulus (GPa) = 25.13237 34.45697 29.79467
#
# Velocity S-wave (km/s) = 3.18775 3.73255 3.47086
# Velocity P-wave (km/s) = 4.52568 5.46721 5.01857
#
# Compressibility (1/GPa) = 0.05832106
#
# Stress axis : x y z
#
# Youngs Moduli (GPa) = 41.88082 80.05713 48.65266
#
# Poissons Ratio (x) = -0.23275 -0.04570
# Poissons Ratio (y) = -0.12176 0.15312
# Poissons Ratio (z) = -0.03934 0.25196
#
# Static dielectric constant tensor:
#      x y z
#    x 1.955690 -0.059620 0.070640 
#    y -0.059620 1.906570 -0.015050 
#    z 0.070640 -0.015050 2.053320 
# 
# From -- ./inp_files/226681.got.cif
#   From: 2010.05.17/outbox.cif.g08.bks.cpg/sg2_114_cif.got.tgz:226681.got - 2010.06.03 11:33:40.
