data_PCOD9039313
_publ_section_title
;
Structure prediction by ZEFSAII (Michael W. Deem and Ramdas Pophale) SiO2 
 PCOD9039313
Probable space group: P -1
;
_chemical_formula_sum "Si O2"
_cell_formula_units_Z 16
_cell_length_a 9.131998
_cell_length_b 7.979493
_cell_length_c 17.210508
_cell_angle_alpha 135.351091
_cell_angle_beta 60.845274
_cell_angle_gamma 127.828057
_cell_volume 693.200683
_symmetry_space_group_name_H-M "P -1"
_symmetry_group_IT_number 2
_symmetry_cell_setting 'triclinic'
loop_
_space_group_symop_operation_xyz
x,y,z
-x,-y,-z
loop_
_atom_site_type_symbol
_atom_site_label
_atom_site_fract_x
_atom_site_fract_y
_atom_site_fract_z
Si Si1 0.343800 0.188475 0.778958
Si Si2 0.148386 0.022831 0.282813
Si Si3 0.097288 0.726059 0.612504
Si Si4 0.481620 0.021540 0.832200
Si Si5 0.877453 0.525158 0.262954
Si Si6 0.566568 0.783461 0.938441
Si Si7 0.019581 0.105788 0.118230
Si Si8 0.275014 0.372085 0.519548
O O1 0.441987 0.497388 0.841425
O O2 0.272978 0.016712 0.661908
O O3 0.478457 0.111301 0.773658
O O4 0.158767 0.087589 0.848566
O O5 0.336393 0.014445 0.206741
O O6 0.193316 0.152185 0.401110
O O7 0.073069 0.193750 0.307224
O O8 0.989626 0.724897 0.232373
O O9 0.194489 0.587004 0.594733
O O10 0.000000 0.500000 0.500000
O O11 0.305952 0.738940 0.796515
O O12 0.463266 0.227752 0.964228
O O13 0.808516 0.696154 0.394843
O O14 0.012341 0.392313 0.214627
O O15 0.783212 0.872030 0.898396
O O16 0.500000 0.000000 0.000000
O O17 0.000000 0.000000 0.000000
O O18 0.500000 0.500000 0.500000
#
# Coordination Sequence:
#
# PCOD9039313 Si02
#       8
#     2   2   2   2   2   2   2   2
#     4  11  23  45  68  90 136 178 221 269 333 391
#     4  11  24  38  67  94 132 165 217 273 334 374
#     4  10  23  42  67  97 130 172 217 273 336 381
#     4  11  23  43  66  96 129 175 221 266 321 403
#     4  11  22  40  69  91 127 168 225 254 327 392
#     4  12  28  41  65 103 136 172 225 273 335 391
#     4  11  23  42  68  94 133 175 226 269 316 405
#     4  11  20  43  67  93 127 172 217 271 318 398
#
# _framework density 23.081340000000001
#
# number of rings (size 3 to 8) (size 9 to 14) (size 15 to 20)
#    0.000    1.000    6.250    1.500    5.250    0.500 
#    0.000    0.625    2.750    0.000    0.000    0.000 
#    0.000    0.000    0.000    0.000    0.000    0.000 
#
# Total GULP energy -89211.824791 kJ/mol
# GULP energy per Si atom -5575.739049 kJ/mol
# Density = 2.302881 g / cm^3
# Si number density = 23.081340 Si / 1000 Ang^3
#
#
#
# Elastic Constant Matrix: (Units=GPa)
#
#
# Indices 1 2 3 4 5 6 
#
# 1 150.3627 47.9004 24.1489 -4.6164 -32.4319 9.8397
# 2 47.9004 79.3272 17.6795 19.5921 -18.8548 11.8208
# 3 24.1489 17.6795 97.7828 1.5170 4.3267 6.9718
# 4 -4.6164 19.5921 1.5170 34.7847 12.7139 -4.0248
# 5 -32.4319 -18.8548 4.3267 12.7139 56.5067 -0.7765
# 6 9.8397 11.8208 6.9718 -4.0248 -0.7765 24.9575
#
#
#
# Elastic Compliance Matrix: (Units=1/GPa)
#
#
# Indices 1 2 3 4 5 6 
#
# 1 0.009357 -0.005407 -0.001508 0.003266 0.002945 -0.000088
# 2 -0.005407 0.025590 -0.002551 -0.020079 0.009980 -0.012203
# 3 -0.001508 -0.002551 0.011248 0.001700 -0.002976 -0.001158
# 4 0.003266 -0.020079 0.001700 0.047818 -0.015509 0.014977
# 5 0.002945 0.009980 -0.002976 -0.015509 0.026342 -0.006738
# 6 -0.000088 -0.012203 -0.001158 0.014977 -0.006738 0.048412
#
#
# Mechanical properties :
#
#
# Convention : Reuss Voigt Hill
#
# Bulk Modulus (GPa) = 36.68172 56.32561 46.50366
# Shear Modulus (GPa) = 25.40815 39.09937 32.25376
#
# Velocity S-wave (km/s) = 3.32144 4.12027 3.74223
# Velocity P-wave (km/s) = 5.53500 6.86233 6.23409
#
# Compressibility (1/GPa) = 0.02726154
#
# Stress axis : x y z
#
# Youngs Moduli (GPa) = 106.87548 39.07836 88.90259
#
# Poissons Ratio (x) = 0.21131 0.13405
# Poissons Ratio (y) = 0.57792 0.22682
# Poissons Ratio (z) = 0.16115 0.09970
#
# Static dielectric constant tensor:
#      x y z
#    x 1.895460 -0.114680 0.038970 
#    y -0.114680 1.887350 -0.095800 
#    z 0.038970 -0.095800 1.887870 
# 
# From -- ./inp_files/501283.got.cif
#   From: 2010.05.17/outbox.cif.g08.bks.cpg/sg2_251_cif.got.tgz:501283.got - 2010.06.03 11:33:40.
