data_PCOD9039781
_publ_section_title
;
Structure prediction by ZEFSAII (Michael W. Deem and Ramdas Pophale) SiO2 
 PCOD9039781
Probable space group: P -1
;
_chemical_formula_sum "Si O2"
_cell_formula_units_Z 14
_cell_length_a 20.049453
_cell_length_b 5.818592
_cell_length_c 6.827420
_cell_angle_alpha 93.452392
_cell_angle_beta 135.238093
_cell_angle_gamma 86.871677
_cell_volume 559.757062
_symmetry_space_group_name_H-M "P -1"
_symmetry_group_IT_number 2
_symmetry_cell_setting 'triclinic'
loop_
_space_group_symop_operation_xyz
x,y,z
-x,-y,-z
loop_
_atom_site_type_symbol
_atom_site_label
_atom_site_fract_x
_atom_site_fract_y
_atom_site_fract_z
Si Si1 0.181496 0.980851 0.551413
Si Si2 0.650394 0.688229 0.157518
Si Si3 0.865021 0.318182 0.207681
Si Si4 0.443229 0.687197 0.265032
Si Si5 0.032933 0.354795 0.252701
Si Si6 0.449752 0.940235 0.668340
Si Si7 0.276665 0.657067 0.426606
O O1 0.273620 0.139345 0.757032
O O2 0.094448 0.135967 0.299931
O O3 0.155289 0.899761 0.709718
O O4 0.204841 0.772672 0.439764
O O5 0.545939 0.802179 0.924776
O O6 0.685776 0.591061 0.434289
O O7 0.642365 0.446539 0.012992
O O8 0.899637 0.502959 0.449992
O O9 0.947079 0.287948 0.214103
O O10 0.773426 0.374651 0.887774
O O11 0.500000 0.500000 0.500000
O O12 0.512538 0.801404 0.258951
O O13 0.417427 0.882821 0.376199
O O14 0.000000 0.500000 0.000000
O O15 0.362888 0.838321 0.601843
#
# Coordination Sequence:
#
# PCOD9039781 Si02
#       7
#     2   2   2   2   2   2   2
#     4  12  27  45  74 110 151 187 246 305 374 438
#     4  11  24  44  69 104 150 205 250 306 356 431
#     4  11  27  48  77 111 144 190 239 303 378 446
#     4   9  21  40  68 100 135 197 256 312 354 419
#     4  11  26  53  83 107 144 185 241 303 377 455
#     4  10  23  42  71 100 149 203 257 302 361 421
#     4  12  28  44  72 111 151 195 252 304 366 436
#
# _framework density 25.010849
#
# number of rings (size 3 to 8) (size 9 to 14) (size 15 to 20)
#    0.000    1.143    0.000    4.286   10.000   10.286 
#    0.000    0.000    0.000    0.000    0.000    0.000 
#    0.000    0.000    0.000    0.000    0.000    0.000 
#
# Total GULP energy -78367.800440 kJ/mol
# GULP energy per Si atom -5597.700031 kJ/mol
# Density = 2.495392 g / cm^3
# Si number density = 25.010849 Si / 1000 Ang^3
#
#
#
# Elastic Constant Matrix: (Units=GPa)
#
#
# Indices 1 2 3 4 5 6 
#
# 1 165.5917 63.7972 50.5691 -15.2228 -7.5645 22.1941
# 2 63.7972 112.1794 55.5907 -31.9365 1.7786 23.6116
# 3 50.5691 55.5907 174.3968 -24.1846 8.1746 15.0875
# 4 -15.2228 -31.9365 -24.1846 56.0174 4.9746 8.8533
# 5 -7.5645 1.7786 8.1746 4.9746 39.9252 -0.9643
# 6 22.1941 23.6116 15.0875 8.8533 -0.9643 50.5820
#
#
#
# Elastic Compliance Matrix: (Units=1/GPa)
#
#
# Indices 1 2 3 4 5 6 
#
# 1 0.008130 -0.003978 -0.001150 -0.000537 0.001990 -0.001235
# 2 -0.003978 0.016048 -0.002119 0.008400 -0.002241 -0.006627
# 3 -0.001150 -0.002119 0.007182 0.001906 -0.001856 -0.001018
# 4 -0.000537 0.008400 0.001906 0.025069 -0.004200 -0.008722
# 5 0.001990 -0.002241 -0.001856 -0.004200 0.026475 0.001967
# 6 -0.001235 -0.006627 -0.001018 -0.008722 0.001967 0.025273
#
#
# Mechanical properties :
#
#
# Convention : Reuss Voigt Hill
#
# Bulk Modulus (GPa) = 59.28835 88.00909 73.64872
# Shear Modulus (GPa) = 38.97315 48.11898 43.54607
#
# Velocity S-wave (km/s) = 3.95175 4.39101 4.17716
# Velocity P-wave (km/s) = 6.67670 7.80851 7.26468
#
# Compressibility (1/GPa) = 0.01686672
#
# Stress axis : x y z
#
# Youngs Moduli (GPa) = 123.00262 62.31179 139.23060
#
# Poissons Ratio (x) = 0.24786 0.16015
# Poissons Ratio (y) = 0.48928 0.29501
# Poissons Ratio (z) = 0.14148 0.13203
#
# Static dielectric constant tensor:
#      x y z
#    x 2.029510 -0.054590 -0.043820 
#    y -0.054590 2.011520 0.073310 
#    z -0.043820 0.073310 2.009610 
# 
# From -- ./inp_files/114848.got.cif
#   From: 2010.05.17/outbox.cif.g08.bks.cpg/sg2_58_cif.got.tgz:114848.got - 2010.06.03 11:33:40.
