data_PCOD9039321
_publ_section_title
;
Structure prediction by ZEFSAII (Michael W. Deem and Ramdas Pophale) SiO2 
 PCOD9039321
Probable space group: P -1
;
_chemical_formula_sum "Si O2"
_cell_formula_units_Z 12
_cell_length_a 12.897612
_cell_length_b 8.263751
_cell_length_c 7.241107
_cell_angle_alpha 124.997742
_cell_angle_beta 61.200093
_cell_angle_gamma 115.726008
_cell_volume 540.473958
_symmetry_space_group_name_H-M "P -1"
_symmetry_group_IT_number 2
_symmetry_cell_setting 'triclinic'
loop_
_space_group_symop_operation_xyz
x,y,z
-x,-y,-z
loop_
_atom_site_type_symbol
_atom_site_label
_atom_site_fract_x
_atom_site_fract_y
_atom_site_fract_z
Si Si1 0.737432 0.180733 0.310292
Si Si2 0.866255 0.863715 0.067198
Si Si3 0.656147 0.129682 0.769503
Si Si4 0.466133 0.712076 0.709005
Si Si5 0.902237 0.096225 0.548571
Si Si6 0.999988 0.466982 0.201979
O O1 0.688677 0.186192 0.566049
O O2 0.640186 0.245199 0.304087
O O3 0.868691 0.331566 0.275270
O O4 0.767196 0.956336 0.102565
O O5 0.846612 0.933123 0.336437
O O6 0.890324 0.640690 0.906668
O O7 0.000000 0.000000 0.000000
O O8 0.783452 0.140792 0.775371
O O9 0.577641 0.901961 0.704220
O O10 0.581599 0.271331 0.030849
O O11 0.500000 0.500000 0.500000
O O12 0.976563 0.318212 0.574833
O O13 0.000000 0.000000 0.500000
O O14 0.000000 0.500000 0.000000
#
# Coordination Sequence:
#
# PCOD9039321 Si02
#       6
#     2   2   2   2   2   2
#     4  10  23  42  67  97 136 172 222 278 327 390
#     4   9  21  38  57  93 132 169 207 261 326 385
#     4  10  25  45  63  99 133 170 227 273 333 390
#     4  11  25  46  72  92 127 181 228 276 328 392
#     4  11  22  37  65  96 133 165 210 271 322 393
#     4  11  21  38  66  99 134 179 216 258 335 397
#
# _framework density 22.202736999999999
#
# number of rings (size 3 to 8) (size 9 to 14) (size 15 to 20)
#    0.000    1.667    1.667    1.500    4.667    9.333 
#    0.000    8.333    0.000    0.000    0.000    0.000 
#    0.000    0.000    0.000    0.000    0.000    0.000 
#
# Total GULP energy -66963.861844 kJ/mol
# GULP energy per Si atom -5580.321820 kJ/mol
# Density = 2.215220 g / cm^3
# Si number density = 22.202737 Si / 1000 Ang^3
#
#
#
# Elastic Constant Matrix: (Units=GPa)
#
#
# Indices 1 2 3 4 5 6 
#
# 1 103.1134 32.1077 20.7991 8.7939 -27.0983 -13.8429
# 2 32.1077 98.1000 65.7387 7.2316 -18.2371 -4.9164
# 3 20.7991 65.7387 122.5598 -1.7263 -18.1570 -15.1433
# 4 8.7939 7.2316 -1.7263 60.0911 -12.7930 -8.8524
# 5 -27.0983 -18.2371 -18.1570 -12.7930 34.8147 2.2051
# 6 -13.8429 -4.9164 -15.1433 -8.8524 2.2051 38.0672
#
#
#
# Elastic Compliance Matrix: (Units=1/GPa)
#
#
# Indices 1 2 3 4 5 6 
#
# 1 0.013587 -0.003631 0.001705 0.001288 0.009726 0.004886
# 2 -0.003631 0.017712 -0.009147 -0.002101 0.001113 -0.003225
# 3 0.001705 -0.009147 0.014203 0.003080 0.004724 0.005531
# 4 0.001288 -0.002101 0.003080 0.019358 0.008277 0.005445
# 5 0.009726 0.001113 0.004724 0.008277 0.042063 0.005048
# 6 0.004886 -0.003225 0.005531 0.005445 0.005048 0.030804
#
#
# Mechanical properties :
#
#
# Convention : Reuss Voigt Hill
#
# Bulk Modulus (GPa) = 42.81799 62.34048 52.57923
# Shear Modulus (GPa) = 29.82228 40.26980 35.04604
#
# Velocity S-wave (km/s) = 3.66892 4.26341 3.97729
# Velocity P-wave (km/s) = 6.10531 7.23701 6.69512
#
# Compressibility (1/GPa) = 0.02335467
#
# Stress axis : x y z
#
# Youngs Moduli (GPa) = 73.59910 56.45812 70.40718
#
# Poissons Ratio (x) = 0.20502 -0.12003
# Poissons Ratio (y) = 0.26726 0.64404
# Poissons Ratio (z) = -0.12547 0.51644
#
# Static dielectric constant tensor:
#      x y z
#    x 3.489510 -1.633450 2.251820 
#    y -1.633450 3.423040 -2.264970 
#    z 2.251820 -2.264970 5.113420 
# 
# From -- ./inp_files/179530.got.cif
#   From: 2010.05.17/outbox.cif.g08.bks.cpg/sg2_90_cif.got.tgz:179530.got - 2010.06.03 11:33:40.
