data_PCOD9039708
_publ_section_title
;
Structure prediction by ZEFSAII (Michael W. Deem and Ramdas Pophale) SiO2 
 PCOD9039708
Probable space group: P -1
;
_chemical_formula_sum "Si O2"
_cell_formula_units_Z 14
_cell_length_a 16.927735
_cell_length_b 5.187071
_cell_length_c 9.381754
_cell_angle_alpha 75.129670
_cell_angle_beta 50.803576
_cell_angle_gamma 70.508035
_cell_volume 600.637481
_symmetry_space_group_name_H-M "P -1"
_symmetry_group_IT_number 2
_symmetry_cell_setting 'triclinic'
loop_
_space_group_symop_operation_xyz
x,y,z
-x,-y,-z
loop_
_atom_site_type_symbol
_atom_site_label
_atom_site_fract_x
_atom_site_fract_y
_atom_site_fract_z
Si Si1 0.064397 0.992667 0.733836
Si Si2 0.101935 0.265823 0.385824
Si Si3 0.700482 0.502795 0.893439
Si Si4 0.608119 0.536444 0.685104
Si Si5 0.182385 0.382494 0.715586
Si Si6 0.839096 0.973518 0.950381
Si Si7 0.486342 0.095176 0.837808
O O1 0.111339 0.685740 0.774793
O O2 0.939674 0.069251 0.885597
O O3 0.092671 0.011671 0.531194
O O4 0.119679 0.209616 0.714078
O O5 0.206483 0.365769 0.287954
O O6 0.112107 0.197625 0.218691
O O7 0.000000 0.500000 0.500000
O O8 0.636375 0.460362 0.830395
O O9 0.752306 0.225731 0.954504
O O10 0.629275 0.712579 0.054870
O O11 0.710585 0.586470 0.484030
O O12 0.566095 0.292488 0.696310
O O13 0.519429 0.820336 0.747657
O O14 0.201668 0.214039 0.863750
O O15 0.500000 0.000000 0.000000
#
# Coordination Sequence:
#
# PCOD9039708 Si02
#       7
#     2   2   2   2   2   2   2
#     4  12  25  47  69  99 142 189 234 275 339 417
#     4  12  25  44  69 106 138 178 234 290 343 404
#     4  11  24  41  72  99 137 175 229 292 344 397
#     4  11  23  45  69 102 133 179 235 280 343 411
#     4  12  27  46  71  99 144 191 227 279 344 417
#     4  12  28  42  69 104 144 181 232 282 349 412
#     4  10  23  42  70 104 131 173 233 291 339 402
#
# _framework density 23.30857
#
# number of rings (size 3 to 8) (size 9 to 14) (size 15 to 20)
#    0.000    0.571    2.857    5.571   10.000    0.000 
#    0.000    1.429    0.000    0.000    0.000    0.000 
#    0.000    0.000    0.000    0.000    0.000    0.000 
#
# Total GULP energy -78482.529019 kJ/mol
# GULP energy per Si atom -5605.894930 kJ/mol
# Density = 2.325552 g / cm^3
# Si number density = 23.308570 Si / 1000 Ang^3
#
#
#
# Elastic Constant Matrix: (Units=GPa)
#
#
# Indices 1 2 3 4 5 6 
#
# 1 48.7749 39.6093 44.3164 1.5227 -23.0345 -2.4264
# 2 39.6093 153.7740 56.1353 -7.8920 -7.5053 -20.4198
# 3 44.3164 56.1353 113.7317 -19.7640 0.4860 -15.0447
# 4 1.5227 -7.8920 -19.7640 44.8526 1.5506 -5.0903
# 5 -23.0345 -7.5053 0.4860 1.5506 32.9307 -0.6220
# 6 -2.4264 -20.4198 -15.0447 -5.0903 -0.6220 44.2210
#
#
#
# Elastic Compliance Matrix: (Units=1/GPa)
#
#
# Indices 1 2 3 4 5 6 
#
# 1 0.095653 -0.010553 -0.038877 -0.026213 0.066029 -0.014940
# 2 -0.010553 0.009486 0.000521 0.002921 -0.005285 0.004240
# 3 -0.038877 0.000521 0.027696 0.015599 -0.028050 0.008931
# 4 -0.026213 0.002921 0.015599 0.032221 -0.019254 0.008656
# 5 0.066029 -0.005285 -0.028050 -0.019254 0.076489 -0.009501
# 6 -0.014940 0.004240 0.008931 0.008656 -0.009501 0.027653
#
#
# Mechanical properties :
#
#
# Convention : Reuss Voigt Hill
#
# Bulk Modulus (GPa) = 28.55689 66.26696 47.41192
# Shear Modulus (GPa) = 13.20341 36.14883 24.67612
#
# Velocity S-wave (km/s) = 2.38263 3.94240 3.25725
# Velocity P-wave (km/s) = 4.45505 7.01536 5.87634
#
# Compressibility (1/GPa) = 0.03501782
#
# Stress axis : x y z
#
# Youngs Moduli (GPa) = 10.45440 105.41661 36.10590
#
# Poissons Ratio (x) = 1.11245 1.40369
# Poissons Ratio (y) = 0.11032 -0.01881
# Poissons Ratio (z) = 0.40644 -0.05492
#
# Static dielectric constant tensor:
#      x y z
#    x 1.942180 0.001450 0.007740 
#    y 0.001450 1.875710 0.013250 
#    z 0.007740 0.013250 1.852730 
# 
# From -- ./inp_files/323404.got.cif
#   From: 2010.05.17/outbox.cif.g08.bks.cpg/sg2_162_cif.got.tgz:323404.got - 2010.06.03 11:33:40.
