data_PCOD9039598
_publ_section_title
;
Structure prediction by ZEFSAII (Michael W. Deem and Ramdas Pophale) SiO2 
 PCOD9039598
Probable space group: P -1
;
_chemical_formula_sum "Si O2"
_cell_formula_units_Z 12
_cell_length_a 13.458523
_cell_length_b 14.009808
_cell_length_c 11.325602
_cell_angle_alpha 32.537639
_cell_angle_beta 134.297905
_cell_angle_gamma 150.194679
_cell_volume 566.497573
_symmetry_space_group_name_H-M "P -1"
_symmetry_group_IT_number 2
_symmetry_cell_setting 'triclinic'
loop_
_space_group_symop_operation_xyz
x,y,z
-x,-y,-z
loop_
_atom_site_type_symbol
_atom_site_label
_atom_site_fract_x
_atom_site_fract_y
_atom_site_fract_z
Si Si1 0.786613 0.773442 0.848877
Si Si2 0.839782 0.080776 0.024525
Si Si3 0.068522 0.747561 0.643184
Si Si4 0.114709 0.531361 0.451239
Si Si5 0.316067 0.337451 0.857385
Si Si6 0.274740 0.819326 0.959886
O O1 0.555074 0.545323 0.857710
O O2 0.895588 0.012757 0.601935
O O3 0.784250 0.823061 0.934994
O O4 0.921314 0.722799 0.002814
O O5 0.758478 0.185695 0.787928
O O6 0.804301 0.085280 0.128155
O O7 0.745677 0.831723 0.132648
O O8 0.049625 0.657454 0.589615
O O9 0.863640 0.481022 0.810800
O O10 0.242243 0.833780 0.781231
O O11 0.241893 0.471392 0.640168
O O12 0.000000 0.500000 0.500000
O O13 0.500000 0.000000 0.000000
#
# Coordination Sequence:
#
# PCOD9039598 Si02
#       6
#     2   2   2   2   2   2
#     4  11  23  42  66  99 140 172 219 273 334 399
#     4  11  23  42  69  94 134 179 219 281 332 385
#     4  10  23  42  69  93 136 171 221 285 322 391
#     4  11  21  41  71  97 137 180 215 275 340 393
#     4  11  24  43  64 106 140 173 221 267 329 419
#     4  10  25  46  68  99 129 176 236 279 333 394
#
# _framework density 21.182791999999999
#
# number of rings (size 3 to 8) (size 9 to 14) (size 15 to 20)
#    0.000    1.333    3.333    1.500    4.667    4.667 
#    0.000    4.167    0.000    0.000    0.000    0.000 
#    0.000    0.000    0.000    0.000    0.000    0.000 
#
# Total GULP energy -66923.906773 kJ/mol
# GULP energy per Si atom -5576.992231 kJ/mol
# Density = 2.113458 g / cm^3
# Si number density = 21.182792 Si / 1000 Ang^3
#
#
#
# Elastic Constant Matrix: (Units=GPa)
#
#
# Indices 1 2 3 4 5 6 
#
# 1 84.8787 40.0271 16.7707 13.5795 10.0996 4.3150
# 2 40.0271 118.2405 36.0241 33.1292 7.6590 18.3804
# 3 16.7707 36.0241 126.1753 7.6962 6.8127 9.3089
# 4 13.5795 33.1292 7.6962 29.9241 -10.0658 -3.2433
# 5 10.0996 7.6590 6.8127 -10.0658 31.1508 6.1707
# 6 4.3150 18.3804 9.3089 -3.2433 6.1707 19.4220
#
#
#
# Elastic Compliance Matrix: (Units=1/GPa)
#
#
# Indices 1 2 3 4 5 6 
#
# 1 0.014821 -0.003405 -0.000505 -0.004572 -0.005568 0.001177
# 2 -0.003405 0.021376 -0.002088 -0.026560 -0.008259 -0.020283
# 3 -0.000505 -0.002088 0.008793 -0.000244 -0.000955 -0.001863
# 4 -0.004572 -0.026560 -0.000244 0.077359 0.027000 0.030608
# 5 -0.005568 -0.008259 -0.000955 0.027000 0.044921 -0.000252
# 6 0.001177 -0.020283 -0.001863 0.030608 -0.000252 0.076506
#
#
# Mechanical properties :
#
#
# Convention : Reuss Voigt Hill
#
# Bulk Modulus (GPa) = 30.30877 57.21536 43.76206
# Shear Modulus (GPa) = 18.74274 31.86422 25.30348
#
# Velocity S-wave (km/s) = 2.97780 3.88267 3.45995
# Velocity P-wave (km/s) = 5.11491 6.86798 6.05522
#
# Compressibility (1/GPa) = 0.03299375
#
# Stress axis : x y z
#
# Youngs Moduli (GPa) = 67.47148 46.78212 113.73078
#
# Poissons Ratio (x) = 0.15928 0.05746
# Poissons Ratio (y) = 0.22972 0.23747
# Poissons Ratio (z) = 0.03409 0.09768
#
# Static dielectric constant tensor:
#      x y z
#    x 1.825480 -0.037910 -0.036530 
#    y -0.037910 1.783560 -0.019560 
#    z -0.036530 -0.019560 1.848970 
# 
# From -- ./inp_files/376146.got.cif
#   From: 2010.05.17/outbox.cif.g08.bks.cpg/sg2_189_cif.got.tgz:376146.got - 2010.06.03 11:33:40.
