data_PCOD9039386
_publ_section_title
;
Structure prediction by ZEFSAII (Michael W. Deem and Ramdas Pophale) SiO2 
 PCOD9039386
Probable space group: P -1
;
_chemical_formula_sum "Si O2"
_cell_formula_units_Z 16
_cell_length_a 9.293637
_cell_length_b 9.284267
_cell_length_c 13.086592
_cell_angle_alpha 46.800214
_cell_angle_beta 103.194364
_cell_angle_gamma 79.022823
_cell_volume 699.296981
_symmetry_space_group_name_H-M "P -1"
_symmetry_group_IT_number 2
_symmetry_cell_setting 'triclinic'
loop_
_space_group_symop_operation_xyz
x,y,z
-x,-y,-z
loop_
_atom_site_type_symbol
_atom_site_label
_atom_site_fract_x
_atom_site_fract_y
_atom_site_fract_z
Si Si1 0.517697 0.527759 0.658769
Si Si2 0.736256 0.182920 0.699259
Si Si3 0.676497 0.770320 0.662378
Si Si4 0.035420 0.308990 0.685740
Si Si5 0.336766 0.192915 0.127877
Si Si6 0.027867 0.298439 0.377868
Si Si7 0.684093 0.406191 0.199439
Si Si8 0.706598 0.015968 0.257425
O O1 0.608793 0.304894 0.713737
O O2 0.367801 0.711656 0.473859
O O3 0.660699 0.598245 0.667234
O O4 0.445312 0.525634 0.760082
O O5 0.888213 0.240802 0.697740
O O6 0.780003 0.923555 0.839619
O O7 0.681959 0.706431 0.811228
O O8 0.847458 0.772990 0.663532
O O9 0.500000 0.000000 0.500000
O O10 0.039191 0.441775 0.722831
O O11 0.000000 0.500000 0.500000
O O12 0.205853 0.081698 0.789826
O O13 0.535073 0.002571 0.244642
O O14 0.313957 0.377630 0.952649
O O15 0.869116 0.263379 0.349012
O O16 0.152946 0.144058 0.561489
O O17 0.660683 0.263699 0.173000
#
# Coordination Sequence:
#
# PCOD9039386 Si02
#       8
#     2   2   2   2   2   2   2   2
#     4  11  22  41  71  98 136 181 235 277 332 411
#     4  11  24  42  70 103 134 181 233 280 334 408
#     4  12  21  42  70  99 133 179 231 282 331 407
#     4  10  23  42  68 102 135 172 228 289 336 396
#     4  12  27  44  69 103 143 182 226 285 349 404
#     4  11  23  43  70  99 133 181 233 283 337 404
#     4  12  27  45  67 105 142 183 225 285 351 402
#     4  11  23  43  70  98 137 183 230 281 338 407
#
# _framework density 22.880123999999999
#
# number of rings (size 3 to 8) (size 9 to 14) (size 15 to 20)
#    0.000    0.750    5.000    2.250    8.750    1.000 
#    0.000    0.625    0.000    0.000    0.000    0.000 
#    0.000    0.000    0.000    0.000    0.000    0.000 
#
# Total GULP energy -89391.368824 kJ/mol
# GULP energy per Si atom -5586.960552 kJ/mol
# Density = 2.282805 g / cm^3
# Si number density = 22.880124 Si / 1000 Ang^3
#
#
#
# Elastic Constant Matrix: (Units=GPa)
#
#
# Indices 1 2 3 4 5 6 
#
# 1 97.5269 34.4004 -10.3868 -1.5374 -6.8164 3.6137
# 2 34.4004 122.6194 22.7259 -13.0446 -14.2960 -5.7422
# 3 -10.3868 22.7259 44.4462 2.3246 -15.5748 1.3602
# 4 -1.5374 -13.0446 2.3246 12.9596 3.0076 -9.1413
# 5 -6.8164 -14.2960 -15.5748 3.0076 26.8724 -2.7590
# 6 3.6137 -5.7422 1.3602 -9.1413 -2.7590 47.6261
#
#
#
# Elastic Compliance Matrix: (Units=1/GPa)
#
#
# Indices 1 2 3 4 5 6 
#
# 1 0.013803 -0.006092 0.009216 -0.010187 0.006369 -0.003631
# 2 -0.006092 0.014017 -0.010439 0.020033 -0.001745 0.006194
# 3 0.009216 -0.010439 0.039199 -0.026341 0.021746 -0.006874
# 4 -0.010187 0.020033 -0.026341 0.123902 -0.018323 0.026661
# 5 0.006369 -0.001745 0.021746 -0.018323 0.052370 -0.001798
# 6 -0.003631 0.006194 -0.006874 0.026661 -0.001798 0.027229
#
#
# Mechanical properties :
#
#
# Convention : Reuss Voigt Hill
#
# Bulk Modulus (GPa) = 19.08789 39.78572 29.43681
# Shear Modulus (GPa) = 16.52278 32.01514 24.26896
#
# Velocity S-wave (km/s) = 2.69019 3.74472 3.26037
# Velocity P-wave (km/s) = 4.24384 6.01030 5.20259
#
# Compressibility (1/GPa) = 0.05238923
#
# Stress axis : x y z
#
# Youngs Moduli (GPa) = 72.44821 71.34224 25.51097
#
# Poissons Ratio (x) = 0.43459 -0.23512
# Poissons Ratio (y) = 0.44133 0.26632
# Poissons Ratio (z) = -0.66771 0.74477
#
# Static dielectric constant tensor:
#      x y z
#    x 1.923780 -0.074700 -0.026140 
#    y -0.074700 1.914370 -0.008060 
#    z -0.026140 -0.008060 1.895610 
# 
# From -- ./inp_files/280301.got.cif
#   From: 2010.05.17/outbox.cif.g08.bks.cpg/sg2_141_cif.got.tgz:280301.got - 2010.06.03 11:33:40.
