data_PCOD9039484
_publ_section_title
;
Structure prediction by ZEFSAII (Michael W. Deem and Ramdas Pophale) SiO2 
 PCOD9039484
Probable space group: P -1
;
_chemical_formula_sum "Si O2"
_cell_formula_units_Z 14
_cell_length_a 8.631683
_cell_length_b 9.816323
_cell_length_c 13.344167
_cell_angle_alpha 38.442883
_cell_angle_beta 92.021891
_cell_angle_gamma 102.448852
_cell_volume 669.632220
_symmetry_space_group_name_H-M "P -1"
_symmetry_group_IT_number 2
_symmetry_cell_setting 'triclinic'
loop_
_space_group_symop_operation_xyz
x,y,z
-x,-y,-z
loop_
_atom_site_type_symbol
_atom_site_label
_atom_site_fract_x
_atom_site_fract_y
_atom_site_fract_z
Si Si1 0.858792 0.415992 0.689970
Si Si2 0.047721 0.925813 0.436445
Si Si3 0.177948 0.332450 0.829348
Si Si4 0.285553 0.940478 0.950405
Si Si5 0.556234 0.268725 0.642128
Si Si6 0.995272 0.728032 0.926108
Si Si7 0.609563 0.170466 0.484532
O O1 0.747429 0.336277 0.636008
O O2 0.912914 0.689375 0.540050
O O3 0.027260 0.353282 0.744380
O O4 0.746193 0.292656 0.852216
O O5 0.220092 0.882412 0.475155
O O6 0.000000 0.000000 0.500000
O O7 0.059677 0.115602 0.244037
O O8 0.333733 0.556625 0.694527
O O9 0.778796 0.891201 0.076913
O O10 0.115342 0.321657 0.948032
O O11 0.170982 0.868368 0.892539
O O12 0.458238 0.091448 0.825975
O O13 0.500000 0.500000 0.500000
O O14 0.527552 0.146210 0.605051
O O15 0.000000 0.500000 0.000000
O O16 0.500000 0.000000 0.500000
#
# Coordination Sequence:
#
# PCOD9039484 Si02
#       7
#     2   2   2   2   2   2   2
#     4  10  23  42  68  98 128 169 230 270 328 388
#     4  11  25  43  72  97 132 175 223 278 326 397
#     4  10  23  44  69  97 131 172 221 281 323 396
#     4  11  23  42  68  97 136 171 219 278 330 397
#     4  12  25  42  67  98 137 181 217 276 334 395
#     4  11  23  42  71  99 129 172 223 271 337 390
#     4  11  27  45  64 100 138 177 221 273 336 393
#
# _framework density 20.906997
#
# number of rings (size 3 to 8) (size 9 to 14) (size 15 to 20)
#    0.000    1.143    1.429    5.571   10.000    1.143 
#    0.000    0.714    0.000    0.000    0.000    0.000 
#    0.000    0.000    0.000    0.000    0.000    0.000 
#
# Total GULP energy -78283.480729 kJ/mol
# GULP energy per Si atom -5591.677195 kJ/mol
# Density = 2.085941 g / cm^3
# Si number density = 20.906997 Si / 1000 Ang^3
#
#
#
# Elastic Constant Matrix: (Units=GPa)
#
#
# Indices 1 2 3 4 5 6 
#
# 1 38.0942 43.2237 24.6230 3.0972 -12.7039 6.8753
# 2 43.2237 150.9302 28.6969 0.6243 -5.8388 3.5022
# 3 24.6230 28.6969 93.6499 -11.6857 -6.3392 -3.0894
# 4 3.0972 0.6243 -11.6857 39.8244 2.0755 -4.8362
# 5 -12.7039 -5.8388 -6.3392 2.0755 32.5858 0.6217
# 6 6.8753 3.5022 -3.0894 -4.8362 0.6217 41.5051
#
#
#
# Elastic Compliance Matrix: (Units=1/GPa)
#
#
# Indices 1 2 3 4 5 6 
#
# 1 0.057794 -0.013364 -0.011423 -0.009918 0.018751 -0.010733
# 2 -0.013364 0.010206 0.000377 0.001362 -0.003425 0.001591
# 3 -0.011423 0.000377 0.014246 0.005607 -0.002040 0.003605
# 4 -0.009918 0.001362 0.005607 0.028383 -0.004441 0.005319
# 5 0.018751 -0.003425 -0.002040 -0.004441 0.037348 -0.004046
# 6 -0.010733 0.001591 0.003605 0.005319 -0.004046 0.026686
#
#
# Mechanical properties :
#
#
# Convention : Reuss Voigt Hill
#
# Bulk Modulus (GPa) = 29.91604 52.86240 41.38922
# Shear Modulus (GPa) = 21.31054 35.19177 28.25115
#
# Velocity S-wave (km/s) = 3.19611 4.10720 3.67996
# Velocity P-wave (km/s) = 5.28776 6.91603 6.15597
#
# Compressibility (1/GPa) = 0.03342689
#
# Stress axis : x y z
#
# Youngs Moduli (GPa) = 17.30274 97.98076 70.19316
#
# Poissons Ratio (x) = 1.30941 0.80181
# Poissons Ratio (y) = 0.23123 -0.02645
# Poissons Ratio (z) = 0.19765 -0.03692
#
# Static dielectric constant tensor:
#      x y z
#    x 1.764400 0.008320 -0.007070 
#    y 0.008320 1.743000 -0.007200 
#    z -0.007070 -0.007200 1.754880 
# 
# From -- ./inp_files/375425.got.cif
#   From: 2010.05.17/outbox.cif.g08.bks.cpg/sg2_188_cif.got.tgz:375425.got - 2010.06.03 11:33:40.
