data_PCOD9039301
_publ_section_title
;
Structure prediction by ZEFSAII (Michael W. Deem and Ramdas Pophale) SiO2 
 PCOD9039301
Probable space group: P -1
;
_chemical_formula_sum "Si O2"
_cell_formula_units_Z 14
_cell_length_a 6.781095
_cell_length_b 20.315625
_cell_length_c 12.714653
_cell_angle_alpha 34.070549
_cell_angle_beta 49.610809
_cell_angle_gamma 42.770168
_cell_volume 662.664362
_symmetry_space_group_name_H-M "P -1"
_symmetry_group_IT_number 2
_symmetry_cell_setting 'triclinic'
loop_
_space_group_symop_operation_xyz
x,y,z
-x,-y,-z
loop_
_atom_site_type_symbol
_atom_site_label
_atom_site_fract_x
_atom_site_fract_y
_atom_site_fract_z
Si Si1 0.652682 0.579709 0.144743
Si Si2 0.215688 0.124046 0.475979
Si Si3 0.344331 0.411179 0.515067
Si Si4 0.606114 0.246205 0.431138
Si Si5 0.594677 0.206856 0.887416
Si Si6 0.318246 0.377873 0.151613
Si Si7 0.236530 0.087254 0.755675
O O1 0.504151 0.502076 0.358628
O O2 0.543816 0.720082 0.052686
O O3 0.002854 0.495764 0.135825
O O4 0.567201 0.589430 0.038583
O O5 0.262290 0.253377 0.304226
O O6 0.144034 0.090392 0.661592
O O7 0.948811 0.160277 0.442120
O O8 0.500000 0.000000 0.500000
O O9 0.483211 0.332858 0.463432
O O10 0.421784 0.307144 0.720747
O O11 0.000000 0.500000 0.500000
O O12 0.527006 0.335024 0.236337
O O13 0.446002 0.154701 0.599091
O O14 0.605015 0.064338 0.061598
O O15 0.936430 0.171571 0.810177
#
# Coordination Sequence:
#
# PCOD9039301 Si02
#       7
#     2   2   2   2   2   2   2
#     4  11  22  43  65  94 135 171 217 269 325 385
#     4  11  22  44  65  94 132 171 216 276 330 379
#     4  12  23  40  65 100 129 174 216 264 328 390
#     4  11  22  43  67  96 130 167 219 271 326 392
#     4  11  22  43  65  94 135 171 217 269 325 385
#     4  10  23  42  67  96 130 172 215 274 327 384
#     4  10  23  42  67  96 130 172 215 274 327 384
#
# _framework density 21.126833000000001
#
# number of rings (size 3 to 8) (size 9 to 14) (size 15 to 20)
#    0.000    1.143    2.857    3.857    0.000    3.429 
#   10.286    0.000    0.000    0.000    0.000    0.000 
#    0.000    0.000    0.000    0.000    0.000    0.000 
#
# Total GULP energy -78345.932681 kJ/mol
# GULP energy per Si atom -5596.138049 kJ/mol
# Density = 2.107875 g / cm^3
# Si number density = 21.126833 Si / 1000 Ang^3
#
#
#
# Elastic Constant Matrix: (Units=GPa)
#
#
# Indices 1 2 3 4 5 6 
#
# 1 83.5804 40.8574 9.7180 -3.2796 20.1931 -9.3334
# 2 40.8574 159.2937 15.2108 2.7558 13.2949 -21.2991
# 3 9.7180 15.2108 77.9659 -6.8130 18.5859 -5.4079
# 4 -3.2796 2.7558 -6.8130 28.2644 1.6540 3.8599
# 5 20.1931 13.2949 18.5859 1.6540 25.3704 -4.0552
# 6 -9.3334 -21.2991 -5.4079 3.8599 -4.0552 23.7433
#
#
#
# Elastic Compliance Matrix: (Units=1/GPa)
#
#
# Indices 1 2 3 4 5 6 
#
# 1 0.016791 -0.003286 0.002073 0.003357 -0.013168 0.001330
# 2 -0.003286 0.008051 -0.000993 -0.002255 0.000248 0.006113
# 3 0.002073 -0.000993 0.016434 0.005006 -0.013404 0.000563
# 4 0.003357 -0.002255 0.005006 0.038721 -0.008860 -0.007371
# 5 -0.013168 0.000248 -0.013404 -0.008860 0.060774 0.003814
# 6 0.001330 0.006113 0.000563 -0.007371 0.003814 0.050102
#
#
# Mechanical properties :
#
#
# Convention : Reuss Voigt Hill
#
# Bulk Modulus (GPa) = 27.12759 50.26804 38.69781
# Shear Modulus (GPa) = 24.08779 32.47920 28.28350
#
# Velocity S-wave (km/s) = 3.38028 3.92515 3.66286
# Velocity P-wave (km/s) = 5.30125 6.66240 6.02041
#
# Compressibility (1/GPa) = 0.03686284
#
# Stress axis : x y z
#
# Youngs Moduli (GPa) = 59.55411 124.20663 60.85122
#
# Poissons Ratio (x) = 0.40814 -0.12613
# Poissons Ratio (y) = 0.19569 0.06045
# Poissons Ratio (z) = -0.12344 0.12338
#
# Static dielectric constant tensor:
#      x y z
#    x 1.747020 0.013240 0.003420 
#    y 0.013240 1.728580 -0.003260 
#    z 0.003420 -0.003260 1.794340 
# 
# From -- ./inp_files/369328.got.cif
#   From: 2010.05.17/outbox.cif.g08.bks.cpg/sg2_185_cif.got.tgz:369328.got - 2010.06.03 11:33:40.
