data_PCOD9039951
_publ_section_title
;
Structure prediction by ZEFSAII (Michael W. Deem and Ramdas Pophale) SiO2 
 PCOD9039951
Probable space group: P -1
;
_chemical_formula_sum "Si O2"
_cell_formula_units_Z 14
_cell_length_a 5.382688
_cell_length_b 12.199154
_cell_length_c 14.882640
_cell_angle_alpha 140.169372
_cell_angle_beta 66.113526
_cell_angle_gamma 107.212895
_cell_volume 572.151293
_symmetry_space_group_name_H-M "P -1"
_symmetry_group_IT_number 2
_symmetry_cell_setting 'triclinic'
loop_
_space_group_symop_operation_xyz
x,y,z
-x,-y,-z
loop_
_atom_site_type_symbol
_atom_site_label
_atom_site_fract_x
_atom_site_fract_y
_atom_site_fract_z
Si Si1 0.883349 0.828636 0.453841
Si Si2 0.928762 0.251525 0.101927
Si Si3 0.881648 0.889678 0.822106
Si Si4 0.247765 0.299684 0.911416
Si Si5 0.246754 0.775265 0.542636
Si Si6 0.443153 0.429791 0.365864
Si Si7 0.836283 0.308205 0.836095
O O1 0.558185 0.820879 0.504425
O O2 0.039506 0.805390 0.510262
O O3 0.989333 0.689580 0.278053
O O4 0.000000 0.000000 0.500000
O O5 0.046959 0.187857 0.139519
O O6 0.712963 0.401164 0.249275
O O7 0.158414 0.297762 0.026399
O O8 0.789604 0.085343 0.973264
O O9 0.141714 0.875976 0.709873
O O10 0.674455 0.758693 0.727568
O O11 0.548397 0.222401 0.807957
O O12 0.018510 0.221601 0.832431
O O13 0.245827 0.497230 0.002248
O O14 0.250572 0.572083 0.437128
O O15 0.500000 0.500000 0.500000
#
# Coordination Sequence:
#
# PCOD9039951 Si02
#       7
#     2   2   2   2   2   2   2
#     4  12  28  47  76 107 148 190 252 314 379 445
#     4  11  26  45  74 109 153 199 247 309 385 441
#     4  11  27  46  72 112 155 195 255 306 380 459
#     4  10  23  42  72  99 142 189 236 304 362 444
#     4  12  27  47  80 106 150 202 248 311 385 447
#     4  12  25  48  75 109 153 201 255 309 367 461
#     4  10  23  44  67 105 137 183 251 296 365 436
#
# _framework density 24.469054
#
# number of rings (size 3 to 8) (size 9 to 14) (size 15 to 20)
#    0.000    0.857    1.429    3.857   10.000    1.143 
#    0.000    0.000    0.000    0.000    0.000    0.000 
#    0.000    0.000    0.000    0.000    0.000    0.000 
#
# Total GULP energy -78407.228873 kJ/mol
# GULP energy per Si atom -5600.516348 kJ/mol
# Density = 2.441336 g / cm^3
# Si number density = 24.469054 Si / 1000 Ang^3
#
#
#
# Elastic Constant Matrix: (Units=GPa)
#
#
# Indices 1 2 3 4 5 6 
#
# 1 138.8670 26.2210 39.0658 -33.1014 -5.2480 -2.4041
# 2 26.2210 79.5232 20.5889 -24.9520 -1.1744 -6.9005
# 3 39.0658 20.5889 138.4196 -23.6174 -4.0689 2.3454
# 4 -33.1014 -24.9520 -23.6174 53.8916 13.9990 3.1783
# 5 -5.2480 -1.1744 -4.0689 13.9990 34.9839 -10.8378
# 6 -2.4041 -6.9005 2.3454 3.1783 -10.8378 42.1795
#
#
#
# Elastic Compliance Matrix: (Units=1/GPa)
#
#
# Indices 1 2 3 4 5 6 
#
# 1 0.008894 -0.001152 -0.001605 0.004411 -0.000687 -0.000101
# 2 -0.001152 0.015298 -0.000948 0.006345 -0.001831 0.001541
# 3 -0.001605 -0.000948 0.008227 0.002397 -0.000596 -0.001038
# 4 0.004411 0.006345 0.002397 0.028460 -0.011453 -0.003931
# 5 -0.000687 -0.001831 -0.000596 -0.011453 0.035969 0.009800
# 6 -0.000101 0.001541 -0.001038 -0.003931 0.009800 0.026826
#
#
# Mechanical properties :
#
#
# Convention : Reuss Voigt Hill
#
# Bulk Modulus (GPa) = 39.98415 58.72903 49.35659
# Shear Modulus (GPa) = 35.86296 44.27327 40.06812
#
# Velocity S-wave (km/s) = 3.83253 4.25827 4.05100
# Velocity P-wave (km/s) = 5.99671 6.94483 6.48811
#
# Compressibility (1/GPa) = 0.02500991
#
# Stress axis : x y z
#
# Youngs Moduli (GPa) = 112.43918 65.36963 121.54620
#
# Poissons Ratio (x) = 0.07531 0.19504
# Poissons Ratio (y) = 0.12954 0.11518
# Poissons Ratio (z) = 0.18042 0.06195
#
# Static dielectric constant tensor:
#      x y z
#    x 2.136230 0.032380 -0.134700 
#    y 0.032380 1.947260 0.075200 
#    z -0.134700 0.075200 2.089370 
# 
# From -- ./inp_files/482314.got.cif
#   From: 2010.05.17/outbox.cif.g08.bks.cpg/sg2_242_cif.got.tgz:482314.got - 2010.06.03 11:33:40.
