data_PCOD9039711
_publ_section_title
;
Structure prediction by ZEFSAII (Michael W. Deem and Ramdas Pophale) SiO2 
 PCOD9039711
Probable space group: P -1
;
_chemical_formula_sum "Si O2"
_cell_formula_units_Z 16
_cell_length_a 21.504382
_cell_length_b 11.953697
_cell_length_c 5.129436
_cell_angle_alpha 66.568271
_cell_angle_beta 58.832697
_cell_angle_gamma 38.525771
_cell_volume 702.675807
_symmetry_space_group_name_H-M "P -1"
_symmetry_group_IT_number 2
_symmetry_cell_setting 'triclinic'
loop_
_space_group_symop_operation_xyz
x,y,z
-x,-y,-z
loop_
_atom_site_type_symbol
_atom_site_label
_atom_site_fract_x
_atom_site_fract_y
_atom_site_fract_z
Si Si1 0.124886 0.855327 0.419018
Si Si2 0.362074 0.164269 0.261488
Si Si3 0.227315 0.837571 0.689045
Si Si4 0.464602 0.194281 0.602265
Si Si5 0.457835 0.481634 0.359264
Si Si6 0.114861 0.357550 0.022606
Si Si7 0.226917 0.465417 0.621943
Si Si8 0.776252 0.874406 0.514555
O O1 0.140111 0.921781 0.576584
O O2 0.170323 0.664251 0.554856
O O3 0.188252 0.830879 0.054406
O O4 0.000000 0.000000 0.500000
O O5 0.255401 0.371769 0.366781
O O6 0.320701 0.100602 0.240777
O O7 0.428927 0.016863 0.486785
O O8 0.437141 0.174689 0.965217
O O9 0.330467 0.642556 0.526848
O O10 0.252810 0.948536 0.565425
O O11 0.495172 0.296873 0.436565
O O12 0.348031 0.328130 0.597017
O O13 0.500000 0.500000 0.500000
O O14 0.500000 0.500000 0.000000
O O15 0.130982 0.267220 0.343435
O O16 0.154519 0.446769 0.912167
O O17 0.189085 0.201701 0.785181
O O18 0.000000 0.500000 0.000000
#
# Coordination Sequence:
#
# PCOD9039711 Si02
#       8
#     2   2   2   2   2   2   2   2
#     4  12  28  48  74 107 140 198 247 303 361 430
#     4  10  23  42  70 104 137 184 233 294 363 431
#     4  12  26  49  73 102 151 188 243 302 362 431
#     4  11  22  44  69 101 141 184 236 293 362 432
#     4  12  27  45  71 107 144 194 238 292 362 439
#     4  11  25  44  70 104 137 185 236 303 361 421
#     4  11  24  43  72  99 144 178 243 294 361 425
#     4  11  24  45  69 102 141 183 237 292 363 432
#
# _framework density 22.770102999999999
#
# number of rings (size 3 to 8) (size 9 to 14) (size 15 to 20)
#    0.000    0.750    2.500    4.125    5.250    2.000 
#    0.000    0.000    0.000    0.000    0.000    0.000 
#    0.000    0.000    0.000    0.000    0.000    0.000 
#
# Total GULP energy -89354.928258 kJ/mol
# GULP energy per Si atom -5584.683016 kJ/mol
# Density = 2.271828 g / cm^3
# Si number density = 22.770103 Si / 1000 Ang^3
#
#
#
# Elastic Constant Matrix: (Units=GPa)
#
#
# Indices 1 2 3 4 5 6 
#
# 1 127.3018 39.4883 11.9725 -20.6794 -0.6872 2.2173
# 2 39.4883 125.0239 28.4503 -19.5612 -16.1078 10.5691
# 3 11.9725 28.4503 88.0362 -26.1555 1.2962 24.5293
# 4 -20.6794 -19.5612 -26.1555 27.9763 2.4685 -7.4387
# 5 -0.6872 -16.1078 1.2962 2.4685 33.6563 -6.9542
# 6 2.2173 10.5691 24.5293 -7.4387 -6.9542 47.7157
#
#
#
# Elastic Compliance Matrix: (Units=1/GPa)
#
#
# Indices 1 2 3 4 5 6 
#
# 1 0.009611 -0.002510 0.001553 0.006984 -0.001541 0.000175
# 2 -0.002510 0.010366 -0.002257 0.002894 0.004812 0.000133
# 3 0.001553 -0.002257 0.018552 0.015346 -0.004409 -0.007359
# 4 0.006984 0.002894 0.015346 0.057472 -0.003358 -0.000385
# 5 -0.001541 0.004812 -0.004409 -0.003358 0.033565 0.005641
# 6 0.000175 0.000133 -0.007359 -0.000385 0.005641 0.025465
#
#
# Mechanical properties :
#
#
# Convention : Reuss Voigt Hill
#
# Bulk Modulus (GPa) = 31.15125 55.57603 43.36364
# Shear Modulus (GPa) = 29.04284 39.23305 34.13794
#
# Velocity S-wave (km/s) = 3.57526 4.15542 3.87621
# Velocity P-wave (km/s) = 5.54561 6.89084 6.25450
#
# Compressibility (1/GPa) = 0.03210144
#
# Stress axis : x y z
#
# Youngs Moduli (GPa) = 104.04933 96.46758 53.90235
#
# Poissons Ratio (x) = 0.24209 -0.08369
# Poissons Ratio (y) = 0.26111 0.12165
# Poissons Ratio (z) = -0.16155 0.21772
#
# Static dielectric constant tensor:
#      x y z
#    x 1.928500 -0.077110 0.001230 
#    y -0.077110 1.895360 0.095480 
#    z 0.001230 0.095480 1.931230 
# 
# From -- ./inp_files/118493.got.cif
#   From: 2010.05.17/outbox.cif.g08.bks.cpg/sg2_60_cif.got.tgz:118493.got - 2010.06.03 11:33:40.
