data_PCOD9039154
_publ_section_title
;
Structure prediction by ZEFSAII (Michael W. Deem and Ramdas Pophale) SiO2 
 PCOD9039154
Probable space group: P -1
;
_chemical_formula_sum "Si O2"
_cell_formula_units_Z 16
_cell_length_a 8.857928
_cell_length_b 13.586716
_cell_length_c 5.843258
_cell_angle_alpha 106.201566
_cell_angle_beta 93.373403
_cell_angle_gamma 99.327507
_cell_volume 662.349062
_symmetry_space_group_name_H-M "P -1"
_symmetry_group_IT_number 2
_symmetry_cell_setting 'triclinic'
loop_
_space_group_symop_operation_xyz
x,y,z
-x,-y,-z
loop_
_atom_site_type_symbol
_atom_site_label
_atom_site_fract_x
_atom_site_fract_y
_atom_site_fract_z
Si Si1 0.449166 0.087397 0.711198
Si Si2 0.517229 0.552322 0.285694
Si Si3 0.681948 0.829964 0.842914
Si Si4 0.609769 0.258178 0.549952
Si Si5 0.900473 0.717805 0.059319
Si Si6 0.879081 0.332738 0.306515
Si Si7 0.848716 0.550982 0.271220
Si Si8 0.115688 0.102201 0.494386
O O1 0.579981 0.187353 0.725916
O O2 0.281617 0.095898 0.608110
O O3 0.500000 0.000000 0.500000
O O4 0.405452 0.089902 0.975586
O O5 0.500000 0.500000 0.500000
O O6 0.390001 0.623809 0.310498
O O7 0.698537 0.600940 0.341209
O O8 0.500000 0.500000 0.000000
O O9 0.547544 0.774078 0.629809
O O10 0.836283 0.884558 0.758626
O O11 0.745206 0.744849 0.950761
O O12 0.753567 0.258748 0.400580
O O13 0.886749 0.596608 0.050741
O O14 0.932910 0.796349 0.328703
O O15 0.040988 0.733683 0.906566
O O16 0.813768 0.427283 0.235747
O O17 0.012309 0.395063 0.521798
O O18 0.000000 0.000000 0.500000
#
# Coordination Sequence:
#
# PCOD9039154 Si02
#       8
#     2   2   2   2   2   2   2   2
#     4  10  24  42  68  98 134 175 223 290 350 424
#     4  12  27  45  74 104 139 192 244 296 355 425
#     4  10  23  45  69  94 137 172 229 284 349 420
#     4  11  25  45  66 101 135 184 233 288 355 420
#     4  11  23  41  67  94 131 181 222 293 341 423
#     4  11  25  42  64  98 139 181 230 289 354 411
#     4  11  25  43  64  96 140 181 233 285 354 414
#     4  10  23  42  66  98 127 171 224 274 352 417
#
# _framework density 24.15645
#
# number of rings (size 3 to 8) (size 9 to 14) (size 15 to 20)
#    0.000    1.250    1.250    4.125    5.250   10.000 
#    0.000    0.000    0.000    0.000    0.000    0.000 
#    0.000    0.000    0.000    0.000    0.000    0.000 
#
# Total GULP energy -89280.446132 kJ/mol
# GULP energy per Si atom -5580.027883 kJ/mol
# Density = 2.410147 g / cm^3
# Si number density = 24.156450 Si / 1000 Ang^3
#
#
#
# Elastic Constant Matrix: (Units=GPa)
#
#
# Indices 1 2 3 4 5 6 
#
# 1 113.5493 22.1762 34.4308 -6.1048 -32.8433 17.8421
# 2 22.1762 66.6946 29.0425 -4.8090 -10.3104 18.3446
# 3 34.4308 29.0425 111.3350 -3.1144 -37.1291 4.6332
# 4 -6.1048 -4.8090 -3.1144 24.6696 -4.4652 -15.2526
# 5 -32.8433 -10.3104 -37.1291 -4.4652 55.0565 -6.3539
# 6 17.8421 18.3446 4.6332 -15.2526 -6.3539 44.3489
#
#
#
# Elastic Compliance Matrix: (Units=1/GPa)
#
#
# Indices 1 2 3 4 5 6 
#
# 1 0.011611 -0.001719 -0.001060 0.002011 0.005784 -0.002329
# 2 -0.001719 0.019414 -0.004870 -0.002492 -0.001793 -0.007944
# 3 -0.001060 -0.004870 0.013270 0.004214 0.008170 0.003674
# 4 0.002011 -0.002492 0.004214 0.055575 0.010436 0.020390
# 5 0.005784 -0.001793 0.008170 0.010436 0.028234 0.005195
# 6 -0.002329 -0.007944 0.003674 0.020390 0.005195 0.034144
#
#
# Mechanical properties :
#
#
# Convention : Reuss Voigt Hill
#
# Bulk Modulus (GPa) = 34.48684 51.43088 42.95886
# Shear Modulus (GPa) = 26.70771 38.54361 32.62566
#
# Velocity S-wave (km/s) = 3.32869 3.99881 3.67904
# Velocity P-wave (km/s) = 5.39268 6.53128 5.98910
#
# Compressibility (1/GPa) = 0.02899657
#
# Stress axis : x y z
#
# Youngs Moduli (GPa) = 86.12512 51.50910 75.35949
#
# Poissons Ratio (x) = 0.08856 0.07990
# Poissons Ratio (y) = 0.14807 0.36697
# Poissons Ratio (z) = 0.09132 0.25083
#
# Static dielectric constant tensor:
#      x y z
#    x 1.918920 0.017160 -0.022270 
#    y 0.017160 2.052640 -0.082080 
#    z -0.022270 -0.082080 2.168090 
# 
# From -- ./inp_files/39911.got.cif
#   From: 2010.05.17/outbox.cif.g08.bks.cpg/sg2_20_cif.got.tgz:39911.got - 2010.06.03 11:33:40.
