data_PCOD9039440
_publ_section_title
;
Structure prediction by ZEFSAII (Michael W. Deem and Ramdas Pophale) SiO2 
 PCOD9039440
Probable space group: P -1
;
_chemical_formula_sum "Si O2"
_cell_formula_units_Z 13
_cell_length_a 20.189289
_cell_length_b 17.453180
_cell_length_c 14.220232
_cell_angle_alpha 21.869110
_cell_angle_beta 161.799200
_cell_angle_gamma 160.057580
_cell_volume 504.127250
_symmetry_space_group_name_H-M "P -1"
_symmetry_group_IT_number 2
_symmetry_cell_setting 'triclinic'
loop_
_space_group_symop_operation_xyz
x,y,z
-x,-y,-z
loop_
_atom_site_type_symbol
_atom_site_label
_atom_site_fract_x
_atom_site_fract_y
_atom_site_fract_z
Si Si1 0.386568 0.276390 0.715421
Si Si2 0.871046 0.243849 0.014802
Si Si3 0.912254 0.485965 0.503931
Si Si4 0.550033 0.768998 0.455325
Si Si5 0.286710 0.187670 0.161572
Si Si6 0.180841 0.710925 0.794197
Si Si7 0.500000 0.000000 0.500000
O O1 0.540340 0.530199 0.683263
O O2 0.129625 0.256646 0.365706
O O3 0.306060 0.031698 0.942788
O O4 0.558854 0.282327 0.855490
O O5 0.720397 0.257092 0.886994
O O6 0.955752 0.485127 0.796024
O O7 0.781309 0.211906 0.666826
O O8 0.000000 0.500000 0.500000
O O9 0.115509 0.656676 0.657112
O O10 0.709588 0.568117 0.134767
O O11 0.588453 0.784605 0.601408
O O12 0.756595 0.021644 0.404891
O O13 0.391365 0.090524 0.335019
O O14 0.000000 0.000000 0.000000
#
# Coordination Sequence:
#
# PCOD9039440 Si02
#       7
#     2   2   2   2   2   2   1
#     4  10  23  42  68  94 135 174 217 285 348 403
#     4  10  23  43  64  99 133 169 225 281 342 411
#     4  12  24  43  67  97 139 184 231 287 342 410
#     4  11  23  42  65  96 130 178 223 277 341 407
#     4  12  24  45  67  97 141 181 230 285 341 409
#     4  11  23  39  66  96 130 172 227 277 337 410
#     4  12  26  42  68  94 134 186 232 280 344 400
#
# _framework density 25.787139
#
# number of rings (size 3 to 8) (size 9 to 14) (size 15 to 20)
#    0.000    0.923    3.077    3.231    0.000    5.538 
#    0.000    0.000    0.000    0.000    0.000    0.000 
#    0.000    0.000    0.000    0.000    0.000    0.000 
#
# Total GULP energy -72442.203070 kJ/mol
# GULP energy per Si atom -5572.477159 kJ/mol
# Density = 2.572845 g / cm^3
# Si number density = 25.787139 Si / 1000 Ang^3
#
#
#
# Elastic Constant Matrix: (Units=GPa)
#
#
# Indices 1 2 3 4 5 6 
#
# 1 98.5398 55.8174 22.3149 -26.2922 26.8268 8.6934
# 2 55.8174 217.4910 26.6885 -51.3562 -2.2256 9.8186
# 3 22.3149 26.6885 71.3456 -23.1737 1.8173 6.4052
# 4 -26.2922 -51.3562 -23.1737 54.8510 -1.4949 7.1237
# 5 26.8268 -2.2256 1.8173 -1.4949 34.2659 4.1076
# 6 8.6934 9.8186 6.4052 7.1237 4.1076 52.0075
#
#
#
# Elastic Compliance Matrix: (Units=1/GPa)
#
#
# Indices 1 2 3 4 5 6 
#
# 1 0.017410 -0.003275 -0.002418 0.004088 -0.013357 -0.001499
# 2 -0.003275 0.006741 0.000249 0.005165 0.003422 -0.001734
# 3 -0.002418 0.000249 0.017061 0.006689 0.001630 -0.002789
# 4 0.004088 0.005165 0.006689 0.028639 -0.001214 -0.006309
# 5 -0.013357 0.003422 0.001630 -0.001214 0.039915 -0.001600
# 6 -0.001499 -0.001734 -0.002789 -0.006309 -0.001600 0.021140
#
#
# Mechanical properties :
#
#
# Convention : Reuss Voigt Hill
#
# Bulk Modulus (GPa) = 32.97713 66.33532 49.65622
# Shear Modulus (GPa) = 32.91599 47.06193 39.98896
#
# Velocity S-wave (km/s) = 3.57662 4.27665 3.94221
# Velocity P-wave (km/s) = 5.46555 7.08282 6.32608
#
# Compressibility (1/GPa) = 0.03032405
#
# Stress axis : x y z
#
# Youngs Moduli (GPa) = 57.43719 148.35094 58.61409
#
# Poissons Ratio (x) = 0.48588 0.14171
# Poissons Ratio (y) = 0.18812 -0.01459
# Poissons Ratio (z) = 0.13886 -0.03693
#
# Static dielectric constant tensor:
#      x y z
#    x 2.036600 0.050750 -0.090300 
#    y 0.050750 2.090030 -0.008730 
#    z -0.090300 -0.008730 2.148080 
# 
# From -- ./inp_files/541577.got.cif
#   From: 2010.05.17/outbox.cif.g08.bks.cpg/sg2_271_cif.got.tgz:541577.got - 2010.06.03 11:33:40.
