data_PCOD9039998
_publ_section_title
;
Structure prediction by ZEFSAII (Michael W. Deem and Ramdas Pophale) SiO2 
 PCOD9039998
Probable space group: P -1
;
_chemical_formula_sum "Si O2"
_cell_formula_units_Z 12
_cell_length_a 6.931230
_cell_length_b 5.171190
_cell_length_c 15.133721
_cell_angle_alpha 102.546538
_cell_angle_beta 89.172646
_cell_angle_gamma 73.868415
_cell_volume 507.011739
_symmetry_space_group_name_H-M "P -1"
_symmetry_group_IT_number 2
_symmetry_cell_setting 'triclinic'
loop_
_space_group_symop_operation_xyz
x,y,z
-x,-y,-z
loop_
_atom_site_type_symbol
_atom_site_label
_atom_site_fract_x
_atom_site_fract_y
_atom_site_fract_z
Si Si1 0.064126 0.399957 0.211407
Si Si2 0.343412 0.417043 0.685818
Si Si3 0.140891 0.205610 0.508110
Si Si4 0.036112 0.728026 0.082320
Si Si5 0.404872 0.163627 0.333552
Si Si6 0.717596 0.010299 0.977333
O O1 0.215363 0.317288 0.285192
O O2 0.175748 0.205378 0.116291
O O3 0.843133 0.401258 0.242546
O O4 0.027602 0.694799 0.184225
O O5 0.241437 0.261306 0.602583
O O6 0.456073 0.626323 0.657224
O O7 0.485589 0.154544 0.719116
O O8 0.315273 0.123311 0.427086
O O9 0.000000 0.500000 0.500000
O O10 0.000000 0.000000 0.500000
O O11 0.854441 0.977512 0.062197
O O12 0.260953 0.720226 0.051957
O O13 0.000000 0.500000 0.000000
O O14 0.500000 0.000000 0.000000
#
# Coordination Sequence:
#
# PCOD9039998 Si02
#       6
#     2   2   2   2   2   2
#     4  11  27  42  72 104 147 180 247 301 358 423
#     4  12  28  47  74 106 152 190 245 298 359 430
#     4  12  24  48  79 104 150 193 241 297 357 427
#     4   9  22  43  66  99 137 180 231 295 356 424
#     4  12  28  46  75 108 144 200 239 294 369 425
#     4  10  23  42  73  99 139 185 240 288 370 430
#
# _framework density 23.668091
#
# number of rings (size 3 to 8) (size 9 to 14) (size 15 to 20)
#    0.000    1.000    1.667    3.000    7.000    5.333 
#    0.000    0.000    0.000    0.000    0.000    0.000 
#    0.000    0.000    0.000    0.000    0.000    0.000 
#
# Total GULP energy -66911.733173 kJ/mol
# GULP energy per Si atom -5575.977764 kJ/mol
# Density = 2.361422 g / cm^3
# Si number density = 23.668091 Si / 1000 Ang^3
#
#
#
# Elastic Constant Matrix: (Units=GPa)
#
#
# Indices 1 2 3 4 5 6 
#
# 1 153.4939 61.2056 53.6892 -5.4028 -49.3394 20.3662
# 2 61.2056 104.0554 27.2528 -8.5670 -15.3634 20.6829
# 3 53.6892 27.2528 112.2446 -6.5728 -18.2539 2.6125
# 4 -5.4028 -8.5670 -6.5728 41.9048 -5.0002 -5.5447
# 5 -49.3394 -15.3634 -18.2539 -5.0002 41.2435 -12.8862
# 6 20.3662 20.6829 2.6125 -5.5447 -12.8862 47.9521
#
#
#
# Elastic Compliance Matrix: (Units=1/GPa)
#
#
# Indices 1 2 3 4 5 6 
#
# 1 0.014328 -0.005453 -0.003130 0.001986 0.014108 0.000458
# 2 -0.005453 0.013540 -0.001034 0.000974 -0.003129 -0.004197
# 3 -0.003130 -0.001034 0.010938 0.001503 0.001438 0.001739
# 4 0.001986 0.000974 0.001503 0.025969 0.007718 0.003731
# 5 0.014108 -0.003129 0.001438 0.007718 0.044031 0.008004
# 6 0.000458 -0.004197 0.001739 0.003731 0.008004 0.024958
#
#
# Mechanical properties :
#
#
# Convention : Reuss Voigt Hill
#
# Bulk Modulus (GPa) = 51.08548 72.67657 61.88102
# Shear Modulus (GPa) = 31.34397 41.39650 36.37024
#
# Velocity S-wave (km/s) = 3.64306 4.18669 3.92430
# Velocity P-wave (km/s) = 6.27111 7.35829 6.83635
#
# Compressibility (1/GPa) = 0.01957504
#
# Stress axis : x y z
#
# Youngs Moduli (GPa) = 69.79469 73.85252 91.42132
#
# Poissons Ratio (x) = 0.40268 0.28610
# Poissons Ratio (y) = 0.38056 0.09451
# Poissons Ratio (z) = 0.21842 0.07634
#
# Static dielectric constant tensor:
#      x y z
#    x 1.793190 -0.002950 -0.025530 
#    y -0.002950 2.371410 -0.066230 
#    z -0.025530 -0.066230 1.913300 
# 
# From -- ./inp_files/8677.got.cif
#   From: 2010.05.17/outbox.cif.g08.bks.cpg/sg2_5_cif.got.tgz:8677.got - 2010.06.03 11:33:40.
