data_PCOD9039406
_publ_section_title
;
Structure prediction by ZEFSAII (Michael W. Deem and Ramdas Pophale) SiO2 
 PCOD9039406
Probable space group: P -1
;
_chemical_formula_sum "Si O2"
_cell_formula_units_Z 16
_cell_length_a 9.148928
_cell_length_b 14.485957
_cell_length_c 9.001619
_cell_angle_alpha 136.887124
_cell_angle_beta 108.874348
_cell_angle_gamma 58.176271
_cell_volume 688.881639
_symmetry_space_group_name_H-M "P -1"
_symmetry_group_IT_number 2
_symmetry_cell_setting 'triclinic'
loop_
_space_group_symop_operation_xyz
x,y,z
-x,-y,-z
loop_
_atom_site_type_symbol
_atom_site_label
_atom_site_fract_x
_atom_site_fract_y
_atom_site_fract_z
Si Si1 0.905572 0.367630 0.463175
Si Si2 0.584847 0.388065 0.537092
Si Si3 0.642410 0.120373 0.787039
Si Si4 0.148650 0.048924 0.082430
Si Si5 0.296671 0.114276 0.694149
Si Si6 0.606655 0.067664 0.206057
Si Si7 0.998791 0.420569 0.061993
Si Si8 0.706738 0.403681 0.125442
O O1 0.786436 0.338178 0.512683
O O2 0.935667 0.504047 0.698319
O O3 0.809676 0.395735 0.304986
O O4 0.083910 0.217859 0.318111
O O5 0.500000 0.500000 0.500000
O O6 0.550953 0.241812 0.359489
O O7 0.490597 0.479173 0.760889
O O8 0.439043 0.170095 0.760520
O O9 0.690396 0.075492 0.921015
O O10 0.746347 0.963904 0.549649
O O11 0.701702 0.245664 0.911377
O O12 0.199563 0.028581 0.904470
O O13 0.000000 0.000000 0.000000
O O14 0.394224 0.973453 0.672289
O O15 0.136031 0.247594 0.876040
O O16 0.500000 0.000000 0.000000
O O17 0.812599 0.438521 0.073953
O O18 0.000000 0.500000 0.000000
#
# Coordination Sequence:
#
# PCOD9039406 Si02
#       8
#     2   2   2   2   2   2   2   2
#     4  11  23  41  70  98 139 181 234 292 351 414
#     4  10  23  42  68 104 137 181 231 291 350 412
#     4  11  24  47  69 100 141 190 230 296 355 421
#     4  12  21  42  69 103 138 179 239 288 349 414
#     4  11  27  46  70 100 146 183 238 290 356 428
#     4  12  25  40  71 107 140 189 239 291 348 417
#     4  12  28  46  67 103 143 189 233 295 358 426
#     4  11  24  43  71  99 135 182 242 290 351 418
#
# _framework density 23.226051999999999
#
# number of rings (size 3 to 8) (size 9 to 14) (size 15 to 20)
#    0.000    0.750    3.750    3.375    5.250    3.500 
#    0.000    1.875    0.000    0.000    0.000    0.000 
#    0.000    0.000    0.000    0.000    0.000    0.000 
#
# Total GULP energy -89456.409862 kJ/mol
# GULP energy per Si atom -5591.025616 kJ/mol
# Density = 2.317319 g / cm^3
# Si number density = 23.226052 Si / 1000 Ang^3
#
#
#
# Elastic Constant Matrix: (Units=GPa)
#
#
# Indices 1 2 3 4 5 6 
#
# 1 110.0003 18.6488 31.6228 5.5378 -3.0801 38.3817
# 2 18.6488 79.5098 18.1410 7.7107 4.9889 24.9161
# 3 31.6228 18.1410 110.1785 17.2382 7.4588 10.1199
# 4 5.5378 7.7107 17.2382 32.3409 -0.8015 -2.2746
# 5 -3.0801 4.9889 7.4588 -0.8015 36.2234 2.5029
# 6 38.3817 24.9161 10.1199 -2.2746 2.5029 34.2129
#
#
#
# Elastic Compliance Matrix: (Units=1/GPa)
#
#
# Indices 1 2 3 4 5 6 
#
# 1 0.017081 0.003526 -0.003191 -0.003483 0.003014 -0.021238
# 2 0.003526 0.017947 -0.001539 -0.005268 -0.000806 -0.016861
# 3 -0.003191 -0.001539 0.011076 -0.004963 -0.002538 0.001281
# 4 -0.003483 -0.005268 -0.004963 0.036265 0.001458 0.011517
# 5 0.003014 -0.000806 -0.002538 0.001458 0.028809 -0.004054
# 6 -0.021238 -0.016861 0.001281 0.011517 -0.004054 0.066018
#
#
# Mechanical properties :
#
#
# Convention : Reuss Voigt Hill
#
# Bulk Modulus (GPa) = 22.88636 48.50154 35.69395
# Shear Modulus (GPa) = 25.75074 35.97382 30.86228
#
# Velocity S-wave (km/s) = 3.33333 3.93982 3.64920
# Velocity P-wave (km/s) = 4.96889 6.45166 5.75821
#
# Compressibility (1/GPa) = 0.04369415
#
# Stress axis : x y z
#
# Youngs Moduli (GPa) = 58.54545 55.72068 90.28250
#
# Poissons Ratio (x) = -0.19647 0.28812
# Poissons Ratio (y) = -0.20643 0.13898
# Poissons Ratio (z) = 0.18684 0.08578
#
# Static dielectric constant tensor:
#      x y z
#    x 1.703700 -0.163020 -0.040330 
#    y -0.163020 1.826100 -0.008430 
#    z -0.040330 -0.008430 1.847110 
# 
# From -- ./inp_files/208450.got.cif
#   From: 2010.05.17/outbox.cif.g08.bks.cpg/sg2_105_cif.got.tgz:208450.got - 2010.06.03 11:33:40.
