data_PCOD9039934
_publ_section_title
;
Structure prediction by ZEFSAII (Michael W. Deem and Ramdas Pophale) SiO2 
 PCOD9039934
Probable space group: P -1
;
_chemical_formula_sum "Si O2"
_cell_formula_units_Z 12
_cell_length_a 8.588464
_cell_length_b 14.293183
_cell_length_c 13.615086
_cell_angle_alpha 30.088157
_cell_angle_beta 139.171466
_cell_angle_gamma 144.068643
_cell_volume 482.682510
_symmetry_space_group_name_H-M "P -1"
_symmetry_group_IT_number 2
_symmetry_cell_setting 'triclinic'
loop_
_space_group_symop_operation_xyz
x,y,z
-x,-y,-z
loop_
_atom_site_type_symbol
_atom_site_label
_atom_site_fract_x
_atom_site_fract_y
_atom_site_fract_z
Si Si1 0.053886 0.714600 0.251595
Si Si2 0.078696 0.874189 0.499364
Si Si3 0.204970 0.156058 0.816131
Si Si4 0.234153 0.526031 0.846162
Si Si5 0.649947 0.855523 0.447304
Si Si6 0.180922 0.690391 0.988356
O O1 0.910546 0.739068 0.256988
O O2 0.873061 0.520173 0.273306
O O3 0.119999 0.923051 0.029274
O O4 0.335766 0.722307 0.402758
O O5 0.938067 0.869161 0.333999
O O6 0.269318 0.094636 0.445310
O O7 0.827089 0.771461 0.549229
O O8 0.008373 0.356381 0.964940
O O9 0.530888 0.283056 0.860569
O O10 0.249508 0.747402 0.685772
O O11 0.500000 0.500000 0.000000
O O12 0.736694 0.085784 0.229166
O O13 0.000000 0.500000 0.000000
#
# Coordination Sequence:
#
# PCOD9039934 Si02
#       6
#     2   2   2   2   2   2
#     4  10  23  44  68  96 135 177 218 264 335 401
#     4  11  24  44  64 104 132 169 229 273 328 383
#     4  10  23  42  72  97 133 176 222 269 327 396
#     4  12  26  43  68  99 134 175 222 276 332 390
#     4  10  23  45  68  98 132 176 219 271 331 394
#     4  11  21  43  69  95 134 180 216 263 333 399
#
# _framework density 24.861063000000001
#
# number of rings (size 3 to 8) (size 9 to 14) (size 15 to 20)
#    0.000    1.333    1.667    3.000    4.667    6.667 
#    6.000    0.000    0.000    0.000    0.000    0.000 
#    0.000    0.000    0.000    0.000    0.000    0.000 
#
# Total GULP energy -67249.916302 kJ/mol
# GULP energy per Si atom -5604.159692 kJ/mol
# Density = 2.480448 g / cm^3
# Si number density = 24.861063 Si / 1000 Ang^3
#
#
#
# Elastic Constant Matrix: (Units=GPa)
#
#
# Indices 1 2 3 4 5 6 
#
# 1 171.4893 86.2015 46.8615 32.9530 35.4997 -7.9350
# 2 86.2015 141.7023 50.3450 42.1730 7.7879 -20.1950
# 3 46.8615 50.3450 114.6106 18.4548 3.9459 3.6734
# 4 32.9530 42.1730 18.4548 56.2922 10.4810 5.1981
# 5 35.4997 7.7879 3.9459 10.4810 52.1641 7.2651
# 6 -7.9350 -20.1950 3.6734 5.1981 7.2651 54.2187
#
#
#
# Elastic Compliance Matrix: (Units=1/GPa)
#
#
# Indices 1 2 3 4 5 6 
#
# 1 0.010203 -0.005012 -0.001686 -0.000598 -0.006032 0.000606
# 2 -0.005012 0.014053 -0.003167 -0.007465 0.002339 0.005118
# 3 -0.001686 -0.003167 0.010873 -0.000209 0.001159 -0.002298
# 4 -0.000598 -0.007465 -0.000209 0.024737 -0.002757 -0.004856
# 5 -0.006032 0.002339 0.001159 -0.002757 0.023812 -0.003017
# 6 0.000606 0.005118 -0.002298 -0.004856 -0.003017 0.021464
#
#
# Mechanical properties :
#
#
# Convention : Reuss Voigt Hill
#
# Bulk Modulus (GPa) = 64.93128 88.29091 76.61109
# Shear Modulus (GPa) = 38.46032 48.82794 43.64413
#
# Velocity S-wave (km/s) = 3.93747 4.43655 4.19444
# Velocity P-wave (km/s) = 6.84441 7.86351 7.37159
#
# Compressibility (1/GPa) = 0.01540090
#
# Stress axis : x y z
#
# Youngs Moduli (GPa) = 98.01245 71.15754 91.97283
#
# Poissons Ratio (x) = 0.35663 0.15503
# Poissons Ratio (y) = 0.49122 0.29124
# Poissons Ratio (z) = 0.16521 0.22533
#
# Static dielectric constant tensor:
#      x y z
#    x 1.938280 -0.002540 -0.020990 
#    y -0.002540 1.935360 -0.036020 
#    z -0.020990 -0.036020 2.049580 
# 
# From -- ./inp_files/497564.got.cif
#   From: 2010.05.17/outbox.cif.g08.bks.cpg/sg2_249_cif.got.tgz:497564.got - 2010.06.03 11:33:40.
