data_PCOD9039344
_publ_section_title
;
Structure prediction by ZEFSAII (Michael W. Deem and Ramdas Pophale) SiO2 
 PCOD9039344
Probable space group: P -1
;
_chemical_formula_sum "Si O2"
_cell_formula_units_Z 16
_cell_length_a 15.405433
_cell_length_b 8.321562
_cell_length_c 7.810946
_cell_angle_alpha 64.813356
_cell_angle_beta 65.301248
_cell_angle_gamma 56.132595
_cell_volume 730.316494
_symmetry_space_group_name_H-M "P -1"
_symmetry_group_IT_number 2
_symmetry_cell_setting 'triclinic'
loop_
_space_group_symop_operation_xyz
x,y,z
-x,-y,-z
loop_
_atom_site_type_symbol
_atom_site_label
_atom_site_fract_x
_atom_site_fract_y
_atom_site_fract_z
Si Si1 0.459043 0.839954 0.147682
Si Si2 0.366586 0.598410 0.895582
Si Si3 0.167441 0.579061 0.893170
Si Si4 0.748849 0.155859 0.795671
Si Si5 0.025973 0.012895 0.171934
Si Si6 0.497375 0.798707 0.535671
Si Si7 0.089031 0.563203 0.343935
Si Si8 0.253614 0.488541 0.524131
O O1 0.538405 0.628399 0.089307
O O2 0.335919 0.918181 0.157439
O O3 0.467910 0.803829 0.359116
O O4 0.500000 0.000000 0.000000
O O5 0.267864 0.615792 0.851870
O O6 0.416275 0.742660 0.730870
O O7 0.313372 0.672961 0.089047
O O8 0.214258 0.432730 0.759050
O O9 0.123914 0.530738 0.128823
O O10 0.069726 0.773638 0.801529
O O11 0.859643 0.000817 0.862924
O O12 0.771131 0.278132 0.571273
O O13 0.038670 0.800392 0.322518
O O14 0.000000 0.000000 0.000000
O O15 0.618853 0.630558 0.535783
O O16 0.500000 0.000000 0.500000
O O17 0.192944 0.453605 0.429369
O O18 0.000000 0.500000 0.500000
#
# Coordination Sequence:
#
# PCOD9039344 Si02
#       8
#     2   2   2   2   2   2   2   2
#     4  12  26  43  66 106 140 179 245 288 347 429
#     4  12  22  44  74  98 142 187 222 296 357 409
#     4  11  22  43  72  99 135 187 229 285 351 419
#     4  11  22  41  74 100 136 189 228 292 352 415
#     4   9  19  42  68  97 130 177 235 271 347 425
#     4  12  27  44  68 103 139 188 238 292 356 420
#     4  10  23  42  67  99 137 179 230 296 345 411
#     4  11  23  44  69  98 137 184 238 281 359 420
#
# _framework density 21.908311000000001
#
# number of rings (size 3 to 8) (size 9 to 14) (size 15 to 20)
#    0.000    1.000    6.250    2.250    1.750    3.500 
#    4.500    3.750    0.000    0.000    0.000    0.000 
#    0.000    0.000    0.000    0.000    0.000    0.000 
#
# Total GULP energy -89375.982779 kJ/mol
# GULP energy per Si atom -5585.998924 kJ/mol
# Density = 2.185845 g / cm^3
# Si number density = 21.908311 Si / 1000 Ang^3
#
#
#
# Elastic Constant Matrix: (Units=GPa)
#
#
# Indices 1 2 3 4 5 6 
#
# 1 189.4476 30.1241 63.0827 -10.7893 -6.7858 -36.7069
# 2 30.1241 25.5063 23.2045 -0.0485 -2.2937 -14.0477
# 3 63.0827 23.2045 141.8189 14.2483 -9.1154 -2.9941
# 4 -10.7893 -0.0485 14.2483 27.7856 4.8647 -4.3215
# 5 -6.7858 -2.2937 -9.1154 4.8647 40.6127 0.0053
# 6 -36.7069 -14.0477 -2.9941 -4.3215 0.0053 29.2648
#
#
#
# Elastic Compliance Matrix: (Units=1/GPa)
#
#
# Indices 1 2 3 4 5 6 
#
# 1 0.010032 0.000167 -0.005112 0.008694 -0.000505 0.013425
# 2 0.000167 0.067957 -0.011638 0.011352 -0.000110 0.033316
# 3 -0.005112 -0.011638 0.012196 -0.010613 0.002499 -0.012319
# 4 0.008694 0.011352 -0.010613 0.049425 -0.006212 0.022568
# 5 -0.000505 -0.000110 0.002499 -0.006212 0.025837 -0.001353
# 6 0.013425 0.033316 -0.012319 0.022568 -0.001353 0.069074
#
#
# Mechanical properties :
#
#
# Convention : Reuss Voigt Hill
#
# Bulk Modulus (GPa) = 17.53789 65.51058 41.52423
# Shear Modulus (GPa) = 17.44015 35.55671 26.49843
#
# Velocity S-wave (km/s) = 2.82450 4.03299 3.48158
# Velocity P-wave (km/s) = 4.31967 7.18706 5.92931
#
# Compressibility (1/GPa) = 0.05701941
#
# Stress axis : x y z
#
# Youngs Moduli (GPa) = 99.67623 14.71528 81.99219
#
# Poissons Ratio (x) = -0.00246 0.41918
# Poissons Ratio (y) = -0.01666 0.95420
# Poissons Ratio (z) = 0.50958 0.17125
#
# Static dielectric constant tensor:
#      x y z
#    x 1.804390 0.007130 0.012330 
#    y 0.007130 1.887730 -0.000850 
#    z 0.012330 -0.000850 1.844910 
# 
# From -- ./inp_files/297588.got.cif
#   From: 2010.05.17/outbox.cif.g08.bks.cpg/sg2_149_cif.got.tgz:297588.got - 2010.06.03 11:33:40.
