data_PCOD9039023
_publ_section_title
;
Structure prediction by ZEFSAII (Michael W. Deem and Ramdas Pophale) SiO2 
 PCOD9039023
Probable space group: P -1
;
_chemical_formula_sum "Si O2"
_cell_formula_units_Z 16
_cell_length_a 13.541058
_cell_length_b 11.895898
_cell_length_c 11.478877
_cell_angle_alpha 103.538868
_cell_angle_beta 158.792718
_cell_angle_gamma 80.599170
_cell_volume 642.319353
_symmetry_space_group_name_H-M "P -1"
_symmetry_group_IT_number 2
_symmetry_cell_setting 'triclinic'
loop_
_space_group_symop_operation_xyz
x,y,z
-x,-y,-z
loop_
_atom_site_type_symbol
_atom_site_label
_atom_site_fract_x
_atom_site_fract_y
_atom_site_fract_z
Si Si1 0.229194 0.268910 0.198219
Si Si2 0.226367 0.754359 0.727873
Si Si3 0.856098 0.419460 0.217500
Si Si4 0.303356 0.063272 0.378571
Si Si5 0.664578 0.456268 0.359918
Si Si6 0.743159 0.395098 0.690427
Si Si7 0.837569 0.860256 0.156342
Si Si8 0.617706 0.985638 0.277642
O O1 0.324490 0.195676 0.390664
O O2 0.474004 0.378428 0.472242
O O3 0.210532 0.200621 0.037599
O O4 0.917104 0.290279 0.881340
O O5 0.157170 0.708788 0.772806
O O6 0.351692 0.649984 0.775802
O O7 0.962028 0.777931 0.366725
O O8 0.442643 0.872174 0.000323
O O9 0.000000 0.500000 0.500000
O O10 0.045526 0.458367 0.323633
O O11 0.565747 0.462137 0.889961
O O12 0.354791 0.046695 0.565652
O O13 0.500000 0.000000 0.500000
O O14 0.000000 0.000000 0.000000
O O15 0.644166 0.396943 0.448860
O O16 0.000000 0.500000 0.000000
O O17 0.081602 0.971295 0.434694
O O18 0.560574 0.908519 0.896988
#
# Coordination Sequence:
#
# PCOD9039023 Si02
#       8
#     2   2   2   2   2   2   2   2
#     4  12  24  46  73  98 134 184 221 275 348 394
#     4  11  25  42  69 100 140 175 222 277 338 388
#     4  10  23  42  65  97 127 179 224 263 336 404
#     4  12  23  44  69  95 135 178 227 274 325 395
#     4  11  24  44  69  94 138 176 220 276 337 402
#     4  12  27  45  71 104 132 172 231 282 335 403
#     4  12  25  44  69  99 137 177 228 267 338 402
#     4  12  26  43  66 105 134 178 226 277 322 403
#
# _framework density 24.909727
#
# number of rings (size 3 to 8) (size 9 to 14) (size 15 to 20)
#    0.000    0.500    3.750    4.875    1.750    6.000 
#    0.000    0.000    0.000    0.000    0.000    0.000 
#    0.000    0.000    0.000    0.000    0.000    0.000 
#
# Total GULP energy -89703.309435 kJ/mol
# GULP energy per Si atom -5606.456840 kJ/mol
# Density = 2.485303 g / cm^3
# Si number density = 24.909727 Si / 1000 Ang^3
#
#
#
# Elastic Constant Matrix: (Units=GPa)
#
#
# Indices 1 2 3 4 5 6 
#
# 1 83.1570 9.7669 39.2279 -24.9539 -2.3916 22.3868
# 2 9.7669 74.1052 24.8233 -17.2507 -5.0883 19.3763
# 3 39.2279 24.8233 116.0728 -21.6163 2.9944 3.1433
# 4 -24.9539 -17.2507 -21.6163 56.8633 9.3606 -12.6441
# 5 -2.3916 -5.0883 2.9944 9.3606 41.7823 -1.0604
# 6 22.3868 19.3763 3.1433 -12.6441 -1.0604 37.1035
#
#
#
# Elastic Compliance Matrix: (Units=1/GPa)
#
#
# Indices 1 2 3 4 5 6 
#
# 1 0.018789 0.003522 -0.005989 0.004454 0.000653 -0.011132
# 2 0.003522 0.017873 -0.004263 0.002808 0.001799 -0.010090
# 3 -0.005989 -0.004263 0.011855 0.002148 -0.002053 0.005509
# 4 0.004454 0.002808 0.002148 0.022685 -0.004556 0.003264
# 5 0.000653 0.001799 -0.002053 -0.004556 0.025307 -0.001989
# 6 -0.011132 -0.010090 0.005509 0.003264 -0.001989 0.039526
#
#
# Mechanical properties :
#
#
# Convention : Reuss Voigt Hill
#
# Bulk Modulus (GPa) = 28.52428 46.77458 37.64943
# Shear Modulus (GPa) = 31.02078 40.45094 35.73586
#
# Velocity S-wave (km/s) = 3.53275 4.03414 3.79174
# Velocity P-wave (km/s) = 5.30248 6.36533 5.85806
#
# Compressibility (1/GPa) = 0.03505786
#
# Stress axis : x y z
#
# Youngs Moduli (GPa) = 53.22139 55.94913 84.35365
#
# Poissons Ratio (x) = -0.19707 0.50521
# Poissons Ratio (y) = -0.18746 0.35960
# Poissons Ratio (z) = 0.31875 0.23851
#
# Static dielectric constant tensor:
#      x y z
#    x 2.020770 0.189200 -0.047580 
#    y 0.189200 2.477750 -0.063570 
#    z -0.047580 -0.063570 1.941580 
# 
# From -- ./inp_files/452429.got.cif
#   From: 2010.05.17/outbox.cif.g08.bks.cpg/sg2_227_cif.got.tgz:452429.got - 2010.06.03 11:33:40.
