data_PCOD9039119
_publ_section_title
;
Structure prediction by ZEFSAII (Michael W. Deem and Ramdas Pophale) SiO2 
 PCOD9039119
Probable space group: P -1
;
_chemical_formula_sum "Si O2"
_cell_formula_units_Z 16
_cell_length_a 10.727098
_cell_length_b 10.947928
_cell_length_c 11.384887
_cell_angle_alpha 37.915730
_cell_angle_beta 51.121930
_cell_angle_gamma 60.932295
_cell_volume 639.488600
_symmetry_space_group_name_H-M "P -1"
_symmetry_group_IT_number 2
_symmetry_cell_setting 'triclinic'
loop_
_space_group_symop_operation_xyz
x,y,z
-x,-y,-z
loop_
_atom_site_type_symbol
_atom_site_label
_atom_site_fract_x
_atom_site_fract_y
_atom_site_fract_z
Si Si1 0.244693 0.114938 0.955119
Si Si2 0.150126 0.437456 0.045186
Si Si3 0.734914 0.485735 0.638847
Si Si4 0.839103 0.007661 0.665710
Si Si5 0.973156 0.612051 0.212765
Si Si6 0.575772 0.294792 0.654138
Si Si7 0.458648 0.653214 0.800461
Si Si8 0.757891 0.140211 0.074495
O O1 0.175629 0.335163 0.822202
O O2 0.428528 0.139311 0.861337
O O3 0.240842 0.031613 0.889217
O O4 0.145971 0.986666 0.205828
O O5 0.220354 0.221300 0.141901
O O6 0.069152 0.441670 0.220225
O O7 0.307507 0.578539 0.865759
O O8 0.000000 0.500000 0.000000
O O9 0.891984 0.563571 0.420535
O O10 0.641433 0.350615 0.701355
O O11 0.617108 0.655305 0.626238
O O12 0.766797 0.342803 0.837292
O O13 0.716191 0.185158 0.580274
O O14 0.000000 0.000000 0.500000
O O15 0.077998 0.816998 0.986371
O O16 0.500000 0.500000 0.500000
O O17 0.393013 0.843869 0.763212
O O18 0.500000 0.500000 0.000000
#
# Coordination Sequence:
#
# PCOD9039119 Si02
#       8
#     2   2   2   2   2   2   2   2
#     4  12  24  44  70 100 142 182 229 290 355 423
#     4  11  23  43  71 100 144 182 232 288 361 418
#     4  11  21  41  69  97 131 181 237 280 350 416
#     4  12  27  43  69 109 141 181 237 295 352 422
#     4  11  23  43  67 101 138 186 222 288 350 425
#     4  12  26  46  73 101 140 183 237 298 358 423
#     4   9  22  40  65  98 135 186 230 286 350 419
#     4  10  23  42  66  94 138 182 234 274 355 420
#
# _framework density 25.019991999999998
#
# number of rings (size 3 to 8) (size 9 to 14) (size 15 to 20)
#    0.000    1.000    3.750    2.625    3.500    0.000 
#    0.000    0.625    0.000    0.000    0.000    0.000 
#    0.000    0.000    0.000    0.000    0.000    0.000 
#
# Total GULP energy -89290.815843 kJ/mol
# GULP energy per Si atom -5580.675990 kJ/mol
# Density = 2.496305 g / cm^3
# Si number density = 25.019992 Si / 1000 Ang^3
#
#
#
# Elastic Constant Matrix: (Units=GPa)
#
#
# Indices 1 2 3 4 5 6 
#
# 1 95.3258 25.9694 11.5012 1.4332 3.0557 -8.8330
# 2 25.9694 209.9813 34.1085 26.2993 1.6561 -19.3147
# 3 11.5012 34.1085 72.8510 29.2537 7.7922 -16.8332
# 4 1.4332 26.2993 29.2537 50.0226 -11.5120 -2.8123
# 5 3.0557 1.6561 7.7922 -11.5120 26.8660 -2.9104
# 6 -8.8330 -19.3147 -16.8332 -2.8123 -2.9104 44.1069
#
#
#
# Elastic Compliance Matrix: (Units=1/GPa)
#
#
# Indices 1 2 3 4 5 6 
#
# 1 0.011077 -0.001175 -0.001333 0.001106 -0.000191 0.001253
# 2 -0.001175 0.005520 -0.000995 -0.002371 -0.000761 0.001600
# 3 -0.001333 -0.000995 0.023598 -0.015799 -0.012702 0.006458
# 4 0.001106 -0.002371 -0.015799 0.034647 0.019083 -0.003378
# 5 -0.000191 -0.000761 -0.012702 0.019083 0.049068 -0.000764
# 6 0.001253 0.001600 0.006458 -0.003378 -0.000764 0.025823
#
#
# Mechanical properties :
#
#
# Convention : Reuss Voigt Hill
#
# Bulk Modulus (GPa) = 30.13203 57.92404 44.02804
# Shear Modulus (GPa) = 29.79708 44.63769 37.21739
#
# Velocity S-wave (km/s) = 3.45473 4.22842 3.86100
# Velocity P-wave (km/s) = 5.28988 6.85863 6.12469
#
# Compressibility (1/GPa) = 0.03318727
#
# Stress axis : x y z
#
# Youngs Moduli (GPa) = 90.27793 181.17398 42.37666
#
# Poissons Ratio (x) = 0.21293 0.05648
# Poissons Ratio (y) = 0.10610 0.04218
# Poissons Ratio (z) = 0.12033 0.18034
#
# Static dielectric constant tensor:
#      x y z
#    x 2.465900 -0.131100 -0.012220 
#    y -0.131100 2.020840 -0.011030 
#    z -0.012220 -0.011030 2.044870 
# 
# From -- ./inp_files/424910.got.cif
#   From: 2010.05.17/outbox.cif.g08.bks.cpg/sg2_213_cif.got.tgz:424910.got - 2010.06.03 11:33:40.
