data_PCOD9039027
_publ_section_title
;
Structure prediction by ZEFSAII (Michael W. Deem and Ramdas Pophale) SiO2 
 PCOD9039027
Probable space group: P -1
;
_chemical_formula_sum "Si O2"
_cell_formula_units_Z 10
_cell_length_a 11.358168
_cell_length_b 13.905932
_cell_length_c 8.034344
_cell_angle_alpha 62.473829
_cell_angle_beta 137.611205
_cell_angle_gamma 148.503488
_cell_volume 393.094463
_symmetry_space_group_name_H-M "P -1"
_symmetry_group_IT_number 2
_symmetry_cell_setting 'triclinic'
loop_
_space_group_symop_operation_xyz
x,y,z
-x,-y,-z
loop_
_atom_site_type_symbol
_atom_site_label
_atom_site_fract_x
_atom_site_fract_y
_atom_site_fract_z
Si Si1 0.273117 0.819522 0.765935
Si Si2 0.221999 0.420098 0.994098
Si Si3 0.398511 0.203636 0.748137
Si Si4 0.493633 0.862127 0.429501
Si Si5 0.530733 0.371949 0.275669
O O1 0.883881 0.581681 0.575369
O O2 0.276098 0.911106 0.549316
O O3 0.460142 0.803875 0.957375
O O4 0.500000 0.000000 0.000000
O O5 0.457102 0.600643 0.233090
O O6 0.260287 0.311780 0.114605
O O7 0.374382 0.545151 0.879520
O O8 0.857612 0.273454 0.772125
O O9 0.521985 0.213718 0.698815
O O10 0.000000 0.000000 0.500000
O O11 0.583000 0.812530 0.685812
#
# Coordination Sequence:
#
# PCOD9039027 Si02
#       5
#     2   2   2   2   2
#     4  10  23  42  65  97 134 167 219 271 321 387
#     4  11  24  44  69  98 135 172 220 271 327 392
#     4  11  24  44  68  99 134 172 222 276 321 391
#     4  11  24  43  72  96 129 181 215 268 334 385
#     4  11  25  46  66  99 137 171 217 275 326 390
#
# _framework density 25.439178999999999
#
# number of rings (size 3 to 8) (size 9 to 14) (size 15 to 20)
#    0.000    1.200    2.000    3.600    5.600    1.600 
#    0.000    3.000    0.000    0.000    0.000    0.000 
#    0.000    0.000    0.000    0.000    0.000    0.000 
#
# Total GULP energy -55956.728899 kJ/mol
# GULP energy per Si atom -5595.672890 kJ/mol
# Density = 2.538128 g / cm^3
# Si number density = 25.439179 Si / 1000 Ang^3
#
#
#
# Elastic Constant Matrix: (Units=GPa)
#
#
# Indices 1 2 3 4 5 6 
#
# 1 165.8413 32.4283 55.8090 12.4986 33.0956 3.8147
# 2 32.4283 129.7582 30.9916 -21.2662 28.7828 -5.1968
# 3 55.8090 30.9916 91.6656 -14.5732 35.8425 -15.9904
# 4 12.4986 -21.2662 -14.5732 22.6858 -15.5214 -12.3365
# 5 33.0956 28.7828 35.8425 -15.5214 58.0314 -10.8320
# 6 3.8147 -5.1968 -15.9904 -12.3365 -10.8320 15.8909
#
#
#
# Elastic Compliance Matrix: (Units=1/GPa)
#
#
# Indices 1 2 3 4 5 6 
#
# 1 0.001280 0.001718 0.003570 0.019911 0.005892 0.023321
# 2 0.001718 0.008236 -0.004292 -0.005890 -0.005985 -0.010690
# 3 0.003570 -0.004292 0.008480 -0.024362 -0.016064 -0.023590
# 4 0.019911 -0.005890 -0.024362 -0.051492 -0.023430 -0.087166
# 5 0.005892 -0.005985 -0.016064 -0.023430 0.015415 -0.027217
# 6 0.023321 -0.010690 -0.023590 -0.087166 -0.027217 -0.056125
#
#
# Mechanical properties :
#
#
# Convention : Reuss Voigt Hill
#
# Bulk Modulus (GPa) = 50.02918 69.52477 59.77698
# Shear Modulus (GPa) = -71.90610 37.19071 -17.35769
#
# Velocity S-wave (km/s) = -5.32234 3.82769 -2.61496
# Velocity P-wave (km/s) = 4.24980 6.85011 3.79890
#
# Compressibility (1/GPa) = 0.01998833
#
# Stress axis : x y z
#
# Youngs Moduli (GPa) = 781.36282 121.41225 117.92854
#
# Poissons Ratio (x) = -0.20857 -0.42100
# Poissons Ratio (y) = -1.34230 0.50611
# Poissons Ratio (z) = -2.78941 0.52106
#
# Static dielectric constant tensor:
#      x y z
#    x 1.976010 0.035250 -0.100830 
#    y 0.035250 2.046240 -0.106150 
#    z -0.100830 -0.106150 2.074380 
# 
# From -- ./inp_files/149761.got.cif
#   From: 2010.05.17/outbox.cif.g08.bks.cpg/sg2_75_cif.got.tgz:149761.got - 2010.06.03 11:33:40.
