data_PCOD9039886
_publ_section_title
;
Structure prediction by ZEFSAII (Michael W. Deem and Ramdas Pophale) SiO2 
 PCOD9039886
Probable space group: P -1
;
_chemical_formula_sum "Si O2"
_cell_formula_units_Z 16
_cell_length_a 5.776518
_cell_length_b 11.524840
_cell_length_c 11.239432
_cell_angle_alpha 107.044184
_cell_angle_beta 99.496758
_cell_angle_gamma 58.607985
_cell_volume 610.598950
_symmetry_space_group_name_H-M "P -1"
_symmetry_group_IT_number 2
_symmetry_cell_setting 'triclinic'
loop_
_space_group_symop_operation_xyz
x,y,z
-x,-y,-z
loop_
_atom_site_type_symbol
_atom_site_label
_atom_site_fract_x
_atom_site_fract_y
_atom_site_fract_z
Si Si1 0.889078 0.574829 0.715818
Si Si2 0.458049 0.351250 0.809610
Si Si3 0.569619 0.046592 0.901243
Si Si4 0.739837 0.122991 0.443704
Si Si5 0.483571 0.688449 0.928745
Si Si6 0.225399 0.651326 0.365927
Si Si7 0.647981 0.885305 0.321383
Si Si8 0.040937 0.781974 0.732214
O O1 0.720146 0.657536 0.844577
O O2 0.744812 0.491568 0.625619
O O3 0.927540 0.676979 0.660030
O O4 0.173211 0.451561 0.752546
O O5 0.681142 0.376503 0.772112
O O6 0.532333 0.190391 0.732662
O O7 0.425458 0.386004 0.957681
O O8 0.300853 0.112583 0.815127
O O9 0.799308 0.919356 0.810547
O O10 0.656908 0.154846 0.984469
O O11 0.500000 0.000000 0.000000
O O12 0.621108 0.273758 0.541850
O O13 0.829152 0.161917 0.338049
O O14 0.563986 0.043684 0.400558
O O15 0.000000 0.000000 0.500000
O O16 0.255484 0.691130 0.826155
O O17 0.914147 0.775637 0.380390
#
# Coordination Sequence:
#
# PCOD9039886 Si02
#       8
#     2   2   2   2   2   2   2   2
#     4  11  24  45  63 101 140 175 230 264 332 403
#     4  10  23  42  72 100 134 183 216 272 337 392
#     4  11  22  40  65 102 138 171 215 273 341 406
#     4  10  24  46  69  98 133 173 227 284 330 396
#     4  11  24  41  70 100 140 174 218 278 330 407
#     4  10  23  45  68  97 133 177 232 274 322 394
#     4   9  22  40  66  98 132 166 223 275 327 397
#     4  12  26  42  68 100 138 182 215 273 347 388
#
# _framework density 26.203779999999998
#
# number of rings (size 3 to 8) (size 9 to 14) (size 15 to 20)
#    0.000    1.500    1.250    2.250    8.750    4.000 
#    4.500    2.500    0.000    0.000    0.000    0.000 
#    0.000    0.000    0.000    0.000    0.000    0.000 
#
# Total GULP energy -89256.322059 kJ/mol
# GULP energy per Si atom -5578.520129 kJ/mol
# Density = 2.614414 g / cm^3
# Si number density = 26.203780 Si / 1000 Ang^3
#
#
#
# Elastic Constant Matrix: (Units=GPa)
#
#
# Indices 1 2 3 4 5 6 
#
# 1 66.6625 39.5873 31.2969 5.7041 -9.4602 21.3085
# 2 39.5873 150.4026 40.6181 19.0119 11.2667 33.0606
# 3 31.2969 40.6181 85.1341 7.5421 -6.6997 15.5204
# 4 5.7041 19.0119 7.5421 37.3118 4.8569 9.5256
# 5 -9.4602 11.2667 -6.6997 4.8569 39.4615 4.6760
# 6 21.3085 33.0606 15.5204 9.5256 4.6760 53.8813
#
#
#
# Elastic Compliance Matrix: (Units=1/GPa)
#
#
# Indices 1 2 3 4 5 6 
#
# 1 0.022192 -0.003778 -0.004853 0.000139 0.006224 -0.005625
# 2 -0.003778 0.009586 -0.002707 -0.002583 -0.003446 -0.002852
# 3 -0.004853 -0.002707 0.015260 -0.001066 0.002431 -0.000838
# 4 0.000139 -0.002583 -0.001066 0.029460 -0.002664 -0.003140
# 5 0.006224 -0.003446 0.002431 -0.002664 0.028924 -0.003086
# 6 -0.005625 -0.002852 -0.000838 -0.003140 -0.003086 0.023598
#
#
# Mechanical properties :
#
#
# Convention : Reuss Voigt Hill
#
# Bulk Modulus (GPa) = 41.04635 58.35599 49.70117
# Shear Modulus (GPa) = 31.28582 38.84406 35.06494
#
# Velocity S-wave (km/s) = 3.45910 3.85435 3.66206
# Velocity P-wave (km/s) = 5.62602 6.49049 6.07365
#
# Compressibility (1/GPa) = 0.02436270
#
# Stress axis : x y z
#
# Youngs Moduli (GPa) = 45.06071 104.31970 65.52987
#
# Poissons Ratio (x) = 0.39412 0.31800
# Poissons Ratio (y) = 0.17024 0.17739
# Poissons Ratio (z) = 0.21867 0.28240
#
# Static dielectric constant tensor:
#      x y z
#    x 1.932020 -0.131220 0.049010 
#    y -0.131220 1.920860 -0.031530 
#    z 0.049010 -0.031530 2.130090 
# 
# From -- ./inp_files/365053.got.cif
#   From: 2010.05.17/outbox.cif.g08.bks.cpg/sg2_183_cif.got.tgz:365053.got - 2010.06.03 11:33:40.
