data_PCOD9039368
_publ_section_title
;
Structure prediction by ZEFSAII (Michael W. Deem and Ramdas Pophale) SiO2 
 PCOD9039368
Probable space group: P -1
;
_chemical_formula_sum "Si O2"
_cell_formula_units_Z 14
_cell_length_a 18.586836
_cell_length_b 5.652577
_cell_length_c 5.982968
_cell_angle_alpha 106.031431
_cell_angle_beta 100.113252
_cell_angle_gamma 75.474358
_cell_volume 581.002968
_symmetry_space_group_name_H-M "P -1"
_symmetry_group_IT_number 2
_symmetry_cell_setting 'triclinic'
loop_
_space_group_symop_operation_xyz
x,y,z
-x,-y,-z
loop_
_atom_site_type_symbol
_atom_site_label
_atom_site_fract_x
_atom_site_fract_y
_atom_site_fract_z
Si Si1 0.697516 0.424590 0.089640
Si Si2 0.932379 0.498849 0.135790
Si Si3 0.572833 0.234671 0.715172
Si Si4 0.224127 0.405107 0.192968
Si Si5 0.806061 0.074722 0.784575
Si Si6 0.036020 0.139254 0.370879
Si Si7 0.591217 0.645292 0.451789
O O1 0.631359 0.290635 0.941566
O O2 0.774053 0.213107 0.036872
O O3 0.710873 0.632385 0.968017
O O4 0.667271 0.556847 0.333628
O O5 0.855260 0.567928 0.977342
O O6 0.931278 0.667036 0.402379
O O7 0.965494 0.234328 0.199136
O O8 0.000000 0.500000 0.000000
O O9 0.586018 0.420951 0.565722
O O10 0.483968 0.319986 0.731705
O O11 0.587542 0.932148 0.607621
O O12 0.225583 0.177591 0.302051
O O13 0.222098 0.693606 0.341195
O O14 0.893279 0.997851 0.766711
O O15 0.000000 0.000000 0.500000
#
# Coordination Sequence:
#
# PCOD9039368 Si02
#       7
#     2   2   2   2   2   2   2
#     4  10  25  42  70  91 144 172 218 271 343 385
#     4  11  23  42  66  87 128 165 223 275 333 393
#     4  10  23  42  68 101 135 170 225 272 313 408
#     4  10  24  42  63  93 127 171 214 270 324 407
#     4  10  24  43  61  96 129 162 225 260 337 396
#     4  11  25  40  68  93 121 173 222 283 335 391
#     4  10  23  42  68 102 130 176 224 263 332 387
#
# _framework density 24.096260999999998
#
# number of rings (size 3 to 8) (size 9 to 14) (size 15 to 20)
#    0.857    0.857    1.429    1.286    8.000    2.286 
#    2.571    4.286    0.000    0.000    0.000    0.000 
#    0.000    0.000    0.000    0.000    0.000    0.000 
#
# Total GULP energy -77943.483391 kJ/mol
# GULP energy per Si atom -5567.391671 kJ/mol
# Density = 2.404142 g / cm^3
# Si number density = 24.096261 Si / 1000 Ang^3
#
#
#
# Elastic Constant Matrix: (Units=GPa)
#
#
# Indices 1 2 3 4 5 6 
#
# 1 143.7025 36.1230 43.4784 11.5125 -10.6895 -7.7830
# 2 36.1230 158.1390 34.7810 -0.5111 -15.3288 21.4287
# 3 43.4784 34.7810 56.0690 15.3278 -1.1734 -11.6725
# 4 11.5125 -0.5111 15.3278 28.6814 -5.5672 -10.5871
# 5 -10.6895 -15.3288 -1.1734 -5.5672 41.0498 1.9243
# 6 -7.7830 21.4287 -11.6725 -10.5871 1.9243 43.6544
#
#
#
# Elastic Compliance Matrix: (Units=1/GPa)
#
#
# Indices 1 2 3 4 5 6 
#
# 1 0.009315 -0.000351 -0.007093 0.000445 0.002155 -0.000051
# 2 -0.000351 0.009228 -0.007389 0.002752 0.003801 -0.006068
# 3 -0.007093 -0.007389 0.033088 -0.013031 -0.005817 0.008306
# 4 0.000445 0.002752 -0.013031 0.045165 0.006619 0.005906
# 5 0.002155 0.003801 -0.005817 0.006619 0.027196 -0.002631
# 6 -0.000051 -0.006068 0.008306 0.005906 -0.002631 0.029646
#
#
# Mechanical properties :
#
#
# Convention : Reuss Voigt Hill
#
# Bulk Modulus (GPa) = 45.52210 65.18613 55.35412
# Shear Modulus (GPa) = 26.22955 38.91232 32.57093
#
# Velocity S-wave (km/s) = 3.30287 4.02290 3.68054
# Velocity P-wave (km/s) = 5.78602 6.97778 6.40966
#
# Compressibility (1/GPa) = 0.02196735
#
# Stress axis : x y z
#
# Youngs Moduli (GPa) = 107.35599 108.36204 30.22231
#
# Poissons Ratio (x) = 0.03799 0.21436
# Poissons Ratio (y) = 0.03764 0.22330
# Poissons Ratio (z) = 0.76144 0.80065
#
# Static dielectric constant tensor:
#      x y z
#    x 1.881180 -0.004430 -0.016080 
#    y -0.004430 2.024160 0.007170 
#    z -0.016080 0.007170 1.806160 
# 
# From -- ./inp_files/9673.got.cif
#   From: 2010.05.17/outbox.cif.g08.bks.cpg/sg2_5_cif.got.tgz:9673.got - 2010.06.03 11:33:40.
