data_PCOD9039800
_publ_section_title
;
Structure prediction by ZEFSAII (Michael W. Deem and Ramdas Pophale) SiO2 
 PCOD9039800
Probable space group: P -1
;
_chemical_formula_sum "Si O2"
_cell_formula_units_Z 16
_cell_length_a 14.916953
_cell_length_b 9.007465
_cell_length_c 11.550481
_cell_angle_alpha 74.117917
_cell_angle_beta 58.829262
_cell_angle_gamma 37.328442
_cell_volume 776.252842
_symmetry_space_group_name_H-M "P -1"
_symmetry_group_IT_number 2
_symmetry_cell_setting 'triclinic'
loop_
_space_group_symop_operation_xyz
x,y,z
-x,-y,-z
loop_
_atom_site_type_symbol
_atom_site_label
_atom_site_fract_x
_atom_site_fract_y
_atom_site_fract_z
Si Si1 0.722194 0.421059 0.129058
Si Si2 0.404149 0.316030 0.281111
Si Si3 0.373692 0.136922 0.944993
Si Si4 0.948167 0.820003 0.955369
Si Si5 0.308638 0.656288 0.088842
Si Si6 0.970071 0.553042 0.171458
Si Si7 0.674281 0.862284 0.477838
Si Si8 0.563932 0.319121 0.389333
O O1 0.626608 0.696373 0.155443
O O2 0.654602 0.344368 0.246346
O O3 0.914232 0.217182 0.089549
O O4 0.714853 0.411065 0.998595
O O5 0.287458 0.566463 0.229121
O O6 0.317801 0.256975 0.390997
O O7 0.455185 0.354483 0.353746
O O8 0.559318 0.073822 0.143791
O O9 0.177280 0.339227 0.080338
O O10 0.500000 0.000000 0.000000
O O11 0.049351 0.566665 0.876750
O O12 0.816463 0.052415 0.906854
O O13 0.885356 0.804784 0.116042
O O14 0.500000 0.500000 0.000000
O O15 0.855955 0.637138 0.337636
O O16 0.500000 0.000000 0.500000
O O17 0.649693 0.074830 0.451982
O O18 0.500000 0.500000 0.500000
#
# Coordination Sequence:
#
# PCOD9039800 Si02
#       8
#     2   2   2   2   2   2   2   2
#     4  11  23  39  70 100 139 172 242 287 355 401
#     4  11  24  43  72 102 141 191 231 280 359 423
#     4  11  23  43  72 106 141 180 235 292 355 419
#     4  10  24  38  69 101 138 176 241 287 353 404
#     4  12  22  40  64 104 142 179 222 299 352 407
#     4  10  23  42  71 102 139 183 238 291 344 424
#     4  10  24  42  68  96 142 186 232 274 354 428
#     4  11  24  41  69 101 140 181 237 289 345 416
#
# _framework density 20.611840000000001
#
# number of rings (size 3 to 8) (size 9 to 14) (size 15 to 20)
#    0.000    1.250    2.500    2.625   15.750    1.000 
#    0.000    1.250    2.750    0.000    0.000    0.000 
#    0.000    0.000    0.000    0.000    0.000    0.000 
#
# Total GULP energy -89132.611762 kJ/mol
# GULP energy per Si atom -5570.788235 kJ/mol
# Density = 2.056493 g / cm^3
# Si number density = 20.611840 Si / 1000 Ang^3
#
#
#
# Elastic Constant Matrix: (Units=GPa)
#
#
# Indices 1 2 3 4 5 6 
#
# 1 98.0604 42.5754 40.6452 -2.8091 2.5119 6.4473
# 2 42.5754 142.1557 58.8645 -28.6365 -8.0828 8.2107
# 3 40.6452 58.8645 117.1270 -22.1296 -8.6975 0.1339
# 4 -2.8091 -28.6365 -22.1296 44.4031 12.5947 0.2710
# 5 2.5119 -8.0828 -8.6975 12.5947 33.5512 0.4643
# 6 6.4473 8.2107 0.1339 0.2710 0.4643 40.3527
#
#
#
# Elastic Compliance Matrix: (Units=1/GPa)
#
#
# Indices 1 2 3 4 5 6 
#
# 1 0.013031 -0.002882 -0.003644 -0.002357 -0.001710 -0.001448
# 2 -0.002882 0.010326 -0.003268 0.004841 0.000062 -0.001663
# 3 -0.003644 -0.003268 0.012175 0.003333 0.001374 0.001169
# 4 -0.002357 0.004841 0.003333 0.029692 -0.008929 -0.000716
# 5 -0.001710 0.000062 0.001374 -0.008929 0.033657 -0.000071
# 6 -0.001448 -0.001663 0.001169 -0.000716 -0.000071 0.025353
#
#
# Mechanical properties :
#
#
# Convention : Reuss Voigt Hill
#
# Bulk Modulus (GPa) = 62.72278 71.27926 67.00102
# Shear Modulus (GPa) = 33.52613 38.01194 35.76903
#
# Velocity S-wave (km/s) = 4.03742 4.29905 4.17029
# Velocity P-wave (km/s) = 7.22709 7.70060 7.46760
#
# Compressibility (1/GPa) = 0.01594317
#
# Stress axis : x y z
#
# Youngs Moduli (GPa) = 76.73946 96.84540 82.13438
#
# Poissons Ratio (x) = 0.27912 0.29931
# Poissons Ratio (y) = 0.22117 0.26843
# Poissons Ratio (z) = 0.27965 0.31650
#
# Static dielectric constant tensor:
#      x y z
#    x 1.740280 0.014770 0.015570 
#    y 0.014770 1.800530 0.004090 
#    z 0.015570 0.004090 1.818370 
# 
# From -- ./inp_files/445855.got.cif
#   From: 2010.05.17/outbox.cif.g08.bks.cpg/sg2_223_cif.got.tgz:445855.got - 2010.06.03 11:33:40.
