data_PCOD9039355
_publ_section_title
;
Structure prediction by ZEFSAII (Michael W. Deem and Ramdas Pophale) SiO2 
 PCOD9039355
Probable space group: P -1
;
_chemical_formula_sum "Si O2"
_cell_formula_units_Z 16
_cell_length_a 11.796046
_cell_length_b 8.972177
_cell_length_c 11.380459
_cell_angle_alpha 128.805710
_cell_angle_beta 93.270689
_cell_angle_gamma 56.883894
_cell_volume 707.050959
_symmetry_space_group_name_H-M "P -1"
_symmetry_group_IT_number 2
_symmetry_cell_setting 'triclinic'
loop_
_space_group_symop_operation_xyz
x,y,z
-x,-y,-z
loop_
_atom_site_type_symbol
_atom_site_label
_atom_site_fract_x
_atom_site_fract_y
_atom_site_fract_z
Si Si1 0.778474 0.057912 0.743139
Si Si2 0.828318 0.726415 0.062021
Si Si3 0.797024 0.404866 0.263027
Si Si4 0.681275 0.272215 0.386169
Si Si5 0.608823 0.950565 0.585093
Si Si6 0.343192 0.430268 0.925191
Si Si7 0.932571 0.208427 0.498237
Si Si8 0.894210 0.702520 0.788337
O O1 0.793519 0.895236 0.772055
O O2 0.946158 0.950381 0.677856
O O3 0.720939 0.004705 0.599431
O O4 0.667720 0.352399 0.909515
O O5 0.751056 0.610404 0.022822
O O6 0.739275 0.988851 0.259092
O O7 0.824759 0.782298 0.952685
O O8 0.000000 0.500000 0.000000
O O9 0.752526 0.264485 0.261706
O O10 0.728551 0.470473 0.160545
O O11 0.961911 0.313036 0.210790
O O12 0.713151 0.654411 0.463055
O O13 0.500000 0.500000 0.500000
O O14 0.770738 0.303473 0.500650
O O15 0.501845 0.152378 0.778089
O O16 0.500000 0.000000 0.500000
O O17 0.930273 0.438424 0.636718
O O18 0.000000 0.000000 0.500000
#
# Coordination Sequence:
#
# PCOD9039355 Si02
#       8
#     2   2   2   2   2   2   2   2
#     4  12  23  43  69 101 135 182 241 287 346 420
#     4  12  25  44  69 104 144 186 238 293 351 419
#     4  11  22  43  71 101 135 184 234 286 349 422
#     4  12  27  47  71 106 146 188 234 299 367 423
#     4  10  23  42  68 100 137 179 229 289 356 421
#     4  11  24  41  67 102 140 181 231 288 353 420
#     4  12  26  43  70 105 140 186 240 297 352 422
#     4  12  24  43  71 101 136 180 240 289 341 416
#
# _framework density 22.629204999999999
#
# number of rings (size 3 to 8) (size 9 to 14) (size 15 to 20)
#    0.000    0.500    3.750    5.250    0.000    3.000 
#    0.000    5.000    0.000    0.000    0.000    0.000 
#    0.000    0.000    0.000    0.000    0.000    0.000 
#
# Total GULP energy -89373.095223 kJ/mol
# GULP energy per Si atom -5585.818451 kJ/mol
# Density = 2.257770 g / cm^3
# Si number density = 22.629205 Si / 1000 Ang^3
#
#
#
# Elastic Constant Matrix: (Units=GPa)
#
#
# Indices 1 2 3 4 5 6 
#
# 1 123.7920 51.3989 26.7964 4.2895 1.6447 -7.3881
# 2 51.3989 90.6780 20.7454 -11.6599 0.1422 19.9071
# 3 26.7964 20.7454 99.6659 24.2366 15.4749 6.9575
# 4 4.2895 -11.6599 24.2366 36.4614 4.9246 1.5484
# 5 1.6447 0.1422 15.4749 4.9246 32.3616 5.7392
# 6 -7.3881 19.9071 6.9575 1.5484 5.7392 46.4807
#
#
#
# Elastic Compliance Matrix: (Units=1/GPa)
#
#
# Indices 1 2 3 4 5 6 
#
# 1 0.012332 -0.008563 -0.000946 -0.003729 -0.000628 0.005971
# 2 -0.008563 0.020386 -0.004152 0.010372 0.002549 -0.010131
# 3 -0.000946 -0.004152 0.014406 -0.010087 -0.005371 0.000471
# 4 -0.003729 0.010372 -0.010087 0.038088 0.000022 -0.004797
# 5 -0.000628 0.002549 -0.005371 0.000022 0.034307 -0.004624
# 6 0.005971 -0.010131 0.000471 -0.004797 -0.004624 0.027463
#
#
# Mechanical properties :
#
#
# Convention : Reuss Voigt Hill
#
# Bulk Modulus (GPa) = 50.49894 56.89081 53.69487
# Shear Modulus (GPa) = 27.63910 37.40707 32.52309
#
# Velocity S-wave (km/s) = 3.49863 4.07018 3.79518
# Velocity P-wave (km/s) = 6.21971 6.87630 6.55623
#
# Compressibility (1/GPa) = 0.01980240
#
# Stress axis : x y z
#
# Youngs Moduli (GPa) = 81.08823 49.05404 69.41585
#
# Poissons Ratio (x) = 0.42007 0.06564
# Poissons Ratio (y) = 0.69439 0.28820
# Poissons Ratio (z) = 0.07667 0.20366
#
# Static dielectric constant tensor:
#      x y z
#    x 1.899240 0.078410 0.040530 
#    y 0.078410 1.660390 -0.051190 
#    z 0.040530 -0.051190 1.837260 
# 
# From -- ./inp_files/420017.got.cif
#   From: 2010.05.17/outbox.cif.g08.bks.cpg/sg2_211_cif.got.tgz:420017.got - 2010.06.03 11:33:40.
