data_PCOD9039737
_publ_section_title
;
Structure prediction by ZEFSAII (Michael W. Deem and Ramdas Pophale) SiO2 
 PCOD9039737
Probable space group: P -1
;
_chemical_formula_sum "Si O2"
_cell_formula_units_Z 16
_cell_length_a 18.204422
_cell_length_b 9.918180
_cell_length_c 6.611757
_cell_angle_alpha 106.294173
_cell_angle_beta 138.713955
_cell_angle_gamma 74.494791
_cell_volume 753.028264
_symmetry_space_group_name_H-M "P -1"
_symmetry_group_IT_number 2
_symmetry_cell_setting 'triclinic'
loop_
_space_group_symop_operation_xyz
x,y,z
-x,-y,-z
loop_
_atom_site_type_symbol
_atom_site_label
_atom_site_fract_x
_atom_site_fract_y
_atom_site_fract_z
Si Si1 0.472203 0.870598 0.249625
Si Si2 0.953547 0.372757 0.220730
Si Si3 0.227650 0.410743 0.234336
Si Si4 0.444169 0.361428 0.386914
Si Si5 0.973210 0.143572 0.882974
Si Si6 0.665089 0.773260 0.285939
Si Si7 0.765450 0.019254 0.369519
Si Si8 0.073085 0.170520 0.673558
O O1 0.471633 0.739798 0.346240
O O2 0.570251 0.834696 0.273594
O O3 0.500000 0.000000 0.500000
O O4 0.354872 0.916012 0.923306
O O5 0.000000 0.500000 0.500000
O O6 0.968314 0.244494 0.359335
O O7 0.844192 0.445259 0.914367
O O8 0.015496 0.285383 0.126121
O O9 0.339038 0.403202 0.329822
O O10 0.265789 0.359887 0.517133
O O11 0.151716 0.291338 0.949052
O O12 0.500000 0.500000 0.500000
O O13 0.396736 0.279193 0.063171
O O14 0.838772 0.148512 0.624001
O O15 0.023524 0.118161 0.755578
O O16 0.000000 0.000000 0.000000
O O17 0.741287 0.899012 0.433820
O O18 0.841983 0.936226 0.321211
#
# Coordination Sequence:
#
# PCOD9039737 Si02
#       8
#     2   2   2   2   2   2   2   2
#     4  11  24  45  69 106 133 184 237 284 354 431
#     4  10  25  45  66  98 136 182 234 278 348 419
#     4  10  23  42  70  94 132 187 227 278 360 417
#     4  11  25  44  67 100 139 178 230 297 348 419
#     4  12  26  43  68 106 140 181 235 295 343 408
#     4  11  23  45  71  97 141 178 229 290 354 412
#     4  12  23  42  72 101 138 189 229 290 357 406
#     4  11  23  46  66  98 144 179 231 289 340 422
#
# _framework density 21.247541999999999
#
# number of rings (size 3 to 8) (size 9 to 14) (size 15 to 20)
#    0.000    1.000    3.750    2.250    0.000    8.000 
#    0.000    0.000    0.000    0.000    0.000    0.000 
#    0.000    0.000    0.000    0.000    0.000    0.000 
#
# Total GULP energy -89214.772593 kJ/mol
# GULP energy per Si atom -5575.923287 kJ/mol
# Density = 2.119918 g / cm^3
# Si number density = 21.247542 Si / 1000 Ang^3
#
#
#
# Elastic Constant Matrix: (Units=GPa)
#
#
# Indices 1 2 3 4 5 6 
#
# 1 120.0295 68.5604 42.9824 -15.1837 -8.0808 18.8307
# 2 68.5604 127.6314 39.0516 -23.0700 -7.1652 -0.8881
# 3 42.9824 39.0516 72.7189 -25.1645 -0.8464 -4.6400
# 4 -15.1837 -23.0700 -25.1645 57.1987 -1.7267 2.3646
# 5 -8.0808 -7.1652 -0.8464 -1.7267 37.4604 2.2957
# 6 18.8307 -0.8881 -4.6400 2.3646 2.2957 40.5102
#
#
#
# Elastic Compliance Matrix: (Units=1/GPa)
#
#
# Indices 1 2 3 4 5 6 
#
# 1 0.015811 -0.006546 -0.006664 -0.000955 0.002475 -0.008341
# 2 -0.006546 0.012390 -0.001761 0.002390 0.000849 0.002925
# 3 -0.006664 -0.001761 0.021240 0.006611 -0.001307 0.005180
# 4 -0.000955 0.002390 0.006611 0.021146 0.001379 -0.000059
# 5 0.002475 0.000849 -0.001307 0.001379 0.027605 -0.002926
# 6 -0.008341 0.002925 0.005180 -0.000059 -0.002926 0.029389
#
#
# Mechanical properties :
#
#
# Convention : Reuss Voigt Hill
#
# Bulk Modulus (GPa) = 51.28718 69.06317 60.17518
# Shear Modulus (GPa) = 30.48357 38.35288 34.41822
#
# Velocity S-wave (km/s) = 3.79183 4.25320 4.02913
# Velocity P-wave (km/s) = 6.58491 7.52956 7.07302
#
# Compressibility (1/GPa) = 0.01949805
#
# Stress axis : x y z
#
# Youngs Moduli (GPa) = 63.24637 80.70855 47.08181
#
# Poissons Ratio (x) = 0.52833 0.31377
# Poissons Ratio (y) = 0.41402 0.08292
# Poissons Ratio (z) = 0.42149 0.14214
#
# Static dielectric constant tensor:
#      x y z
#    x 1.736660 0.013830 -0.036100 
#    y 0.013830 1.794220 0.028420 
#    z -0.036100 0.028420 1.804780 
# 
# From -- ./inp_files/107292.got.cif
#   From: 2010.05.17/outbox.cif.g08.bks.cpg/sg2_54_cif.got.tgz:107292.got - 2010.06.03 11:33:40.
