data_PCOD9039338
_publ_section_title
;
Structure prediction by ZEFSAII (Michael W. Deem and Ramdas Pophale) SiO2 
 PCOD9039338
Probable space group: P -1
;
_chemical_formula_sum "Si O2"
_cell_formula_units_Z 12
_cell_length_a 9.525356
_cell_length_b 7.934728
_cell_length_c 9.983313
_cell_angle_alpha 45.466704
_cell_angle_beta 83.669708
_cell_angle_gamma 92.726943
_cell_volume 526.222951
_symmetry_space_group_name_H-M "P -1"
_symmetry_group_IT_number 2
_symmetry_cell_setting 'triclinic'
loop_
_space_group_symop_operation_xyz
x,y,z
-x,-y,-z
loop_
_atom_site_type_symbol
_atom_site_label
_atom_site_fract_x
_atom_site_fract_y
_atom_site_fract_z
Si Si1 0.341389 0.485737 0.080224
Si Si2 0.841172 0.672607 0.318987
Si Si3 0.649434 0.012158 0.058701
Si Si4 0.142992 0.828031 0.288462
Si Si5 0.173266 0.026012 0.462515
Si Si6 0.132180 0.535566 0.861939
O O1 0.331616 0.750531 0.985327
O O2 0.271957 0.288589 0.309117
O O3 0.500000 0.500000 0.000000
O O4 0.246765 0.421089 0.994228
O O5 0.696345 0.784244 0.257702
O O6 0.834265 0.446945 0.544956
O O7 0.890174 0.579430 0.220055
O O8 0.977396 0.850614 0.267284
O O9 0.771198 0.057841 0.909106
O O10 0.500000 0.000000 0.000000
O O11 0.202219 0.937375 0.360793
O O12 0.197426 0.817121 0.676834
O O13 0.000000 0.000000 0.500000
O O14 0.000000 0.500000 0.000000
#
# Coordination Sequence:
#
# PCOD9039338 Si02
#       6
#     2   2   2   2   2   2
#     4  12  27  45  67  99 139 180 225 277 342 403
#     4  10  23  42  67  99 132 174 224 277 330 394
#     4  12  26  43  68  95 136 182 220 278 337 404
#     4  10  23  42  68  98 133 170 226 276 331 394
#     4  11  24  41  71 100 137 173 225 278 331 400
#     4  11  22  41  71 101 132 179 226 277 335 396
#
# _framework density 22.804023000000001
#
# number of rings (size 3 to 8) (size 9 to 14) (size 15 to 20)
#    0.000    1.000    1.667    4.500    7.000    1.333 
#    0.000    0.000    0.000    0.000    0.000    0.000 
#    0.000    0.000    0.000    0.000    0.000    0.000 
#
# Total GULP energy -66986.873541 kJ/mol
# GULP energy per Si atom -5582.239462 kJ/mol
# Density = 2.275212 g / cm^3
# Si number density = 22.804023 Si / 1000 Ang^3
#
#
#
# Elastic Constant Matrix: (Units=GPa)
#
#
# Indices 1 2 3 4 5 6 
#
# 1 101.5710 6.8876 24.1024 -23.9778 14.3125 2.6671
# 2 6.8876 80.9238 18.8350 2.2799 0.1179 -9.8821
# 3 24.1024 18.8350 117.2211 -24.2252 12.1754 0.2478
# 4 -23.9778 2.2799 -24.2252 38.6199 -2.6708 2.7220
# 5 14.3125 0.1179 12.1754 -2.6708 32.2808 4.5931
# 6 2.6671 -9.8821 0.2478 2.7220 4.5931 33.5103
#
#
#
# Elastic Compliance Matrix: (Units=1/GPa)
#
#
# Indices 1 2 3 4 5 6 
#
# 1 0.012437 -0.001346 -0.000340 0.007367 -0.004579 -0.001355
# 2 -0.001346 0.013753 -0.002765 -0.003645 0.000663 0.004388
# 3 -0.000340 -0.002765 0.010729 0.006528 -0.003210 -0.000958
# 4 0.007367 -0.003645 0.006528 0.034922 -0.002222 -0.004242
# 5 -0.004579 0.000663 -0.003210 -0.002222 0.034599 -0.003978
# 6 -0.001355 0.004388 -0.000958 -0.004242 -0.003978 0.032140
#
#
# Mechanical properties :
#
#
# Convention : Reuss Voigt Hill
#
# Bulk Modulus (GPa) = 35.69041 44.37399 40.03220
# Shear Modulus (GPa) = 31.88341 37.54159 34.71250
#
# Velocity S-wave (km/s) = 3.74324 4.06183 3.90578
# Velocity P-wave (km/s) = 5.86237 6.44197 6.15899
#
# Compressibility (1/GPa) = 0.02801873
#
# Stress axis : x y z
#
# Youngs Moduli (GPa) = 80.40425 72.71187 93.20108
#
# Poissons Ratio (x) = 0.09785 0.03170
# Poissons Ratio (y) = 0.10820 0.25766
# Poissons Ratio (z) = 0.02735 0.20102
#
# Static dielectric constant tensor:
#      x y z
#    x 1.813790 -0.078730 0.071630 
#    y -0.078730 1.863320 -0.047530 
#    z 0.071630 -0.047530 1.842440 
# 
# From -- ./inp_files/156483.got.cif
#   From: 2010.05.17/outbox.cif.g08.bks.cpg/sg2_79_cif.got.tgz:156483.got - 2010.06.03 11:33:40.
