data_PCOD9039496
_publ_section_title
;
Structure prediction by ZEFSAII (Michael W. Deem and Ramdas Pophale) SiO2 
 PCOD9039496
Probable space group: P -1
;
_chemical_formula_sum "Si O2"
_cell_formula_units_Z 16
_cell_length_a 8.637244
_cell_length_b 9.941622
_cell_length_c 19.375133
_cell_angle_alpha 123.670491
_cell_angle_beta 145.361679
_cell_angle_gamma 55.523400
_cell_volume 765.458613
_symmetry_space_group_name_H-M "P -1"
_symmetry_group_IT_number 2
_symmetry_cell_setting 'triclinic'
loop_
_space_group_symop_operation_xyz
x,y,z
-x,-y,-z
loop_
_atom_site_type_symbol
_atom_site_label
_atom_site_fract_x
_atom_site_fract_y
_atom_site_fract_z
Si Si1 0.678228 0.957153 0.658972
Si Si2 0.652761 0.631259 0.625570
Si Si3 0.113320 0.063434 0.950101
Si Si4 0.689827 0.618685 0.918493
Si Si5 0.675605 0.227034 0.953980
Si Si6 0.396662 0.576893 0.654903
Si Si7 0.729781 0.482546 0.157751
Si Si8 0.231781 0.232237 0.504641
O O1 0.562626 0.816781 0.616758
O O2 0.771663 0.879783 0.596257
O O3 0.937742 0.991690 0.807531
O O4 0.435470 0.121457 0.603629
O O5 0.500000 0.500000 0.500000
O O6 0.594068 0.626767 0.683865
O O7 0.979827 0.566094 0.710099
O O8 0.882528 0.159984 0.948015
O O9 0.274646 0.193046 0.014567
O O10 0.307792 0.919162 0.026204
O O11 0.528519 0.591523 0.781984
O O12 0.509884 0.572663 0.902008
O O13 0.000000 0.500000 0.000000
O O14 0.374153 0.322949 0.842224
O O15 0.771529 0.373186 0.072453
O O16 0.361328 0.389336 0.578520
O O17 0.085834 0.693797 0.567682
#
# Coordination Sequence:
#
# PCOD9039496 Si02
#       8
#     2   2   2   2   2   2   2   2
#     4  11  23  46  70 100 137 176 227 284 334 402
#     4  12  25  45  69  96 135 182 231 274 334 395
#     4  11  23  44  68 102 140 175 215 284 343 399
#     4  12  25  42  71 104 135 178 221 274 348 401
#     4  10  23  42  68  98 140 173 218 275 341 400
#     4  11  25  44  70  98 136 178 233 274 337 399
#     4  11  24  46  68  98 137 176 231 275 329 412
#     4  10  24  47  69  98 135 179 228 288 329 393
#
# _framework density 20.902502999999999
#
# number of rings (size 3 to 8) (size 9 to 14) (size 15 to 20)
#    0.000    1.000    3.750    2.250    5.250    1.000 
#    2.250    0.000    0.000    0.000    0.000    0.000 
#    0.000    0.000    0.000    0.000    0.000    0.000 
#
# Total GULP energy -89494.331579 kJ/mol
# GULP energy per Si atom -5593.395724 kJ/mol
# Density = 2.085493 g / cm^3
# Si number density = 20.902503 Si / 1000 Ang^3
#
#
#
# Elastic Constant Matrix: (Units=GPa)
#
#
# Indices 1 2 3 4 5 6 
#
# 1 75.2967 35.8966 31.2627 -0.6823 3.3624 13.4873
# 2 35.8966 157.5345 34.7414 -21.8294 14.1529 13.1698
# 3 31.2627 34.7414 69.4906 4.2565 3.9045 10.8672
# 4 -0.6823 -21.8294 4.2565 32.1032 -5.1757 -4.2983
# 5 3.3624 14.1529 3.9045 -5.1757 35.4817 0.8788
# 6 13.4873 13.1698 10.8672 -4.2983 0.8788 29.2650
#
#
#
# Elastic Compliance Matrix: (Units=1/GPa)
#
#
# Indices 1 2 3 4 5 6 
#
# 1 0.017822 -0.002499 -0.005893 -0.001235 -0.000098 -0.005079
# 2 -0.002499 0.008713 -0.003392 0.005923 -0.001987 -0.000580
# 3 -0.005893 -0.003392 0.019756 -0.005736 -0.001002 -0.003906
# 4 -0.001235 0.005923 -0.005736 0.037227 0.003682 0.005391
# 5 -0.000098 -0.001987 -0.001002 0.003682 0.029609 0.000963
# 6 -0.005079 -0.000580 -0.003906 0.005391 0.000963 0.038986
#
#
# Mechanical properties :
#
#
# Convention : Reuss Voigt Hill
#
# Bulk Modulus (GPa) = 44.00934 56.23591 50.12262
# Shear Modulus (GPa) = 27.28431 32.73137 30.00784
#
# Velocity S-wave (km/s) = 3.61683 3.96145 3.79305
# Velocity P-wave (km/s) = 6.20824 6.92000 6.57376
#
# Compressibility (1/GPa) = 0.02272245
#
# Stress axis : x y z
#
# Youngs Moduli (GPa) = 56.11080 114.76855 50.61753
#
# Poissons Ratio (x) = 0.28682 0.29828
# Poissons Ratio (y) = 0.14023 0.17171
# Poissons Ratio (z) = 0.33066 0.38932
#
# Static dielectric constant tensor:
#      x y z
#    x 1.750450 -0.011070 -0.020150 
#    y -0.011070 1.765650 -0.026390 
#    z -0.020150 -0.026390 1.741820 
# 
# From -- ./inp_files/345409.got.cif
#   From: 2010.05.17/outbox.cif.g08.bks.cpg/sg2_173_cif.got.tgz:345409.got - 2010.06.03 11:33:40.
