data_PCOD9039274
_publ_section_title
;
Structure prediction by ZEFSAII (Michael W. Deem and Ramdas Pophale) SiO2 
 PCOD9039274
Probable space group: P -1
;
_chemical_formula_sum "Si O2"
_cell_formula_units_Z 16
_cell_length_a 7.495841
_cell_length_b 15.069080
_cell_length_c 9.012320
_cell_angle_alpha 118.542219
_cell_angle_beta 95.168513
_cell_angle_gamma 124.110538
_cell_volume 644.495218
_symmetry_space_group_name_H-M "P -1"
_symmetry_group_IT_number 2
_symmetry_cell_setting 'triclinic'
loop_
_space_group_symop_operation_xyz
x,y,z
-x,-y,-z
loop_
_atom_site_type_symbol
_atom_site_label
_atom_site_fract_x
_atom_site_fract_y
_atom_site_fract_z
Si Si1 0.299274 0.628458 0.526008
Si Si2 0.484045 0.106013 0.516663
Si Si3 0.994032 0.645740 0.320094
Si Si4 0.760070 0.923813 0.253426
Si Si5 0.520814 0.359304 0.129101
Si Si6 0.197483 0.234062 0.454698
Si Si7 0.853706 0.655070 0.760743
Si Si8 0.614770 0.060973 0.894963
O O1 0.123808 0.652056 0.484854
O O2 0.397345 0.665713 0.732142
O O3 0.530686 0.708145 0.492664
O O4 0.153904 0.467044 0.361428
O O5 0.761255 0.257560 0.684773
O O6 0.273941 0.079725 0.574969
O O7 0.500000 0.000000 0.500000
O O8 0.422155 0.053406 0.299469
O O9 0.760872 0.481688 0.148321
O O10 0.887047 0.717141 0.388724
O O11 0.539689 0.908287 0.162307
O O12 0.687804 0.785053 0.084985
O O13 0.997783 0.067446 0.313537
O O14 0.388660 0.410155 0.214497
O O15 0.175756 0.292873 0.351121
O O16 0.103204 0.793980 0.961246
O O17 0.500000 0.000000 0.000000
#
# Coordination Sequence:
#
# PCOD9039274 Si02
#       8
#     2   2   2   2   2   2   2   2
#     4  11  24  37  66 104 132 170 228 272 330 394
#     4  10  23  42  67  94 132 179 218 266 334 397
#     4  12  21  41  71  90 129 185 216 269 336 391
#     4  11  24  42  63  97 135 177 215 272 332 395
#     4  11  24  38  66  95 137 175 214 276 338 385
#     4  11  21  41  65  94 141 170 214 278 334 380
#     4  11  21  40  60 101 136 167 220 283 327 388
#     4  11  21  37  67  95 125 168 220 271 326 382
#
# _framework density 24.825631999999999
#
# number of rings (size 3 to 8) (size 9 to 14) (size 15 to 20)
#    0.000    1.000    6.250    1.875    3.500    3.500 
#    0.000    2.500    0.000    4.500    0.000    0.000 
#    0.000    0.000    0.000    0.000    0.000    0.000 
#
# Total GULP energy -89517.422615 kJ/mol
# GULP energy per Si atom -5594.838913 kJ/mol
# Density = 2.476913 g / cm^3
# Si number density = 24.825632 Si / 1000 Ang^3
#
#
#
# Elastic Constant Matrix: (Units=GPa)
#
#
# Indices 1 2 3 4 5 6 
#
# 1 94.9908 14.7822 8.6628 3.6020 2.1483 17.0707
# 2 14.7822 138.9415 32.8877 35.9726 -4.9183 40.2965
# 3 8.6628 32.8877 79.2729 18.5210 -20.3737 0.1622
# 4 3.6020 35.9726 18.5210 44.4540 4.2465 7.1658
# 5 2.1483 -4.9183 -20.3737 4.2465 32.8228 4.3880
# 6 17.0707 40.2965 0.1622 7.1658 4.3880 45.1370
#
#
#
# Elastic Compliance Matrix: (Units=1/GPa)
#
#
# Indices 1 2 3 4 5 6 
#
# 1 0.011478 0.000422 -0.001823 0.000356 -0.001244 -0.004646
# 2 0.000422 0.013159 -0.002963 -0.007940 0.002588 -0.010887
# 3 -0.001823 -0.002963 0.018649 -0.006862 0.011708 0.003218
# 4 0.000356 -0.007940 -0.006862 0.032251 -0.010024 0.002833
# 5 -0.001244 0.002588 0.011708 -0.010024 0.040060 -0.004185
# 6 -0.004646 -0.010887 0.003218 0.002833 -0.004185 0.033577
#
#
# Mechanical properties :
#
#
# Convention : Reuss Voigt Hill
#
# Bulk Modulus (GPa) = 28.93734 47.31897 38.12815
# Shear Modulus (GPa) = 29.51253 41.60759 35.56006
#
# Velocity S-wave (km/s) = 3.45163 4.09833 3.78880
# Velocity P-wave (km/s) = 5.25038 6.44182 5.87637
#
# Compressibility (1/GPa) = 0.03455743
#
# Stress axis : x y z
#
# Youngs Moduli (GPa) = 87.12667 75.99579 53.62322
#
# Poissons Ratio (x) = -0.03204 0.09773
# Poissons Ratio (y) = -0.03673 0.15887
# Poissons Ratio (z) = 0.15880 0.22515
#
# Static dielectric constant tensor:
#      x y z
#    x 1.964920 0.002470 -0.020330 
#    y 0.002470 2.026480 -0.050160 
#    z -0.020330 -0.050160 2.008240 
# 
# From -- ./inp_files/218297.got.cif
#   From: 2010.05.17/outbox.cif.g08.bks.cpg/sg2_110_cif.got.tgz:218297.got - 2010.06.03 11:33:40.
