data_PCOD9039855
_publ_section_title
;
Structure prediction by ZEFSAII (Michael W. Deem and Ramdas Pophale) SiO2 
 PCOD9039855
Probable space group: P -1
;
_chemical_formula_sum "Si O2"
_cell_formula_units_Z 14
_cell_length_a 9.448165
_cell_length_b 11.190089
_cell_length_c 11.820547
_cell_angle_alpha 142.188146
_cell_angle_beta 116.339768
_cell_angle_gamma 51.096243
_cell_volume 592.625500
_symmetry_space_group_name_H-M "P -1"
_symmetry_group_IT_number 2
_symmetry_cell_setting 'triclinic'
loop_
_space_group_symop_operation_xyz
x,y,z
-x,-y,-z
loop_
_atom_site_type_symbol
_atom_site_label
_atom_site_fract_x
_atom_site_fract_y
_atom_site_fract_z
Si Si1 0.252839 0.216641 0.299050
Si Si2 0.557072 0.542447 0.396994
Si Si3 0.423665 0.610092 0.937238
Si Si4 0.736749 0.027652 0.114457
Si Si5 0.809024 0.026511 0.487353
Si Si6 0.112301 0.022632 0.260371
Si Si7 0.643642 0.828143 0.146665
O O1 0.302736 0.411988 0.448002
O O2 0.107690 0.235395 0.354921
O O3 0.450056 0.022744 0.274138
O O4 0.238718 0.110181 0.095754
O O5 0.350184 0.753379 0.471857
O O6 0.589047 0.296185 0.255598
O O7 0.619563 0.517300 0.269272
O O8 0.234847 0.829891 0.068251
O O9 0.594354 0.634370 0.969693
O O10 0.500000 0.500000 0.000000
O O11 0.681720 0.910590 0.104081
O O12 0.923151 0.025925 0.205283
O O13 0.797109 0.031695 0.623379
O O14 0.793294 0.814593 0.276264
O O15 0.000000 0.000000 0.500000
#
# Coordination Sequence:
#
# PCOD9039855 Si02
#       7
#     2   2   2   2   2   2   2
#     4  10  24  40  68 103 136 187 226 283 346 405
#     4  11  25  42  74  97 138 183 239 271 347 423
#     4  11  23  44  70 103 136 186 235 275 350 419
#     4  12  23  47  68 102 145 181 229 282 353 408
#     4  11  23  45  66 105 136 180 232 294 346 397
#     4  11  23  43  70  98 148 177 225 303 337 396
#     4  10  23  42  71  94 142 182 222 290 341 402
#
# _framework density 23.623688000000001
#
# number of rings (size 3 to 8) (size 9 to 14) (size 15 to 20)
#    0.000    1.143    5.714    0.857    2.000    4.571 
#    0.000    2.857    0.000    0.000    0.000    0.000 
#    0.000    0.000    0.000    0.000    0.000    0.000 
#
# Total GULP energy -78092.863174 kJ/mol
# GULP energy per Si atom -5578.061655 kJ/mol
# Density = 2.356992 g / cm^3
# Si number density = 23.623688 Si / 1000 Ang^3
#
#
#
# Elastic Constant Matrix: (Units=GPa)
#
#
# Indices 1 2 3 4 5 6 
#
# 1 142.6726 49.3381 23.6012 -8.5047 9.2216 15.6392
# 2 49.3381 76.9365 37.6581 -14.0107 5.6835 12.7710
# 3 23.6012 37.6581 92.6031 -22.6171 17.1116 14.7193
# 4 -8.5047 -14.0107 -22.6171 26.7075 -2.6091 -3.2735
# 5 9.2216 5.6835 17.1116 -2.6091 36.8027 -6.0725
# 6 15.6392 12.7710 14.7193 -3.2735 -6.0725 39.5879
#
#
#
# Elastic Compliance Matrix: (Units=1/GPa)
#
#
# Indices 1 2 3 4 5 6 
#
# 1 0.009284 -0.005757 0.000791 0.000093 -0.002200 -0.002434
# 2 -0.005757 0.020448 -0.005821 0.003854 0.000986 -0.001688
# 3 0.000791 -0.005821 0.017929 0.010965 -0.007747 -0.005383
# 4 0.000093 0.003854 0.010965 0.048312 -0.002582 -0.001758
# 5 -0.002200 0.000986 -0.007747 -0.002582 0.032339 0.008178
# 6 -0.002434 -0.001688 -0.005383 -0.001758 0.008178 0.029877
#
#
# Mechanical properties :
#
#
# Convention : Reuss Voigt Hill
#
# Bulk Modulus (GPa) = 38.33228 59.26746 48.79987
# Shear Modulus (GPa) = 26.53105 34.06060 30.29583
#
# Velocity S-wave (km/s) = 3.35486 3.80122 3.58499
# Velocity P-wave (km/s) = 5.59180 6.66396 6.15128
#
# Compressibility (1/GPa) = 0.02608768
#
# Stress axis : x y z
#
# Youngs Moduli (GPa) = 107.71601 48.90449 55.77457
#
# Poissons Ratio (x) = 0.28156 -0.04414
# Poissons Ratio (y) = 0.62015 0.32465
# Poissons Ratio (z) = -0.08524 0.28466
#
# Static dielectric constant tensor:
#      x y z
#    x 1.944200 0.023360 0.122970 
#    y 0.023360 1.990880 0.064380 
#    z 0.122970 0.064380 2.120850 
# 
# From -- ./inp_files/391697.got.cif
#   From: 2010.05.17/outbox.cif.g08.bks.cpg/sg2_196_cif.got.tgz:391697.got - 2010.06.03 11:33:40.
