data_PCOD9039888
_publ_section_title
;
Structure prediction by ZEFSAII (Michael W. Deem and Ramdas Pophale) SiO2 
 PCOD9039888
Probable space group: P -1
;
_chemical_formula_sum "Si O2"
_cell_formula_units_Z 14
_cell_length_a 15.775462
_cell_length_b 8.287370
_cell_length_c 5.907105
_cell_angle_alpha 56.753509
_cell_angle_beta 114.129397
_cell_angle_gamma 118.591208
_cell_volume 555.721529
_symmetry_space_group_name_H-M "P -1"
_symmetry_group_IT_number 2
_symmetry_cell_setting 'triclinic'
loop_
_space_group_symop_operation_xyz
x,y,z
-x,-y,-z
loop_
_atom_site_type_symbol
_atom_site_label
_atom_site_fract_x
_atom_site_fract_y
_atom_site_fract_z
Si Si1 0.240396 0.518887 0.985547
Si Si2 0.530604 0.112234 0.701459
Si Si3 0.710391 0.005175 0.896768
Si Si4 0.186348 0.198484 0.514819
Si Si5 0.053117 0.205534 0.757002
Si Si6 0.574665 0.615699 0.794779
Si Si7 0.847982 0.177224 0.543704
O O1 0.214399 0.425832 0.277964
O O2 0.349521 0.508854 0.068011
O O3 0.152176 0.362672 0.855154
O O4 0.222729 0.727648 0.743695
O O5 0.645762 0.140878 0.796519
O O6 0.494274 0.308734 0.510895
O O7 0.500000 0.000000 0.500000
O O8 0.500000 0.000000 0.000000
O O9 0.811048 0.145693 0.785109
O O10 0.650336 0.839021 0.775102
O O11 0.728625 0.855027 0.218651
O O12 0.092752 0.149512 0.609439
O O13 0.167242 0.043577 0.407017
O O14 0.963616 0.291751 0.554883
O O15 0.000000 0.000000 0.000000
O O16 0.500000 0.500000 0.000000
#
# Coordination Sequence:
#
# PCOD9039888 Si02
#       7
#     2   2   2   2   2   2   2
#     4  12  26  45  71 106 142 182 247 295 358 438
#     4  10  23  42  72 100 138 192 244 295 373 438
#     4  11  23  46  72 100 147 188 235 301 367 437
#     4  12  23  45  73  99 150 182 241 294 367 426
#     4  12  23  47  72 100 147 192 230 297 365 434
#     4  11  22  47  71 102 144 189 243 305 372 442
#     4  12  26  44  73 107 141 190 240 294 365 438
#
# _framework density 25.192474000000001
#
# number of rings (size 3 to 8) (size 9 to 14) (size 15 to 20)
#    0.000    0.571    5.714    2.571    2.000    1.714 
#    2.571    3.571    0.000    0.000    0.000    0.000 
#    0.000    0.000    0.000    0.000    0.000    0.000 
#
# Total GULP energy -78185.547439 kJ/mol
# GULP energy per Si atom -5584.681960 kJ/mol
# Density = 2.513513 g / cm^3
# Si number density = 25.192474 Si / 1000 Ang^3
#
#
#
# Elastic Constant Matrix: (Units=GPa)
#
#
# Indices 1 2 3 4 5 6 
#
# 1 214.9697 22.7288 64.8286 -6.4025 9.2259 -8.8035
# 2 22.7288 67.8467 8.4353 -9.5001 1.8226 -5.7155
# 3 64.8286 8.4353 159.9151 -21.2555 18.1925 -10.2895
# 4 -6.4025 -9.5001 -21.2555 36.1853 -0.7308 11.5868
# 5 9.2259 1.8226 18.1925 -0.7308 57.8927 -5.8261
# 6 -8.8035 -5.7155 -10.2895 11.5868 -5.8261 28.1653
#
#
#
# Elastic Compliance Matrix: (Units=1/GPa)
#
#
# Indices 1 2 3 4 5 6 
#
# 1 0.005505 -0.001633 -0.002220 -0.001085 -0.000040 0.001016
# 2 -0.001633 0.015867 0.000423 0.003706 -0.000195 0.001299
# 3 -0.002220 0.000423 0.007949 0.004317 -0.002094 0.000087
# 4 -0.001085 0.003706 0.004317 0.035029 -0.002153 -0.012866
# 5 -0.000040 -0.000195 -0.002094 -0.002153 0.018305 0.003855
# 6 0.001016 0.001299 0.000087 -0.012866 0.003855 0.042208
#
#
# Mechanical properties :
#
#
# Convention : Reuss Voigt Hill
#
# Bulk Modulus (GPa) = 44.52114 70.52412 57.52263
# Shear Modulus (GPa) = 35.91736 47.56458 41.74097
#
# Velocity S-wave (km/s) = 3.77996 4.34988 4.07490
# Velocity P-wave (km/s) = 6.06313 7.29956 6.70988
#
# Compressibility (1/GPa) = 0.02246124
#
# Stress axis : x y z
#
# Youngs Moduli (GPa) = 181.65415 63.02301 125.80913
#
# Poissons Ratio (x) = 0.10294 0.27927
# Poissons Ratio (y) = 0.29672 -0.05328
# Poissons Ratio (z) = 0.40324 -0.02669
#
# Static dielectric constant tensor:
#      x y z
#    x 2.021210 -0.077010 -0.051770 
#    y -0.077010 2.319590 0.407610 
#    z -0.051770 0.407610 2.441280 
# 
# From -- ./inp_files/89721.got.cif
#   From: 2010.05.17/outbox.cif.g08.bks.cpg/sg2_45_cif.got.tgz:89721.got - 2010.06.03 11:33:40.
