data_PCOD9039281
_publ_section_title
;
Structure prediction by ZEFSAII (Michael W. Deem and Ramdas Pophale) SiO2 
 PCOD9039281
Probable space group: P -1
;
_chemical_formula_sum "Si O2"
_cell_formula_units_Z 12
_cell_length_a 10.612668
_cell_length_b 11.528689
_cell_length_c 11.359722
_cell_angle_alpha 77.667712
_cell_angle_beta 26.057966
_cell_angle_gamma 89.564182
_cell_volume 538.670933
_symmetry_space_group_name_H-M "P -1"
_symmetry_group_IT_number 2
_symmetry_cell_setting 'triclinic'
loop_
_space_group_symop_operation_xyz
x,y,z
-x,-y,-z
loop_
_atom_site_type_symbol
_atom_site_label
_atom_site_fract_x
_atom_site_fract_y
_atom_site_fract_z
Si Si1 0.884437 0.670727 0.594511
Si Si2 0.424458 0.791806 0.564277
Si Si3 0.707807 0.060886 0.926284
Si Si4 0.275936 0.368323 0.785093
Si Si5 0.733780 0.991661 0.472183
Si Si6 0.465244 0.605851 0.174628
O O1 0.658458 0.543840 0.736280
O O2 0.035777 0.794709 0.355987
O O3 0.163565 0.639119 0.421885
O O4 0.697764 0.691826 0.857255
O O5 0.652552 0.745143 0.311906
O O6 0.605863 0.881572 0.502165
O O7 0.311484 0.882237 0.560111
O O8 0.097626 0.669947 0.903184
O O9 0.904561 0.978991 0.813673
O O10 0.481883 0.061813 0.220405
O O11 0.500000 0.000000 0.000000
O O12 0.500000 0.500000 0.500000
O O13 0.376174 0.379499 0.835124
#
# Coordination Sequence:
#
# PCOD9039281 Si02
#       6
#     2   2   2   2   2   2
#     4  10  23  43  65  98 131 179 215 274 339 396
#     4  11  26  47  71  98 138 182 224 278 346 394
#     4  12  26  42  73 103 135 174 232 279 334 399
#     4  12  26  43  72 104 133 176 230 282 332 401
#     4  11  26  47  70  99 137 183 222 282 338 402
#     4  10  23  42  67  94 135 174 219 272 341 393
#
# _framework density 22.277052999999999
#
# number of rings (size 3 to 8) (size 9 to 14) (size 15 to 20)
#    0.000    1.000    0.000    5.000   11.667    2.667 
#    0.000    0.000    0.000    0.000    0.000    0.000 
#    0.000    0.000    0.000    0.000    0.000    0.000 
#
# Total GULP energy -67261.551128 kJ/mol
# GULP energy per Si atom -5605.129261 kJ/mol
# Density = 2.222635 g / cm^3
# Si number density = 22.277053 Si / 1000 Ang^3
#
#
#
# Elastic Constant Matrix: (Units=GPa)
#
#
# Indices 1 2 3 4 5 6 
#
# 1 90.4826 17.5665 12.0624 14.9985 1.9282 9.1540
# 2 17.5665 52.7691 1.4535 6.7925 12.0089 7.8727
# 3 12.0624 1.4535 85.1340 11.7095 5.6192 17.5232
# 4 14.9985 6.7925 11.7095 39.3421 -6.7472 6.4623
# 5 1.9282 12.0089 5.6192 -6.7472 32.8866 7.3839
# 6 9.1540 7.8727 17.5232 6.4623 7.3839 16.8307
#
#
#
# Elastic Compliance Matrix: (Units=1/GPa)
#
#
# Indices 1 2 3 4 5 6 
#
# 1 0.012705 -0.003389 -0.000550 -0.003341 0.000754 -0.003800
# 2 -0.003389 0.023317 0.002510 -0.003749 -0.008004 -0.006727
# 3 -0.000550 0.002510 0.015380 -0.002274 -0.000425 -0.015828
# 4 -0.003341 -0.003749 -0.002274 0.031703 0.010935 -0.011031
# 5 0.000754 -0.008004 -0.000425 0.010935 0.039597 -0.017794
# 6 -0.003800 -0.006727 -0.015828 -0.011031 -0.017794 0.093150
#
#
# Mechanical properties :
#
#
# Convention : Reuss Voigt Hill
#
# Bulk Modulus (GPa) = 20.59960 32.28340 26.44150
# Shear Modulus (GPa) = 21.28633 30.96544 26.12589
#
# Velocity S-wave (km/s) = 3.09451 3.73234 3.42829
# Velocity P-wave (km/s) = 4.69416 5.75300 5.25034
#
# Compressibility (1/GPa) = 0.04854464
#
# Stress axis : x y z
#
# Youngs Moduli (GPa) = 78.70682 42.88711 65.01912
#
# Poissons Ratio (x) = 0.14535 0.03579
# Poissons Ratio (y) = 0.26674 -0.16323
# Poissons Ratio (z) = 0.04332 -0.10767
#
# Static dielectric constant tensor:
#      x y z
#    x 1.771340 -0.018830 -0.014980 
#    y -0.018830 1.823590 -0.042020 
#    z -0.014980 -0.042020 1.817860 
# 
# From -- ./inp_files/315971.got.cif
#   From: 2010.05.17/outbox.cif.g08.bks.cpg/sg2_158_cif.got.tgz:315971.got - 2010.06.03 11:33:40.
