data_PCOD9039236
_publ_section_title
;
Structure prediction by ZEFSAII (Michael W. Deem and Ramdas Pophale) SiO2 
 PCOD9039236
Probable space group: P -1
;
_chemical_formula_sum "Si O2"
_cell_formula_units_Z 14
_cell_length_a 11.732853
_cell_length_b 12.379818
_cell_length_c 11.629276
_cell_angle_alpha 128.381645
_cell_angle_beta 48.876702
_cell_angle_gamma 153.786830
_cell_volume 559.629319
_symmetry_space_group_name_H-M "P -1"
_symmetry_group_IT_number 2
_symmetry_cell_setting 'triclinic'
loop_
_space_group_symop_operation_xyz
x,y,z
-x,-y,-z
loop_
_atom_site_type_symbol
_atom_site_label
_atom_site_fract_x
_atom_site_fract_y
_atom_site_fract_z
Si Si1 0.559884 0.490617 0.325001
Si Si2 0.260847 0.744022 0.558414
Si Si3 0.100904 0.708094 0.003319
Si Si4 0.706525 0.888223 0.429480
Si Si5 0.983175 0.763108 0.908726
Si Si6 0.394445 0.076687 0.241783
Si Si7 0.172140 0.199017 0.166800
O O1 0.500000 0.500000 0.500000
O O2 0.749552 0.759458 0.338004
O O3 0.565787 0.334760 0.251379
O O4 0.354386 0.339329 0.252186
O O5 0.402485 0.711526 0.490961
O O6 0.159119 0.778765 0.740448
O O7 0.000000 0.500000 0.500000
O O8 0.500000 0.000000 0.500000
O O9 0.896699 0.617858 0.986195
O O10 0.389030 0.883734 0.871050
O O11 0.000000 0.500000 0.000000
O O12 0.173661 0.873536 0.160195
O O13 0.758049 0.006897 0.593084
O O14 0.891003 0.050174 0.303837
O O15 0.771145 0.658643 0.885979
O O16 0.133885 0.015414 0.020533
#
# Coordination Sequence:
#
# PCOD9039236 Si02
#       7
#     2   2   2   2   2   2   2
#     4  10  23  42  67 103 149 189 253 311 378 463
#     4  12  26  50  77 112 155 205 259 321 395 477
#     4  11  24  43  70 101 142 198 253 313 392 460
#     4  11  24  42  74 106 142 200 253 314 390 459
#     4  11  24  48  72 108 151 197 255 324 393 469
#     4  10  23  43  65 101 145 185 256 316 373 466
#     4  11  24  46  72 107 152 195 253 315 399 462
#
# _framework density 25.016559000000001
#
# number of rings (size 3 to 8) (size 9 to 14) (size 15 to 20)
#    0.000    1.143    4.286    0.857    2.000    5.714 
#    2.571    2.143    0.000    0.000    0.000    0.000 
#    0.000    0.000    0.000    0.000    0.000    0.000 
#
# Total GULP energy -78111.904558 kJ/mol
# GULP energy per Si atom -5579.421754 kJ/mol
# Density = 2.495962 g / cm^3
# Si number density = 25.016559 Si / 1000 Ang^3
#
#
#
# Elastic Constant Matrix: (Units=GPa)
#
#
# Indices 1 2 3 4 5 6 
#
# 1 163.7015 21.9962 71.6426 -1.1788 15.0192 -6.3369
# 2 21.9962 61.5691 47.4760 -1.9983 3.1375 -8.2232
# 3 71.6426 47.4760 188.8954 17.0197 -3.9178 27.0476
# 4 -1.1788 -1.9983 17.0197 23.7863 2.4309 -3.0816
# 5 15.0192 3.1375 -3.9178 2.4309 51.1060 -3.5442
# 6 -6.3369 -8.2232 27.0476 -3.0816 -3.5442 34.1795
#
#
#
# Elastic Compliance Matrix: (Units=1/GPa)
#
#
# Indices 1 2 3 4 5 6 
#
# 1 0.008736 0.002268 -0.005405 0.005652 -0.002929 0.006649
# 2 0.002268 0.026826 -0.011187 0.012791 -0.002628 0.016608
# 3 -0.005405 -0.011187 0.013606 -0.013227 0.002883 -0.015354
# 4 0.005652 0.012791 -0.013227 0.055828 -0.004789 0.019129
# 5 -0.002929 -0.002628 0.002883 -0.004789 0.020919 -0.001719
# 6 0.006649 0.016608 -0.015354 0.019129 -0.001719 0.048183
#
#
# Mechanical properties :
#
#
# Convention : Reuss Voigt Hill
#
# Bulk Modulus (GPa) = 48.73842 77.37732 63.05787
# Shear Modulus (GPa) = 23.85652 40.01776 31.93714
#
# Velocity S-wave (km/s) = 3.09144 4.00390 3.57689
# Velocity P-wave (km/s) = 5.68044 7.23689 6.50538
#
# Compressibility (1/GPa) = 0.02051770
#
# Stress axis : x y z
#
# Youngs Moduli (GPa) = 114.46378 37.27784 73.49746
#
# Poissons Ratio (x) = -0.08453 0.39728
# Poissons Ratio (y) = -0.25956 0.82224
# Poissons Ratio (z) = 0.61872 0.41704
#
# Static dielectric constant tensor:
#      x y z
#    x 2.066110 -0.157730 0.075720 
#    y -0.157730 1.751120 0.042540 
#    z 0.075720 0.042540 1.936460 
# 
# From -- ./inp_files/428858.got.cif
#   From: 2010.05.17/outbox.cif.g08.bks.cpg/sg2_215_cif.got.tgz:428858.got - 2010.06.03 11:33:40.
