data_PCOD9039265
_publ_section_title
;
Structure prediction by ZEFSAII (Michael W. Deem and Ramdas Pophale) SiO2 
 PCOD9039265
Probable space group: P -1
;
_chemical_formula_sum "Si O2"
_cell_formula_units_Z 16
_cell_length_a 15.184679
_cell_length_b 21.042691
_cell_length_c 7.119897
_cell_angle_alpha 128.819078
_cell_angle_beta 53.358753
_cell_angle_gamma 159.794041
_cell_volume 611.912747
_symmetry_space_group_name_H-M "P -1"
_symmetry_group_IT_number 2
_symmetry_cell_setting 'triclinic'
loop_
_space_group_symop_operation_xyz
x,y,z
-x,-y,-z
loop_
_atom_site_type_symbol
_atom_site_label
_atom_site_fract_x
_atom_site_fract_y
_atom_site_fract_z
Si Si1 0.721074 0.203868 0.307274
Si Si2 0.768893 0.057497 0.091946
Si Si3 0.037348 0.449949 0.716340
Si Si4 0.570104 0.847795 0.595900
Si Si5 0.329264 0.143756 0.910173
Si Si6 0.122865 0.413182 0.884814
Si Si7 0.635952 0.576976 0.272732
Si Si8 0.816895 0.770954 0.062392
O O1 0.657656 0.069372 0.201639
O O2 0.507014 0.115513 0.322621
O O3 0.843510 0.323554 0.558584
O O4 0.944636 0.342838 0.124965
O O5 0.066558 0.244807 0.112251
O O6 0.631584 0.922779 0.190125
O O7 0.727997 0.968809 0.805799
O O8 0.308969 0.634242 0.609635
O O9 0.023513 0.362299 0.707649
O O10 0.000000 0.500000 0.000000
O O11 0.683162 0.870214 0.325126
O O12 0.582705 0.359945 0.054613
O O13 0.058641 0.981163 0.056102
O O14 0.133677 0.328123 0.785222
O O15 0.500000 0.500000 0.500000
O O16 0.424022 0.390369 0.066140
O O17 0.722560 0.713258 0.291001
#
# Coordination Sequence:
#
# PCOD9039265 Si02
#       8
#     2   2   2   2   2   2   2   2
#     4  12  25  40  69  97 137 183 231 268 325 401
#     4  10  24  43  62  99 133 171 220 281 328 393
#     4  12  24  40  66  99 140 178 230 270 319 399
#     4  12  23  41  67  96 139 185 222 270 336 386
#     4  10  23  42  67  93 138 175 213 283 330 397
#     4  12  23  43  70  99 132 183 225 270 339 395
#     4  11  25  44  74  98 126 173 222 283 343 400
#     4   9  23  45  66  93 135 157 219 284 332 394
#
# _framework density 26.14752
#
# number of rings (size 3 to 8) (size 9 to 14) (size 15 to 20)
#    0.750    0.250    5.000    1.500    3.500    2.000 
#    0.000    0.625    0.000    0.000    0.000    0.000 
#    0.000    0.000    0.000    0.000    0.000    0.000 
#
# Total GULP energy -89491.330477 kJ/mol
# GULP energy per Si atom -5593.208155 kJ/mol
# Density = 2.608801 g / cm^3
# Si number density = 26.147520 Si / 1000 Ang^3
#
#
#
# Elastic Constant Matrix: (Units=GPa)
#
#
# Indices 1 2 3 4 5 6 
#
# 1 114.4019 -3.4650 21.2022 -16.8807 21.4128 9.8329
# 2 -3.4650 93.4470 20.3944 -34.5867 1.2844 5.4999
# 3 21.2022 20.3944 130.6214 -31.0203 22.4005 1.3185
# 4 -16.8807 -34.5867 -31.0203 37.5136 -9.3382 7.4963
# 5 21.4128 1.2844 22.4005 -9.3382 32.8296 -9.2251
# 6 9.8329 5.4999 1.3185 7.4963 -9.2251 41.3241
#
#
#
# Elastic Compliance Matrix: (Units=1/GPa)
#
#
# Indices 1 2 3 4 5 6 
#
# 1 0.012272 0.004423 0.001151 0.009958 -0.008145 -0.007170
# 2 0.004423 0.019393 0.001876 0.022852 -0.000669 -0.007988
# 3 0.001151 0.001876 0.010788 0.010412 -0.006400 -0.004185
# 4 0.009958 0.022852 0.010412 0.064033 -0.001235 -0.017634
# 5 -0.008145 -0.000669 -0.006400 -0.001235 0.043216 0.012103
# 6 -0.007170 -0.007988 -0.004185 -0.017634 0.012103 0.033002
#
#
# Mechanical properties :
#
#
# Convention : Reuss Voigt Hill
#
# Bulk Modulus (GPa) = 17.43524 46.08151 31.75837
# Shear Modulus (GPa) = 26.74929 42.35604 34.55266
#
# Velocity S-wave (km/s) = 3.20193 4.02915 3.63912
# Velocity P-wave (km/s) = 4.51135 6.26955 5.46167
#
# Compressibility (1/GPa) = 0.05735512
#
# Stress axis : x y z
#
# Youngs Moduli (GPa) = 81.48729 51.56504 92.69226
#
# Poissons Ratio (x) = -0.22808 -0.10673
# Poissons Ratio (y) = -0.36044 -0.17392
# Poissons Ratio (z) = -0.09383 -0.09675
#
# Static dielectric constant tensor:
#      x y z
#    x 2.079770 -0.046210 -0.081610 
#    y -0.046210 2.126380 -0.042430 
#    z -0.081610 -0.042430 2.043480 
# 
# From -- ./inp_files/112977.got.cif
#   From: 2010.05.17/outbox.cif.g08.bks.cpg/sg2_57_cif.got.tgz:112977.got - 2010.06.03 11:33:40.
