data_PCOD9039285
_publ_section_title
;
Structure prediction by ZEFSAII (Michael W. Deem and Ramdas Pophale) SiO2 
 PCOD9039285
Probable space group: P -1
;
_chemical_formula_sum "Si O2"
_cell_formula_units_Z 16
_cell_length_a 6.613067
_cell_length_b 11.804268
_cell_length_c 11.942110
_cell_angle_alpha 100.249304
_cell_angle_beta 50.020129
_cell_angle_gamma 89.131362
_cell_volume 692.499570
_symmetry_space_group_name_H-M "P -1"
_symmetry_group_IT_number 2
_symmetry_cell_setting 'triclinic'
loop_
_space_group_symop_operation_xyz
x,y,z
-x,-y,-z
loop_
_atom_site_type_symbol
_atom_site_label
_atom_site_fract_x
_atom_site_fract_y
_atom_site_fract_z
Si Si1 0.928434 0.609304 0.965408
Si Si2 0.025917 0.683187 0.463133
Si Si3 0.374776 0.888789 0.381654
Si Si4 0.394266 0.135352 0.475496
Si Si5 0.877352 0.102990 0.146409
Si Si6 0.340451 0.748716 0.937360
Si Si7 0.422321 0.182828 0.932207
Si Si8 0.119628 0.432182 0.277972
O O1 0.072885 0.701737 0.996133
O O2 0.008456 0.576619 0.801747
O O3 0.000000 0.500000 0.000000
O O4 0.631899 0.683238 0.070256
O O5 0.753784 0.749022 0.512641
O O6 0.007600 0.633328 0.587229
O O7 0.199887 0.786390 0.421849
O O8 0.118447 0.565671 0.337176
O O9 0.593648 0.848441 0.393146
O O10 0.499802 0.896247 0.215722
O O11 0.256012 0.022695 0.478973
O O12 0.705628 0.095652 0.317557
O O13 0.644027 0.175259 0.164390
O O14 0.143157 0.161225 0.084362
O O15 0.000000 0.000000 0.000000
O O16 0.578434 0.639717 0.845145
O O17 0.351909 0.826599 0.056087
#
# Coordination Sequence:
#
# PCOD9039285 Si02
#       8
#     2   2   2   2   2   2   2   2
#     4  10  24  40  68  98 136 173 223 280 338 400
#     4  11  25  43  70  96 140 180 227 276 339 414
#     4  11  26  44  68 100 139 176 231 284 343 401
#     4  11  25  46  69  98 137 183 225 288 340 394
#     4  11  22  44  70  95 131 176 233 280 336 404
#     4  10  23  42  67  94 137 169 226 283 333 401
#     4  10  24  42  65 102 128 179 223 273 344 403
#     4  10  24  43  66 105 130 181 231 266 346 408
#
# _framework density 23.104707999999999
#
# number of rings (size 3 to 8) (size 9 to 14) (size 15 to 20)
#    0.000    1.500    2.500    0.375   10.500    2.500 
#    2.250    2.500    0.000    0.000    0.000    0.000 
#    0.000    0.000    0.000    0.000    0.000    0.000 
#
# Total GULP energy -89187.948640 kJ/mol
# GULP energy per Si atom -5574.246790 kJ/mol
# Density = 2.305212 g / cm^3
# Si number density = 23.104708 Si / 1000 Ang^3
#
#
#
# Elastic Constant Matrix: (Units=GPa)
#
#
# Indices 1 2 3 4 5 6 
#
# 1 110.8488 21.1726 47.3307 -5.8595 33.7185 5.5675
# 2 21.1726 91.0024 17.3020 4.6106 3.8582 -2.5101
# 3 47.3307 17.3020 66.2310 1.4728 28.5689 9.6207
# 4 -5.8595 4.6106 1.4728 33.4594 0.2349 1.8564
# 5 33.7185 3.8582 28.5689 0.2349 36.7558 0.5396
# 6 5.5675 -2.5101 9.6207 1.8564 0.5396 36.6865
#
#
#
# Elastic Compliance Matrix: (Units=1/GPa)
#
#
# Indices 1 2 3 4 5 6 
#
# 1 0.014976 -0.002086 -0.006444 0.003296 -0.008521 -0.000767
# 2 -0.002086 0.012128 -0.003313 -0.002028 0.003198 0.002071
# 3 -0.006444 -0.003313 0.028253 -0.001453 -0.015598 -0.006355
# 4 0.003296 -0.002028 -0.001453 0.030920 -0.001852 -0.001795
# 5 -0.008521 0.003198 -0.015598 -0.001852 0.046750 0.005008
# 6 -0.000767 0.002071 -0.006355 -0.001795 0.005008 0.029200
#
#
# Mechanical properties :
#
#
# Convention : Reuss Voigt Hill
#
# Bulk Modulus (GPa) = 31.57395 48.85477 40.21436
# Shear Modulus (GPa) = 25.44942 33.53213 29.49077
#
# Velocity S-wave (km/s) = 3.32246 3.81374 3.57655
# Velocity P-wave (km/s) = 5.33044 6.37053 5.87355
#
# Compressibility (1/GPa) = 0.03167168
#
# Stress axis : x y z
#
# Youngs Moduli (GPa) = 66.77504 82.45257 35.39490
#
# Poissons Ratio (x) = 0.17200 0.22807
# Poissons Ratio (y) = 0.13929 0.11726
# Poissons Ratio (z) = 0.43027 0.27315
#
# Static dielectric constant tensor:
#      x y z
#    x 1.897770 -0.029030 0.005580 
#    y -0.029030 1.994720 -0.045040 
#    z 0.005580 -0.045040 1.924940 
# 
# From -- ./inp_files/364699.got.cif
#   From: 2010.05.17/outbox.cif.g08.bks.cpg/sg2_183_cif.got.tgz:364699.got - 2010.06.03 11:33:40.
