data_PCOD9039289
_publ_section_title
;
Structure prediction by ZEFSAII (Michael W. Deem and Ramdas Pophale) SiO2 
 PCOD9039289
Probable space group: P -1
;
_chemical_formula_sum "Si O2"
_cell_formula_units_Z 16
_cell_length_a 12.208149
_cell_length_b 8.579131
_cell_length_c 13.230043
_cell_angle_alpha 54.804857
_cell_angle_beta 136.282633
_cell_angle_gamma 131.037246
_cell_volume 708.403911
_symmetry_space_group_name_H-M "P -1"
_symmetry_group_IT_number 2
_symmetry_cell_setting 'triclinic'
loop_
_space_group_symop_operation_xyz
x,y,z
-x,-y,-z
loop_
_atom_site_type_symbol
_atom_site_label
_atom_site_fract_x
_atom_site_fract_y
_atom_site_fract_z
Si Si1 0.669455 0.672434 0.485712
Si Si2 0.176479 0.979360 0.154221
Si Si3 0.953097 0.495144 0.730871
Si Si4 0.479646 0.420514 0.131320
Si Si5 0.086615 0.021432 0.295230
Si Si6 0.880860 0.281526 0.048148
Si Si7 0.514100 0.201925 0.864824
Si Si8 0.867350 0.556005 0.329341
O O1 0.500000 0.500000 0.500000
O O2 0.797970 0.565453 0.574265
O O3 0.786005 0.847956 0.579578
O O4 0.617301 0.782745 0.314974
O O5 0.332573 0.184427 0.135047
O O6 0.195576 0.996535 0.282890
O O7 0.144333 0.740190 0.199114
O O8 0.000000 0.000000 0.000000
O O9 0.084454 0.675055 0.825276
O O10 0.081523 0.471562 0.740784
O O11 0.452165 0.594776 0.117360
O O12 0.669223 0.427394 0.276979
O O13 0.500000 0.500000 0.000000
O O14 0.970330 0.133508 0.133716
O O15 0.933330 0.800334 0.306839
O O16 0.686349 0.229897 0.908743
O O17 0.000000 0.500000 0.000000
O O18 0.500000 0.000000 0.000000
O O19 0.000000 0.500000 0.500000
#
# Coordination Sequence:
#
# PCOD9039289 Si02
#       8
#     2   2   2   2   2   2   2   2
#     4  11  24  44  70 101 135 176 230 286 341 405
#     4  11  22  42  71 104 136 172 227 288 340 404
#     4  10  23  42  67  95 129 173 219 275 338 399
#     4  12  25  42  65  97 134 174 222 277 335 402
#     4  10  23  42  67  95 129 174 221 276 339 400
#     4  11  21  40  66  93 126 170 218 269 329 399
#     4  12  26  43  65  99 136 174 226 282 335 399
#     4  11  24  43  63  90 129 173 216 265 330 398
#
# _framework density 22.585986999999999
#
# number of rings (size 3 to 8) (size 9 to 14) (size 15 to 20)
#    0.000    1.000    0.000    8.250    0.000    5.000 
#    0.000    6.250    0.000    0.000    0.000    0.000 
#    0.000    0.000    0.000    0.000    0.000    0.000 
#
# Total GULP energy -89310.814897 kJ/mol
# GULP energy per Si atom -5581.925931 kJ/mol
# Density = 2.253458 g / cm^3
# Si number density = 22.585987 Si / 1000 Ang^3
#
#
#
# Elastic Constant Matrix: (Units=GPa)
#
#
# Indices 1 2 3 4 5 6 
#
# 1 65.7835 30.3884 7.4523 12.8078 -0.1584 5.0229
# 2 30.3884 87.8983 27.8208 2.7226 5.2032 11.4908
# 3 7.4523 27.8208 138.1663 -3.2741 13.4987 4.3908
# 4 12.8078 2.7226 -3.2741 40.1253 -0.3169 0.2000
# 5 -0.1584 5.2032 13.4987 -0.3169 33.8188 10.5411
# 6 5.0229 11.4908 4.3908 0.2000 10.5411 48.7730
#
#
#
# Elastic Compliance Matrix: (Units=1/GPa)
#
#
# Indices 1 2 3 4 5 6 
#
# 1 0.019379 -0.006513 0.000031 -0.005728 0.001248 -0.000710
# 2 -0.006513 0.014735 -0.002464 0.000886 -0.000537 -0.002467
# 3 0.000031 -0.002464 0.008025 0.000786 -0.002971 0.000494
# 4 -0.005728 0.000886 0.000786 0.026750 -0.000310 0.000268
# 5 0.001248 -0.000537 -0.002971 -0.000310 0.032979 -0.006861
# 6 -0.000710 -0.002467 0.000494 0.000268 -0.006861 0.022595
#
#
# Mechanical properties :
#
#
# Convention : Reuss Voigt Hill
#
# Bulk Modulus (GPa) = 41.24131 47.01900 44.13016
# Shear Modulus (GPa) = 33.23625 39.62253 36.42939
#
# Velocity S-wave (km/s) = 3.84023 4.19298 4.02047
# Velocity P-wave (km/s) = 6.16137 6.65615 6.41354
#
# Compressibility (1/GPa) = 0.02424753
#
# Stress axis : x y z
#
# Youngs Moduli (GPa) = 51.60219 67.86483 124.60660
#
# Poissons Ratio (x) = 0.44202 -0.00388
# Poissons Ratio (y) = 0.33610 0.30702
# Poissons Ratio (z) = -0.00161 0.16721
#
# Static dielectric constant tensor:
#      x y z
#    x 1.843790 -0.032700 -0.059970 
#    y -0.032700 1.853930 0.035820 
#    z -0.059970 0.035820 1.866660 
# 
# From -- ./inp_files/515129.got.cif
#   From: 2010.05.17/outbox.cif.g08.bks.cpg/sg2_258_cif.got.tgz:515129.got - 2010.06.03 11:33:40.
