data_PCOD9039402
_publ_section_title
;
Structure prediction by ZEFSAII (Michael W. Deem and Ramdas Pophale) SiO2 
 PCOD9039402
Probable space group: P -1
;
_chemical_formula_sum "Si O2"
_cell_formula_units_Z 14
_cell_length_a 14.543584
_cell_length_b 23.556749
_cell_length_c 5.634571
_cell_angle_alpha 89.247638
_cell_angle_beta 84.378261
_cell_angle_gamma 17.702459
_cell_volume 563.277385
_symmetry_space_group_name_H-M "P -1"
_symmetry_group_IT_number 2
_symmetry_cell_setting 'triclinic'
loop_
_space_group_symop_operation_xyz
x,y,z
-x,-y,-z
loop_
_atom_site_type_symbol
_atom_site_label
_atom_site_fract_x
_atom_site_fract_y
_atom_site_fract_z
Si Si1 0.125144 0.951227 0.722697
Si Si2 0.724544 0.540803 0.496337
Si Si3 0.745362 0.004236 0.203565
Si Si4 0.873274 0.636898 0.947299
Si Si5 0.831394 0.328892 0.139695
Si Si6 0.731160 0.421664 0.655164
Si Si7 0.399113 0.123425 0.594370
O O1 0.499645 0.720565 0.645050
O O2 0.075159 0.047575 0.737229
O O3 0.000000 0.000000 0.500000
O O4 0.000000 0.000000 0.000000
O O5 0.547734 0.586059 0.606091
O O6 0.824018 0.505593 0.216364
O O7 0.064491 0.330738 0.536863
O O8 0.399980 0.219709 0.177083
O O9 0.673483 0.000661 0.421749
O O10 0.956998 0.849231 0.964051
O O11 0.688320 0.793467 0.142031
O O12 0.000000 0.500000 0.000000
O O13 0.929306 0.297674 0.367319
O O14 0.480150 0.510624 0.258460
O O15 0.851727 0.357629 0.900981
O O16 0.500000 0.000000 0.500000
#
# Coordination Sequence:
#
# PCOD9039402 Si02
#       7
#     2   2   2   2   2   2   2
#     4  12  30  49  78 113 149 204 266 318 390 465
#     4  11  26  45  72 108 152 197 258 321 381 461
#     4  11  26  45  74 105 150 193 257 319 382 456
#     4  11  26  47  77 103 153 207 261 319 397 454
#     4  10  23  42  70 103 143 192 238 299 379 451
#     4  10  23  42  68 103 144 191 240 299 376 450
#     4  11  26  45  77 115 153 204 261 322 401 464
#
# _framework density 24.854541000000001
#
# number of rings (size 3 to 8) (size 9 to 14) (size 15 to 20)
#    0.000    1.143    0.000    3.429   14.000    6.857 
#    0.000    0.000    0.000    0.000    0.000    0.000 
#    0.000    0.000    0.000    0.000    0.000    0.000 
#
# Total GULP energy -78012.338704 kJ/mol
# GULP energy per Si atom -5572.309907 kJ/mol
# Density = 2.479797 g / cm^3
# Si number density = 24.854541 Si / 1000 Ang^3
#
#
#
# Elastic Constant Matrix: (Units=GPa)
#
#
# Indices 1 2 3 4 5 6 
#
# 1 152.5596 17.1255 78.0223 -16.5279 5.2662 15.0800
# 2 17.1255 81.7512 35.6699 -10.6034 8.7955 16.6332
# 3 78.0223 35.6699 199.5845 2.5236 2.7145 9.9725
# 4 -16.5279 -10.6034 2.5236 46.7977 5.9472 0.4499
# 5 5.2662 8.7955 2.7145 5.9472 37.9115 -1.1790
# 6 15.0800 16.6332 9.9725 0.4499 -1.1790 35.5612
#
#
#
# Elastic Compliance Matrix: (Units=1/GPa)
#
#
# Indices 1 2 3 4 5 6 
#
# 1 0.009119 0.001101 -0.003610 0.003951 -0.001992 -0.003486
# 2 0.001101 0.015867 -0.002900 0.004796 -0.004606 -0.007289
# 3 -0.003610 -0.002900 0.006905 -0.002454 0.001096 0.001018
# 4 0.003951 0.004796 -0.002454 0.024715 -0.005479 -0.003725
# 5 -0.001992 -0.004606 0.001096 -0.005479 0.028619 0.003709
# 6 -0.003486 -0.007289 0.001018 -0.003725 0.003709 0.032892
#
#
# Mechanical properties :
#
#
# Convention : Reuss Voigt Hill
#
# Bulk Modulus (GPa) = 47.45417 77.28119 62.36768
# Shear Modulus (GPa) = 36.77526 44.25926 40.51726
#
# Velocity S-wave (km/s) = 3.85076 4.22445 4.04192
# Velocity P-wave (km/s) = 6.23741 7.41320 6.85058
#
# Compressibility (1/GPa) = 0.02107296
#
# Stress axis : x y z
#
# Youngs Moduli (GPa) = 109.66128 63.02204 144.81653
#
# Poissons Ratio (x) = -0.06938 0.52283
# Poissons Ratio (y) = -0.12073 0.41997
# Poissons Ratio (z) = 0.39591 0.18277
#
# Static dielectric constant tensor:
#      x y z
#    x 2.078840 -0.004510 0.022250 
#    y -0.004510 2.040410 -0.033580 
#    z 0.022250 -0.033580 2.057500 
# 
# From -- ./inp_files/101128.got.cif
#   From: 2010.05.17/outbox.cif.g08.bks.cpg/sg2_51_cif.got.tgz:101128.got - 2010.06.03 11:33:40.
