data_PCOD9039413
_publ_section_title
;
Structure prediction by ZEFSAII (Michael W. Deem and Ramdas Pophale) SiO2 
 PCOD9039413
Probable space group: P -1
;
_chemical_formula_sum "Si O2"
_cell_formula_units_Z 16
_cell_length_a 11.651821
_cell_length_b 12.232041
_cell_length_c 12.205064
_cell_angle_alpha 98.431144
_cell_angle_beta 106.540800
_cell_angle_gamma 145.494769
_cell_volume 672.712844
_symmetry_space_group_name_H-M "P -1"
_symmetry_group_IT_number 2
_symmetry_cell_setting 'triclinic'
loop_
_space_group_symop_operation_xyz
x,y,z
-x,-y,-z
loop_
_atom_site_type_symbol
_atom_site_label
_atom_site_fract_x
_atom_site_fract_y
_atom_site_fract_z
Si Si1 0.050855 0.873757 0.799809
Si Si2 0.537678 0.847168 0.693969
Si Si3 0.862711 0.344505 0.825388
Si Si4 0.975340 0.111117 0.442969
Si Si5 0.436007 0.706456 0.391255
Si Si6 0.667101 0.626269 0.245273
Si Si7 0.946019 0.886823 0.079451
Si Si8 0.665579 0.377198 0.158846
O O1 0.762095 0.569764 0.721444
O O2 0.074598 0.862232 0.676733
O O3 0.029934 0.989026 0.815494
O O4 0.337459 0.082745 0.978105
O O5 0.450785 0.741169 0.530637
O O6 0.330807 0.652980 0.715812
O O7 0.627470 0.050858 0.743678
O O8 0.824748 0.015156 0.823361
O O9 0.721525 0.326275 0.718399
O O10 0.107144 0.496771 0.834931
O O11 0.000000 0.500000 0.000000
O O12 0.750829 0.959076 0.454910
O O13 0.887379 0.912784 0.357356
O O14 0.306855 0.392236 0.622467
O O15 0.725494 0.559565 0.191111
O O16 0.380594 0.431373 0.079322
O O17 0.000000 0.000000 0.000000
#
# Coordination Sequence:
#
# PCOD9039413 Si02
#       8
#     2   2   2   2   2   2   2   2
#     4  11  25  41  73 106 143 192 229 297 359 425
#     4  12  27  47  75 105 144 194 236 297 357 425
#     4  12  29  49  77 102 141 191 247 302 350 422
#     4  11  25  43  68 110 148 187 235 291 358 430
#     4  12  28  48  71 107 149 190 241 295 355 422
#     4  10  23  42  68 105 149 184 232 290 355 429
#     4  11  23  43  71 107 148 185 239 286 361 435
#     4  11  25  47  71 108 139 187 244 291 355 430
#
# _framework density 23.784293000000002
#
# number of rings (size 3 to 8) (size 9 to 14) (size 15 to 20)
#    0.000    0.750    2.500    4.125    8.750    5.000 
#    0.000    0.000    0.000    0.000    0.000    0.000 
#    0.000    0.000    0.000    0.000    0.000    0.000 
#
# Total GULP energy -89444.402261 kJ/mol
# GULP energy per Si atom -5590.275141 kJ/mol
# Density = 2.373016 g / cm^3
# Si number density = 23.784293 Si / 1000 Ang^3
#
#
#
# Elastic Constant Matrix: (Units=GPa)
#
#
# Indices 1 2 3 4 5 6 
#
# 1 104.1505 22.2554 51.7777 -8.6699 -3.7172 4.7809
# 2 22.2554 74.0236 46.2799 -17.2062 -16.6689 15.5971
# 3 51.7777 46.2799 134.6356 -19.0218 -7.5957 -12.1902
# 4 -8.6699 -17.2062 -19.0218 54.4119 1.1679 -10.8181
# 5 -3.7172 -16.6689 -7.5957 1.1679 38.2953 -5.2865
# 6 4.7809 15.5971 -12.1902 -10.8181 -5.2865 32.7085
#
#
#
# Elastic Compliance Matrix: (Units=1/GPa)
#
#
# Indices 1 2 3 4 5 6 
#
# 1 0.012312 0.000292 -0.005319 -0.000629 -0.000290 -0.004176
# 2 0.000292 0.023496 -0.008730 0.001727 0.006698 -0.012847
# 3 -0.005319 -0.008730 0.013992 0.003534 -0.000088 0.011310
# 4 -0.000629 0.001727 0.003534 0.021617 0.001841 0.008033
# 5 -0.000290 0.006698 -0.000088 0.001841 0.029223 0.002148
# 6 -0.004176 -0.012847 0.011310 0.008033 0.002148 0.044529
#
#
# Mechanical properties :
#
#
# Convention : Reuss Voigt Hill
#
# Bulk Modulus (GPa) = 44.87034 61.49286 53.18160
# Shear Modulus (GPa) = 27.76047 37.91626 32.83836
#
# Velocity S-wave (km/s) = 3.42010 3.99704 3.71977
# Velocity P-wave (km/s) = 5.87389 6.87112 6.39198
#
# Compressibility (1/GPa) = 0.02228644
#
# Stress axis : x y z
#
# Youngs Moduli (GPa) = 81.21999 42.56023 71.46832
#
# Poissons Ratio (x) = -0.01242 0.38012
# Poissons Ratio (y) = -0.02371 0.62394
# Poissons Ratio (z) = 0.43199 0.37156
#
# Static dielectric constant tensor:
#      x y z
#    x 2.220070 0.401360 0.331220 
#    y 0.401360 2.361520 0.304220 
#    z 0.331220 0.304220 2.382550 
# 
# From -- ./inp_files/428418.got.cif
#   From: 2010.05.17/outbox.cif.g08.bks.cpg/sg2_215_cif.got.tgz:428418.got - 2010.06.03 11:33:40.
