data_PCOD9039609
_publ_section_title
;
Structure prediction by ZEFSAII (Michael W. Deem and Ramdas Pophale) SiO2 
 PCOD9039609
Probable space group: P -1
;
_chemical_formula_sum "Si O2"
_cell_formula_units_Z 12
_cell_length_a 4.984638
_cell_length_b 11.556481
_cell_length_c 13.349033
_cell_angle_alpha 130.635928
_cell_angle_beta 62.693747
_cell_angle_gamma 123.886858
_cell_volume 478.806951
_symmetry_space_group_name_H-M "P -1"
_symmetry_group_IT_number 2
_symmetry_cell_setting 'triclinic'
loop_
_space_group_symop_operation_xyz
x,y,z
-x,-y,-z
loop_
_atom_site_type_symbol
_atom_site_label
_atom_site_fract_x
_atom_site_fract_y
_atom_site_fract_z
Si Si1 0.924807 0.826793 0.470808
Si Si2 0.471193 0.608833 0.939750
Si Si3 0.833055 0.406232 0.812930
Si Si4 0.135174 0.139106 0.261379
Si Si5 0.650358 0.496878 0.580842
Si Si6 0.649330 0.972742 0.092776
O O1 0.923752 0.852088 0.604693
O O2 0.576052 0.673426 0.424917
O O3 0.166805 0.741928 0.339906
O O4 0.000000 0.000000 0.500000
O O5 0.775967 0.551967 0.843112
O O6 0.464297 0.779754 0.000736
O O7 0.159362 0.471652 0.862350
O O8 0.447549 0.638540 0.080495
O O9 0.287025 0.321058 0.286980
O O10 0.781082 0.038428 0.218051
O O11 0.403862 0.059234 0.153726
O O12 0.500000 0.500000 0.500000
O O13 0.000000 0.500000 0.500000
O O14 0.000000 0.000000 0.000000
#
# Coordination Sequence:
#
# PCOD9039609 Si02
#       6
#     2   2   2   2   2   2
#     4  11  25  45  76 107 142 187 242 294 365 420
#     4  10  23  44  65 100 137 178 232 282 340 416
#     4  10  23  42  69  95 139 181 222 286 353 416
#     4  11  25  46  69 107 145 179 233 298 350 422
#     4  10  23  44  67  99 146 185 224 286 356 423
#     4  12  26  43  74  99 139 184 239 284 345 421
#
# _framework density 25.062290999999998
#
# number of rings (size 3 to 8) (size 9 to 14) (size 15 to 20)
#    0.000    1.333    0.000    4.500    4.667    6.667 
#    0.000   10.833    0.000    0.000    0.000    0.000 
#    0.000    0.000    0.000    0.000    0.000    0.000 
#
# Total GULP energy -67035.800018 kJ/mol
# GULP energy per Si atom -5586.316668 kJ/mol
# Density = 2.500525 g / cm^3
# Si number density = 25.062291 Si / 1000 Ang^3
#
#
#
# Elastic Constant Matrix: (Units=GPa)
#
#
# Indices 1 2 3 4 5 6 
#
# 1 126.4775 16.0465 35.7452 12.2407 -24.7198 -23.4565
# 2 16.0465 131.9041 54.3286 27.6048 -12.6467 -22.5434
# 3 35.7452 54.3286 161.4718 21.6499 -25.1971 -24.2182
# 4 12.2407 27.6048 21.6499 38.7746 -11.6825 -5.8834
# 5 -24.7198 -12.6467 -25.1971 -11.6825 54.8080 6.5956
# 6 -23.4565 -22.5434 -24.2182 -5.8834 6.5956 24.7652
#
#
#
# Elastic Compliance Matrix: (Units=1/GPa)
#
#
# Indices 1 2 3 4 5 6 
#
# 1 0.010396 0.001150 -0.000630 -0.001384 0.003277 0.009076
# 2 0.001150 0.010755 -0.001966 -0.005785 -0.000051 0.007596
# 3 -0.000630 -0.001966 0.008258 -0.001651 0.002138 0.004727
# 4 -0.001384 -0.005785 -0.001651 0.032331 0.004375 -0.001675
# 5 0.003277 -0.000051 0.002138 0.004375 0.021574 0.000442
# 6 0.009076 0.007596 0.004727 -0.001675 0.000442 0.059997
#
#
# Mechanical properties :
#
#
# Convention : Reuss Voigt Hill
#
# Bulk Modulus (GPa) = 37.71212 70.23267 53.97240
# Shear Modulus (GPa) = 32.24895 44.58512 38.41703
#
# Velocity S-wave (km/s) = 3.59102 4.22236 3.91943
# Velocity P-wave (km/s) = 5.68102 7.20106 6.48572
#
# Compressibility (1/GPa) = 0.02651667
#
# Stress axis : x y z
#
# Youngs Moduli (GPa) = 96.18623 92.97828 121.09375
#
# Poissons Ratio (x) = -0.10691 0.07630
# Poissons Ratio (y) = -0.11060 0.23811
# Poissons Ratio (z) = 0.06061 0.18282
#
# Static dielectric constant tensor:
#      x y z
#    x 1.945710 -0.013790 0.057120 
#    y -0.013790 2.158350 -0.059420 
#    z 0.057120 -0.059420 2.087080 
# 
# From -- ./inp_files/483080.got.cif
#   From: 2010.05.17/outbox.cif.g08.bks.cpg/sg2_242_cif.got.tgz:483080.got - 2010.06.03 11:33:40.
