data_PCOD9039250
_publ_section_title
;
Structure prediction by ZEFSAII (Michael W. Deem and Ramdas Pophale) SiO2 
 PCOD9039250
Probable space group: P -1
;
_chemical_formula_sum "Si O2"
_cell_formula_units_Z 16
_cell_length_a 9.777037
_cell_length_b 26.322232
_cell_length_c 21.558002
_cell_angle_alpha 13.046327
_cell_angle_beta 39.488557
_cell_angle_gamma 45.153444
_cell_volume 753.264241
_symmetry_space_group_name_H-M "P -1"
_symmetry_group_IT_number 2
_symmetry_cell_setting 'triclinic'
loop_
_space_group_symop_operation_xyz
x,y,z
-x,-y,-z
loop_
_atom_site_type_symbol
_atom_site_label
_atom_site_fract_x
_atom_site_fract_y
_atom_site_fract_z
Si Si1 0.805245 0.370032 0.032763
Si Si2 0.324052 0.069973 0.313310
Si Si3 0.855408 0.258430 0.918827
Si Si4 0.058829 0.800697 0.177679
Si Si5 0.040755 0.196724 0.059966
Si Si6 0.673068 0.699261 0.778559
Si Si7 0.417402 0.046606 0.164996
Si Si8 0.251310 0.514009 0.873579
O O1 0.561919 0.286256 0.182444
O O2 0.810402 0.171538 0.317173
O O3 0.996622 0.392988 0.887139
O O4 0.801124 0.600951 0.797364
O O5 0.586951 0.125429 0.175842
O O6 0.317785 0.045474 0.270706
O O7 0.251188 0.292511 0.095322
O O8 0.940616 0.165221 0.937351
O O9 0.985835 0.232555 0.965719
O O10 0.893850 0.537146 0.563353
O O11 0.315653 0.816879 0.086480
O O12 0.000000 0.000000 0.000000
O O13 0.845211 0.950117 0.441664
O O14 0.280253 0.162213 0.030138
O O15 0.621701 0.516054 0.071678
O O16 0.369119 0.768182 0.498626
O O17 0.000000 0.500000 0.000000
#
# Coordination Sequence:
#
# PCOD9039250 Si02
#       8
#     2   2   2   2   2   2   2   2
#     4  11  22  35  59  86 127 168 201 239 288 357
#     4  11  21  38  60  85 123 167 205 241 294 355
#     4  10  23  42  67  89 112 157 204 253 303 361
#     4  10  23  47  68  88 113 151 206 258 310 363
#     4  12  23  39  60  92 129 157 198 247 300 353
#     4  11  22  35  53  87 125 164 207 235 282 354
#     4  11  25  38  61  92 121 162 203 250 305 354
#     4  12  22  34  56  84 127 167 200 238 290 354
#
# _framework density 21.240886
#
# number of rings (size 3 to 8) (size 9 to 14) (size 15 to 20)
#    0.000    1.000    5.000    1.875    1.750    2.500 
#    0.000    0.625    0.000    0.000    0.000    0.000 
#    0.000    0.000    0.000    0.000    0.000    0.000 
#
# Total GULP energy -89547.872757 kJ/mol
# GULP energy per Si atom -5596.742047 kJ/mol
# Density = 2.119254 g / cm^3
# Si number density = 21.240886 Si / 1000 Ang^3
#
#
#
# Elastic Constant Matrix: (Units=GPa)
#
#
# Indices 1 2 3 4 5 6 
#
# 1 116.6505 40.2319 5.2888 3.9804 23.3888 10.5308
# 2 40.2319 97.4441 20.4843 -25.7939 19.9281 14.8190
# 3 5.2888 20.4843 25.3082 -7.5659 7.7587 2.1642
# 4 3.9804 -25.7939 -7.5659 34.7561 0.1849 -2.1288
# 5 23.3888 19.9281 7.7587 0.1849 25.6218 1.4449
# 6 10.5308 14.8190 2.1642 -2.1288 1.4449 15.9780
#
#
#
# Elastic Compliance Matrix: (Units=1/GPa)
#
#
# Indices 1 2 3 4 5 6 
#
# 1 0.012126 -0.004392 0.002595 -0.004291 -0.008177 -0.004103
# 2 -0.004392 0.021419 -0.008236 0.013851 -0.009515 -0.013149
# 3 0.002595 -0.008236 0.050439 0.004676 -0.011313 0.000742
# 4 -0.004291 0.013851 0.004676 0.040327 -0.008308 -0.004528
# 5 -0.008177 -0.009515 -0.011313 -0.008308 0.056844 0.009499
# 6 -0.004103 -0.013149 0.000742 -0.004528 0.009499 0.075923
#
#
# Mechanical properties :
#
#
# Convention : Reuss Voigt Hill
#
# Bulk Modulus (GPa) = 15.64482 41.26810 28.45646
# Shear Modulus (GPa) = 16.75322 26.83103 21.79213
#
# Velocity S-wave (km/s) = 2.81147 3.55798 3.20652
# Velocity P-wave (km/s) = 4.23327 6.02907 5.20914
#
# Compressibility (1/GPa) = 0.06391894
#
# Stress axis : x y z
#
# Youngs Moduli (GPa) = 82.46836 46.68776 19.82577
#
# Poissons Ratio (x) = 0.20503 -0.05146
# Poissons Ratio (y) = 0.36217 0.16329
# Poissons Ratio (z) = -0.21404 0.38454
#
# Static dielectric constant tensor:
#      x y z
#    x 1.769750 0.007910 -0.001600 
#    y 0.007910 1.764760 -0.007530 
#    z -0.001600 -0.007530 1.750290 
# 
# From -- ./inp_files/544093.got.cif
#   From: 2010.05.17/outbox.cif.g08.bks.cpg/sg2_273_cif.got.tgz:544093.got - 2010.06.03 11:33:40.
