data_PCOD9039298
_publ_section_title
;
Structure prediction by ZEFSAII (Michael W. Deem and Ramdas Pophale) SiO2 
 PCOD9039298
Probable space group: P -1
;
_chemical_formula_sum "Si O2"
_cell_formula_units_Z 16
_cell_length_a 8.901811
_cell_length_b 9.071964
_cell_length_c 26.010919
_cell_angle_alpha 130.197755
_cell_angle_beta 150.416497
_cell_angle_gamma 47.280310
_cell_volume 752.928513
_symmetry_space_group_name_H-M "P -1"
_symmetry_group_IT_number 2
_symmetry_cell_setting 'triclinic'
loop_
_space_group_symop_operation_xyz
x,y,z
-x,-y,-z
loop_
_atom_site_type_symbol
_atom_site_label
_atom_site_fract_x
_atom_site_fract_y
_atom_site_fract_z
Si Si1 0.366697 0.990943 0.099540
Si Si2 0.637537 0.492470 0.889160
Si Si3 0.277484 0.229652 0.751186
Si Si4 0.660954 0.668122 0.430822
Si Si5 0.346458 0.446718 0.204558
Si Si6 0.408927 0.350279 0.980598
Si Si7 0.073839 0.896469 0.554279
Si Si8 0.585978 0.479781 0.581984
O O1 0.628019 0.829788 0.175848
O O2 0.457364 0.886839 0.047580
O O3 0.381743 0.210769 0.169895
O O4 0.000000 0.000000 0.000000
O O5 0.592036 0.272547 0.832373
O O6 0.494870 0.560823 0.806156
O O7 0.482351 0.610270 0.921028
O O8 0.000000 0.500000 0.000000
O O9 0.965993 0.422010 0.690708
O O10 0.192789 0.045884 0.658503
O O11 0.476080 0.565597 0.312913
O O12 0.503552 0.686695 0.445041
O O13 0.000000 0.500000 0.500000
O O14 0.764196 0.849288 0.475919
O O15 0.974354 0.571106 0.116032
O O16 0.500000 0.500000 0.000000
O O17 0.367185 0.690732 0.587937
O O18 0.000000 0.000000 0.500000
O O19 0.500000 0.500000 0.500000
#
# Coordination Sequence:
#
# PCOD9039298 Si02
#       8
#     2   2   2   2   2   2   2   2
#     4  12  23  39  70 100 132 178 230 279 336 421
#     4  10  23  43  69  95 140 179 221 294 346 408
#     4  12  24  43  71  99 135 182 231 275 353 407
#     4  10  23  42  67  95 143 183 223 285 348 406
#     4  11  23  43  65  98 135 178 227 281 350 402
#     4  11  21  42  67  99 133 174 227 281 345 409
#     4  11  23  45  70 100 136 185 233 283 341 416
#     4  11  24  44  68 100 138 183 228 287 345 406
#
# _framework density 21.250359
#
# number of rings (size 3 to 8) (size 9 to 14) (size 15 to 20)
#    0.000    1.000    3.750    3.750    1.750    2.000 
#    0.000    6.250    0.000    0.000    0.000    0.000 
#    0.000    0.000    0.000    0.000    0.000    0.000 
#
# Total GULP energy -89178.810535 kJ/mol
# GULP energy per Si atom -5573.675658 kJ/mol
# Density = 2.120199 g / cm^3
# Si number density = 21.250359 Si / 1000 Ang^3
#
#
#
# Elastic Constant Matrix: (Units=GPa)
#
#
# Indices 1 2 3 4 5 6 
#
# 1 127.3669 27.0550 62.7219 10.7054 -10.7275 14.4549
# 2 27.0550 86.5125 41.0533 10.8475 2.6146 -11.7516
# 3 62.7219 41.0533 128.5925 24.5246 -13.4077 -1.5411
# 4 10.7054 10.8475 24.5246 42.8873 7.1789 6.7530
# 5 -10.7275 2.6146 -13.4077 7.1789 35.1770 -0.2181
# 6 14.4549 -11.7516 -1.5411 6.7530 -0.2181 36.2614
#
#
#
# Elastic Compliance Matrix: (Units=1/GPa)
#
#
# Indices 1 2 3 4 5 6 
#
# 1 0.011465 -0.002160 -0.005056 0.001232 0.001443 -0.005706
# 2 -0.002160 0.015061 -0.003667 -0.001628 -0.002807 0.005872
# 3 -0.005056 -0.003667 0.013256 -0.006675 0.005162 0.002665
# 4 0.001232 -0.001628 -0.006675 0.029685 -0.008148 -0.006880
# 5 0.001443 -0.002807 0.005162 -0.008148 0.032709 0.000449
# 6 -0.005706 0.005872 0.002665 -0.006880 0.000449 0.033152
#
#
# Mechanical properties :
#
#
# Convention : Reuss Voigt Hill
#
# Bulk Modulus (GPa) = 55.49825 67.12580 61.31202
# Shear Modulus (GPa) = 30.65610 36.97460 33.81535
#
# Velocity S-wave (km/s) = 3.80230 4.17580 3.99342
# Velocity P-wave (km/s) = 6.74164 7.40988 7.08365
#
# Compressibility (1/GPa) = 0.01801859
#
# Stress axis : x y z
#
# Youngs Moduli (GPa) = 87.21949 66.39655 75.43678
#
# Poissons Ratio (x) = 0.14339 0.38139
# Poissons Ratio (y) = 0.18836 0.27659
# Poissons Ratio (z) = 0.44096 0.24345
#
# Static dielectric constant tensor:
#      x y z
#    x 1.889610 0.070110 -0.017240 
#    y 0.070110 1.816690 0.011330 
#    z -0.017240 0.011330 1.810560 
# 
# From -- ./inp_files/616698.got.cif
#   From: 2010.05.17/outbox.cif.g08.bks.cpg/sg2_309_cif.got.tgz:616698.got - 2010.06.03 11:33:40.
