data_PCOD9039306
_publ_section_title
;
Structure prediction by ZEFSAII (Michael W. Deem and Ramdas Pophale) SiO2 
 PCOD9039306
Probable space group: P -1
;
_chemical_formula_sum "Si O2"
_cell_formula_units_Z 16
_cell_length_a 21.750572
_cell_length_b 9.224684
_cell_length_c 10.079411
_cell_angle_alpha 73.399613
_cell_angle_beta 146.590004
_cell_angle_gamma 129.729531
_cell_volume 694.401812
_symmetry_space_group_name_H-M "P -1"
_symmetry_group_IT_number 2
_symmetry_cell_setting 'triclinic'
loop_
_space_group_symop_operation_xyz
x,y,z
-x,-y,-z
loop_
_atom_site_type_symbol
_atom_site_label
_atom_site_fract_x
_atom_site_fract_y
_atom_site_fract_z
Si Si1 0.475031 0.584825 0.807319
Si Si2 0.011191 0.912449 0.283966
Si Si3 0.641467 0.565333 0.650377
Si Si4 0.203920 0.875404 0.781593
Si Si5 0.694298 0.264381 0.792470
Si Si6 0.295615 0.790600 0.704092
Si Si7 0.019490 0.703050 0.103940
Si Si8 0.828951 0.611836 0.542368
O O1 0.391015 0.428841 0.564451
O O2 0.341341 0.569968 0.625842
O O3 0.500000 0.500000 0.000000
O O4 0.644936 0.846612 0.999325
O O5 0.040400 0.865416 0.203425
O O6 0.037489 0.803394 0.464048
O O7 0.827347 0.800081 0.976395
O O8 0.138681 0.178954 0.479465
O O9 0.500000 0.500000 0.500000
O O10 0.653417 0.394918 0.728847
O O11 0.251629 0.832177 0.747380
O O12 0.207897 0.754654 0.932622
O O13 0.500000 0.000000 0.500000
O O14 0.842431 0.440408 0.901911
O O15 0.215274 0.540441 0.619416
O O16 0.186976 0.771714 0.403309
O O17 0.500000 0.000000 0.000000
O O18 0.983429 0.715138 0.886394
#
# Coordination Sequence:
#
# PCOD9039306 Si02
#       8
#     2   2   2   2   2   2   2   2
#     4  12  23  42  73 102 135 181 227 282 350 414
#     4  10  23  42  71  97 132 186 225 285 345 419
#     4  11  26  47  69 105 140 181 235 288 345 412
#     4  11  23  45  70  98 136 180 231 276 347 418
#     4  11  22  44  76  95 132 189 229 276 345 423
#     4  11  25  39  63 102 139 170 222 291 337 401
#     4  10  23  42  67  96 136 178 227 274 345 418
#     4  12  21  42  67  99 134 175 227 281 349 405
#
# _framework density 23.041416000000002
#
# number of rings (size 3 to 8) (size 9 to 14) (size 15 to 20)
#    0.000    1.000    6.250    0.750    0.000    6.500 
#    2.250    0.625    0.000    0.000    0.000    0.000 
#    0.000    0.000    0.000    0.000    0.000    0.000 
#
# Total GULP energy -89342.721352 kJ/mol
# GULP energy per Si atom -5583.920085 kJ/mol
# Density = 2.298897 g / cm^3
# Si number density = 23.041416 Si / 1000 Ang^3
#
#
#
# Elastic Constant Matrix: (Units=GPa)
#
#
# Indices 1 2 3 4 5 6 
#
# 1 39.0890 21.5319 41.5096 -17.4396 15.8347 -2.2616
# 2 21.5319 120.5621 59.4784 -8.3991 -8.5218 8.8236
# 3 41.5096 59.4784 154.4492 -17.5181 12.3051 -1.2919
# 4 -17.4396 -8.3991 -17.5181 40.6935 8.4780 -10.6643
# 5 15.8347 -8.5218 12.3051 8.4780 27.7413 -7.9771
# 6 -2.2616 8.8236 -1.2919 -10.6643 -7.9771 22.4931
#
#
#
# Elastic Compliance Matrix: (Units=1/GPa)
#
#
# Indices 1 2 3 4 5 6 
#
# 1 0.090925 -0.014422 -0.008041 0.049808 -0.063553 0.015414
# 2 -0.014422 0.013558 -0.003723 -0.009792 0.015253 -0.006215
# 3 -0.008041 -0.003723 0.010237 0.000717 -0.000957 0.001240
# 4 0.049808 -0.009792 0.000717 0.058887 -0.043616 0.021341
# 5 -0.063553 0.015253 -0.000957 -0.043616 0.090468 -0.001023
# 6 0.015414 -0.006215 0.001240 0.021341 -0.001023 0.058272
#
#
# Mechanical properties :
#
#
# Convention : Reuss Voigt Hill
#
# Bulk Modulus (GPa) = 16.03916 62.12667 39.08291
# Shear Modulus (GPa) = 12.64216 30.95761 21.79988
#
# Velocity S-wave (km/s) = 2.34491 3.66944 3.07924
# Velocity P-wave (km/s) = 3.78254 6.70631 5.44437
#
# Compressibility (1/GPa) = 0.06234742
#
# Stress axis : x y z
#
# Youngs Moduli (GPa) = 10.99812 73.75865 97.68063
#
# Poissons Ratio (x) = 1.06374 0.78549
# Poissons Ratio (y) = 0.15861 0.36365
# Poissons Ratio (z) = 0.08844 0.27460
#
# Static dielectric constant tensor:
#      x y z
#    x 1.859470 0.013650 -0.019670 
#    y 0.013650 1.968760 0.000250 
#    z -0.019670 0.000250 1.956140 
# 
# From -- ./inp_files/474191.got.cif
#   From: 2010.05.17/outbox.cif.g08.bks.cpg/sg2_238_cif.got.tgz:474191.got - 2010.06.03 11:33:40.
