data_PCOD9039730
_publ_section_title
;
Structure prediction by ZEFSAII (Michael W. Deem and Ramdas Pophale) SiO2 
 PCOD9039730
Probable space group: P -1
;
_chemical_formula_sum "Si O2"
_cell_formula_units_Z 12
_cell_length_a 9.371763
_cell_length_b 16.237495
_cell_length_c 9.960423
_cell_angle_alpha 126.454772
_cell_angle_beta 115.475215
_cell_angle_gamma 30.163846
_cell_volume 599.330224
_symmetry_space_group_name_H-M "P -1"
_symmetry_group_IT_number 2
_symmetry_cell_setting 'triclinic'
loop_
_space_group_symop_operation_xyz
x,y,z
-x,-y,-z
loop_
_atom_site_type_symbol
_atom_site_label
_atom_site_fract_x
_atom_site_fract_y
_atom_site_fract_z
Si Si1 0.859263 0.050208 0.350542
Si Si2 0.857331 0.475361 0.860006
Si Si3 0.086680 0.226332 0.185724
Si Si4 0.254980 0.129766 0.867335
Si Si5 0.197291 0.835829 0.028621
Si Si6 0.660720 0.519405 0.534659
O O1 0.593327 0.267262 0.411796
O O2 0.759355 0.985820 0.241723
O O3 0.000000 0.000000 0.500000
O O4 0.113476 0.926585 0.225283
O O5 0.825296 0.476633 0.689082
O O6 0.039799 0.284617 0.815470
O O7 0.530297 0.657148 0.956045
O O8 0.000000 0.500000 0.000000
O O9 0.893077 0.382888 0.374866
O O10 0.409969 0.023672 0.172357
O O11 0.156103 0.233359 0.071155
O O12 0.903697 0.225806 0.076360
O O13 0.000000 0.000000 0.000000
O O14 0.500000 0.500000 0.500000
#
# Coordination Sequence:
#
# PCOD9039730 Si02
#       6
#     2   2   2   2   2   2
#     4  11  25  40  68 100 133 172 224 275 335 390
#     4  12  26  41  70 102 134 174 226 274 336 394
#     4  10  23  42  70  89 136 176 222 272 330 392
#     4  10  25  44  65  98 134 176 222 273 337 393
#     4  11  21  42  66  93 133 178 216 270 333 400
#     4  12  24  44  69 101 133 176 226 274 328 396
#
# _framework density 20.022348999999998
#
# number of rings (size 3 to 8) (size 9 to 14) (size 15 to 20)
#    0.000    1.000    3.333    2.000    7.000    4.000 
#    0.000    0.000    0.000    0.000    0.000    0.000 
#    0.000    0.000    0.000    0.000    0.000    0.000 
#
# Total GULP energy -67002.235507 kJ/mol
# GULP energy per Si atom -5583.519626 kJ/mol
# Density = 1.997678 g / cm^3
# Si number density = 20.022349 Si / 1000 Ang^3
#
#
#
# Elastic Constant Matrix: (Units=GPa)
#
#
# Indices 1 2 3 4 5 6 
#
# 1 69.5000 39.1372 38.6723 9.9943 3.9402 -13.3953
# 2 39.1372 164.2093 77.3667 -1.9116 -9.1800 3.9846
# 3 38.6723 77.3667 191.7467 -7.7353 -29.7468 -4.0281
# 4 9.9943 -1.9116 -7.7353 41.8936 -7.3732 -3.8269
# 5 3.9402 -9.1800 -29.7468 -7.3732 32.5204 2.8817
# 6 -13.3953 3.9846 -4.0281 -3.8269 2.8817 42.0426
#
#
#
# Elastic Compliance Matrix: (Units=1/GPa)
#
#
# Indices 1 2 3 4 5 6 
#
# 1 0.022233 -0.003942 -0.004664 -0.007533 -0.010404 0.007038
# 2 -0.003942 0.008283 -0.002404 0.000845 0.001009 -0.002263
# 3 -0.004664 -0.002404 0.008637 0.004081 0.008771 -0.000660
# 4 -0.007533 0.000845 0.004081 0.028432 0.011355 -0.000280
# 5 -0.010404 0.001009 0.008771 0.011355 0.043292 -0.004504
# 6 0.007038 -0.002263 -0.000660 -0.000280 -0.004504 0.026462
#
#
# Mechanical properties :
#
#
# Convention : Reuss Voigt Hill
#
# Bulk Modulus (GPa) = 58.36261 81.75649 70.05955
# Shear Modulus (GPa) = 30.29025 41.30995 35.80010
#
# Velocity S-wave (km/s) = 3.89372 4.54717 4.23307
# Velocity P-wave (km/s) = 7.03042 8.27588 7.67844
#
# Compressibility (1/GPa) = 0.01713426
#
# Stress axis : x y z
#
# Youngs Moduli (GPa) = 44.97860 120.72826 115.77811
#
# Poissons Ratio (x) = 0.47588 0.53995
# Poissons Ratio (y) = 0.17729 0.27833
# Poissons Ratio (z) = 0.20976 0.29023
#
# Static dielectric constant tensor:
#      x y z
#    x 1.842050 0.056930 -0.057220 
#    y 0.056930 1.678570 -0.011250 
#    z -0.057220 -0.011250 1.776480 
# 
# From -- ./inp_files/147779.got.cif
#   From: 2010.05.17/outbox.cif.g08.bks.cpg/sg2_74_cif.got.tgz:147779.got - 2010.06.03 11:33:40.
