data_PCOD9039620
_publ_section_title
;
Structure prediction by ZEFSAII (Michael W. Deem and Ramdas Pophale) SiO2 
 PCOD9039620
Probable space group: P -1
;
_chemical_formula_sum "Si O2"
_cell_formula_units_Z 16
_cell_length_a 7.859014
_cell_length_b 21.260383
_cell_length_c 15.756459
_cell_angle_alpha 31.430463
_cell_angle_beta 31.705352
_cell_angle_gamma 33.172954
_cell_volume 659.566261
_symmetry_space_group_name_H-M "P -1"
_symmetry_group_IT_number 2
_symmetry_cell_setting 'triclinic'
loop_
_space_group_symop_operation_xyz
x,y,z
-x,-y,-z
loop_
_atom_site_type_symbol
_atom_site_label
_atom_site_fract_x
_atom_site_fract_y
_atom_site_fract_z
Si Si1 0.081996 0.292152 0.935424
Si Si2 0.888797 0.274498 0.645174
Si Si3 0.202794 0.871991 0.002086
Si Si4 0.975302 0.652180 0.928716
Si Si5 0.158609 0.610501 0.720948
Si Si6 0.112130 0.034877 0.154364
Si Si7 0.790193 0.858647 0.507833
Si Si8 0.136807 0.462248 0.580762
O O1 0.493858 0.277576 0.789674
O O2 0.868143 0.365429 0.024032
O O3 0.978705 0.370586 0.801012
O O4 0.034476 0.156129 0.109906
O O5 0.945005 0.225324 0.776080
O O6 0.905857 0.415894 0.479999
O O7 0.160316 0.182045 0.565736
O O8 0.629711 0.791619 0.915228
O O9 0.110055 0.915314 0.895075
O O10 0.000000 0.000000 0.000000
O O11 0.850754 0.532215 0.110398
O O12 0.216905 0.642374 0.756516
O O13 0.443993 0.608052 0.534141
O O14 0.806848 0.733279 0.697863
O O15 0.115006 0.899353 0.344101
O O16 0.500000 0.000000 0.000000
O O17 0.500000 0.000000 0.500000
O O18 0.000000 0.500000 0.500000
#
# Coordination Sequence:
#
# PCOD9039620 Si02
#       8
#     2   2   2   2   2   2   2   2
#     4  11  21  40  67  96 130 173 224 276 331 406
#     4  11  21  41  68  94 129 179 227 274 337 403
#     4  11  20  37  66  99 128 172 228 269 326 412
#     4  10  23  42  69  97 128 179 223 279 349 400
#     4  11  22  43  68  94 135 172 225 285 341 402
#     4  12  22  40  65  99 134 176 223 279 330 406
#     4  12  25  43  66  99 138 181 224 280 350 404
#     4  12  23  41  70 102 133 172 231 285 336 403
#
# _framework density 24.258365000000001
#
# number of rings (size 3 to 8) (size 9 to 14) (size 15 to 20)
#    0.000    0.750    6.250    3.375    0.000    0.000 
#    2.250    1.250    0.000    0.000    0.000    0.000 
#    0.000    0.000    0.000    0.000    0.000    0.000 
#
# Total GULP energy -89257.696837 kJ/mol
# GULP energy per Si atom -5578.606052 kJ/mol
# Density = 2.420315 g / cm^3
# Si number density = 24.258365 Si / 1000 Ang^3
#
#
#
# Elastic Constant Matrix: (Units=GPa)
#
#
# Indices 1 2 3 4 5 6 
#
# 1 89.1718 30.6091 4.5252 -2.7303 22.2525 26.5561
# 2 30.6091 130.7322 15.4982 -7.2845 -1.6550 31.5867
# 3 4.5252 15.4982 46.6338 -10.3693 13.4187 16.5221
# 4 -2.7303 -7.2845 -10.3693 34.5340 11.0151 7.3578
# 5 22.2525 -1.6550 13.4187 11.0151 38.9095 5.0120
# 6 26.5561 31.5867 16.5221 7.3578 5.0120 51.9075
#
#
#
# Elastic Compliance Matrix: (Units=1/GPa)
#
#
# Indices 1 2 3 4 5 6 
#
# 1 0.019800 -0.002516 0.010901 0.012362 -0.017122 -0.012167
# 2 -0.002516 0.009642 -0.001848 0.001375 0.002670 -0.004444
# 3 0.010901 -0.001848 0.039891 0.024164 -0.024566 -0.018203
# 4 0.012362 0.001375 0.024164 0.050240 -0.027074 -0.019360
# 5 -0.017122 0.002670 -0.024566 -0.027074 0.049944 0.013970
# 6 -0.012167 -0.004444 -0.018203 -0.019360 0.013970 0.035384
#
#
# Mechanical properties :
#
#
# Convention : Reuss Voigt Hill
#
# Bulk Modulus (GPa) = 12.13494 40.86698 26.50096
# Shear Modulus (GPa) = 22.80035 39.46388 31.13212
#
# Velocity S-wave (km/s) = 3.06910 4.03776 3.58628
# Velocity P-wave (km/s) = 4.19194 6.21459 5.30064
#
# Compressibility (1/GPa) = 0.08240670
#
# Stress axis : x y z
#
# Youngs Moduli (GPa) = 50.50597 103.71614 25.06820
#
# Poissons Ratio (x) = 0.26099 -0.27328
# Poissons Ratio (y) = 0.12709 0.04632
# Poissons Ratio (z) = -0.55058 0.19165
#
# Static dielectric constant tensor:
#      x y z
#    x 1.841980 -0.185710 -0.005840 
#    y -0.185710 2.023060 0.047360 
#    z -0.005840 0.047360 1.916710 
# 
# From -- ./inp_files/563304.got.cif
#   From: 2010.05.17/outbox.cif.g08.bks.cpg/sg2_282_cif.got.tgz:563304.got - 2010.06.03 11:33:40.
