data_PCOD9039079
_publ_section_title
;
Structure prediction by ZEFSAII (Michael W. Deem and Ramdas Pophale) SiO2 
 PCOD9039079
Probable space group: P -1
;
_chemical_formula_sum "Si O2"
_cell_formula_units_Z 14
_cell_length_a 9.150438
_cell_length_b 9.131688
_cell_length_c 11.503463
_cell_angle_alpha 94.419553
_cell_angle_beta 117.938673
_cell_angle_gamma 51.173954
_cell_volume 627.918740
_symmetry_space_group_name_H-M "P -1"
_symmetry_group_IT_number 2
_symmetry_cell_setting 'triclinic'
loop_
_space_group_symop_operation_xyz
x,y,z
-x,-y,-z
loop_
_atom_site_type_symbol
_atom_site_label
_atom_site_fract_x
_atom_site_fract_y
_atom_site_fract_z
Si Si1 0.793433 0.725172 0.894956
Si Si2 0.232975 0.974823 0.960280
Si Si3 0.257615 0.764772 0.180713
Si Si4 0.256746 0.191685 0.378319
Si Si5 0.360044 0.453294 0.508112
Si Si6 0.942165 0.189088 0.429399
Si Si7 0.502389 0.340759 0.155658
O O1 0.820493 0.784535 0.782794
O O2 0.581244 0.744613 0.803586
O O3 0.000000 0.500000 0.000000
O O4 0.740006 0.871279 0.986994
O O5 0.422257 0.780532 0.943932
O O6 0.232860 0.896830 0.079414
O O7 0.975857 0.110875 0.828870
O O8 0.462181 0.690924 0.333420
O O9 0.316860 0.577463 0.122532
O O10 0.273569 0.358717 0.408042
O O11 0.104052 0.184869 0.406446
O O12 0.500000 0.000000 0.500000
O O13 0.500000 0.500000 0.500000
O O14 0.138958 0.657008 0.489365
O O15 0.724401 0.283685 0.279140
O O16 0.000000 0.000000 0.500000
#
# Coordination Sequence:
#
# PCOD9039079 Si02
#       7
#     2   2   2   2   2   2   2
#     4  12  26  45  68 106 145 185 238 296 358 426
#     4  11  24  40  73  95 141 181 235 283 363 413
#     4  10  23  42  66 105 130 182 231 292 348 426
#     4  12  26  46  72 102 145 188 239 297 353 430
#     4  11  24  44  71 101 144 181 234 293 359 419
#     4  11  26  44  71 105 138 189 241 293 361 429
#     4  11  24  44  68 102 139 181 235 296 353 429
#
# _framework density 22.295877999999998
#
# number of rings (size 3 to 8) (size 9 to 14) (size 15 to 20)
#    0.000    0.857    1.429    5.571    8.000    2.286 
#    0.000    2.857    0.000    0.000    0.000    0.000 
#    0.000    0.000    0.000    0.000    0.000    0.000 
#
# Total GULP energy -78100.167435 kJ/mol
# GULP energy per Si atom -5578.583388 kJ/mol
# Density = 2.224513 g / cm^3
# Si number density = 22.295878 Si / 1000 Ang^3
#
#
#
# Elastic Constant Matrix: (Units=GPa)
#
#
# Indices 1 2 3 4 5 6 
#
# 1 140.8172 -1.3874 7.2605 1.5807 -3.1911 -6.1216
# 2 -1.3874 54.8582 7.7674 19.1983 -4.5676 6.1321
# 3 7.2605 7.7674 56.9218 1.7724 -10.5219 -1.2871
# 4 1.5807 19.1983 1.7724 38.4405 3.6440 6.5992
# 5 -3.1911 -4.5676 -10.5219 3.6440 32.1148 5.7455
# 6 -6.1216 6.1321 -1.2871 6.5992 5.7455 32.5910
#
#
#
# Elastic Compliance Matrix: (Units=1/GPa)
#
#
# Indices 1 2 3 4 5 6 
#
# 1 0.007224 0.000444 -0.000865 -0.000740 0.000344 0.001328
# 2 0.000444 0.023240 -0.002109 -0.011464 0.004467 -0.002839
# 3 -0.000865 -0.002109 0.019068 -0.000352 0.005898 0.000019
# 4 -0.000740 -0.011464 -0.000352 0.032900 -0.004873 -0.003799
# 5 0.000344 0.004467 0.005898 -0.004873 0.035328 -0.005784
# 6 0.001328 -0.002839 0.000019 -0.003799 -0.005784 0.033257
#
#
# Mechanical properties :
#
#
# Convention : Reuss Voigt Hill
#
# Bulk Modulus (GPa) = 22.48677 31.09757 26.79217
# Shear Modulus (GPa) = 29.25660 36.55970 32.90815
#
# Velocity S-wave (km/s) = 3.62636 4.05378 3.84601
# Velocity P-wave (km/s) = 5.25752 5.99072 5.63606
#
# Compressibility (1/GPa) = 0.04447059
#
# Stress axis : x y z
#
# Youngs Moduli (GPa) = 138.42274 43.02948 52.44446
#
# Poissons Ratio (x) = -0.01912 0.04539
# Poissons Ratio (y) = -0.06149 0.11063
# Poissons Ratio (z) = 0.11980 0.09077
#
# Static dielectric constant tensor:
#      x y z
#    x 1.723520 0.040380 0.171250 
#    y 0.040380 2.051110 0.128220 
#    z 0.171250 0.128220 1.832650 
# 
# From -- ./inp_files/382717.got.cif
#   From: 2010.05.17/outbox.cif.g08.bks.cpg/sg2_192_cif.got.tgz:382717.got - 2010.06.03 11:33:40.
