data_PCOD9039369
_publ_section_title
;
Structure prediction by ZEFSAII (Michael W. Deem and Ramdas Pophale) SiO2 
 PCOD9039369
Probable space group: P -1
;
_chemical_formula_sum "Si O2"
_cell_formula_units_Z 14
_cell_length_a 11.714047
_cell_length_b 5.697475
_cell_length_c 25.782726
_cell_angle_alpha 114.925477
_cell_angle_beta 152.117724
_cell_angle_gamma 82.413454
_cell_volume 601.088825
_symmetry_space_group_name_H-M "P -1"
_symmetry_group_IT_number 2
_symmetry_cell_setting 'triclinic'
loop_
_space_group_symop_operation_xyz
x,y,z
-x,-y,-z
loop_
_atom_site_type_symbol
_atom_site_label
_atom_site_fract_x
_atom_site_fract_y
_atom_site_fract_z
Si Si1 0.851019 0.202131 0.805363
Si Si2 0.345626 0.868177 0.870910
Si Si3 0.352582 0.237879 0.629460
Si Si4 0.580871 0.185486 0.893023
Si Si5 0.236740 0.136775 0.367409
Si Si6 0.012264 0.871089 0.358623
Si Si7 0.519586 0.118669 0.278472
O O1 0.701174 0.393130 0.772194
O O2 0.198338 0.441120 0.976794
O O3 0.769646 0.056467 0.702207
O O4 0.685859 0.940420 0.759637
O O5 0.086486 0.925162 0.770173
O O6 0.172887 0.498451 0.759153
O O7 0.576820 0.039034 0.932690
O O8 0.500000 0.000000 0.000000
O O9 0.308644 0.518736 0.635523
O O10 0.179570 0.990319 0.491024
O O11 0.309756 0.036796 0.645279
O O12 0.236658 0.055292 0.735129
O O13 0.658389 0.077632 0.862119
O O14 0.500000 0.500000 0.500000
O O15 0.239699 0.028646 0.416785
#
# Coordination Sequence:
#
# PCOD9039369 Si02
#       7
#     2   2   2   2   2   2   2
#     4  10  23  42  68 101 136 183 227 285 336 408
#     4  11  25  42  66 100 136 179 225 280 344 410
#     4  10  25  44  71  99 140 174 236 278 339 402
#     4  11  25  43  68  97 140 180 226 282 343 408
#     4  11  23  42  69  97 135 173 230 282 342 406
#     4  11  25  42  67 101 134 182 226 282 347 403
#     4  10  25  46  70 104 134 183 232 282 338 403
#
# _framework density 23.291066000000001
#
# number of rings (size 3 to 8) (size 9 to 14) (size 15 to 20)
#    0.857    0.571    0.000    3.857    6.000   10.857 
#    0.000    0.000    0.000    0.000    0.000    0.000 
#    0.000    0.000    0.000    0.000    0.000    0.000 
#
# Total GULP energy -78165.581575 kJ/mol
# GULP energy per Si atom -5583.255827 kJ/mol
# Density = 2.323805 g / cm^3
# Si number density = 23.291066 Si / 1000 Ang^3
#
#
#
# Elastic Constant Matrix: (Units=GPa)
#
#
# Indices 1 2 3 4 5 6 
#
# 1 117.0750 30.8009 37.5007 -1.2170 -26.1810 27.3282
# 2 30.8009 113.7479 23.1200 10.7430 -17.7139 18.2848
# 3 37.5007 23.1200 110.3156 2.0176 -31.6936 19.6016
# 4 -1.2170 10.7430 2.0176 34.0834 1.0710 1.8905
# 5 -26.1810 -17.7139 -31.6936 1.0710 53.6048 -1.5078
# 6 27.3282 18.2848 19.6016 1.8905 -1.5078 36.3961
#
#
#
# Elastic Compliance Matrix: (Units=1/GPa)
#
#
# Indices 1 2 3 4 5 6 
#
# 1 0.012062 -0.001188 -0.001200 0.001159 0.004550 -0.007686
# 2 -0.001188 0.010529 -0.000263 -0.003210 0.002696 -0.003978
# 3 -0.001200 -0.000263 0.012348 -0.000600 0.006491 -0.005317
# 4 0.001159 -0.003210 -0.000600 0.030507 -0.001475 -0.000581
# 5 0.004550 0.002696 0.006491 -0.001475 0.025434 -0.007136
# 6 -0.007686 -0.003978 -0.005317 -0.000581 -0.007136 0.037843
#
#
# Mechanical properties :
#
#
# Convention : Reuss Voigt Hill
#
# Bulk Modulus (GPa) = 33.74013 58.22018 45.98016
# Shear Modulus (GPa) = 34.74554 41.46465 38.10509
#
# Velocity S-wave (km/s) = 3.86657 4.22392 4.04919
# Velocity P-wave (km/s) = 5.86954 6.98854 6.45334
#
# Compressibility (1/GPa) = 0.02963829
#
# Stress axis : x y z
#
# Youngs Moduli (GPa) = 82.90601 94.97741 80.98240
#
# Poissons Ratio (x) = 0.11281 0.09716
# Poissons Ratio (y) = 0.09847 0.02128
# Poissons Ratio (z) = 0.09947 0.02496
#
# Static dielectric constant tensor:
#      x y z
#    x 1.901750 -0.059930 0.055090 
#    y -0.059930 1.999680 -0.062450 
#    z 0.055090 -0.062450 1.819610 
# 
# From -- ./inp_files/427664.got.cif
#   From: 2010.05.17/outbox.cif.g08.bks.cpg/sg2_214_cif.got.tgz:427664.got - 2010.06.03 11:33:40.
