data_PCOD9039173
_publ_section_title
;
Structure prediction by ZEFSAII (Michael W. Deem and Ramdas Pophale) SiO2 
 PCOD9039173
Probable space group: P -1
;
_chemical_formula_sum "Si O2"
_cell_formula_units_Z 16
_cell_length_a 28.532041
_cell_length_b 8.633517
_cell_length_c 6.741787
_cell_angle_alpha 105.040211
_cell_angle_beta 59.978780
_cell_angle_gamma 148.290840
_cell_volume 703.616200
_symmetry_space_group_name_H-M "P -1"
_symmetry_group_IT_number 2
_symmetry_cell_setting 'triclinic'
loop_
_space_group_symop_operation_xyz
x,y,z
-x,-y,-z
loop_
_atom_site_type_symbol
_atom_site_label
_atom_site_fract_x
_atom_site_fract_y
_atom_site_fract_z
Si Si1 0.973625 0.248993 0.585769
Si Si2 0.874764 0.821871 0.979258
Si Si3 0.310309 0.125438 0.305217
Si Si4 0.532837 0.198570 0.814619
Si Si5 0.361703 0.777202 0.704448
Si Si6 0.886196 0.138064 0.357736
Si Si7 0.815742 0.319644 0.927523
Si Si8 0.378590 0.155781 0.574724
O O1 0.009703 0.482221 0.735147
O O2 0.077431 0.493746 0.308899
O O3 0.879116 0.055952 0.573433
O O4 0.949488 0.037016 0.703648
O O5 0.754968 0.559617 0.081147
O O6 0.900291 0.016228 0.157196
O O7 0.863001 0.608964 0.000109
O O8 0.400821 0.477286 0.146134
O O9 0.364354 0.164609 0.379929
O O10 0.213794 0.002148 0.527210
O O11 0.256418 0.863083 0.180195
O O12 0.601100 0.271172 0.533305
O O13 0.434826 0.996572 0.813022
O O14 0.500000 0.000000 0.000000
O O15 0.360545 0.928649 0.613111
O O16 0.726061 0.022243 0.167095
O O17 0.500000 0.500000 0.500000
#
# Coordination Sequence:
#
# PCOD9039173 Si02
#       8
#     2   2   2   2   2   2   2   2
#     4  10  23  43  67  96 133 171 227 278 330 399
#     4  11  22  41  67  92 137 170 222 278 330 395
#     4  11  24  44  69  98 135 181 222 273 338 394
#     4  11  24  41  68  95 137 174 226 279 330 394
#     4  10  24  42  61 105 127 181 227 266 337 397
#     4  10  23  42  66  99 127 175 227 265 343 391
#     4  10  26  42  64 104 130 175 228 271 339 396
#     4  11  24  44  67  91 142 178 221 274 327 402
#
# _framework density 22.739668000000002
#
# number of rings (size 3 to 8) (size 9 to 14) (size 15 to 20)
#    0.000    1.500    2.500    0.750    3.500   10.000 
#    0.000    0.000    0.000    0.000    0.000    0.000 
#    0.000    0.000    0.000    0.000    0.000    0.000 
#
# Total GULP energy -89198.028038 kJ/mol
# GULP energy per Si atom -5574.876752 kJ/mol
# Density = 2.268791 g / cm^3
# Si number density = 22.739668 Si / 1000 Ang^3
#
#
#
# Elastic Constant Matrix: (Units=GPa)
#
#
# Indices 1 2 3 4 5 6 
#
# 1 67.1735 39.0410 17.7693 9.8780 16.9132 8.3224
# 2 39.0410 99.1096 30.5911 0.6340 4.0869 -8.1960
# 3 17.7693 30.5911 52.9388 -9.1970 -4.1254 -9.4605
# 4 9.8780 0.6340 -9.1970 34.4115 -5.8351 -4.0452
# 5 16.9132 4.0869 -4.1254 -5.8351 36.2341 -0.5918
# 6 8.3224 -8.1960 -9.4605 -4.0452 -0.5918 26.8407
#
#
#
# Elastic Compliance Matrix: (Units=1/GPa)
#
#
# Indices 1 2 3 4 5 6 
#
# 1 0.036567 -0.010482 -0.015766 -0.020942 -0.021441 -0.023725
# 2 -0.010482 0.015727 -0.003418 0.003249 0.003374 0.007412
# 3 -0.015766 -0.003418 0.033885 0.018387 0.014872 0.018887
# 4 -0.020942 0.003249 0.018387 0.045684 0.019206 0.021275
# 5 -0.021441 0.003374 0.014872 0.019206 0.042286 0.016747
# 6 -0.023725 0.007412 0.018887 0.021275 0.016747 0.057109
#
#
# Mechanical properties :
#
#
# Convention : Reuss Voigt Hill
#
# Bulk Modulus (GPa) = 37.24635 43.78054 40.51345
# Shear Modulus (GPa) = 16.69247 28.28529 22.48888
#
# Velocity S-wave (km/s) = 2.71231 3.53069 3.14820
# Velocity P-wave (km/s) = 5.12092 5.99297 5.57403
#
# Compressibility (1/GPa) = 0.02684827
#
# Stress axis : x y z
#
# Youngs Moduli (GPa) = 27.34727 63.58612 29.51155
#
# Poissons Ratio (x) = 0.66650 0.46527
# Poissons Ratio (y) = 0.28665 0.10086
# Poissons Ratio (z) = 0.43115 0.21731
#
# Static dielectric constant tensor:
#      x y z
#    x 1.895280 0.012410 -0.065070 
#    y 0.012410 1.856510 -0.000470 
#    z -0.065070 -0.000470 1.905760 
# 
# From -- ./inp_files/39690.got.cif
#   From: 2010.05.17/outbox.cif.g08.bks.cpg/sg2_20_cif.got.tgz:39690.got - 2010.06.03 11:33:40.
