data_PCOD9039010
_publ_section_title
;
Structure prediction by ZEFSAII (Michael W. Deem and Ramdas Pophale) SiO2 
 PCOD9039010
Probable space group: P -1
;
_chemical_formula_sum "Si O2"
_cell_formula_units_Z 16
_cell_length_a 15.367116
_cell_length_b 8.494675
_cell_length_c 8.920809
_cell_angle_alpha 90.467944
_cell_angle_beta 39.427129
_cell_angle_gamma 102.018239
_cell_volume 701.177394
_symmetry_space_group_name_H-M "P -1"
_symmetry_group_IT_number 2
_symmetry_cell_setting 'triclinic'
loop_
_space_group_symop_operation_xyz
x,y,z
-x,-y,-z
loop_
_atom_site_type_symbol
_atom_site_label
_atom_site_fract_x
_atom_site_fract_y
_atom_site_fract_z
Si Si1 0.417724 0.243612 0.500978
Si Si2 0.903826 0.933043 0.985418
Si Si3 0.226686 0.556509 0.433305
Si Si4 0.424962 0.860181 0.975504
Si Si5 0.574218 0.387392 0.575791
Si Si6 0.966623 0.661229 0.706807
Si Si7 0.158909 0.936474 0.226864
Si Si8 0.721758 0.683246 0.848343
O O1 0.264173 0.121588 0.752240
O O2 0.466268 0.187653 0.279643
O O3 0.529221 0.267534 0.491682
O O4 0.401183 0.425095 0.506939
O O5 0.943489 0.773087 0.873764
O O6 0.918031 0.057092 0.827653
O O7 0.000000 0.000000 0.000000
O O8 0.283826 0.612178 0.523783
O O9 0.266221 0.393580 0.329417
O O10 0.060400 0.544280 0.626408
O O11 0.328092 0.701408 0.194580
O O12 0.316113 0.915566 0.013432
O O13 0.500000 0.000000 0.000000
O O14 0.437058 0.345844 0.873067
O O15 0.809334 0.592035 0.838893
O O16 0.064305 0.791463 0.457607
O O17 0.194290 0.121077 0.251347
#
# Coordination Sequence:
#
# PCOD9039010 Si02
#       8
#     2   2   2   2   2   2   2   2
#     4  11  25  43  66  94 138 176 215 279 336 391
#     4  11  24  42  64  93 130 182 218 264 335 400
#     4  11  24  40  68  99 127 172 230 272 324 397
#     4  11  25  41  66 101 128 165 223 279 332 390
#     4  11  23  42  67  98 132 178 220 270 337 398
#     4  10  23  43  65  96 134 173 223 277 324 389
#     4  10  23  42  65  96 133 171 222 275 324 391
#     4  11  19  41  66  94 133 171 222 264 333 386
#
# _framework density 22.818760999999999
#
# number of rings (size 3 to 8) (size 9 to 14) (size 15 to 20)
#    0.000    1.250    3.750    3.000    5.250    2.500 
#    0.000    0.625    0.000    0.000    0.000    0.000 
#    0.000    0.000    0.000    0.000    0.000    0.000 
#
# Total GULP energy -89494.036801 kJ/mol
# GULP energy per Si atom -5593.377300 kJ/mol
# Density = 2.276682 g / cm^3
# Si number density = 22.818761 Si / 1000 Ang^3
#
#
#
# Elastic Constant Matrix: (Units=GPa)
#
#
# Indices 1 2 3 4 5 6 
#
# 1 113.4600 31.5011 6.8047 5.9566 0.4048 15.5413
# 2 31.5011 50.7392 -6.2046 9.0418 8.7709 17.2856
# 3 6.8047 -6.2046 33.7157 12.9875 -2.9514 -2.1931
# 4 5.9566 9.0418 12.9875 27.9380 5.0958 4.0365
# 5 0.4048 8.7709 -2.9514 5.0958 24.8561 9.0389
# 6 15.5413 17.2856 -2.1931 4.0365 9.0389 37.6193
#
#
#
# Elastic Compliance Matrix: (Units=1/GPa)
#
#
# Indices 1 2 3 4 5 6 
#
# 1 0.011384 -0.007600 -0.004389 0.001962 0.002392 -0.002252
# 2 -0.007600 0.031421 0.010874 -0.011617 -0.004236 -0.008399
# 3 -0.004389 0.010874 0.042037 -0.023246 0.005863 0.000353
# 4 0.001962 -0.011617 -0.023246 0.051646 -0.009225 -0.000153
# 5 0.002392 -0.004236 0.005863 -0.009225 0.047601 -0.009147
# 6 -0.002252 -0.008399 0.000353 -0.000153 -0.009147 0.033607
#
#
# Mechanical properties :
#
#
# Convention : Reuss Voigt Hill
#
# Bulk Modulus (GPa) = 12.10481 29.12415 20.61448
# Shear Modulus (GPa) = 20.20493 29.13693 24.67093
#
# Velocity S-wave (km/s) = 2.97888 3.57723 3.29168
# Velocity P-wave (km/s) = 4.14101 5.46379 4.84773
#
# Compressibility (1/GPa) = 0.08261182
#
# Stress axis : x y z
#
# Youngs Moduli (GPa) = 87.84268 31.82583 23.78830
#
# Poissons Ratio (x) = 0.24189 0.10441
# Poissons Ratio (y) = 0.66764 -0.25868
# Poissons Ratio (z) = 0.38555 -0.34608
#
# Static dielectric constant tensor:
#      x y z
#    x 1.897650 -0.012520 -0.009910 
#    y -0.012520 1.869340 0.029180 
#    z -0.009910 0.029180 1.846510 
# 
# From -- ./inp_files/298664.got.cif
#   From: 2010.05.17/outbox.cif.g08.bks.cpg/sg2_150_cif.got.tgz:298664.got - 2010.06.03 11:33:40.
