data_PCOD9039400
_publ_section_title
;
Structure prediction by ZEFSAII (Michael W. Deem and Ramdas Pophale) SiO2 
 PCOD9039400
Probable space group: P -1
;
_chemical_formula_sum "Si O2"
_cell_formula_units_Z 14
_cell_length_a 11.953017
_cell_length_b 8.935420
_cell_length_c 21.792819
_cell_angle_alpha 40.942180
_cell_angle_beta 152.808733
_cell_angle_gamma 123.054192
_cell_volume 631.783583
_symmetry_space_group_name_H-M "P -1"
_symmetry_group_IT_number 2
_symmetry_cell_setting 'triclinic'
loop_
_space_group_symop_operation_xyz
x,y,z
-x,-y,-z
loop_
_atom_site_type_symbol
_atom_site_label
_atom_site_fract_x
_atom_site_fract_y
_atom_site_fract_z
Si Si1 0.058220 0.207650 0.618599
Si Si2 0.236666 0.477862 0.908939
Si Si3 0.777013 0.195755 0.082124
Si Si4 0.319864 0.095104 0.321913
Si Si5 0.366074 0.302971 0.504829
Si Si6 0.531359 0.897819 0.245533
Si Si7 0.473910 0.501816 0.247430
O O1 0.203141 0.101308 0.658430
O O2 0.000000 0.500000 0.500000
O O3 0.753167 0.246986 0.465090
O O4 0.237855 0.030925 0.815375
O O5 0.187622 0.628069 0.902466
O O6 0.954071 0.588632 0.699997
O O7 0.500000 0.500000 0.000000
O O8 0.314056 0.183960 0.048573
O O9 0.040608 0.076807 0.205086
O O10 0.551358 0.371799 0.870591
O O11 0.263941 0.385081 0.194377
O O12 0.500000 0.000000 0.500000
O O13 0.470322 0.924639 0.390852
O O14 0.500000 0.500000 0.500000
O O15 0.410766 0.207600 0.625748
O O16 0.459914 0.707322 0.227240
#
# Coordination Sequence:
#
# PCOD9039400 Si02
#       7
#     2   2   2   2   2   2   2
#     4  10  23  42  68 103 141 189 238 299 360 435
#     4  12  27  48  74 112 148 191 242 306 373 433
#     4  12  25  46  75 104 145 191 252 299 365 440
#     4  12  23  48  74 102 146 195 248 296 366 443
#     4  12  29  49  77 107 152 197 240 311 369 437
#     4  11  27  45  71 110 148 189 248 302 373 437
#     4  11  25  44  74 106 143 197 244 300 365 443
#
# _framework density 22.159486999999999
#
# number of rings (size 3 to 8) (size 9 to 14) (size 15 to 20)
#    0.000    0.571    4.286    2.143    6.000    3.429 
#    0.000    0.000    0.000    0.000    0.000    0.000 
#    0.000    0.000    0.000    0.000    0.000    0.000 
#
# Total GULP energy -78229.258551 kJ/mol
# GULP energy per Si atom -5587.804182 kJ/mol
# Density = 2.210905 g / cm^3
# Si number density = 22.159487 Si / 1000 Ang^3
#
#
#
# Elastic Constant Matrix: (Units=GPa)
#
#
# Indices 1 2 3 4 5 6 
#
# 1 143.5782 50.0311 66.4194 -3.9458 -32.0433 -1.4442
# 2 50.0311 127.9398 48.3468 -15.4570 -17.9275 -7.7403
# 3 66.4194 48.3468 125.5743 -8.6747 -24.2369 -12.4048
# 4 -3.9458 -15.4570 -8.6747 37.5898 2.5148 0.7594
# 5 -32.0433 -17.9275 -24.2369 2.5148 46.7812 4.3099
# 6 -1.4442 -7.7403 -12.4048 0.7594 4.3099 38.2344
#
#
#
# Elastic Compliance Matrix: (Units=1/GPa)
#
#
# Indices 1 2 3 4 5 6 
#
# 1 0.010606 -0.002181 -0.004156 -0.001006 0.004503 -0.001877
# 2 -0.002181 0.010108 -0.002218 0.003330 0.000953 0.001071
# 3 -0.004156 -0.002218 0.011790 0.001174 0.002076 0.002962
# 4 -0.001006 0.003330 0.001174 0.028152 -0.000364 0.000499
# 5 0.004503 0.000953 0.002076 -0.000364 0.026095 -0.001898
# 6 -0.001877 0.001071 0.002962 0.000499 -0.001898 0.027465
#
#
# Mechanical properties :
#
#
# Convention : Reuss Voigt Hill
#
# Bulk Modulus (GPa) = 64.96382 80.74298 72.85340
# Shear Modulus (GPa) = 36.64162 40.00743 38.32452
#
# Velocity S-wave (km/s) = 4.07079 4.25365 4.16322
# Velocity P-wave (km/s) = 7.17462 7.78723 7.48720
#
# Compressibility (1/GPa) = 0.01539318
#
# Stress axis : x y z
#
# Youngs Moduli (GPa) = 94.28935 98.93178 84.81919
#
# Poissons Ratio (x) = 0.21578 0.35248
# Poissons Ratio (y) = 0.20566 0.18815
# Poissons Ratio (z) = 0.39184 0.21946
#
# Static dielectric constant tensor:
#      x y z
#    x 1.830030 0.093260 0.061710 
#    y 0.093260 1.858390 0.054360 
#    z 0.061710 0.054360 1.881620 
# 
# From -- ./inp_files/593988.got.cif
#   From: 2010.05.17/outbox.cif.g08.bks.cpg/sg2_297_cif.got.tgz:593988.got - 2010.06.03 11:33:40.
