data_PCOD9039680
_publ_section_title
;
Structure prediction by ZEFSAII (Michael W. Deem and Ramdas Pophale) SiO2 
 PCOD9039680
Probable space group: P -1
;
_chemical_formula_sum "Si O2"
_cell_formula_units_Z 10
_cell_length_a 5.119359
_cell_length_b 7.450520
_cell_length_c 15.300191
_cell_angle_alpha 131.151750
_cell_angle_beta 88.604932
_cell_angle_gamma 107.649537
_cell_volume 406.062449
_symmetry_space_group_name_H-M "P -1"
_symmetry_group_IT_number 2
_symmetry_cell_setting 'triclinic'
loop_
_space_group_symop_operation_xyz
x,y,z
-x,-y,-z
loop_
_atom_site_type_symbol
_atom_site_label
_atom_site_fract_x
_atom_site_fract_y
_atom_site_fract_z
Si Si1 0.506672 0.340678 0.753161
Si Si2 0.257966 0.007744 0.439391
Si Si3 0.303483 0.124040 0.992021
Si Si4 0.881350 0.097083 0.267656
Si Si5 0.531148 0.436470 0.365663
O O1 0.753496 0.228051 0.698571
O O2 0.243687 0.095451 0.712415
O O3 0.449860 0.464802 0.704123
O O4 0.781821 0.782912 0.700234
O O5 0.500000 0.000000 0.500000
O O6 0.396366 0.299085 0.495593
O O7 0.000000 0.000000 0.500000
O O8 0.413973 0.429402 0.104611
O O9 0.257358 0.049683 0.867141
O O10 0.500000 0.000000 0.000000
O O11 0.000000 0.000000 0.000000
O O12 0.772584 0.329408 0.348022
#
# Coordination Sequence:
#
# PCOD9039680 Si02
#       5
#     2   2   2   2   2
#     4  11  25  45  72  98 141 180 228 279 340 399
#     4  10  23  42  70 100 135 182 222 274 340 403
#     4  12  24  45  70  96 138 181 222 286 339 398
#     4  12  25  43  71 104 132 182 228 275 343 407
#     4  11  24  45  67 100 144 172 226 281 334 401
#
# _framework density 24.626754999999999
#
# number of rings (size 3 to 8) (size 9 to 14) (size 15 to 20)
#    0.000    0.800    4.000    3.000    0.000    8.000 
#    0.000    4.000    0.000    0.000    0.000    0.000 
#    0.000    0.000    0.000    0.000    0.000    0.000 
#
# Total GULP energy -56018.522689 kJ/mol
# GULP energy per Si atom -5601.852269 kJ/mol
# Density = 2.457070 g / cm^3
# Si number density = 24.626755 Si / 1000 Ang^3
#
#
#
# Elastic Constant Matrix: (Units=GPa)
#
#
# Indices 1 2 3 4 5 6 
#
# 1 120.9129 32.1586 -2.7675 -9.1260 -13.8884 -0.2463
# 2 32.1586 149.9278 21.5253 1.3240 -4.3474 10.6369
# 3 -2.7675 21.5253 143.5192 9.9947 -1.7872 -17.6895
# 4 -9.1260 1.3240 9.9947 59.3545 -8.2330 -6.3282
# 5 -13.8884 -4.3474 -1.7872 -8.2330 38.3339 2.6629
# 6 -0.2463 10.6369 -17.6895 -6.3282 2.6629 47.9471
#
#
#
# Elastic Compliance Matrix: (Units=1/GPa)
#
#
# Indices 1 2 3 4 5 6 
#
# 1 0.009387 -0.002051 0.000487 0.001981 0.003565 0.000746
# 2 -0.002051 0.007478 -0.001405 -0.000473 0.000095 -0.002256
# 3 0.000487 -0.001405 0.007619 -0.000858 -0.000021 0.003013
# 4 0.001981 -0.000473 -0.000858 0.018123 0.004381 0.001947
# 5 0.003565 0.000095 -0.000021 0.004381 0.028399 -0.001010
# 6 0.000746 -0.002256 0.003013 0.001947 -0.001010 0.022785
#
#
# Mechanical properties :
#
#
# Convention : Reuss Voigt Hill
#
# Bulk Modulus (GPa) = 53.91630 57.35475 55.63553
# Shear Modulus (GPa) = 47.20930 53.35666 50.28298
#
# Velocity S-wave (km/s) = 4.38310 4.65974 4.52353
# Velocity P-wave (km/s) = 6.89611 7.23126 7.06567
#
# Compressibility (1/GPa) = 0.01854727
#
# Stress axis : x y z
#
# Youngs Moduli (GPa) = 106.52517 133.71863 131.25574
#
# Poissons Ratio (x) = 0.27420 -0.06392
# Poissons Ratio (y) = 0.21843 0.18442
# Poissons Ratio (z) = -0.05187 0.18789
#
# Static dielectric constant tensor:
#      x y z
#    x 2.092520 -0.064960 0.205710 
#    y -0.064960 2.039100 -0.137740 
#    z 0.205710 -0.137740 2.265690 
# 
# From -- ./inp_files/848.got.cif
#   From: 2010.05.17/outbox.cif.g08.bks.cpg/sg2_1_cif.got.tgz:848.got - 2010.06.03 11:33:40.
