data_PCOD9039581
_publ_section_title
;
Structure prediction by ZEFSAII (Michael W. Deem and Ramdas Pophale) SiO2 
 PCOD9039581
Probable space group: P -1
;
_chemical_formula_sum "Si O2"
_cell_formula_units_Z 14
_cell_length_a 5.562835
_cell_length_b 9.062227
_cell_length_c 18.669058
_cell_angle_alpha 140.238871
_cell_angle_beta 108.672840
_cell_angle_gamma 90.761330
_cell_volume 515.354981
_symmetry_space_group_name_H-M "P -1"
_symmetry_group_IT_number 2
_symmetry_cell_setting 'triclinic'
loop_
_space_group_symop_operation_xyz
x,y,z
-x,-y,-z
loop_
_atom_site_type_symbol
_atom_site_label
_atom_site_fract_x
_atom_site_fract_y
_atom_site_fract_z
Si Si1 0.751525 0.275673 0.778720
Si Si2 0.143173 0.719792 0.363518
Si Si3 0.157094 0.935307 0.588617
Si Si4 0.320357 0.617140 0.642438
Si Si5 0.404088 0.728368 0.852785
Si Si6 0.082917 0.184921 0.005166
Si Si7 0.906978 0.887516 0.727889
O O1 0.987888 0.571331 0.921141
O O2 0.674006 0.250954 0.677199
O O3 0.442069 0.115257 0.724828
O O4 0.907998 0.100063 0.751594
O O5 0.924611 0.427585 0.233358
O O6 0.253072 0.794782 0.481357
O O7 0.962659 0.875870 0.385721
O O8 0.878432 0.684449 0.492846
O O9 0.465616 0.702795 0.766366
O O10 0.579173 0.702838 0.644398
O O11 0.107256 0.753755 0.673383
O O12 0.585468 0.631583 0.883003
O O13 0.500000 0.000000 0.000000
O O14 0.000000 0.000000 0.000000
O O15 0.023420 0.031411 0.868765
#
# Coordination Sequence:
#
# PCOD9039581 Si02
#       7
#     2   2   2   2   2   2   2
#     4  12  27  45  73 106 149 193 233 309 373 435
#     4  10  23  42  69 106 140 189 244 307 362 431
#     4  10  24  45  72 103 145 188 254 293 360 431
#     4  11  27  46  74 106 145 199 244 301 355 438
#     4  11  20  41  73 106 138 187 252 303 359 422
#     4  12  24  45  77 107 143 192 249 302 363 439
#     4  12  29  48  73 111 153 190 244 298 374 437
#
# _framework density 27.165741000000001
#
# number of rings (size 3 to 8) (size 9 to 14) (size 15 to 20)
#    0.000    0.857    4.286    1.714    6.000    1.143 
#    0.000    2.143    0.000    0.000    0.000    0.000 
#    0.000    0.000    0.000    0.000    0.000    0.000 
#
# Total GULP energy -78114.514790 kJ/mol
# GULP energy per Si atom -5579.608199 kJ/mol
# Density = 2.710391 g / cm^3
# Si number density = 27.165741 Si / 1000 Ang^3
#
#
#
# Elastic Constant Matrix: (Units=GPa)
#
#
# Indices 1 2 3 4 5 6 
#
# 1 107.4316 10.7309 24.0471 18.0927 9.5879 3.8605
# 2 10.7309 91.1523 38.8591 12.9888 2.5144 6.1518
# 3 24.0471 38.8591 174.8489 21.9367 4.2002 8.0520
# 4 18.0927 12.9888 21.9367 52.7429 1.5156 -8.2902
# 5 9.5879 2.5144 4.2002 1.5156 34.0506 8.5448
# 6 3.8605 6.1518 8.0520 -8.2902 8.5448 43.4699
#
#
#
# Elastic Compliance Matrix: (Units=1/GPa)
#
#
# Indices 1 2 3 4 5 6 
#
# 1 0.010310 -0.000270 -0.000862 -0.003175 -0.002423 -0.000847
# 2 -0.000270 0.012450 -0.002366 -0.002260 -0.000018 -0.001727
# 3 -0.000862 -0.002366 0.006683 -0.002093 -0.000006 -0.001224
# 4 -0.003175 -0.002260 -0.002093 0.022365 -0.001047 0.005460
# 5 -0.002423 -0.000018 -0.000006 -0.001047 0.031656 -0.006203
# 6 -0.000847 -0.001727 -0.001224 0.005460 -0.006203 0.025812
#
#
# Mechanical properties :
#
#
# Convention : Reuss Voigt Hill
#
# Bulk Modulus (GPa) = 44.55142 57.85635 51.20388
# Shear Modulus (GPa) = 40.40292 46.03907 43.22100
#
# Velocity S-wave (km/s) = 3.86070 4.12120 3.99308
# Velocity P-wave (km/s) = 6.02568 6.63246 6.33634
#
# Compressibility (1/GPa) = 0.02244598
#
# Stress axis : x y z
#
# Youngs Moduli (GPa) = 96.99715 80.31898 149.63583
#
# Poissons Ratio (x) = 0.02166 0.12905
# Poissons Ratio (y) = 0.02615 0.35409
# Poissons Ratio (z) = 0.08365 0.19006
#
# Static dielectric constant tensor:
#      x y z
#    x 2.376750 -0.143040 -0.182890 
#    y -0.143040 2.386290 0.163510 
#    z -0.182890 0.163510 2.243900 
# 
# From -- ./inp_files/83351.got.cif
#   From: 2010.05.17/outbox.cif.g08.bks.cpg/sg2_42_cif.got.tgz:83351.got - 2010.06.03 11:33:40.
