data_PCOD9039227
_publ_section_title
;
Structure prediction by ZEFSAII (Michael W. Deem and Ramdas Pophale) SiO2 
 PCOD9039227
Probable space group: P -1
;
_chemical_formula_sum "Si O2"
_cell_formula_units_Z 14
_cell_length_a 10.089998
_cell_length_b 15.062197
_cell_length_c 9.225901
_cell_angle_alpha 106.149673
_cell_angle_beta 34.908043
_cell_angle_gamma 124.525205
_cell_volume 607.060138
_symmetry_space_group_name_H-M "P -1"
_symmetry_group_IT_number 2
_symmetry_cell_setting 'triclinic'
loop_
_space_group_symop_operation_xyz
x,y,z
-x,-y,-z
loop_
_atom_site_type_symbol
_atom_site_label
_atom_site_fract_x
_atom_site_fract_y
_atom_site_fract_z
Si Si1 0.249567 0.509463 0.866245
Si Si2 0.720108 0.469485 0.827960
Si Si3 0.850815 0.094840 0.044232
Si Si4 0.121373 0.310567 0.692481
Si Si5 0.290451 0.734564 0.218623
Si Si6 0.813059 0.143017 0.419630
Si Si7 0.094617 0.047533 0.276461
O O1 0.240546 0.407097 0.755161
O O2 0.561330 0.640462 0.635332
O O3 0.166340 0.478557 0.092069
O O4 0.000000 0.500000 0.000000
O O5 0.569532 0.331752 0.914977
O O6 0.000000 0.500000 0.500000
O O7 0.500000 0.500000 0.000000
O O8 0.938768 0.157038 0.151203
O O9 0.522632 0.977380 0.319926
O O10 0.910860 0.185916 0.906329
O O11 0.008519 0.045044 0.805051
O O12 0.950164 0.319490 0.718567
O O13 0.172779 0.749652 0.481329
O O14 0.554052 0.866346 0.996943
O O15 0.978589 0.118918 0.372977
O O16 0.000000 0.000000 0.500000
#
# Coordination Sequence:
#
# PCOD9039227 Si02
#       7
#     2   2   2   2   2   2   2
#     4  11  26  48  69 104 140 192 253 309 369 452
#     4  12  29  49  77 109 150 197 252 316 384 445
#     4  10  23  42  67 102 141 190 236 303 374 443
#     4  11  24  44  73  99 145 193 249 306 374 442
#     4  11  25  44  70 102 140 192 241 310 366 451
#     4  10  23  43  66 103 145 180 245 301 367 451
#     4  11  23  39  70 104 141 187 239 295 374 446
#
# _framework density 23.061966000000002
#
# number of rings (size 3 to 8) (size 9 to 14) (size 15 to 20)
#    0.000    1.143    1.429    3.000   10.000    3.429 
#    0.000    0.000    0.000    0.000    0.000    0.000 
#    0.000    0.000    0.000    0.000    0.000    0.000 
#
# Total GULP energy -78036.801345 kJ/mol
# GULP energy per Si atom -5574.057239 kJ/mol
# Density = 2.300948 g / cm^3
# Si number density = 23.061966 Si / 1000 Ang^3
#
#
#
# Elastic Constant Matrix: (Units=GPa)
#
#
# Indices 1 2 3 4 5 6 
#
# 1 143.0724 38.1728 60.6813 24.0073 7.5663 -5.0155
# 2 38.1728 101.3538 35.6106 29.4183 12.3881 -3.3469
# 3 60.6813 35.6106 114.0849 30.1138 29.6784 0.8348
# 4 24.0073 29.4183 30.1138 28.5462 -3.1024 5.0031
# 5 7.5663 12.3881 29.6784 -3.1024 33.8693 9.6777
# 6 -5.0155 -3.3469 0.8348 5.0031 9.6777 38.1418
#
#
#
# Elastic Compliance Matrix: (Units=1/GPa)
#
#
# Indices 1 2 3 4 5 6 
#
# 1 0.009652 -0.002102 -0.005222 -0.000192 0.003041 0.000453
# 2 -0.002102 0.019492 0.008249 -0.030966 -0.019669 0.010306
# 3 -0.005222 0.008249 0.028318 -0.040028 -0.034140 0.013330
# 4 -0.000192 -0.030966 -0.040028 0.122857 0.067748 -0.035171
# 5 0.003041 -0.019669 -0.034140 0.067748 0.080718 -0.029946
# 6 0.000453 0.010306 0.013330 -0.035171 -0.029946 0.039102
#
#
# Mechanical properties :
#
#
# Convention : Reuss Voigt Hill
#
# Bulk Modulus (GPa) = 16.85991 69.71560 43.28775
# Shear Modulus (GPa) = 15.72035 35.04790 25.38412
#
# Velocity S-wave (km/s) = 2.61369 3.90260 3.32127
# Velocity P-wave (km/s) = 4.05402 7.11353 5.78953
#
# Compressibility (1/GPa) = 0.05931230
#
# Stress axis : x y z
#
# Youngs Moduli (GPa) = 103.60408 51.30278 35.31375
#
# Poissons Ratio (x) = 0.10782 0.18440
# Poissons Ratio (y) = 0.21774 -0.29129
# Poissons Ratio (z) = 0.54099 -0.42318
#
# Static dielectric constant tensor:
#      x y z
#    x 1.815960 0.003710 0.015310 
#    y 0.003710 2.036040 -0.069590 
#    z 0.015310 -0.069590 2.099630 
# 
# From -- ./inp_files/44661.got.cif
#   From: 2010.05.17/outbox.cif.g08.bks.cpg/sg2_23_cif.got.tgz:44661.got - 2010.06.03 11:33:40.
