data_PCOD9039689
_publ_section_title
;
Structure prediction by ZEFSAII (Michael W. Deem and Ramdas Pophale) SiO2 
 PCOD9039689
Probable space group: P -1
;
_chemical_formula_sum "Si O2"
_cell_formula_units_Z 14
_cell_length_a 6.184008
_cell_length_b 10.864938
_cell_length_c 12.184016
_cell_angle_alpha 123.853968
_cell_angle_beta 121.881325
_cell_angle_gamma 83.451876
_cell_volume 558.117745
_symmetry_space_group_name_H-M "P -1"
_symmetry_group_IT_number 2
_symmetry_cell_setting 'triclinic'
loop_
_space_group_symop_operation_xyz
x,y,z
-x,-y,-z
loop_
_atom_site_type_symbol
_atom_site_label
_atom_site_fract_x
_atom_site_fract_y
_atom_site_fract_z
Si Si1 0.874371 0.937997 0.052987
Si Si2 0.019384 0.899869 0.311743
Si Si3 0.381566 0.685347 0.350082
Si Si4 0.946026 0.455511 0.231089
Si Si5 0.533505 0.333148 0.894130
Si Si6 0.687933 0.231839 0.230671
Si Si7 0.936373 0.752796 0.487807
O O1 0.042866 0.905114 0.186492
O O2 0.764213 0.076797 0.139813
O O3 0.619596 0.796323 0.890941
O O4 0.000000 0.000000 0.000000
O O5 0.722367 0.798651 0.205298
O O6 0.233465 0.822296 0.386624
O O7 0.049312 0.071898 0.447416
O O8 0.381974 0.667996 0.209487
O O9 0.683848 0.720125 0.485071
O O10 0.225194 0.529721 0.288421
O O11 0.880638 0.368233 0.283941
O O12 0.863077 0.614285 0.313137
O O13 0.777343 0.333084 0.039976
O O14 0.500000 0.500000 0.000000
O O15 0.783940 0.255848 0.393190
#
# Coordination Sequence:
#
# PCOD9039689 Si02
#       7
#     2   2   2   2   2   2   2
#     4  10  23  42  70 101 131 174 231 277 334 397
#     4  11  25  44  71  98 138 177 226 284 336 398
#     4  12  26  41  71 103 136 179 231 271 338 405
#     4  12  25  44  72  98 140 179 226 283 335 397
#     4  12  24  45  68 101 134 180 229 282 334 395
#     4  10  24  44  68  99 135 181 220 280 337 398
#     4  11  26  46  65 102 141 180 223 274 344 407
#
# _framework density 25.084312000000001
#
# number of rings (size 3 to 8) (size 9 to 14) (size 15 to 20)
#    0.000    0.857    4.286    1.286    2.000    7.429 
#    0.000    0.000    0.000    0.000    0.000    0.000 
#    0.000    0.000    0.000    0.000    0.000    0.000 
#
# Total GULP energy -78181.683875 kJ/mol
# GULP energy per Si atom -5584.405991 kJ/mol
# Density = 2.502722 g / cm^3
# Si number density = 25.084312 Si / 1000 Ang^3
#
#
#
# Elastic Constant Matrix: (Units=GPa)
#
#
# Indices 1 2 3 4 5 6 
#
# 1 54.5794 14.7153 21.9122 19.0649 2.9254 16.7844
# 2 14.7153 107.1362 21.0545 11.6678 3.5718 22.0450
# 3 21.9122 21.0545 119.4129 15.1629 -0.7661 1.3453
# 4 19.0649 11.6678 15.1629 51.0120 3.1841 1.1430
# 5 2.9254 3.5718 -0.7661 3.1841 42.0841 8.5702
# 6 16.7844 22.0450 1.3453 1.1430 8.5702 42.5540
#
#
#
# Elastic Compliance Matrix: (Units=1/GPa)
#
#
# Indices 1 2 3 4 5 6 
#
# 1 0.025686 0.000119 -0.003550 -0.008398 0.000816 -0.010019
# 2 0.000119 0.011022 -0.001648 -0.001968 0.000340 -0.005720
# 3 -0.003550 -0.001648 0.009444 -0.001162 0.000252 0.001936
# 4 -0.008398 -0.001968 -0.001162 0.023563 -0.001892 0.004117
# 5 0.000816 0.000340 0.000252 -0.001892 0.024940 -0.005478
# 6 -0.010019 -0.005720 0.001936 0.004117 -0.005478 0.031346
#
#
# Mechanical properties :
#
#
# Convention : Reuss Voigt Hill
#
# Bulk Modulus (GPa) = 27.78390 44.05470 35.91930
# Shear Modulus (GPa) = 33.74795 42.02647 37.88721
#
# Velocity S-wave (km/s) = 3.67192 4.09762 3.89060
# Velocity P-wave (km/s) = 5.39237 6.32361 5.87646
#
# Compressibility (1/GPa) = 0.03599207
#
# Stress axis : x y z
#
# Youngs Moduli (GPa) = 38.93168 90.73098 105.89005
#
# Poissons Ratio (x) = -0.01076 0.37589
# Poissons Ratio (y) = -0.00462 0.17456
# Poissons Ratio (z) = 0.13820 0.14957
#
# Static dielectric constant tensor:
#      x y z
#    x 2.094250 -0.028400 0.049730 
#    y -0.028400 2.034750 -0.102090 
#    z 0.049730 -0.102090 2.017920 
# 
# From -- ./inp_files/72592.got.cif
#   From: 2010.05.17/outbox.cif.g08.bks.cpg/sg2_37_cif.got.tgz:72592.got - 2010.06.03 11:33:40.
