data_PCOD9039273
_publ_section_title
;
Structure prediction by ZEFSAII (Michael W. Deem and Ramdas Pophale) SiO2 
 PCOD9039273
Probable space group: P -1
;
_chemical_formula_sum "Si O2"
_cell_formula_units_Z 16
_cell_length_a 20.833634
_cell_length_b 8.529274
_cell_length_c 15.266902
_cell_angle_alpha 53.856982
_cell_angle_beta 19.573746
_cell_angle_gamma 55.023844
_cell_volume 732.410100
_symmetry_space_group_name_H-M "P -1"
_symmetry_group_IT_number 2
_symmetry_cell_setting 'triclinic'
loop_
_space_group_symop_operation_xyz
x,y,z
-x,-y,-z
loop_
_atom_site_type_symbol
_atom_site_label
_atom_site_fract_x
_atom_site_fract_y
_atom_site_fract_z
Si Si1 0.809662 0.797179 0.994256
Si Si2 0.837753 0.774651 0.329712
Si Si3 0.556761 0.795388 0.045425
Si Si4 0.575626 0.130951 0.613646
Si Si5 0.130541 0.967829 0.424704
Si Si6 0.266868 0.630832 0.822227
Si Si7 0.628365 0.426342 0.779171
Si Si8 0.393606 0.214262 0.560980
O O1 0.629785 0.926911 0.141578
O O2 0.796477 0.588319 0.032815
O O3 0.761491 0.766985 0.167350
O O4 0.008911 0.890322 0.687347
O O5 0.783650 0.579128 0.511506
O O6 0.727874 0.766204 0.379318
O O7 0.735657 0.956832 0.452101
O O8 0.069280 0.769286 0.034993
O O9 0.459319 0.810736 0.260454
O O10 0.501147 0.605676 0.129327
O O11 0.500000 0.000000 0.000000
O O12 0.780905 0.824480 0.747094
O O13 0.634224 0.303440 0.417151
O O14 0.274090 0.788946 0.267098
O O15 0.000000 0.000000 0.500000
O O16 0.426841 0.657128 0.683578
O O17 0.500000 0.500000 0.000000
O O18 0.500000 0.000000 0.500000
#
# Coordination Sequence:
#
# PCOD9039273 Si02
#       8
#     2   2   2   2   2   2   2   2
#     4  11  23  43  68 100 138 177 230 290 335 417
#     4  12  24  43  69 101 142 179 228 289 341 415
#     4  10  23  42  67  94 129 178 223 272 342 407
#     4  11  22  42  71  93 137 187 214 283 354 398
#     4  11  22  44  72  96 131 178 232 277 342 411
#     4  11  25  44  67 103 141 176 235 283 344 414
#     4  11  26  46  66 101 136 175 230 286 345 407
#     4  11  24  42  66 102 140 185 225 278 352 405
#
# _framework density 21.845685
#
# number of rings (size 3 to 8) (size 9 to 14) (size 15 to 20)
#    0.000    1.000    5.000    3.375    3.500    2.500 
#    2.250    0.625    0.000    0.000    0.000    0.000 
#    0.000    0.000    0.000    0.000    0.000    0.000 
#
# Total GULP energy -89278.063413 kJ/mol
# GULP energy per Si atom -5579.878963 kJ/mol
# Density = 2.179596 g / cm^3
# Si number density = 21.845685 Si / 1000 Ang^3
#
#
#
# Elastic Constant Matrix: (Units=GPa)
#
#
# Indices 1 2 3 4 5 6 
#
# 1 92.0519 3.8171 42.2862 8.0394 12.5930 11.3334
# 2 3.8171 65.3494 28.4832 7.4419 3.6164 8.8373
# 3 42.2862 28.4832 133.4952 9.8486 8.1032 19.2678
# 4 8.0394 7.4419 9.8486 36.8960 0.3421 -3.7622
# 5 12.5930 3.6164 8.1032 0.3421 28.9554 5.7461
# 6 11.3334 8.8373 19.2678 -3.7622 5.7461 31.5178
#
#
#
# Elastic Compliance Matrix: (Units=1/GPa)
#
#
# Indices 1 2 3 4 5 6 
#
# 1 0.013740 0.001781 -0.003904 -0.002525 -0.004575 -0.002520
# 2 0.001781 0.017662 -0.003482 -0.003381 -0.001243 -0.003641
# 3 -0.003904 -0.003482 0.010163 -0.001573 0.000109 -0.004040
# 4 -0.002525 -0.003381 -0.001573 0.029390 0.000372 0.006258
# 5 -0.004575 -0.001243 0.000109 0.000372 0.037616 -0.004886
# 6 -0.002520 -0.003641 -0.004040 0.006258 -0.004886 0.037763
#
#
# Mechanical properties :
#
#
# Convention : Reuss Voigt Hill
#
# Bulk Modulus (GPa) = 32.94476 48.89659 40.92067
# Shear Modulus (GPa) = 29.82157 33.89451 31.85804
#
# Velocity S-wave (km/s) = 3.69874 3.94324 3.82294
# Velocity P-wave (km/s) = 5.77532 6.56989 6.18538
#
# Compressibility (1/GPa) = 0.03035384
#
# Stress axis : x y z
#
# Youngs Moduli (GPa) = 72.78019 56.61795 98.39396
#
# Poissons Ratio (x) = -0.10083 0.38417
# Poissons Ratio (y) = -0.12961 0.34263
# Poissons Ratio (z) = 0.28417 0.19716
#
# Static dielectric constant tensor:
#      x y z
#    x 1.884610 -0.048610 -0.045390 
#    y -0.048610 1.794790 0.039220 
#    z -0.045390 0.039220 1.838080 
# 
# From -- ./inp_files/245108.got.cif
#   From: 2010.05.17/outbox.cif.g08.bks.cpg/sg2_123_cif.got.tgz:245108.got - 2010.06.03 11:33:40.
