data_PCOD9039241
_publ_section_title
;
Structure prediction by ZEFSAII (Michael W. Deem and Ramdas Pophale) SiO2 
 PCOD9039241
Probable space group: P -1
;
_chemical_formula_sum "Si O2"
_cell_formula_units_Z 16
_cell_length_a 9.010484
_cell_length_b 15.627704
_cell_length_c 9.669821
_cell_angle_alpha 136.405961
_cell_angle_beta 105.669762
_cell_angle_gamma 103.400242
_cell_volume 691.820865
_symmetry_space_group_name_H-M "P -1"
_symmetry_group_IT_number 2
_symmetry_cell_setting 'triclinic'
loop_
_space_group_symop_operation_xyz
x,y,z
-x,-y,-z
loop_
_atom_site_type_symbol
_atom_site_label
_atom_site_fract_x
_atom_site_fract_y
_atom_site_fract_z
Si Si1 0.266417 0.996907 0.707605
Si Si2 0.872484 0.103806 0.022700
Si Si3 0.413987 0.825022 0.216162
Si Si4 0.704859 0.463552 0.684780
Si Si5 0.722534 0.820530 0.831063
Si Si6 0.906557 0.306352 0.498331
Si Si7 0.071975 0.807689 0.160952
Si Si8 0.357153 0.546751 0.017812
O O1 0.130533 0.910042 0.434138
O O2 0.219787 0.850991 0.616059
O O3 0.493564 0.127259 0.858582
O O4 0.222062 0.091167 0.903817
O O5 0.096528 0.164826 0.168957
O O6 0.880678 0.239059 0.258955
O O7 0.845171 0.087153 0.833386
O O8 0.711451 0.934389 0.860135
O O9 0.182774 0.730633 0.088460
O O10 0.464473 0.720177 0.175480
O O11 0.500000 0.000000 0.500000
O O12 0.487759 0.356897 0.435180
O O13 0.685057 0.445242 0.823754
O O14 0.813566 0.393880 0.584233
O O15 0.839090 0.653672 0.910014
O O16 0.140053 0.416351 0.735128
O O17 0.500000 0.500000 0.000000
#
# Coordination Sequence:
#
# PCOD9039241 Si02
#       8
#     2   2   2   2   2   2   2   2
#     4  10  23  43  68  99 137 182 234 291 346 420
#     4  10  25  44  67  98 143 181 230 290 358 419
#     4  10  23  42  67 106 138 179 236 293 342 419
#     4  12  24  41  73  99 136 184 238 289 349 422
#     4  10  25  45  65 100 141 182 230 290 362 423
#     4  11  23  45  70 100 141 184 238 285 353 428
#     4  11  23  42  69  99 137 177 235 296 344 415
#     4  12  25  44  71 106 147 186 229 293 367 423
#
# _framework density 23.127372999999999
#
# number of rings (size 3 to 8) (size 9 to 14) (size 15 to 20)
#    0.000    1.250    2.500    2.625    7.000    4.500 
#    0.000    0.000    0.000    0.000    0.000    0.000 
#    0.000    0.000    0.000    0.000    0.000    0.000 
#
# Total GULP energy -89388.648951 kJ/mol
# GULP energy per Si atom -5586.790559 kJ/mol
# Density = 2.307473 g / cm^3
# Si number density = 23.127373 Si / 1000 Ang^3
#
#
#
# Elastic Constant Matrix: (Units=GPa)
#
#
# Indices 1 2 3 4 5 6 
#
# 1 68.5271 10.3624 30.9907 13.9103 3.2333 3.7102
# 2 10.3624 95.7827 45.0584 5.3102 -10.4662 9.9511
# 3 30.9907 45.0584 107.3284 1.0280 1.8960 14.2451
# 4 13.9103 5.3102 1.0280 33.1073 7.0753 -3.3389
# 5 3.2333 -10.4662 1.8960 7.0753 31.1434 -7.8435
# 6 3.7102 9.9511 14.2451 -3.3389 -7.8435 35.8068
#
#
#
# Elastic Compliance Matrix: (Units=1/GPa)
#
#
# Indices 1 2 3 4 5 6 
#
# 1 0.018648 0.001258 -0.005761 -0.008029 0.000503 -0.000628
# 2 0.001258 0.014175 -0.006288 -0.003900 0.005732 -0.000676
# 3 -0.005761 -0.006288 0.014175 0.003484 -0.004146 -0.003878
# 4 -0.008029 -0.003900 0.003484 0.036092 -0.008369 0.002062
# 5 0.000503 0.005732 -0.004146 -0.008369 0.038040 0.007557
# 6 -0.000628 -0.000676 -0.003878 0.002062 0.007557 0.031571
#
#
# Mechanical properties :
#
#
# Convention : Reuss Voigt Hill
#
# Bulk Modulus (GPa) = 39.34617 49.38458 44.36537
# Shear Modulus (GPa) = 27.35864 32.35996 29.85930
#
# Velocity S-wave (km/s) = 3.44314 3.74465 3.59706
# Velocity P-wave (km/s) = 5.73208 6.33216 6.03958
#
# Compressibility (1/GPa) = 0.02541544
#
# Stress axis : x y z
#
# Youngs Moduli (GPa) = 53.62472 70.54583 70.54473
#
# Poissons Ratio (x) = -0.08876 0.40644
# Poissons Ratio (y) = -0.06747 0.44362
# Poissons Ratio (z) = 0.30895 0.44362
#
# Static dielectric constant tensor:
#      x y z
#    x 1.944940 -0.023800 0.086700 
#    y -0.023800 1.875310 0.008370 
#    z 0.086700 0.008370 1.876360 
# 
# From -- ./inp_files/209061.got.cif
#   From: 2010.05.17/outbox.cif.g08.bks.cpg/sg2_105_cif.got.tgz:209061.got - 2010.06.03 11:33:40.
