data_PCOD9039943
_publ_section_title
;
Structure prediction by ZEFSAII (Michael W. Deem and Ramdas Pophale) SiO2 
 PCOD9039943
Probable space group: P -1
;
_chemical_formula_sum "Si O2"
_cell_formula_units_Z 16
_cell_length_a 11.128565
_cell_length_b 11.473153
_cell_length_c 5.683370
_cell_angle_alpha 93.735806
_cell_angle_beta 116.619445
_cell_angle_gamma 82.534061
_cell_volume 643.214260
_symmetry_space_group_name_H-M "P -1"
_symmetry_group_IT_number 2
_symmetry_cell_setting 'triclinic'
loop_
_space_group_symop_operation_xyz
x,y,z
-x,-y,-z
loop_
_atom_site_type_symbol
_atom_site_label
_atom_site_fract_x
_atom_site_fract_y
_atom_site_fract_z
Si Si1 0.283518 0.756437 0.515370
Si Si2 0.199804 0.007362 0.596485
Si Si3 0.062613 0.905546 0.854212
Si Si4 0.941449 0.324288 0.354440
Si Si5 0.359933 0.537209 0.251250
Si Si6 0.200745 0.409891 0.809337
Si Si7 0.531659 0.932109 0.272875
Si Si8 0.499462 0.689330 0.064477
O O1 0.241551 0.894044 0.447824
O O2 0.165074 0.731968 0.584802
O O3 0.286656 0.651231 0.323801
O O4 0.431615 0.737004 0.766025
O O5 0.192790 0.952357 0.846787
O O6 0.308077 0.092177 0.631377
O O7 0.055867 0.078895 0.443347
O O8 0.058780 0.766625 0.879892
O O9 0.000000 0.000000 0.000000
O O10 0.872539 0.457129 0.272637
O O11 0.083571 0.333977 0.613278
O O12 0.500000 0.500000 0.500000
O O13 0.410035 0.589399 0.057488
O O14 0.265774 0.432424 0.128121
O O15 0.342979 0.361308 0.804057
O O16 0.476775 0.805868 0.219392
O O17 0.500000 0.000000 0.500000
O O18 0.500000 0.000000 0.000000
#
# Coordination Sequence:
#
# PCOD9039943 Si02
#       8
#     2   2   2   2   2   2   2   2
#     4  11  22  41  69  97 136 179 241 289 373 436
#     4  10  23  43  65 103 137 185 245 304 374 444
#     4  10  23  42  72  98 138 191 243 305 373 452
#     4  10  23  43  64  98 137 183 232 297 368 439
#     4  12  24  40  72 102 133 190 245 299 371 446
#     4  11  23  42  67  96 141 182 233 297 367 434
#     4  12  27  44  72 109 149 196 245 309 377 446
#     4  12  24  44  69 101 147 185 240 311 363 452
#
# _framework density 24.875070000000001
#
# number of rings (size 3 to 8) (size 9 to 14) (size 15 to 20)
#    0.000    1.000    3.750    2.625    3.500    0.500 
#    0.000    0.000    5.500    0.000    0.000    0.000 
#    0.000    0.000    0.000    0.000    0.000    0.000 
#
# Total GULP energy -89107.645063 kJ/mol
# GULP energy per Si atom -5569.227816 kJ/mol
# Density = 2.481845 g / cm^3
# Si number density = 24.875070 Si / 1000 Ang^3
#
#
#
# Elastic Constant Matrix: (Units=GPa)
#
#
# Indices 1 2 3 4 5 6 
#
# 1 90.1871 16.5277 26.1848 7.2022 18.3138 -14.6064
# 2 16.5277 130.9986 43.3180 32.6744 -3.6695 -19.3386
# 3 26.1848 43.3180 86.8890 12.2762 16.5338 -13.7051
# 4 7.2022 32.6744 12.2762 55.5402 -15.3358 4.4137
# 5 18.3138 -3.6695 16.5338 -15.3358 46.1633 4.2099
# 6 -14.6064 -19.3386 -13.7051 4.4137 4.2099 43.9318
#
#
#
# Elastic Compliance Matrix: (Units=1/GPa)
#
#
# Indices 1 2 3 4 5 6 
#
# 1 0.014072 0.000390 -0.001756 -0.003947 -0.006721 0.005343
# 2 0.000390 0.011081 -0.004042 -0.006093 -0.000250 0.004383
# 3 -0.001756 -0.004042 0.016418 -0.003232 -0.006920 0.003746
# 4 -0.003947 -0.006093 -0.003232 0.026819 0.011955 -0.008843
# 5 -0.006721 -0.000250 -0.006920 0.011955 0.031555 -0.008728
# 6 0.005343 0.004383 0.003746 -0.008843 -0.008728 0.029362
#
#
# Mechanical properties :
#
#
# Convention : Reuss Voigt Hill
#
# Bulk Modulus (GPa) = 32.51563 53.34841 42.93202
# Shear Modulus (GPa) = 33.25066 43.93001 38.59034
#
# Velocity S-wave (km/s) = 3.66007 4.20697 3.94301
# Velocity P-wave (km/s) = 5.56430 6.71500 6.16655
#
# Compressibility (1/GPa) = 0.03075444
#
# Stress axis : x y z
#
# Youngs Moduli (GPa) = 71.06491 90.24545 60.91053
#
# Poissons Ratio (x) = -0.03520 0.10695
# Poissons Ratio (y) = -0.02772 0.24620
# Poissons Ratio (z) = 0.12478 0.36478
#
# Static dielectric constant tensor:
#      x y z
#    x 2.054760 -0.015700 -0.051360 
#    y -0.015700 2.044360 0.027280 
#    z -0.051360 0.027280 2.221950 
# 
# From -- ./inp_files/71482.got.cif
#   From: 2010.05.17/outbox.cif.g08.bks.cpg/sg2_36_cif.got.tgz:71482.got - 2010.06.03 11:33:40.
