data_PCOD9039307
_publ_section_title
;
Structure prediction by ZEFSAII (Michael W. Deem and Ramdas Pophale) SiO2 
 PCOD9039307
Probable space group: P -1
;
_chemical_formula_sum "Si O2"
_cell_formula_units_Z 14
_cell_length_a 20.907297
_cell_length_b 9.557199
_cell_length_c 11.442842
_cell_angle_alpha 143.917780
_cell_angle_beta 29.060963
_cell_angle_gamma 142.931344
_cell_volume 619.745516
_symmetry_space_group_name_H-M "P -1"
_symmetry_group_IT_number 2
_symmetry_cell_setting 'triclinic'
loop_
_space_group_symop_operation_xyz
x,y,z
-x,-y,-z
loop_
_atom_site_type_symbol
_atom_site_label
_atom_site_fract_x
_atom_site_fract_y
_atom_site_fract_z
Si Si1 0.151078 0.544592 0.179011
Si Si2 0.138325 0.966304 0.198328
Si Si3 0.545705 0.378885 0.616309
Si Si4 0.544660 0.857936 0.155701
Si Si5 0.590219 0.237999 0.944262
Si Si6 0.168786 0.441265 0.823150
Si Si7 0.966893 0.877472 0.743527
O O1 0.253816 0.701112 0.220402
O O2 0.044121 0.699851 0.437347
O O3 0.083420 0.270129 0.156268
O O4 0.216889 0.516406 0.930895
O O5 0.114219 0.669266 0.025156
O O6 0.000000 0.000000 0.500000
O O7 0.150900 0.096359 0.138693
O O8 0.290344 0.087316 0.095437
O O9 0.509411 0.334659 0.780921
O O10 0.703163 0.548893 0.457210
O O11 0.534988 0.116633 0.398586
O O12 0.449820 0.513804 0.796406
O O13 0.450697 0.804863 0.154668
O O14 0.500000 0.000000 0.000000
O O15 0.062710 0.162316 0.802093
#
# Coordination Sequence:
#
# PCOD9039307 Si02
#       7
#     2   2   2   2   2   2   2
#     4  11  25  44  65 100 139 179 223 274 332 410
#     4  11  22  42  72  97 135 170 226 281 330 400
#     4  10  23  42  67  96 137 169 226 275 326 405
#     4  10  24  45  67 101 133 176 220 281 338 391
#     4  12  24  41  69  98 135 180 219 270 341 399
#     4  11  23  43  69 101 133 176 225 277 339 396
#     4  11  24  44  66  99 136 179 225 275 339 395
#
# _framework density 22.589918000000001
#
# number of rings (size 3 to 8) (size 9 to 14) (size 15 to 20)
#    0.000    1.143    1.429    4.714    2.000    3.429 
#    0.000    7.143    0.000    0.000    0.000    0.000 
#    0.000    0.000    0.000    0.000    0.000    0.000 
#
# Total GULP energy -78252.801300 kJ/mol
# GULP energy per Si atom -5589.485807 kJ/mol
# Density = 2.253850 g / cm^3
# Si number density = 22.589918 Si / 1000 Ang^3
#
#
#
# Elastic Constant Matrix: (Units=GPa)
#
#
# Indices 1 2 3 4 5 6 
#
# 1 112.7989 44.4723 21.0786 8.3945 1.9340 -8.8462
# 2 44.4723 131.0984 17.9030 -0.1622 -1.4171 -23.4574
# 3 21.0786 17.9030 57.8264 -3.4637 8.8519 -11.5387
# 4 8.3945 -0.1622 -3.4637 30.4121 -7.1580 -6.2329
# 5 1.9340 -1.4171 8.8519 -7.1580 28.2819 5.0221
# 6 -8.8462 -23.4574 -11.5387 -6.2329 5.0221 41.9416
#
#
#
# Elastic Compliance Matrix: (Units=1/GPa)
#
#
# Indices 1 2 3 4 5 6 
#
# 1 0.011076 -0.003502 -0.003277 -0.003819 -0.000695 -0.001009
# 2 -0.003502 0.009781 -0.000782 0.002056 0.000652 0.004744
# 3 -0.003277 -0.000782 0.021118 0.002935 -0.006734 0.005924
# 4 -0.003819 0.002056 0.002935 0.037312 0.007867 0.005754
# 5 -0.000695 0.000652 -0.006734 0.007867 0.040481 -0.005313
# 6 -0.001009 0.004744 0.005924 0.005754 -0.005313 0.029404
#
#
# Mechanical properties :
#
#
# Convention : Reuss Voigt Hill
#
# Bulk Modulus (GPa) = 37.23862 52.07015 44.65438
# Shear Modulus (GPa) = 28.86096 34.67843 31.76970
#
# Velocity S-wave (km/s) = 3.57824 3.92232 3.75422
# Velocity P-wave (km/s) = 5.79587 6.60402 6.21310
#
# Compressibility (1/GPa) = 0.02685384
#
# Stress axis : x y z
#
# Youngs Moduli (GPa) = 90.28924 102.23729 47.35261
#
# Poissons Ratio (x) = 0.35807 0.15515
# Poissons Ratio (y) = 0.31623 0.03701
# Poissons Ratio (z) = 0.29583 0.07991
#
# Static dielectric constant tensor:
#      x y z
#    x 1.853470 0.021380 -0.035830 
#    y 0.021380 1.857380 -0.039190 
#    z -0.035830 -0.039190 1.965880 
# 
# From -- ./inp_files/432378.got.cif
#   From: 2010.05.17/outbox.cif.g08.bks.cpg/sg2_217_cif.got.tgz:432378.got - 2010.06.03 11:33:40.
