data_PCOD9039444
_publ_section_title
;
Structure prediction by ZEFSAII (Michael W. Deem and Ramdas Pophale) SiO2 
 PCOD9039444
Probable space group: P -1
;
_chemical_formula_sum "Si O2"
_cell_formula_units_Z 16
_cell_length_a 10.639883
_cell_length_b 10.160993
_cell_length_c 6.908841
_cell_angle_alpha 65.408568
_cell_angle_beta 88.844556
_cell_angle_gamma 83.273556
_cell_volume 674.166721
_symmetry_space_group_name_H-M "P -1"
_symmetry_group_IT_number 2
_symmetry_cell_setting 'triclinic'
loop_
_space_group_symop_operation_xyz
x,y,z
-x,-y,-z
loop_
_atom_site_type_symbol
_atom_site_label
_atom_site_fract_x
_atom_site_fract_y
_atom_site_fract_z
Si Si1 0.017777 0.255713 0.158487
Si Si2 0.660648 0.611047 0.474577
Si Si3 0.788633 0.199577 0.444190
Si Si4 0.576607 0.004493 0.685831
Si Si5 0.346622 0.119708 0.888981
Si Si6 0.917438 0.495761 0.699468
Si Si7 0.130793 0.974763 0.124279
Si Si8 0.441259 0.561796 0.763526
O O1 0.899729 0.184091 0.296170
O O2 0.068262 0.361302 0.254554
O O3 0.115203 0.120433 0.170383
O O4 0.969229 0.360068 0.917126
O O5 0.725148 0.746255 0.306421
O O6 0.771280 0.501075 0.633435
O O7 0.550794 0.645422 0.614238
O O8 0.588778 0.557460 0.321433
O O9 0.695065 0.079953 0.563443
O O10 0.693042 0.337579 0.293458
O O11 0.858026 0.177216 0.665188
O O12 0.478838 0.090361 0.788251
O O13 0.500000 0.000000 0.500000
O O14 0.618322 0.860244 0.899232
O O15 0.256256 0.990996 0.982285
O O16 0.000000 0.500000 0.500000
O O17 0.000000 0.000000 0.000000
O O18 0.500000 0.500000 0.000000
#
# Coordination Sequence:
#
# PCOD9039444 Si02
#       8
#     2   2   2   2   2   2   2   2
#     4  11  26  46  72 108 141 188 243 293 359 428
#     4  11  24  41  72  98 137 179 232 292 347 424
#     4  11  24  46  67 102 143 180 235 291 359 420
#     4  10  23  42  68  95 130 184 225 290 347 418
#     4  10  23  44  64 100 134 175 238 277 350 419
#     4  11  25  47  75 104 141 191 240 297 357 426
#     4  11  27  44  72 105 145 191 234 295 358 431
#     4  11  25  44  67 105 136 181 230 289 357 417
#
# _framework density 23.733003
#
# number of rings (size 3 to 8) (size 9 to 14) (size 15 to 20)
#    0.000    1.250    1.250    2.625    8.750    5.000 
#    0.000    0.000    0.000    0.000    0.000    0.000 
#    0.000    0.000    0.000    0.000    0.000    0.000 
#
# Total GULP energy -89253.172002 kJ/mol
# GULP energy per Si atom -5578.323250 kJ/mol
# Density = 2.367899 g / cm^3
# Si number density = 23.733003 Si / 1000 Ang^3
#
#
#
# Elastic Constant Matrix: (Units=GPa)
#
#
# Indices 1 2 3 4 5 6 
#
# 1 122.4178 12.5964 58.5420 8.4071 2.5715 -16.1385
# 2 12.5964 60.1611 34.2227 2.2467 6.8124 -8.8239
# 3 58.5420 34.2227 183.2851 -9.5106 18.1822 7.6817
# 4 8.4071 2.2467 -9.5106 30.1694 2.1389 9.3100
# 5 2.5715 6.8124 18.1822 2.1389 59.6382 -5.3284
# 6 -16.1385 -8.8239 7.6817 9.3100 -5.3284 26.4938
#
#
#
# Elastic Compliance Matrix: (Units=1/GPa)
#
#
# Indices 1 2 3 4 5 6 
#
# 1 0.013769 0.003267 -0.006541 -0.011251 0.002851 0.015899
# 2 0.003267 0.021875 -0.006292 -0.009049 0.000895 0.014460
# 3 -0.006541 -0.006292 0.010142 0.009819 -0.003623 -0.013200
# 4 -0.011251 -0.009049 0.009819 0.050232 -0.006099 -0.031592
# 5 0.002851 0.000895 -0.003623 -0.006099 0.018668 0.008983
# 6 0.015899 0.014460 -0.013200 -0.031592 0.008983 0.068981
#
#
# Mechanical properties :
#
#
# Convention : Reuss Voigt Hill
#
# Bulk Modulus (GPa) = 37.51806 64.06514 50.79160
# Shear Modulus (GPa) = 23.62006 40.62714 32.12360
#
# Velocity S-wave (km/s) = 3.15817 4.14193 3.68304
# Velocity P-wave (km/s) = 5.39828 7.06589 6.28762
#
# Compressibility (1/GPa) = 0.02665383
#
# Stress axis : x y z
#
# Youngs Moduli (GPa) = 72.62517 45.71479 98.59805
#
# Poissons Ratio (x) = -0.14936 0.64493
# Poissons Ratio (y) = -0.23727 0.62041
# Poissons Ratio (z) = 0.47504 0.28765
#
# Static dielectric constant tensor:
#      x y z
#    x 1.888880 0.012770 0.060870 
#    y 0.012770 1.993590 -0.002700 
#    z 0.060870 -0.002700 1.935370 
# 
# From -- ./inp_files/68430.got.cif
#   From: 2010.05.17/outbox.cif.g08.bks.cpg/sg2_35_cif.got.tgz:68430.got - 2010.06.03 11:33:40.
