data_PCOD9039202
_publ_section_title
;
Structure prediction by ZEFSAII (Michael W. Deem and Ramdas Pophale) SiO2 
 PCOD9039202
Probable space group: P -1
;
_chemical_formula_sum "Si O2"
_cell_formula_units_Z 16
_cell_length_a 12.188155
_cell_length_b 5.111885
_cell_length_c 17.172162
_cell_angle_alpha 62.938648
_cell_angle_beta 134.140840
_cell_angle_gamma 111.023912
_cell_volume 682.262917
_symmetry_space_group_name_H-M "P -1"
_symmetry_group_IT_number 2
_symmetry_cell_setting 'triclinic'
loop_
_space_group_symop_operation_xyz
x,y,z
-x,-y,-z
loop_
_atom_site_type_symbol
_atom_site_label
_atom_site_fract_x
_atom_site_fract_y
_atom_site_fract_z
Si Si1 0.557505 0.694767 0.226974
Si Si2 0.135108 0.508266 0.651689
Si Si3 0.905811 0.383789 0.218533
Si Si4 0.801603 0.271447 0.738110
Si Si5 0.877497 0.076212 0.534109
Si Si6 0.382351 0.124178 0.181475
Si Si7 0.606274 0.393422 0.997191
Si Si8 0.333558 0.105507 0.417997
O O1 0.735295 0.648514 0.310914
O O2 0.508536 0.922416 0.235322
O O3 0.466513 0.378887 0.241595
O O4 0.490824 0.771209 0.097668
O O5 0.169200 0.466875 0.764440
O O6 0.142561 0.839906 0.576658
O O7 0.964072 0.371448 0.571621
O O8 0.759421 0.245963 0.119220
O O9 0.024582 0.588360 0.199011
O O10 0.013103 0.164896 0.346501
O O11 0.747786 0.066321 0.811401
O O12 0.773676 0.073879 0.673669
O O13 0.693759 0.548798 0.647714
O O14 0.719012 0.994874 0.508561
O O15 0.327889 0.308843 0.055798
O O16 0.500000 0.500000 0.000000
O O17 0.500000 0.000000 0.500000
#
# Coordination Sequence:
#
# PCOD9039202 Si02
#       8
#     2   2   2   2   2   2   2   2
#     4  10  24  43  69 100 130 172 223 277 329 389
#     4  11  22  42  65  95 139 174 220 279 329 408
#     4  11  22  45  64  98 135 179 217 284 321 409
#     4  11  24  44  68  93 137 174 221 273 336 389
#     4  10  25  39  65 100 132 180 221 267 348 389
#     4  10  24  44  64 103 127 173 227 267 335 392
#     4  10  23  42  67 101 130 177 221 276 334 388
#     4  11  24  44  66  98 131 178 226 275 322 398
#
# _framework density 23.451370000000001
#
# number of rings (size 3 to 8) (size 9 to 14) (size 15 to 20)
#    0.750    0.750    2.500    1.500    7.000    2.000 
#    0.000    0.625    0.000    0.000    0.000    0.000 
#    0.000    0.000    0.000    0.000    0.000    0.000 
#
# Total GULP energy -89357.280389 kJ/mol
# GULP energy per Si atom -5584.830024 kJ/mol
# Density = 2.339799 g / cm^3
# Si number density = 23.451370 Si / 1000 Ang^3
#
#
#
# Elastic Constant Matrix: (Units=GPa)
#
#
# Indices 1 2 3 4 5 6 
#
# 1 109.6960 15.1369 32.1257 -20.3032 -8.6569 28.2930
# 2 15.1369 78.3898 13.5690 -14.9542 -6.2319 2.7317
# 3 32.1257 13.5690 68.2409 2.1350 6.6140 14.2202
# 4 -20.3032 -14.9542 2.1350 28.1526 4.6195 -0.3683
# 5 -8.6569 -6.2319 6.6140 4.6195 36.2822 -7.5877
# 6 28.2930 2.7317 14.2202 -0.3683 -7.5877 45.2992
#
#
#
# Elastic Compliance Matrix: (Units=1/GPa)
#
#
# Indices 1 2 3 4 5 6 
#
# 1 0.014849 0.000735 -0.006224 0.011164 0.001929 -0.006951
# 2 0.000735 0.015089 -0.003923 0.008441 0.002480 0.000346
# 3 -0.006224 -0.003923 0.019758 -0.007212 -0.005481 -0.003055
# 4 0.011164 0.008441 -0.007212 0.048841 -0.001864 -0.005133
# 5 0.001929 0.002480 -0.005481 -0.001864 0.030838 0.005517
# 6 -0.006951 0.000346 -0.003055 -0.005133 0.005517 0.028237
#
#
# Mechanical properties :
#
#
# Convention : Reuss Voigt Hill
#
# Bulk Modulus (GPa) = 32.39238 41.99888 37.19563
# Shear Modulus (GPa) = 26.77709 34.97980 30.87844
#
# Velocity S-wave (km/s) = 3.38274 3.86630 3.63257
# Velocity P-wave (km/s) = 5.39442 6.15458 5.78699
#
# Compressibility (1/GPa) = 0.03087145
#
# Stress axis : x y z
#
# Youngs Moduli (GPa) = 67.34565 66.27293 50.61307
#
# Poissons Ratio (x) = -0.04874 0.31503
# Poissons Ratio (y) = -0.04953 0.19856
# Poissons Ratio (z) = 0.41918 0.26000
#
# Static dielectric constant tensor:
#      x y z
#    x 1.860740 -0.016170 -0.029490 
#    y -0.016170 1.951910 -0.029490 
#    z -0.029490 -0.029490 1.945010 
# 
# From -- ./inp_files/564412.got.cif
#   From: 2010.05.17/outbox.cif.g08.bks.cpg/sg2_283_cif.got.tgz:564412.got - 2010.06.03 11:33:40.
