data_PCOD9039832
_publ_section_title
;
Structure prediction by ZEFSAII (Michael W. Deem and Ramdas Pophale) SiO2 
 PCOD9039832
Probable space group: P -1
;
_chemical_formula_sum "Si O2"
_cell_formula_units_Z 15
_cell_length_a 9.348027
_cell_length_b 9.123081
_cell_length_c 14.094738
_cell_angle_alpha 113.590156
_cell_angle_beta 87.443673
_cell_angle_gamma 46.162934
_cell_volume 694.091660
_symmetry_space_group_name_H-M "P -1"
_symmetry_group_IT_number 2
_symmetry_cell_setting 'triclinic'
loop_
_space_group_symop_operation_xyz
x,y,z
-x,-y,-z
loop_
_atom_site_type_symbol
_atom_site_label
_atom_site_fract_x
_atom_site_fract_y
_atom_site_fract_z
Si Si1 0.276113 0.189011 0.620133
Si Si2 0.511838 0.544100 0.788024
Si Si3 0.326538 0.447965 0.032407
Si Si4 0.496511 0.797142 0.239673
Si Si5 0.500000 0.000000 0.000000
Si Si6 0.872793 0.781725 0.767826
Si Si7 0.073319 0.951767 0.788453
Si Si8 0.016424 0.090663 0.616463
O O1 0.347632 0.201716 0.722011
O O2 0.190508 0.083636 0.600586
O O3 0.070778 0.481788 0.670940
O O4 0.500000 0.000000 0.500000
O O5 0.497578 0.618946 0.916360
O O6 0.519242 0.345082 0.730453
O O7 0.310046 0.781280 0.790005
O O8 0.763329 0.382794 0.711796
O O9 0.410765 0.355820 0.899997
O O10 0.103935 0.750711 0.114327
O O11 0.309468 0.286052 0.034181
O O12 0.257220 0.079306 0.291689
O O13 0.685978 0.893199 0.881168
O O14 0.979644 0.864292 0.808351
O O15 0.083001 0.935048 0.669195
O O16 0.000000 0.000000 0.500000
#
# Coordination Sequence:
#
# PCOD9039832 Si02
#       8
#     2   2   2   2   1   2   2   2
#     4  12  28  49  74 107 147 195 252 315 372 442
#     4  11  22  44  70 106 147 192 246 303 367 442
#     4  10  23  42  71 106 150 198 238 301 368 441
#     4  11  23  44  73 104 150 192 247 303 370 441
#     4  10  24  42  68 102 156 184 234 302 364 430
#     4  11  23  46  74 108 149 197 244 305 377 435
#     4  11  24  43  78 108 146 197 251 301 375 448
#     4  11  26  49  74 105 144 191 254 311 371 444
#
# _framework density 21.610980000000001
#
# number of rings (size 3 to 8) (size 9 to 14) (size 15 to 20)
#    0.000    1.067    4.000    2.800    1.867    6.933 
#    0.000    8.667    0.000    0.000    0.000    0.000 
#    0.000    0.000    0.000    0.000    0.000    0.000 
#
# Total GULP energy -83531.861478 kJ/mol
# GULP energy per Si atom -5568.790765 kJ/mol
# Density = 2.156179 g / cm^3
# Si number density = 21.610980 Si / 1000 Ang^3
#
#
#
# Elastic Constant Matrix: (Units=GPa)
#
#
# Indices 1 2 3 4 5 6 
#
# 1 76.1852 22.6196 41.9908 -12.9495 -10.3246 -17.3134
# 2 22.6196 133.4239 43.5171 6.5001 -12.0395 -21.8491
# 3 41.9908 43.5171 110.9142 -1.0062 2.8961 -2.7110
# 4 -12.9495 6.5001 -1.0062 23.2541 -3.4333 4.3616
# 5 -10.3246 -12.0395 2.8961 -3.4333 33.6344 -14.9792
# 6 -17.3134 -21.8491 -2.7110 4.3616 -14.9792 43.7589
#
#
#
# Elastic Compliance Matrix: (Units=1/GPa)
#
#
# Indices 1 2 3 4 5 6 
#
# 1 0.027324 0.002944 -0.011469 0.013592 0.019310 0.016826
# 2 0.002944 0.011491 -0.005651 -0.002272 0.009782 0.010127
# 3 -0.011469 -0.005651 0.015601 -0.003989 -0.011757 -0.010020
# 4 0.013592 -0.002272 -0.003989 0.052095 0.010014 0.002231
# 5 0.019310 0.009782 -0.011757 0.010014 0.054278 0.029378
# 6 0.016826 0.010127 -0.010020 0.002231 0.029378 0.043779
#
#
# Mechanical properties :
#
#
# Convention : Reuss Voigt Hill
#
# Bulk Modulus (GPa) = 38.36887 59.64201 49.00544
# Shear Modulus (GPa) = 20.69452 34.28919 27.49186
#
# Velocity S-wave (km/s) = 3.09786 3.98761 3.57055
# Velocity P-wave (km/s) = 5.53069 6.98994 6.30269
#
# Compressibility (1/GPa) = 0.02606279
#
# Stress axis : x y z
#
# Youngs Moduli (GPa) = 36.59763 87.02629 64.09697
#
# Poissons Ratio (x) = -0.25621 0.73515
# Poissons Ratio (y) = -0.10774 0.36224
# Poissons Ratio (z) = 0.41975 0.49183
#
# Static dielectric constant tensor:
#      x y z
#    x 1.821400 0.001850 0.010970 
#    y 0.001850 1.772800 0.010420 
#    z 0.010970 0.010420 1.819000 
# 
# From -- ./inp_files/493387.got.cif
#   From: 2010.05.17/outbox.cif.g08.bks.cpg/sg2_247_cif.got.tgz:493387.got - 2010.06.03 11:33:40.
