data_PCOD9039456
_publ_section_title
;
Structure prediction by ZEFSAII (Michael W. Deem and Ramdas Pophale) SiO2 
 PCOD9039456
Probable space group: P -1
;
_chemical_formula_sum "Si O2"
_cell_formula_units_Z 16
_cell_length_a 9.528577
_cell_length_b 17.729795
_cell_length_c 12.125689
_cell_angle_alpha 151.562581
_cell_angle_beta 51.690510
_cell_angle_gamma 126.425139
_cell_volume 758.928569
_symmetry_space_group_name_H-M "P -1"
_symmetry_group_IT_number 2
_symmetry_cell_setting 'triclinic'
loop_
_space_group_symop_operation_xyz
x,y,z
-x,-y,-z
loop_
_atom_site_type_symbol
_atom_site_label
_atom_site_fract_x
_atom_site_fract_y
_atom_site_fract_z
Si Si1 0.326119 0.874813 0.441569
Si Si2 0.912322 0.655410 0.781614
Si Si3 0.773898 0.143473 0.974582
Si Si4 0.470777 0.435020 0.051437
Si Si5 0.250546 0.414555 0.731604
Si Si6 0.804142 0.932854 0.048440
Si Si7 0.900899 0.252851 0.811107
Si Si8 0.625652 0.834926 0.786666
O O1 0.409101 0.709935 0.191627
O O2 0.185089 0.861585 0.392600
O O3 0.500000 0.000000 0.500000
O O4 0.244640 0.939248 0.674299
O O5 0.000000 0.500000 0.500000
O O6 0.741767 0.606347 0.880200
O O7 0.822411 0.759578 0.867875
O O8 0.068734 0.774596 0.917822
O O9 0.850887 0.169531 0.845990
O O10 0.700747 0.964526 0.822954
O O11 0.588291 0.219795 0.178976
O O12 0.500000 0.500000 0.000000
O O13 0.560229 0.552894 0.254341
O O14 0.269923 0.313173 0.482274
O O15 0.106832 0.316469 0.758998
O O16 0.188761 0.582718 0.942766
O O17 0.671775 0.912474 0.982820
O O18 0.000000 0.000000 0.000000
#
# Coordination Sequence:
#
# PCOD9039456 Si02
#       8
#     2   2   2   2   2   2   2   2
#     4  11  23  44  70 100 133 180 235 273 334 411
#     4  12  27  45  66 104 139 177 229 281 345 404
#     4  11  25  44  64 103 134 174 223 276 341 395
#     4  11  25  43  69 100 136 181 224 283 341 397
#     4  10  23  43  65  99 127 178 225 267 340 397
#     4  12  25  45  71 100 136 184 228 278 339 405
#     4  10  23  42  68  96 134 171 220 280 333 397
#     4  11  25  44  69  98 135 179 225 273 336 404
#
# _framework density 21.082353000000001
#
# number of rings (size 3 to 8) (size 9 to 14) (size 15 to 20)
#    0.000    1.000    2.500    3.000    5.250    4.000 
#    0.000    0.000    0.000    0.000    0.000    0.000 
#    0.000    0.000    0.000    0.000    0.000    0.000 
#
# Total GULP energy -89352.045592 kJ/mol
# GULP energy per Si atom -5584.502850 kJ/mol
# Density = 2.103437 g / cm^3
# Si number density = 21.082353 Si / 1000 Ang^3
#
#
#
# Elastic Constant Matrix: (Units=GPa)
#
#
# Indices 1 2 3 4 5 6 
#
# 1 71.0460 29.6544 9.4869 -6.9312 8.2756 6.8348
# 2 29.6544 116.2438 17.0216 -16.7408 3.1876 5.5171
# 3 9.4869 17.0216 107.0153 -23.8065 6.1966 -4.8973
# 4 -6.9312 -16.7408 -23.8065 29.1266 3.6994 -0.9998
# 5 8.2756 3.1876 6.1966 3.6994 28.1843 -4.6922
# 6 6.8348 5.5171 -4.8973 -0.9998 -4.6922 40.8324
#
#
#
# Elastic Compliance Matrix: (Units=1/GPa)
#
#
# Indices 1 2 3 4 5 6 
#
# 1 0.016728 -0.003626 -0.000229 0.002274 -0.005230 -0.002883
# 2 -0.003626 0.010337 -0.000198 0.004997 -0.000848 -0.000789
# 3 -0.000229 -0.000198 0.011907 0.010070 -0.003630 0.001323
# 4 0.002274 0.004997 0.010070 0.047205 -0.009609 0.000204
# 5 -0.005230 -0.000848 -0.003630 -0.009609 0.039990 0.004915
# 6 -0.002883 -0.000789 0.001323 0.000204 0.004915 0.025808
#
#
# Mechanical properties :
#
#
# Convention : Reuss Voigt Hill
#
# Bulk Modulus (GPa) = 32.39879 45.18121 38.79000
# Shear Modulus (GPa) = 29.34796 35.50480 32.42638
#
# Velocity S-wave (km/s) = 3.73508 4.10823 3.92609
# Velocity P-wave (km/s) = 5.83114 6.63180 6.24432
#
# Compressibility (1/GPa) = 0.03086535
#
# Stress axis : x y z
#
# Youngs Moduli (GPa) = 59.78037 96.74016 83.98251
#
# Poissons Ratio (x) = 0.35078 0.01926
# Poissons Ratio (y) = 0.21676 0.01663
# Poissons Ratio (z) = 0.01371 0.01916
#
# Static dielectric constant tensor:
#      x y z
#    x 1.892390 0.001480 0.010910 
#    y 0.001480 1.697550 0.032460 
#    z 0.010910 0.032460 1.718930 
# 
# From -- ./inp_files/403507.got.cif
#   From: 2010.05.17/outbox.cif.g08.bks.cpg/sg2_202_cif.got.tgz:403507.got - 2010.06.03 11:33:40.
