data_PCOD9039637
_publ_section_title
;
Structure prediction by ZEFSAII (Michael W. Deem and Ramdas Pophale) SiO2 
 PCOD9039637
Probable space group: P -1
;
_chemical_formula_sum "Si O2"
_cell_formula_units_Z 12
_cell_length_a 27.567227
_cell_length_b 24.961276
_cell_length_c 7.200090
_cell_angle_alpha 38.335227
_cell_angle_beta 40.005889
_cell_angle_gamma 9.987001
_cell_volume 531.963321
_symmetry_space_group_name_H-M "P -1"
_symmetry_group_IT_number 2
_symmetry_cell_setting 'triclinic'
loop_
_space_group_symop_operation_xyz
x,y,z
-x,-y,-z
loop_
_atom_site_type_symbol
_atom_site_label
_atom_site_fract_x
_atom_site_fract_y
_atom_site_fract_z
Si Si1 0.539463 0.371225 0.606241
Si Si2 0.934717 0.666251 0.157907
Si Si3 0.910921 0.431314 0.398469
Si Si4 0.465721 0.315053 0.300610
Si Si5 0.135763 0.774977 0.341699
Si Si6 0.634123 0.761999 0.687943
O O1 0.500000 0.500000 0.500000
O O2 0.323047 0.602874 0.435668
O O3 0.472123 0.367874 0.955139
O O4 0.864253 0.019316 0.542728
O O5 0.000000 0.500000 0.500000
O O6 0.108319 0.541602 0.109155
O O7 0.606678 0.042806 0.116457
O O8 0.040025 0.554099 0.946238
O O9 0.729378 0.552060 0.527492
O O10 0.742704 0.654262 0.457362
O O11 0.216164 0.063601 0.564816
O O12 0.340543 0.500031 0.345907
O O13 0.000000 0.000000 0.000000
O O14 0.500000 0.000000 0.500000
#
# Coordination Sequence:
#
# PCOD9039637 Si02
#       6
#     2   2   2   2   2   2
#     4  12  26  45  74 102 141 185 245 289 345 424
#     4  10  23  42  69  98 132 177 231 281 351 419
#     4  12  26  44  67 102 144 178 234 294 354 409
#     4  12  28  44  69 104 142 188 230 296 356 399
#     4  12  26  45  74 102 141 185 245 289 345 424
#     4  10  23  42  69  98 132 177 231 281 351 419
#
# _framework density 22.557946999999999
#
# number of rings (size 3 to 8) (size 9 to 14) (size 15 to 20)
#    0.000    0.667    1.667    5.000    2.333   13.333 
#    0.000    0.000    0.000    0.000    0.000    0.000 
#    0.000    0.000    0.000    0.000    0.000    0.000 
#
# Total GULP energy -67144.438324 kJ/mol
# GULP energy per Si atom -5595.369860 kJ/mol
# Density = 2.250660 g / cm^3
# Si number density = 22.557947 Si / 1000 Ang^3
#
#
#
# Elastic Constant Matrix: (Units=GPa)
#
#
# Indices 1 2 3 4 5 6 
#
# 1 109.4216 110.4856 112.9082 -14.8813 42.9527 -13.6985
# 2 110.4856 151.8944 54.8999 40.4906 12.4320 -31.0828
# 3 112.9082 54.8999 62.7024 42.8781 25.3043 22.2906
# 4 -14.8813 40.4906 42.8781 35.5930 11.0982 10.9673
# 5 42.9527 12.4320 25.3043 11.0982 38.6596 -0.4076
# 6 -13.6985 -31.0828 22.2906 10.9673 -0.4076 61.6378
#
#
#
# Elastic Compliance Matrix: (Units=1/GPa)
#
#
# Indices 1 2 3 4 5 6 
#
# 1 -0.000279 -0.001519 0.010400 -0.008897 -0.003487 -0.003029
# 2 -0.001519 0.020433 -0.021572 -0.007401 0.011564 0.019161
# 3 0.010400 -0.021572 0.019835 0.018047 -0.022982 -0.019103
# 4 -0.008897 -0.007401 0.018047 0.017232 -0.004656 -0.015333
# 5 -0.003487 0.011564 -0.022982 -0.004656 0.042554 0.014477
# 6 -0.003029 0.019161 -0.019103 -0.015333 0.014477 0.034946
#
#
# Mechanical properties :
#
#
# Convention : Reuss Voigt Hill
#
# Bulk Modulus (GPa) = 68.46673 97.84509 83.15591
# Shear Modulus (GPa) = 30.30819 30.22639 30.26729
#
# Velocity S-wave (km/s) = 3.66945 3.66450 3.66697
# Velocity P-wave (km/s) = 6.95489 7.83415 7.40758
#
# Compressibility (1/GPa) = 0.01460563
#
# Stress axis : x y z
#
# Youngs Moduli (GPa) = -3585.55608 48.94071 50.41648
#
# Poissons Ratio (x) = 0.07433 -0.52431
# Poissons Ratio (y) = -5.44575 1.08760
# Poissons Ratio (z) = 37.28840 1.05577
#
# Static dielectric constant tensor:
#      x y z
#    x 1.834300 -0.060280 0.012380 
#    y -0.060280 1.840010 -0.006080 
#    z 0.012380 -0.006080 1.808570 
# 
# From -- ./inp_files/9194.got.cif
#   From: 2010.05.17/outbox.cif.g08.bks.cpg/sg2_5_cif.got.tgz:9194.got - 2010.06.03 11:33:40.
