data_PCOD9039363
_publ_section_title
;
Structure prediction by ZEFSAII (Michael W. Deem and Ramdas Pophale) SiO2 
 PCOD9039363
Probable space group: P -1
;
_chemical_formula_sum "Si O2"
_cell_formula_units_Z 14
_cell_length_a 5.367108
_cell_length_b 12.574488
_cell_length_c 19.690737
_cell_angle_alpha 141.656116
_cell_angle_beta 128.998624
_cell_angle_gamma 43.945308
_cell_volume 565.648485
_symmetry_space_group_name_H-M "P -1"
_symmetry_group_IT_number 2
_symmetry_cell_setting 'triclinic'
loop_
_space_group_symop_operation_xyz
x,y,z
-x,-y,-z
loop_
_atom_site_type_symbol
_atom_site_label
_atom_site_fract_x
_atom_site_fract_y
_atom_site_fract_z
Si Si1 0.827507 0.976034 0.090319
Si Si2 0.381292 0.630111 0.802376
Si Si3 0.283772 0.827504 0.700406
Si Si4 0.353949 0.449914 0.582449
Si Si5 0.827493 0.635283 0.173759
Si Si6 0.529879 0.603241 0.973115
Si Si7 0.545801 0.076207 0.369590
O O1 0.873937 0.160297 0.167248
O O2 0.689952 0.022469 0.166935
O O3 0.500000 0.000000 0.000000
O O4 0.182126 0.779980 0.039281
O O5 0.270138 0.493520 0.669965
O O6 0.413088 0.651834 0.898895
O O7 0.813878 0.527365 0.810089
O O8 0.469884 0.608054 0.652538
O O9 0.424277 0.847122 0.661540
O O10 0.852669 0.891920 0.660649
O O11 0.618893 0.222268 0.502922
O O12 0.000000 0.500000 0.500000
O O13 0.505013 0.592479 0.120616
O O14 0.780921 0.844504 0.289103
O O15 0.842783 0.601345 0.077025
#
# Coordination Sequence:
#
# PCOD9039363 Si02
#       7
#     2   2   2   2   2   2   2
#     4  11  22  39  63 101 130 177 229 284 339 409
#     4  11  24  42  68  98 131 178 229 284 340 412
#     4  10  23  42  68 101 132 177 231 280 342 407
#     4   9  22  46  68 100 132 176 232 290 341 399
#     4  11  25  41  65 100 139 179 226 274 350 411
#     4  11  24  44  65  96 142 179 225 279 346 409
#     4  11  23  43  71  96 134 182 229 277 346 404
#
# _framework density 24.750356
#
# number of rings (size 3 to 8) (size 9 to 14) (size 15 to 20)
#    0.000    1.429    2.857    1.286    4.000    4.000 
#    5.143    0.714    0.000    0.000    0.000    0.000 
#    0.000    0.000    0.000    0.000    0.000    0.000 
#
# Total GULP energy -78078.429398 kJ/mol
# GULP energy per Si atom -5577.030671 kJ/mol
# Density = 2.469402 g / cm^3
# Si number density = 24.750356 Si / 1000 Ang^3
#
#
#
# Elastic Constant Matrix: (Units=GPa)
#
#
# Indices 1 2 3 4 5 6 
#
# 1 51.9735 5.0049 1.6282 -24.9312 -4.6892 25.7184
# 2 5.0049 76.1151 14.3708 2.8726 4.4552 9.3588
# 3 1.6282 14.3708 143.4570 -0.2748 -13.4861 12.5703
# 4 -24.9312 2.8726 -0.2748 36.3099 0.1372 29.7448
# 5 -4.6892 4.4552 -13.4861 0.1372 18.7223 -2.6757
# 6 25.7184 9.3588 12.5703 29.7448 -2.6757 -0.7404
#
#
#
# Elastic Compliance Matrix: (Units=1/GPa)
#
#
# Indices 1 2 3 4 5 6 
#
# 1 0.009295 -0.002401 -0.000804 -0.006144 0.004580 0.015495
# 2 -0.002401 0.014134 -0.001828 -0.002103 -0.005381 -0.000803
# 3 -0.000804 -0.001828 0.007607 -0.001383 0.005899 0.001234
# 4 -0.006144 -0.002103 -0.001383 0.007124 0.000766 0.019959
# 5 0.004580 -0.005381 0.005899 0.000766 0.060541 0.003199
# 6 0.015495 -0.000803 0.001234 0.019959 0.003199 -0.011303
#
#
# Mechanical properties :
#
#
# Convention : Reuss Voigt Hill
#
# Bulk Modulus (GPa) = 47.68634 34.83925 41.26280
# Shear Modulus (GPa) = 47.86801 27.56114 37.71457
#
# Velocity S-wave (km/s) = 4.40254 3.34063 3.90782
# Velocity P-wave (km/s) = 6.71951 5.38392 6.08845
#
# Compressibility (1/GPa) = 0.02097036
#
# Stress axis : x y z
#
# Youngs Moduli (GPa) = 107.58059 70.75137 131.46101
#
# Poissons Ratio (x) = 0.16986 0.10569
# Poissons Ratio (y) = 0.25828 0.24033
# Poissons Ratio (z) = 0.08649 0.12934
#
# Static dielectric constant tensor:
#      x y z
#    x 2.090420 0.009230 0.011210 
#    y 0.009230 1.977700 0.008000 
#    z 0.011210 0.008000 2.058770 
# 
# From -- ./inp_files/81580.got.cif
#   From: 2010.05.17/outbox.cif.g08.bks.cpg/sg2_41_cif.got.tgz:81580.got - 2010.06.03 11:33:40.
