data_PCOD9039963
_publ_section_title
;
Structure prediction by ZEFSAII (Michael W. Deem and Ramdas Pophale) SiO2 
 PCOD9039963
Probable space group: P -1
;
_chemical_formula_sum "Si O2"
_cell_formula_units_Z 14
_cell_length_a 9.046277
_cell_length_b 12.418154
_cell_length_c 6.776445
_cell_angle_alpha 118.046558
_cell_angle_beta 71.994329
_cell_angle_gamma 68.862431
_cell_volume 509.818915
_symmetry_space_group_name_H-M "P -1"
_symmetry_group_IT_number 2
_symmetry_cell_setting 'triclinic'
loop_
_space_group_symop_operation_xyz
x,y,z
-x,-y,-z
loop_
_atom_site_type_symbol
_atom_site_label
_atom_site_fract_x
_atom_site_fract_y
_atom_site_fract_z
Si Si1 0.208253 0.783464 0.167576
Si Si2 0.886417 0.953089 0.122788
Si Si3 0.457096 0.225099 0.164787
Si Si4 0.085924 0.710898 0.534774
Si Si5 0.540855 0.864007 0.509567
Si Si6 0.139156 0.411865 0.116645
Si Si7 0.271814 0.534906 0.680802
O O1 0.140968 0.786904 0.418852
O O2 0.009818 0.872054 0.197826
O O3 0.344921 0.833662 0.090115
O O4 0.311902 0.609136 0.903256
O O5 0.670628 0.094506 0.377272
O O6 0.900415 0.836960 0.855305
O O7 0.000000 0.000000 0.000000
O O8 0.435474 0.130399 0.259097
O O9 0.276314 0.317190 0.167714
O O10 0.428035 0.357570 0.428796
O O11 0.082861 0.580860 0.314508
O O12 0.247274 0.621139 0.561594
O O13 0.500000 0.000000 0.500000
O O14 0.717584 0.700928 0.212464
O O15 0.060780 0.567449 0.810316
#
# Coordination Sequence:
#
# PCOD9039963 Si02
#       7
#     2   2   2   2   2   2   2
#     4  11  23  41  72 103 138 189 234 287 357 423
#     4  11  25  46  68 103 153 183 232 299 355 417
#     4  11  24  42  70 103 141 183 238 293 352 419
#     4  10  23  42  73 102 135 185 237 283 353 419
#     4  12  27  46  71 102 144 190 238 293 357 423
#     4  11  26  46  72 104 143 184 239 295 350 425
#     4  10  23  43  68 105 148 177 230 303 352 413
#
# _framework density 27.460730000000002
#
# number of rings (size 3 to 8) (size 9 to 14) (size 15 to 20)
#    0.000    1.143    1.429    4.714    2.000   10.286 
#    0.000    0.000    0.000    0.000    0.000    0.000 
#    0.000    0.000    0.000    0.000    0.000    0.000 
#
# Total GULP energy -78337.595294 kJ/mol
# GULP energy per Si atom -5595.542521 kJ/mol
# Density = 2.739823 g / cm^3
# Si number density = 27.460730 Si / 1000 Ang^3
#
#
#
# Elastic Constant Matrix: (Units=GPa)
#
#
# Indices 1 2 3 4 5 6 
#
# 1 141.1391 39.4813 60.0046 1.5039 -26.4567 11.0405
# 2 39.4813 121.0640 65.0741 -36.4931 0.3113 -6.5908
# 3 60.0046 65.0741 175.3437 -13.6592 -14.6648 2.2452
# 4 1.5039 -36.4931 -13.6592 60.8107 1.6010 -3.6434
# 5 -26.4567 0.3113 -14.6648 1.6010 49.9937 11.3861
# 6 11.0405 -6.5908 2.2452 -3.6434 11.3861 33.6629
#
#
#
# Elastic Compliance Matrix: (Units=1/GPa)
#
#
# Indices 1 2 3 4 5 6 
#
# 1 0.010910 -0.004106 -0.001827 -0.003749 0.006984 -0.007028
# 2 -0.004106 0.014715 -0.003923 0.008625 -0.005338 0.007228
# 3 -0.001827 -0.003923 0.007892 -0.000661 0.001699 -0.001341
# 4 -0.003749 0.008625 -0.000661 0.022095 -0.004506 0.006878
# 5 0.006984 -0.005338 0.001699 -0.004506 0.027380 -0.013198
# 6 -0.007028 0.007228 -0.001341 0.006878 -0.013198 0.038724
#
#
# Mechanical properties :
#
#
# Convention : Reuss Voigt Hill
#
# Bulk Modulus (GPa) = 72.44726 85.18521 78.81624
# Shear Modulus (GPa) = 34.23940 47.09257 40.66599
#
# Velocity S-wave (km/s) = 3.53491 4.14563 3.85239
# Velocity P-wave (km/s) = 6.56507 7.34868 6.96790
#
# Compressibility (1/GPa) = 0.01380315
#
# Stress axis : x y z
#
# Youngs Moduli (GPa) = 91.66204 67.95828 126.70880
#
# Poissons Ratio (x) = 0.27906 0.23156
# Poissons Ratio (y) = 0.37640 0.49707
# Poissons Ratio (z) = 0.16751 0.26660
#
# Static dielectric constant tensor:
#      x y z
#    x 2.109860 0.079550 0.038610 
#    y 0.079550 2.264410 -0.016990 
#    z 0.038610 -0.016990 2.197260 
# 
# From -- ./inp_files/71090.got.cif
#   From: 2010.05.17/outbox.cif.g08.bks.cpg/sg2_36_cif.got.tgz:71090.got - 2010.06.03 11:33:40.
