data_PCOD9039691
_publ_section_title
;
Structure prediction by ZEFSAII (Michael W. Deem and Ramdas Pophale) SiO2 
 PCOD9039691
Probable space group: P -1
;
_chemical_formula_sum "Si O2"
_cell_formula_units_Z 16
_cell_length_a 17.236324
_cell_length_b 19.941086
_cell_length_c 9.936790
_cell_angle_alpha 31.788383
_cell_angle_beta 32.086655
_cell_angle_gamma 23.976316
_cell_volume 690.213197
_symmetry_space_group_name_H-M "P -1"
_symmetry_group_IT_number 2
_symmetry_cell_setting 'triclinic'
loop_
_space_group_symop_operation_xyz
x,y,z
-x,-y,-z
loop_
_atom_site_type_symbol
_atom_site_label
_atom_site_fract_x
_atom_site_fract_y
_atom_site_fract_z
Si Si1 0.911628 0.505762 0.258773
Si Si2 0.115986 0.756979 0.323487
Si Si3 0.656435 0.152768 0.666425
Si Si4 0.349225 0.226946 0.186147
Si Si5 0.112105 0.252646 0.949729
Si Si6 0.420313 0.180724 0.450829
Si Si7 0.702960 0.138455 0.308720
Si Si8 0.263829 0.671287 0.554973
O O1 0.108826 0.365162 0.301890
O O2 0.820482 0.423085 0.505757
O O3 0.807459 0.693426 0.152085
O O4 0.000000 0.500000 0.000000
O O5 0.199132 0.738700 0.381371
O O6 0.194319 0.803156 0.013899
O O7 0.873838 0.924152 0.409726
O O8 0.652269 0.188958 0.453505
O O9 0.760040 0.198345 0.527673
O O10 0.441548 0.249799 0.886774
O O11 0.779726 0.947353 0.848617
O O12 0.429297 0.232221 0.201249
O O13 0.441437 0.029175 0.385109
O O14 0.194577 0.265842 0.669471
O O15 0.878243 0.359654 0.133879
O O16 0.509931 0.220570 0.361971
O O17 0.500000 0.500000 0.500000
#
# Coordination Sequence:
#
# PCOD9039691 Si02
#       8
#     2   2   2   2   2   2   2   2
#     4  12  23  43  70 102 143 180 232 286 348 416
#     4  11  25  44  70 104 139 187 230 287 358 408
#     4  11  24  43  73 104 136 183 240 283 346 418
#     4  10  23  42  70 101 139 187 225 287 354 412
#     4  11  25  41  72 103 139 185 234 286 346 419
#     4  10  23  44  68 104 140 177 234 292 348 411
#     4  11  23  43  72 104 138 182 234 294 342 416
#     4  12  25  46  70 103 144 182 232 289 356 414
#
# _framework density 23.181242999999998
#
# number of rings (size 3 to 8) (size 9 to 14) (size 15 to 20)
#    0.000    1.000    3.750    1.875    1.750    2.500 
#    0.000    3.750    0.000    0.000    0.000    0.000 
#    0.000    0.000    0.000    0.000    0.000    0.000 
#
# Total GULP energy -89457.761931 kJ/mol
# GULP energy per Si atom -5591.110121 kJ/mol
# Density = 2.312848 g / cm^3
# Si number density = 23.181243 Si / 1000 Ang^3
#
#
#
# Elastic Constant Matrix: (Units=GPa)
#
#
# Indices 1 2 3 4 5 6 
#
# 1 166.2363 32.6592 58.0312 1.8481 11.8801 26.7897
# 2 32.6592 69.2265 33.5943 4.6568 -2.0198 8.2493
# 3 58.0312 33.5943 106.0581 10.8601 16.5702 17.5696
# 4 1.8481 4.6568 10.8601 37.1624 10.8235 -11.4077
# 5 11.8801 -2.0198 16.5702 10.8235 31.9101 -6.5953
# 6 26.7897 8.2493 17.5696 -11.4077 -6.5953 43.3929
#
#
#
# Elastic Compliance Matrix: (Units=1/GPa)
#
#
# Indices 1 2 3 4 5 6 
#
# 1 0.008222 -0.002159 -0.002788 0.000256 -0.002637 -0.003870
# 2 -0.002159 0.018311 -0.005302 -0.002158 0.005503 0.000268
# 3 -0.002788 -0.005302 0.014916 -0.003093 -0.007068 -0.005197
# 4 0.000256 -0.002158 -0.003093 0.033169 -0.008015 0.009006
# 5 -0.002637 0.005503 -0.007068 -0.008015 0.040609 0.007509
# 6 -0.003870 0.000268 -0.005197 0.009006 0.007509 0.030997
#
#
# Mechanical properties :
#
#
# Convention : Reuss Voigt Hill
#
# Bulk Modulus (GPa) = 47.73106 65.56559 56.64833
# Shear Modulus (GPa) = 28.78432 36.97551 32.87991
#
# Velocity S-wave (km/s) = 3.52761 3.99815 3.77023
# Velocity P-wave (km/s) = 6.10140 7.04691 6.59113
#
# Compressibility (1/GPa) = 0.02095072
#
# Stress axis : x y z
#
# Youngs Moduli (GPa) = 121.61998 54.61314 67.04320
#
# Poissons Ratio (x) = 0.11791 0.18693
# Poissons Ratio (y) = 0.26258 0.35545
# Poissons Ratio (z) = 0.33910 0.28955
#
# Static dielectric constant tensor:
#      x y z
#    x 1.872230 0.009240 -0.017250 
#    y 0.009240 1.973510 0.035780 
#    z -0.017250 0.035780 1.842780 
# 
# From -- ./inp_files/317965.got.cif
#   From: 2010.05.17/outbox.cif.g08.bks.cpg/sg2_159_cif.got.tgz:317965.got - 2010.06.03 11:33:40.
