data_PCOD9039661
_publ_section_title
;
Structure prediction by ZEFSAII (Michael W. Deem and Ramdas Pophale) SiO2 
 PCOD9039661
Probable space group: P -1
;
_chemical_formula_sum "Si O2"
_cell_formula_units_Z 16
_cell_length_a 7.902663
_cell_length_b 12.116813
_cell_length_c 11.554171
_cell_angle_alpha 62.451955
_cell_angle_beta 49.676983
_cell_angle_gamma 87.694551
_cell_volume 690.775245
_symmetry_space_group_name_H-M "P -1"
_symmetry_group_IT_number 2
_symmetry_cell_setting 'triclinic'
loop_
_space_group_symop_operation_xyz
x,y,z
-x,-y,-z
loop_
_atom_site_type_symbol
_atom_site_label
_atom_site_fract_x
_atom_site_fract_y
_atom_site_fract_z
Si Si1 0.133715 0.534731 0.548759
Si Si2 0.107214 0.220019 0.033466
Si Si3 0.879390 0.499809 0.177272
Si Si4 0.184868 0.903465 0.574282
Si Si5 0.999324 0.860415 0.417015
Si Si6 0.544610 0.166841 0.814804
Si Si7 0.339565 0.316688 0.512761
Si Si8 0.706495 0.959571 0.235247
O O1 0.996129 0.488489 0.256308
O O2 0.315057 0.689564 0.381244
O O3 0.267380 0.431331 0.543854
O O4 0.000000 0.500000 0.500000
O O5 0.954622 0.214928 0.218707
O O6 0.928056 0.096090 0.097070
O O7 0.162349 0.359833 0.877124
O O8 0.351814 0.196444 0.965619
O O9 0.623802 0.376221 0.350596
O O10 0.000000 0.500000 0.000000
O O11 0.083168 0.863211 0.510254
O O12 0.470141 0.949779 0.417050
O O13 0.106044 0.023270 0.596387
O O14 0.234811 0.876203 0.227985
O O15 0.789713 0.723895 0.534812
O O16 0.385121 0.057780 0.846594
O O17 0.247256 0.174427 0.688834
#
# Coordination Sequence:
#
# PCOD9039661 Si02
#       8
#     2   2   2   2   2   2   2   2
#     4  12  25  48  72  98 144 195 230 278 364 435
#     4  12  24  41  69 109 135 177 241 302 341 407
#     4  12  28  45  72 108 140 178 243 300 345 413
#     4  10  23  44  66 100 146 182 230 293 357 426
#     4  10  23  42  69  99 136 198 228 274 366 429
#     4  11  23  44  66  98 141 183 234 292 342 426
#     4  12  22  44  74  99 134 194 239 273 361 433
#     4  11  23  42  74  95 137 186 235 288 356 417
#
# _framework density 23.162381
#
# number of rings (size 3 to 8) (size 9 to 14) (size 15 to 20)
#    0.000    0.750    5.000    2.625    3.500    0.500 
#    2.250    1.250    0.000    0.000    0.000    0.000 
#    0.000    0.000    0.000    0.000    0.000    0.000 
#
# Total GULP energy -89396.022080 kJ/mol
# GULP energy per Si atom -5587.251380 kJ/mol
# Density = 2.310966 g / cm^3
# Si number density = 23.162381 Si / 1000 Ang^3
#
#
#
# Elastic Constant Matrix: (Units=GPa)
#
#
# Indices 1 2 3 4 5 6 
#
# 1 97.6149 35.3606 42.6983 6.4397 -3.8790 11.8239
# 2 35.3606 119.0813 39.3603 0.1293 -1.5637 -14.0769
# 3 42.6983 39.3603 108.7860 15.3427 4.0900 0.4850
# 4 6.4397 0.1293 15.3427 46.7467 1.2551 -5.6783
# 5 -3.8790 -1.5637 4.0900 1.2551 32.8637 4.7836
# 6 11.8239 -14.0769 0.4850 -5.6783 4.7836 47.4837
#
#
#
# Elastic Compliance Matrix: (Units=1/GPa)
#
#
# Indices 1 2 3 4 5 6 
#
# 1 0.014081 -0.003318 -0.004239 -0.001206 0.002787 -0.004872
# 2 -0.003318 0.010849 -0.002904 0.001911 -0.000216 0.004322
# 3 -0.004239 -0.002904 0.012473 -0.003464 -0.002038 -0.000141
# 4 -0.001206 0.001911 -0.003464 0.023177 -0.001056 0.003780
# 5 0.002787 -0.000216 -0.002038 -0.001056 0.031631 -0.004050
# 6 -0.004872 0.004322 -0.000141 0.003780 -0.004050 0.024416
#
#
# Mechanical properties :
#
#
# Convention : Reuss Voigt Hill
#
# Bulk Modulus (GPa) = 60.67731 62.25784 61.46757
# Shear Modulus (GPa) = 34.95498 39.28970 37.12234
#
# Velocity S-wave (km/s) = 3.88896 4.12305 4.00772
# Velocity P-wave (km/s) = 6.81313 7.04296 6.92900
#
# Compressibility (1/GPa) = 0.01648063
#
# Stress axis : x y z
#
# Youngs Moduli (GPa) = 71.01780 92.17740 80.17581
#
# Poissons Ratio (x) = 0.30585 0.33988
# Poissons Ratio (y) = 0.23564 0.23279
# Poissons Ratio (z) = 0.30106 0.26764
#
# Static dielectric constant tensor:
#      x y z
#    x 1.957450 -0.011130 0.039440 
#    y -0.011130 1.914600 0.042080 
#    z 0.039440 0.042080 1.855920 
# 
# From -- ./inp_files/500132.got.cif
#   From: 2010.05.17/outbox.cif.g08.bks.cpg/sg2_251_cif.got.tgz:500132.got - 2010.06.03 11:33:40.
