data_PCOD9039056
_publ_section_title
;
Structure prediction by ZEFSAII (Michael W. Deem and Ramdas Pophale) SiO2 
 PCOD9039056
Probable space group: P -1
;
_chemical_formula_sum "Si O2"
_cell_formula_units_Z 16
_cell_length_a 12.752333
_cell_length_b 15.603841
_cell_length_c 7.655963
_cell_angle_alpha 89.935574
_cell_angle_beta 60.427212
_cell_angle_gamma 140.034418
_cell_volume 624.718817
_symmetry_space_group_name_H-M "P -1"
_symmetry_group_IT_number 2
_symmetry_cell_setting 'triclinic'
loop_
_space_group_symop_operation_xyz
x,y,z
-x,-y,-z
loop_
_atom_site_type_symbol
_atom_site_label
_atom_site_fract_x
_atom_site_fract_y
_atom_site_fract_z
Si Si1 0.104812 0.759873 0.496112
Si Si2 0.502289 0.405261 0.931512
Si Si3 0.081022 0.338271 0.993821
Si Si4 0.022632 0.911872 0.015262
Si Si5 0.916211 0.351616 0.820525
Si Si6 0.466122 0.735604 0.257196
Si Si7 0.425364 0.131941 0.225624
Si Si8 0.672908 0.755426 0.582484
O O1 0.103099 0.739320 0.703478
O O2 0.197608 0.753460 0.270762
O O3 0.243338 0.936792 0.355769
O O4 0.801747 0.572264 0.710573
O O5 0.295576 0.239991 0.238059
O O6 0.500000 0.500000 0.000000
O O7 0.461887 0.322419 0.792627
O O8 0.984633 0.314814 0.889243
O O9 0.074451 0.230405 0.014505
O O10 0.375970 0.550774 0.779743
O O11 0.851844 0.803514 0.332422
O O12 0.000000 0.000000 0.000000
O O13 0.318052 0.079590 0.816541
O O14 0.179774 0.565544 0.561385
O O15 0.696395 0.272306 0.082518
O O16 0.498416 0.781347 0.027108
O O17 0.297200 0.123559 0.453972
#
# Coordination Sequence:
#
# PCOD9039056 Si02
#       8
#     2   2   2   2   2   2   2   2
#     4  10  23  42  66 100 136 170 232 277 336 402
#     4   9  21  35  62  90 131 176 210 269 339 395
#     4  11  25  45  67 102 137 181 229 278 349 404
#     4  12  25  40  65  97 142 176 222 285 340 413
#     4  11  24  46  73  97 137 185 227 284 341 400
#     4  10  24  39  64 101 132 178 231 273 343 402
#     4  11  23  44  70 101 137 178 234 283 334 405
#     4  10  24  40  63  99 135 178 219 275 338 408
#
# _framework density 25.611522999999998
#
# number of rings (size 3 to 8) (size 9 to 14) (size 15 to 20)
#    0.000    1.500    0.000    4.125   10.500    2.000 
#    0.000    1.250    0.000    0.000    0.000    0.000 
#    0.000    0.000    0.000    0.000    0.000    0.000 
#
# Total GULP energy -89341.296377 kJ/mol
# GULP energy per Si atom -5583.831024 kJ/mol
# Density = 2.555323 g / cm^3
# Si number density = 25.611523 Si / 1000 Ang^3
#
#
#
# Elastic Constant Matrix: (Units=GPa)
#
#
# Indices 1 2 3 4 5 6 
#
# 1 45.9744 11.7064 14.8417 -2.3668 5.4153 -6.6278
# 2 11.7064 117.0912 31.0221 -20.1554 -9.3171 -2.8222
# 3 14.8417 31.0221 83.0300 0.3571 9.4123 4.6442
# 4 -2.3668 -20.1554 0.3571 42.7390 -7.8816 -3.5908
# 5 5.4153 -9.3171 9.4123 -7.8816 26.9166 -2.0734
# 6 -6.6278 -2.8222 4.6442 -3.5908 -2.0734 23.6345
#
#
#
# Elastic Compliance Matrix: (Units=1/GPa)
#
#
# Indices 1 2 3 4 5 6 
#
# 1 0.024886 -0.001385 -0.003976 0.000774 -0.003298 0.007423
# 2 -0.001385 0.012365 -0.005680 0.007845 0.009165 0.004200
# 3 -0.003976 -0.005680 0.016274 -0.005226 -0.008893 -0.006565
# 4 0.000774 0.007845 -0.005226 0.030424 0.013914 0.008024
# 5 -0.003298 0.009165 -0.008893 0.013914 0.048812 0.008313
# 6 0.007423 0.004200 -0.006565 0.008024 0.008313 0.048132
#
#
# Mechanical properties :
#
#
# Convention : Reuss Voigt Hill
#
# Bulk Modulus (GPa) = 31.80270 40.13732 35.97001
# Shear Modulus (GPa) = 23.42415 31.22640 27.32528
#
# Velocity S-wave (km/s) = 3.02751 3.49554 3.26991
# Velocity P-wave (km/s) = 4.96642 5.65662 5.32272
#
# Compressibility (1/GPa) = 0.03144387
#
# Stress axis : x y z
#
# Youngs Moduli (GPa) = 40.18389 80.87660 61.44618
#
# Poissons Ratio (x) = 0.11201 0.24428
# Poissons Ratio (y) = 0.05565 0.34900
# Poissons Ratio (z) = 0.15975 0.45936
#
# Static dielectric constant tensor:
#      x y z
#    x 2.218320 -0.024690 0.113240 
#    y -0.024690 2.073890 0.049450 
#    z 0.113240 0.049450 2.039470 
# 
# From -- ./inp_files/315384.got.cif
#   From: 2010.05.17/outbox.cif.g08.bks.cpg/sg2_158_cif.got.tgz:315384.got - 2010.06.03 11:33:40.
