data_PCOD9039001
_publ_section_title
;
Structure prediction by ZEFSAII (Michael W. Deem and Ramdas Pophale) SiO2 
 PCOD9039001
Probable space group: P -1
;
_chemical_formula_sum "Si O2"
_cell_formula_units_Z 13
_cell_length_a 9.052306
_cell_length_b 18.122194
_cell_length_c 5.761377
_cell_angle_alpha 115.272832
_cell_angle_beta 92.823999
_cell_angle_gamma 41.795247
_cell_volume 509.719252
_symmetry_space_group_name_H-M "P -1"
_symmetry_group_IT_number 2
_symmetry_cell_setting 'triclinic'
loop_
_space_group_symop_operation_xyz
x,y,z
-x,-y,-z
loop_
_atom_site_type_symbol
_atom_site_label
_atom_site_fract_x
_atom_site_fract_y
_atom_site_fract_z
Si Si1 0.279093 0.199058 0.832933
Si Si2 0.652491 0.243873 0.357401
Si Si3 0.495605 0.576130 0.784763
Si Si4 0.156618 0.508595 0.948140
Si Si5 0.500000 0.000000 0.000000
Si Si6 0.030009 0.806451 0.361592
Si Si7 0.278074 0.951160 0.646631
O O1 0.479535 0.161033 0.650884
O O2 0.198920 0.155624 0.607027
O O3 0.387319 0.122011 0.978817
O O4 0.027871 0.360447 0.055994
O O5 0.568669 0.308355 0.184516
O O6 0.408377 0.370784 0.659921
O O7 0.866426 0.211880 0.409175
O O8 0.739252 0.116819 0.273014
O O9 0.500000 0.500000 0.500000
O O10 0.750872 0.476757 0.809296
O O11 0.264674 0.664228 0.056417
O O12 0.000000 0.500000 0.000000
O O13 0.678602 0.987039 0.120314
O O14 0.944234 0.925652 0.377430
#
# Coordination Sequence:
#
# PCOD9039001 Si02
#       7
#     2   2   2   2   1   2   2
#     4  11  23  44  68  95 136 172 223 273 340 394
#     4  11  24  43  69  97 132 177 225 275 338 394
#     4  11  25  43  67 100 135 179 226 272 340 404
#     4  11  24  43  67 100 135 173 219 284 333 396
#     4  10  24  38  64  94 130 172 216 268 324 400
#     4  10  23  42  65  95 132 179 219 281 327 399
#     4  11  24  42  66  98 133 175 223 279 331 396
#
# _framework density 25.504234
#
# number of rings (size 3 to 8) (size 9 to 14) (size 15 to 20)
#    0.000    1.231    1.538    4.154    2.154   12.308 
#    0.000    0.000    0.000    0.000    0.000    0.000 
#    0.000    0.000    0.000    0.000    0.000    0.000 
#
# Total GULP energy -72597.072026 kJ/mol
# GULP energy per Si atom -5584.390156 kJ/mol
# Density = 2.544619 g / cm^3
# Si number density = 25.504234 Si / 1000 Ang^3
#
#
#
# Elastic Constant Matrix: (Units=GPa)
#
#
# Indices 1 2 3 4 5 6 
#
# 1 89.8126 22.6964 28.4475 -8.2803 -15.4037 3.1717
# 2 22.6964 159.7508 9.7644 -14.4002 -15.3910 7.3568
# 3 28.4475 9.7644 53.1770 15.9895 -12.4527 -14.0408
# 4 -8.2803 -14.4002 15.9895 35.6212 0.4969 -2.2845
# 5 -15.4037 -15.3910 -12.4527 0.4969 23.1365 0.2216
# 6 3.1717 7.3568 -14.0408 -2.2845 0.2216 51.9810
#
#
#
# Elastic Compliance Matrix: (Units=1/GPa)
#
#
# Indices 1 2 3 4 5 6 
#
# 1 0.016429 -0.000285 -0.011143 0.008409 0.004605 -0.003622
# 2 -0.000285 0.007119 -0.001700 0.003441 0.003570 -0.001313
# 3 -0.011143 -0.001700 0.035952 -0.018945 0.011114 0.009752
# 4 0.008409 0.003441 -0.018945 0.039687 -0.003120 -0.004360
# 5 0.004605 0.003570 0.011114 -0.003120 0.054694 0.001846
# 6 -0.003622 -0.001313 0.009752 -0.004360 0.001846 0.022079
#
#
# Mechanical properties :
#
#
# Convention : Reuss Voigt Hill
#
# Bulk Modulus (GPa) = 30.08050 47.17300 38.62675
# Shear Modulus (GPa) = 23.44152 38.26987 30.85570
#
# Velocity S-wave (km/s) = 3.03499 3.87787 3.48203
# Velocity P-wave (km/s) = 4.90933 6.21183 5.59858
#
# Compressibility (1/GPa) = 0.03324413
#
# Stress axis : x y z
#
# Youngs Moduli (GPa) = 60.86925 140.47566 27.81452
#
# Poissons Ratio (x) = 0.03997 0.30993
# Poissons Ratio (y) = 0.01732 0.04730
# Poissons Ratio (z) = 0.67826 0.23888
#
# Static dielectric constant tensor:
#      x y z
#    x 1.898070 0.070630 0.071730 
#    y 0.070630 1.920570 -0.020220 
#    z 0.071730 -0.020220 2.056050 
# 
# From -- ./inp_files/25199.got.cif
#   From: 2010.05.17/outbox.cif.g08.bks.cpg/sg2_13_cif.got.tgz:25199.got - 2010.06.03 11:33:40.
