data_PCOD9039324
_publ_section_title
;
Structure prediction by ZEFSAII (Michael W. Deem and Ramdas Pophale) SiO2 
 PCOD9039324
Probable space group: P -1
;
_chemical_formula_sum "Si O2"
_cell_formula_units_Z 16
_cell_length_a 18.330870
_cell_length_b 15.852557
_cell_length_c 7.726057
_cell_angle_alpha 69.842156
_cell_angle_beta 122.218687
_cell_angle_gamma 155.218379
_cell_volume 732.021953
_symmetry_space_group_name_H-M "P -1"
_symmetry_group_IT_number 2
_symmetry_cell_setting 'triclinic'
loop_
_space_group_symop_operation_xyz
x,y,z
-x,-y,-z
loop_
_atom_site_type_symbol
_atom_site_label
_atom_site_fract_x
_atom_site_fract_y
_atom_site_fract_z
Si Si1 0.260236 0.661344 0.414383
Si Si2 0.764294 0.746156 0.336114
Si Si3 0.185004 0.771464 0.697708
Si Si4 0.096889 0.173634 0.897870
Si Si5 0.530099 0.368836 0.886362
Si Si6 0.410573 0.613691 0.643622
Si Si7 0.266536 0.039931 0.486074
Si Si8 0.443248 0.982100 0.186715
O O1 0.258107 0.553078 0.456511
O O2 0.304998 0.766483 0.231924
O O3 0.046762 0.483407 0.370103
O O4 0.465846 0.875334 0.640301
O O5 0.613855 0.679273 0.264946
O O6 0.693021 0.578123 0.414934
O O7 0.757157 0.733501 0.127856
O O8 0.000000 0.000000 0.500000
O O9 0.180033 0.856773 0.517755
O O10 0.348101 0.857293 0.757168
O O11 0.297167 0.898546 0.932944
O O12 0.922072 0.068396 0.658674
O O13 0.237127 0.374767 0.044582
O O14 0.000000 0.000000 0.000000
O O15 0.432868 0.211667 0.730906
O O16 0.544294 0.348431 0.118710
O O17 0.617195 0.828671 0.639690
#
# Coordination Sequence:
#
# PCOD9039324 Si02
#       8
#     2   2   2   2   2   2   2   2
#     4  11  22  43  67  94 134 169 211 275 330 383
#     4  11  22  40  63  89 127 173 215 267 331 377
#     4  11  22  41  68  97 130 169 219 266 326 402
#     4  11  23  40  63  92 123 171 222 269 326 392
#     4  11  24  42  62  90 130 173 215 272 328 382
#     4  11  24  43  63  96 132 169 222 274 320 395
#     4  12  24  42  66  96 132 171 220 275 323 389
#     4  10  23  42  67  98 127 172 213 266 340 387
#
# _framework density 21.857268999999999
#
# number of rings (size 3 to 8) (size 9 to 14) (size 15 to 20)
#    0.000    1.000    2.500    6.000    1.750    1.000 
#    0.000    0.000    0.000    0.000    0.000    0.000 
#    0.000    0.000    0.000    0.000    0.000    0.000 
#
# Total GULP energy -89402.793388 kJ/mol
# GULP energy per Si atom -5587.674587 kJ/mol
# Density = 2.180752 g / cm^3
# Si number density = 21.857269 Si / 1000 Ang^3
#
#
#
# Elastic Constant Matrix: (Units=GPa)
#
#
# Indices 1 2 3 4 5 6 
#
# 1 21.5214 4.0798 -6.8452 -6.7887 8.2490 3.0107
# 2 4.0798 108.6393 32.1329 -0.7517 16.6552 11.4972
# 3 -6.8452 32.1329 64.4754 3.0950 3.2420 -14.9168
# 4 -6.7887 -0.7517 3.0950 33.4687 -8.7655 1.1988
# 5 8.2490 16.6552 3.2420 -8.7655 26.7655 -3.8969
# 6 3.0107 11.4972 -14.9168 1.1988 -3.8969 24.3257
#
#
#
# Elastic Compliance Matrix: (Units=1/GPa)
#
#
# Indices 1 2 3 4 5 6 
#
# 1 0.057877 -0.000361 0.005257 0.007055 -0.016934 -0.006829
# 2 -0.000361 0.015854 -0.011018 -0.001028 -0.011075 -0.015929
# 3 0.005257 -0.011018 0.026356 -0.001130 0.004810 0.021545
# 4 0.007055 -0.001028 -0.001130 0.033933 0.009537 -0.001225
# 5 -0.016934 -0.011075 0.004810 0.009537 0.054717 0.018576
# 6 -0.006829 -0.015929 0.021545 -0.001225 0.018576 0.065730
#
#
# Mechanical properties :
#
#
# Convention : Reuss Voigt Hill
#
# Bulk Modulus (GPa) = 11.38389 28.15235 19.76812
# Shear Modulus (GPa) = 16.89231 27.92987 22.41109
#
# Velocity S-wave (km/s) = 2.78303 3.57855 3.20556
# Velocity P-wave (km/s) = 3.94291 5.47565 4.77123
#
# Compressibility (1/GPa) = 0.08784345
#
# Stress axis : x y z
#
# Youngs Moduli (GPa) = 17.27793 63.07638 37.94172
#
# Poissons Ratio (x) = 0.02276 -0.19947
# Poissons Ratio (y) = 0.00624 0.41806
# Poissons Ratio (z) = -0.09084 0.69500
#
# Static dielectric constant tensor:
#      x y z
#    x 1.839300 -0.008600 -0.035400 
#    y -0.008600 1.829470 0.009170 
#    z -0.035400 0.009170 1.820930 
# 
# From -- ./inp_files/348447.got.cif
#   From: 2010.05.17/outbox.cif.g08.bks.cpg/sg2_175_cif.got.tgz:348447.got - 2010.06.03 11:33:40.
