data_PCOD9039794
_publ_section_title
;
Structure prediction by ZEFSAII (Michael W. Deem and Ramdas Pophale) SiO2 
 PCOD9039794
Probable space group: P -1
;
_chemical_formula_sum "Si O2"
_cell_formula_units_Z 14
_cell_length_a 31.657190
_cell_length_b 5.848880
_cell_length_c 9.148274
_cell_angle_alpha 119.893668
_cell_angle_beta 27.042047
_cell_angle_gamma 130.116719
_cell_volume 574.875892
_symmetry_space_group_name_H-M "P -1"
_symmetry_group_IT_number 2
_symmetry_cell_setting 'triclinic'
loop_
_space_group_symop_operation_xyz
x,y,z
-x,-y,-z
loop_
_atom_site_type_symbol
_atom_site_label
_atom_site_fract_x
_atom_site_fract_y
_atom_site_fract_z
Si Si1 0.027238 0.432981 0.052019
Si Si2 0.685062 0.795153 0.644664
Si Si3 0.174061 0.131525 0.501629
Si Si4 0.362944 0.687876 0.960481
Si Si5 0.488623 0.223535 0.219102
Si Si6 0.298814 0.318758 0.778118
Si Si7 0.939156 0.172504 0.676121
O O1 0.091861 0.717439 0.046791
O O2 0.097405 0.273592 0.773807
O O3 0.905642 0.210866 0.415888
O O4 0.000000 0.500000 0.000000
O O5 0.784957 0.845214 0.451853
O O6 0.687335 0.668559 0.436941
O O7 0.574504 0.553506 0.991161
O O8 0.681835 0.107361 0.766155
O O9 0.281689 0.339257 0.148694
O O10 0.472917 0.790612 0.740519
O O11 0.351141 0.641888 0.807753
O O12 0.370431 0.173330 0.561348
O O13 0.500000 0.000000 0.000000
O O14 0.172144 0.098133 0.133184
O O15 0.000000 0.500000 0.500000
O O16 0.000000 0.000000 0.500000
#
# Coordination Sequence:
#
# PCOD9039794 Si02
#       7
#     2   2   2   2   2   2   2
#     4  11  24  43  74  99 141 202 255 308 388 439
#     4  11  25  47  71 109 144 192 243 311 381 458
#     4  10  23  42  71 101 145 189 249 312 371 457
#     4  11  24  46  71 103 146 186 246 302 377 455
#     4  11  25  48  74 106 148 187 246 312 379 460
#     4  12  26  47  76 106 145 200 248 311 384 444
#     4  12  31  50  72 114 158 198 259 320 379 461
#
# _framework density 24.353082000000001
#
# number of rings (size 3 to 8) (size 9 to 14) (size 15 to 20)
#    0.000    0.857    1.429    4.286   12.000    0.571 
#    5.143    0.000    0.000    0.000    0.000    0.000 
#    0.000    0.000    0.000    0.000    0.000    0.000 
#
# Total GULP energy -78196.006969 kJ/mol
# GULP energy per Si atom -5585.429069 kJ/mol
# Density = 2.429765 g / cm^3
# Si number density = 24.353082 Si / 1000 Ang^3
#
#
#
# Elastic Constant Matrix: (Units=GPa)
#
#
# Indices 1 2 3 4 5 6 
#
# 1 189.0499 30.3784 44.9677 -1.9905 -16.5978 20.9603
# 2 30.3784 61.3754 14.4461 -13.1306 6.2115 12.1547
# 3 44.9677 14.4461 81.5559 -13.2782 -14.4646 -9.8470
# 4 -1.9905 -13.1306 -13.2782 35.4950 6.6637 6.4787
# 5 -16.5978 6.2115 -14.4646 6.6637 56.6021 5.9831
# 6 20.9603 12.1547 -9.8470 6.4787 5.9831 48.2958
#
#
#
# Elastic Compliance Matrix: (Units=1/GPa)
#
#
# Indices 1 2 3 4 5 6 
#
# 1 0.007114 -0.002558 -0.003798 -0.001744 0.001942 -0.003225
# 2 -0.002558 0.021471 -0.002372 0.008684 -0.004161 -0.005426
# 3 -0.003798 -0.002372 0.016383 0.003715 0.002389 0.004791
# 4 -0.001744 0.008684 0.003715 0.034308 -0.004050 -0.004772
# 5 0.001942 -0.004161 0.002389 -0.004050 0.019911 -0.001232
# 6 -0.003225 -0.005426 0.004791 -0.004772 -0.001232 0.025241
#
#
# Mechanical properties :
#
#
# Convention : Reuss Voigt Hill
#
# Bulk Modulus (GPa) = 36.34874 56.84061 46.59467
# Shear Modulus (GPa) = 33.10046 44.22453 38.66249
#
# Velocity S-wave (km/s) = 3.69072 4.26605 3.98877
# Velocity P-wave (km/s) = 5.75500 6.90336 6.35517
#
# Compressibility (1/GPa) = 0.02751127
#
# Stress axis : x y z
#
# Youngs Moduli (GPa) = 140.57234 46.57367 61.03908
#
# Poissons Ratio (x) = 0.11915 0.23183
# Poissons Ratio (y) = 0.35962 0.14479
# Poissons Ratio (z) = 0.53390 0.11048
#
# Static dielectric constant tensor:
#      x y z
#    x 1.992000 -0.039940 0.075870 
#    y -0.039940 1.998020 -0.046480 
#    z 0.075870 -0.046480 1.967550 
# 
# From -- ./inp_files/358273.got.cif
#   From: 2010.05.17/outbox.cif.g08.bks.cpg/sg2_180_cif.got.tgz:358273.got - 2010.06.03 11:33:40.
