data_PCOD9039977
_publ_section_title
;
Structure prediction by ZEFSAII (Michael W. Deem and Ramdas Pophale) SiO2 
 PCOD9039977
Probable space group: P -1
;
_chemical_formula_sum "Si O2"
_cell_formula_units_Z 14
_cell_length_a 26.900470
_cell_length_b 26.854012
_cell_length_c 14.763523
_cell_angle_alpha 17.314552
_cell_angle_beta 161.924349
_cell_angle_gamma 169.534197
_cell_volume 562.557099
_symmetry_space_group_name_H-M "P -1"
_symmetry_group_IT_number 2
_symmetry_cell_setting 'triclinic'
loop_
_space_group_symop_operation_xyz
x,y,z
-x,-y,-z
loop_
_atom_site_type_symbol
_atom_site_label
_atom_site_fract_x
_atom_site_fract_y
_atom_site_fract_z
Si Si1 0.375678 0.165345 0.197259
Si Si2 0.450789 0.648694 0.312062
Si Si3 0.783547 0.482519 0.211942
Si Si4 0.771522 0.942397 0.670988
Si Si5 0.239053 0.412542 0.545296
Si Si6 0.964070 0.972753 0.377232
Si Si7 0.734414 0.289829 0.283588
O O1 0.662692 0.462861 0.128241
O O2 0.360270 0.105941 0.379294
O O3 0.327083 0.954093 0.425013
O O4 0.192409 0.175899 0.850058
O O5 0.324582 0.580505 0.310315
O O6 0.786393 0.929035 0.402661
O O7 0.335979 0.664586 0.005280
O O8 0.332243 0.362691 0.578422
O O9 0.610249 0.267386 0.197828
O O10 0.939222 0.450328 0.575623
O O11 0.974496 0.791024 0.963237
O O12 0.511460 0.650720 0.668911
O O13 0.962614 0.226272 0.446151
O O14 0.000000 0.000000 0.000000
O O15 0.000000 0.000000 0.500000
#
# Coordination Sequence:
#
# PCOD9039977 Si02
#       7
#     2   2   2   2   2   2   2
#     4  11  23  41  72  98 137 181 229 286 358 405
#     4  12  26  46  71 103 145 189 231 294 350 414
#     4  11  25  45  68 102 142 189 236 284 346 426
#     4  10  23  42  73 107 134 171 243 300 340 412
#     4  11  23  44  72 106 134 180 240 295 344 407
#     4  12  25  45  73 100 141 190 244 285 341 411
#     4  11  27  42  67 104 146 188 227 287 351 435
#
# _framework density 24.886361999999998
#
# number of rings (size 3 to 8) (size 9 to 14) (size 15 to 20)
#    0.000    0.857    2.857    4.286    8.000    0.000 
#    0.000    1.429    0.000    0.000    0.000    0.000 
#    0.000    0.000    0.000    0.000    0.000    0.000 
#
# Total GULP energy -78209.939839 kJ/mol
# GULP energy per Si atom -5586.424274 kJ/mol
# Density = 2.482972 g / cm^3
# Si number density = 24.886362 Si / 1000 Ang^3
#
#
#
# Elastic Constant Matrix: (Units=GPa)
#
#
# Indices 1 2 3 4 5 6 
#
# 1 208.1166 43.7971 49.7098 10.7746 -26.5430 25.6870
# 2 43.7971 102.5964 13.7090 -0.2592 -4.5197 1.0006
# 3 49.7098 13.7090 85.4834 7.3462 -24.7688 5.7537
# 4 10.7746 -0.2592 7.3462 20.9538 -7.1145 -1.9096
# 5 -26.5430 -4.5197 -24.7688 -7.1145 33.0092 -6.3904
# 6 25.6870 1.0006 5.7537 -1.9096 -6.3904 50.0950
#
#
#
# Elastic Compliance Matrix: (Units=1/GPa)
#
#
# Indices 1 2 3 4 5 6 
#
# 1 0.006637 -0.002384 -0.002483 -0.002109 0.002135 -0.002878
# 2 -0.002384 0.010831 -0.000671 0.001563 -0.000389 0.001093
# 3 -0.002483 -0.000671 0.016177 -0.000956 0.009972 0.000664
# 4 -0.002109 0.001563 -0.000956 0.052995 0.010087 0.004467
# 5 0.002135 -0.000389 0.009972 0.010087 0.042302 0.003548
# 6 -0.002878 0.001093 0.000664 0.004467 0.003548 0.021963
#
#
# Mechanical properties :
#
#
# Convention : Reuss Voigt Hill
#
# Bulk Modulus (GPa) = 44.31376 67.84760 56.08068
# Shear Modulus (GPa) = 29.49785 40.07697 34.78741
#
# Velocity S-wave (km/s) = 3.44656 4.01733 3.74284
# Velocity P-wave (km/s) = 5.80374 6.98862 6.42356
#
# Compressibility (1/GPa) = 0.02256635
#
# Stress axis : x y z
#
# Youngs Moduli (GPa) = 150.67738 92.33072 61.81690
#
# Poissons Ratio (x) = 0.22016 0.15351
# Poissons Ratio (y) = 0.35929 0.04148
# Poissons Ratio (z) = 0.37419 0.06196
#
# Static dielectric constant tensor:
#      x y z
#    x 2.032040 0.083030 0.019150 
#    y 0.083030 2.188830 0.032170 
#    z 0.019150 0.032170 1.983780 
# 
# From -- ./inp_files/370159.got.cif
#   From: 2010.05.17/outbox.cif.g08.bks.cpg/sg2_186_cif.got.tgz:370159.got - 2010.06.03 11:33:40.
