data_PCOD9039621
_publ_section_title
;
Structure prediction by ZEFSAII (Michael W. Deem and Ramdas Pophale) SiO2 
 PCOD9039621
Probable space group: P -1
;
_chemical_formula_sum "Si O2"
_cell_formula_units_Z 12
_cell_length_a 14.447175
_cell_length_b 9.185402
_cell_length_c 23.895780
_cell_angle_alpha 31.599931
_cell_angle_beta 160.431968
_cell_angle_gamma 150.124412
_cell_volume 517.464985
_symmetry_space_group_name_H-M "P -1"
_symmetry_group_IT_number 2
_symmetry_cell_setting 'triclinic'
loop_
_space_group_symop_operation_xyz
x,y,z
-x,-y,-z
loop_
_atom_site_type_symbol
_atom_site_label
_atom_site_fract_x
_atom_site_fract_y
_atom_site_fract_z
Si Si1 0.957434 0.156421 0.981422
Si Si2 0.835231 0.158540 0.584610
Si Si3 0.291492 0.774004 0.845188
Si Si4 0.131890 0.321914 0.813866
Si Si5 0.297995 0.454621 0.344743
Si Si6 0.427921 0.404248 0.765694
O O1 0.252658 0.434199 0.076986
O O2 0.909254 0.918923 0.081505
O O3 0.688727 0.269956 0.777272
O O4 0.000000 0.000000 0.000000
O O5 0.652755 0.351881 0.394927
O O6 0.893746 0.204107 0.668469
O O7 0.158115 0.279759 0.697483
O O8 0.683481 0.817111 0.591376
O O9 0.154137 0.631963 0.753689
O O10 0.030846 0.646264 0.783074
O O11 0.419152 0.127837 0.812238
O O12 0.553062 0.648212 0.043268
O O13 0.500000 0.500000 0.500000
#
# Coordination Sequence:
#
# PCOD9039621 Si02
#       6
#     2   2   2   2   2   2
#     4  12  24  42  68  96 132 175 222 269 329 389
#     4  10  23  42  69  97 132 174 222 267 325 391
#     4  10  23  45  64  99 129 175 215 266 334 385
#     4  11  24  43  67 100 133 170 221 275 323 386
#     4  11  23  45  69  96 132 175 218 269 332 391
#     4  10  23  44  69  95 132 177 218 264 330 395
#
# _framework density 23.189976000000001
#
# number of rings (size 3 to 8) (size 9 to 14) (size 15 to 20)
#    0.000    1.333    1.667    3.000    2.333    6.667 
#    3.000    0.000    0.000    0.000    0.000    0.000 
#    0.000    0.000    0.000    0.000    0.000    0.000 
#
# Total GULP energy -67150.896653 kJ/mol
# GULP energy per Si atom -5595.908054 kJ/mol
# Density = 2.313719 g / cm^3
# Si number density = 23.189976 Si / 1000 Ang^3
#
#
#
# Elastic Constant Matrix: (Units=GPa)
#
#
# Indices 1 2 3 4 5 6 
#
# 1 116.7030 61.2503 65.2614 -3.3670 -19.2663 -31.5718
# 2 61.2503 157.6531 67.3498 -9.7819 -21.7605 -53.2639
# 3 65.2614 67.3498 119.5781 -0.9949 -39.7542 -25.3159
# 4 -3.3670 -9.7819 -0.9949 38.3750 -5.0243 4.8052
# 5 -19.2663 -21.7605 -39.7542 -5.0243 52.0318 10.7237
# 6 -31.5718 -53.2639 -25.3159 4.8052 10.7237 56.4472
#
#
#
# Elastic Compliance Matrix: (Units=1/GPa)
#
#
# Indices 1 2 3 4 5 6 
#
# 1 0.013631 -0.001627 -0.006116 0.000045 -0.001031 0.003538
# 2 -0.001627 0.011428 -0.003947 0.001618 -0.000338 0.008030
# 3 -0.006116 -0.003947 0.016660 0.000264 0.009134 -0.001432
# 4 0.000045 0.001618 0.000264 0.027150 0.003798 -0.001362
# 5 -0.001031 -0.000338 0.009134 0.003798 0.026485 -0.002154
# 6 0.003538 0.008030 -0.001432 -0.001362 -0.002154 0.027154
#
#
# Mechanical properties :
#
#
# Convention : Reuss Voigt Hill
#
# Bulk Modulus (GPa) = 54.53483 86.85081 70.69282
# Shear Modulus (GPa) = 32.89414 42.70897 37.80156
#
# Velocity S-wave (km/s) = 3.77034 4.29616 4.04181
# Velocity P-wave (km/s) = 6.52085 7.88305 7.23409
#
# Compressibility (1/GPa) = 0.01833691
#
# Stress axis : x y z
#
# Youngs Moduli (GPa) = 73.36063 87.50209 60.02508
#
# Poissons Ratio (x) = 0.14240 0.36714
# Poissons Ratio (y) = 0.11939 0.23695
# Poissons Ratio (z) = 0.44870 0.34541
#
# Static dielectric constant tensor:
#      x y z
#    x 1.884010 0.048400 0.011760 
#    y 0.048400 1.898700 0.011770 
#    z 0.011760 0.011770 1.862540 
# 
# From -- ./inp_files/152335.got.cif
#   From: 2010.05.17/outbox.cif.g08.bks.cpg/sg2_77_cif.got.tgz:152335.got - 2010.06.03 11:33:40.
