data_PCOD9039602
_publ_section_title
;
Structure prediction by ZEFSAII (Michael W. Deem and Ramdas Pophale) SiO2 
 PCOD9039602
Probable space group: P -1
;
_chemical_formula_sum "Si O2"
_cell_formula_units_Z 16
_cell_length_a 12.223061
_cell_length_b 13.881676
_cell_length_c 6.830111
_cell_angle_alpha 85.956574
_cell_angle_beta 129.346307
_cell_angle_gamma 73.890155
_cell_volume 812.278881
_symmetry_space_group_name_H-M "P -1"
_symmetry_group_IT_number 2
_symmetry_cell_setting 'triclinic'
loop_
_space_group_symop_operation_xyz
x,y,z
-x,-y,-z
loop_
_atom_site_type_symbol
_atom_site_label
_atom_site_fract_x
_atom_site_fract_y
_atom_site_fract_z
Si Si1 0.701444 0.605059 0.071914
Si Si2 0.049325 0.323059 0.487650
Si Si3 0.715155 0.895641 0.396969
Si Si4 0.764059 0.403412 0.420832
Si Si5 0.141866 0.525944 0.085438
Si Si6 0.816948 0.028042 0.780022
Si Si7 0.621332 0.085443 0.947438
Si Si8 0.371270 0.770160 0.736325
O O1 0.847554 0.614567 0.341048
O O2 0.684187 0.508420 0.180366
O O3 0.740435 0.571229 0.896181
O O4 0.554536 0.716832 0.904881
O O5 0.165456 0.208368 0.561837
O O6 0.936973 0.334408 0.540813
O O7 0.935312 0.379605 0.170964
O O8 0.562173 0.882196 0.301101
O O9 0.791790 0.933376 0.655160
O O10 0.666406 0.989509 0.167842
O O11 0.779829 0.442465 0.649594
O O12 0.679196 0.325844 0.326043
O O13 0.000000 0.500000 0.000000
O O14 0.730289 0.048859 0.887332
O O15 0.727788 0.134896 0.535720
O O16 0.000000 0.000000 0.000000
O O17 0.645981 0.179385 0.074837
#
# Coordination Sequence:
#
# PCOD9039602 Si02
#       8
#     2   2   2   2   2   2   2   2
#     4  11  22  43  63  93 127 165 216 258 304 379
#     4  11  22  38  68  93 122 168 215 253 313 374
#     4  10  23  42  69  95 121 170 211 261 321 370
#     4  11  24  40  63  94 129 167 210 258 312 374
#     4  11  21  38  62  93 127 160 208 261 305 365
#     4  11  27  43  64  99 130 161 213 264 320 383
#     4  10  23  46  66  91 130 160 215 269 310 382
#     4  11  26  42  64  94 126 173 206 256 328 370
#
# _framework density 19.697669000000001
#
# number of rings (size 3 to 8) (size 9 to 14) (size 15 to 20)
#    0.000    1.250    3.750    1.500    5.250    4.500 
#    0.000    0.000    0.000    0.000    0.000    0.000 
#    0.000    0.000    0.000    0.000    0.000    0.000 
#
# Total GULP energy -89390.023647 kJ/mol
# GULP energy per Si atom -5586.876478 kJ/mol
# Density = 1.965284 g / cm^3
# Si number density = 19.697669 Si / 1000 Ang^3
#
#
#
# Elastic Constant Matrix: (Units=GPa)
#
#
# Indices 1 2 3 4 5 6 
#
# 1 72.6297 24.7823 49.0818 17.2817 -4.4397 -24.5514
# 2 24.7823 98.2954 40.4221 26.7129 -3.5027 -27.2645
# 3 49.0818 40.4221 86.2263 22.2257 3.3339 -13.5322
# 4 17.2817 26.7129 22.2257 37.9837 -13.7550 5.5599
# 5 -4.4397 -3.5027 3.3339 -13.7550 25.4844 4.3184
# 6 -24.5514 -27.2645 -13.5322 5.5599 4.3184 41.4948
#
#
#
# Elastic Compliance Matrix: (Units=1/GPa)
#
#
# Indices 1 2 3 4 5 6 
#
# 1 0.031716 0.008532 -0.013841 -0.017352 -0.004699 0.022672
# 2 0.008532 0.022660 -0.005180 -0.024358 -0.011721 0.022731
# 3 -0.013841 -0.005180 0.023919 -0.007399 -0.009947 -0.001766
# 4 -0.017352 -0.024358 -0.007399 0.078072 0.044147 -0.043740
# 5 -0.004699 -0.011721 -0.009947 0.044147 0.066439 -0.026555
# 6 0.022672 0.022731 -0.001766 -0.043740 -0.026555 0.060498
#
#
# Mechanical properties :
#
#
# Convention : Reuss Voigt Hill
#
# Bulk Modulus (GPa) = 17.44680 53.96929 35.70805
# Shear Modulus (GPa) = 15.46138 30.51692 22.98915
#
# Velocity S-wave (km/s) = 2.80471 3.94034 3.41999
# Velocity P-wave (km/s) = 4.40057 6.93974 5.81055
#
# Compressibility (1/GPa) = 0.05731711
#
# Stress axis : x y z
#
# Youngs Moduli (GPa) = 31.52981 44.13153 41.80798
#
# Poissons Ratio (x) = -0.37654 0.57866
# Poissons Ratio (y) = -0.26902 0.21657
# Poissons Ratio (z) = 0.43640 0.22861
#
# Static dielectric constant tensor:
#      x y z
#    x 1.691300 0.008270 0.007960 
#    y 0.008270 1.687980 -0.003050 
#    z 0.007960 -0.003050 1.686300 
# 
# From -- ./inp_files/37395.got.cif
#   From: 2010.05.17/outbox.cif.g08.bks.cpg/sg2_19_cif.got.tgz:37395.got - 2010.06.03 11:33:40.
