data_PCOD9039572
_publ_section_title
;
Structure prediction by ZEFSAII (Michael W. Deem and Ramdas Pophale) SiO2 
 PCOD9039572
Probable space group: P -1
;
_chemical_formula_sum "Si O2"
_cell_formula_units_Z 15
_cell_length_a 12.480147
_cell_length_b 12.789662
_cell_length_c 5.098083
_cell_angle_alpha 90.794554
_cell_angle_beta 70.444763
_cell_angle_gamma 128.721936
_cell_volume 576.710448
_symmetry_space_group_name_H-M "P -1"
_symmetry_group_IT_number 2
_symmetry_cell_setting 'triclinic'
loop_
_space_group_symop_operation_xyz
x,y,z
-x,-y,-z
loop_
_atom_site_type_symbol
_atom_site_label
_atom_site_fract_x
_atom_site_fract_y
_atom_site_fract_z
Si Si1 0.105730 0.463106 0.922341
Si Si2 0.239855 0.235311 0.636904
Si Si3 0.336294 0.762065 0.584716
Si Si4 0.802787 0.591449 0.644883
Si Si5 0.518600 0.710983 0.213214
Si Si6 0.790469 0.959746 0.694332
Si Si7 0.000000 0.000000 0.000000
Si Si8 0.680942 0.122000 0.885318
O O1 0.114709 0.396240 0.162711
O O2 0.267041 0.617565 0.767405
O O3 0.089670 0.386449 0.672953
O O4 0.000000 0.500000 0.000000
O O5 0.234739 0.313727 0.411048
O O6 0.397843 0.315357 0.653429
O O7 0.167911 0.074302 0.615118
O O8 0.111279 0.175255 0.953931
O O9 0.499109 0.812838 0.376122
O O10 0.271052 0.759075 0.357908
O O11 0.306994 0.834354 0.821978
O O12 0.638972 0.432808 0.759327
O O13 0.632079 0.805585 0.887253
O O14 0.759139 0.063022 0.728401
O O15 0.907385 0.003084 0.823356
O O16 0.500000 0.000000 0.000000
#
# Coordination Sequence:
#
# PCOD9039572 Si02
#       8
#     2   2   2   2   2   2   1   2
#     4  11  26  48  71 102 139 183 231 291 346 418
#     4  11  25  45  71 100 142 185 233 288 350 425
#     4  11  24  43  67 101 142 174 233 286 346 408
#     4  11  26  45  76 104 138 182 236 285 357 421
#     4  10  23  42  69 104 142 178 228 300 350 411
#     4  11  25  42  70  96 147 181 237 291 347 418
#     4  10  26  46  62  96 140 184 236 278 352 404
#     4  12  24  40  69 104 134 184 228 283 354 408
#
# _framework density 26.009588999999998
#
# number of rings (size 3 to 8) (size 9 to 14) (size 15 to 20)
#    0.000    1.067    1.333    4.000   11.200    2.667 
#    0.000    0.000    0.000    0.000    0.000    0.000 
#    0.000    0.000    0.000    0.000    0.000    0.000 
#
# Total GULP energy -83693.898047 kJ/mol
# GULP energy per Si atom -5579.593203 kJ/mol
# Density = 2.595039 g / cm^3
# Si number density = 26.009589 Si / 1000 Ang^3
#
#
#
# Elastic Constant Matrix: (Units=GPa)
#
#
# Indices 1 2 3 4 5 6 
#
# 1 129.0988 33.7958 62.2879 -4.3766 22.2329 -21.8282
# 2 33.7958 72.9869 35.2730 6.8834 4.1512 -35.6477
# 3 62.2879 35.2730 129.9298 12.5401 26.4344 -20.0063
# 4 -4.3766 6.8834 12.5401 30.4870 -7.4965 3.6406
# 5 22.2329 4.1512 26.4344 -7.4965 46.1560 -4.5939
# 6 -21.8282 -35.6477 -20.0063 3.6406 -4.5939 41.2119
#
#
#
# Elastic Compliance Matrix: (Units=1/GPa)
#
#
# Indices 1 2 3 4 5 6 
#
# 1 0.011223 -0.002918 -0.004410 0.003509 -0.001973 0.000749
# 2 -0.002918 0.027594 -0.002096 -0.008185 0.000999 0.022139
# 3 -0.004410 -0.002096 0.012525 -0.006965 -0.005803 0.001900
# 4 0.003509 -0.008185 -0.006965 0.041494 0.008649 -0.011304
# 5 -0.001973 0.000999 -0.005803 0.008649 0.027182 -0.000733
# 6 0.000749 0.022139 0.001900 -0.011304 -0.000733 0.045651
#
#
# Mechanical properties :
#
#
# Convention : Reuss Voigt Hill
#
# Bulk Modulus (GPa) = 30.77600 66.08097 48.42849
# Shear Modulus (GPa) = 25.59528 36.94824 31.27176
#
# Velocity S-wave (km/s) = 3.14039 3.77312 3.47121
# Velocity P-wave (km/s) = 5.00077 6.66660 5.89284
#
# Compressibility (1/GPa) = 0.03249285
#
# Stress axis : x y z
#
# Youngs Moduli (GPa) = 89.10111 36.24031 79.84024
#
# Poissons Ratio (x) = 0.10576 0.35209
# Poissons Ratio (y) = 0.26002 0.16737
# Poissons Ratio (z) = 0.39293 0.07597
#
# Static dielectric constant tensor:
#      x y z
#    x 2.125820 0.039650 -0.369220 
#    y 0.039650 2.125070 -0.013760 
#    z -0.369220 -0.013760 2.795510 
# 
# From -- ./inp_files/66174.got.cif
#   From: 2010.05.17/outbox.cif.g08.bks.cpg/sg2_34_cif.got.tgz:66174.got - 2010.06.03 11:33:40.
