data_PCOD9039099
_publ_section_title
;
Structure prediction by ZEFSAII (Michael W. Deem and Ramdas Pophale) SiO2 
 PCOD9039099
Probable space group: P -1
;
_chemical_formula_sum "Si O2"
_cell_formula_units_Z 16
_cell_length_a 8.781340
_cell_length_b 14.945234
_cell_length_c 11.526575
_cell_angle_alpha 33.247765
_cell_angle_beta 100.044073
_cell_angle_gamma 109.903442
_cell_volume 761.773693
_symmetry_space_group_name_H-M "P -1"
_symmetry_group_IT_number 2
_symmetry_cell_setting 'triclinic'
loop_
_space_group_symop_operation_xyz
x,y,z
-x,-y,-z
loop_
_atom_site_type_symbol
_atom_site_label
_atom_site_fract_x
_atom_site_fract_y
_atom_site_fract_z
Si Si1 0.532977 0.323745 0.954673
Si Si2 0.847190 0.034510 0.246324
Si Si3 0.603678 0.159618 0.921777
Si Si4 0.087233 0.598848 0.788792
Si Si5 0.318595 0.891022 0.639815
Si Si6 0.805742 0.661661 0.542012
Si Si7 0.823278 0.523547 0.451294
Si Si8 0.201275 0.336567 0.957771
O O1 0.500194 0.206619 0.960485
O O2 0.630411 0.522913 0.712722
O O3 0.367935 0.296517 0.033673
O O4 0.657037 0.264496 0.112995
O O5 0.758268 0.011291 0.385123
O O6 0.837931 0.851342 0.391190
O O7 0.747507 0.114965 0.057281
O O8 0.033532 0.171880 0.135210
O O9 0.687058 0.334179 0.668161
O O10 0.500000 0.000000 0.000000
O O11 0.194960 0.797205 0.622176
O O12 0.196991 0.494017 0.867183
O O13 0.948299 0.595545 0.681166
O O14 0.000000 0.500000 0.000000
O O15 0.500000 0.000000 0.500000
O O16 0.813454 0.649800 0.417501
O O17 0.798061 0.599028 0.243838
O O18 0.000000 0.500000 0.500000
#
# Coordination Sequence:
#
# PCOD9039099 Si02
#       8
#     2   2   2   2   2   2   2   2
#     4  10  25  44  63  99 134 166 219 269 327 388
#     4  11  25  44  63  99 134 166 220 275 323 383
#     4  10  23  42  66  92 136 174 213 268 321 383
#     4  12  23  46  70  90 130 179 212 267 334 382
#     4  11  26  46  67  94 133 171 223 273 321 387
#     4  11  25  43  68  98 133 172 216 268 329 389
#     4  11  22  44  67  95 133 175 215 263 325 393
#     4  12  25  42  70  98 131 174 220 267 327 391
#
# _framework density 21.003615
#
# number of rings (size 3 to 8) (size 9 to 14) (size 15 to 20)
#    0.000    1.000    5.000    0.750    7.000    5.500 
#    0.000    0.000    0.000    0.000    0.000    0.000 
#    0.000    0.000    0.000    0.000    0.000    0.000 
#
# Total GULP energy -89516.930217 kJ/mol
# GULP energy per Si atom -5594.808139 kJ/mol
# Density = 2.095581 g / cm^3
# Si number density = 21.003615 Si / 1000 Ang^3
#
#
#
# Elastic Constant Matrix: (Units=GPa)
#
#
# Indices 1 2 3 4 5 6 
#
# 1 92.2152 26.6223 1.7242 -13.1054 -11.0033 -18.4758
# 2 26.6223 109.8763 16.6236 -20.1289 -15.2781 -18.3066
# 3 1.7242 16.6236 40.0092 -10.5045 -10.6959 -18.3935
# 4 -13.1054 -20.1289 -10.5045 37.7356 -1.2995 3.2957
# 5 -11.0033 -15.2781 -10.6959 -1.2995 35.7636 -0.8001
# 6 -18.4758 -18.3066 -18.3935 3.2957 -0.8001 37.5883
#
#
#
# Elastic Compliance Matrix: (Units=1/GPa)
#
#
# Indices 1 2 3 4 5 6 
#
# 1 0.014742 -0.000967 0.007975 0.006165 0.006961 0.010285
# 2 -0.000967 0.011935 0.000379 0.005869 0.005242 0.005120
# 3 0.007975 0.000379 0.043954 0.013622 0.016810 0.024776
# 4 0.006165 0.005869 0.013622 0.035061 0.009969 0.009693
# 5 0.006961 0.005242 0.016810 0.009969 0.038048 0.014136
# 6 0.010285 0.005120 0.024776 0.009693 0.014136 0.045728
#
#
# Mechanical properties :
#
#
# Convention : Reuss Voigt Hill
#
# Bulk Modulus (GPa) = 11.70917 36.89343 24.30130
# Shear Modulus (GPa) = 24.61062 35.35954 29.98508
#
# Velocity S-wave (km/s) = 3.42677 4.10750 3.78248
# Velocity P-wave (km/s) = 4.60912 6.33236 5.53817
#
# Compressibility (1/GPa) = 0.08540315
#
# Stress axis : x y z
#
# Youngs Moduli (GPa) = 67.83420 83.78425 22.75105
#
# Poissons Ratio (x) = 0.08105 -0.18143
# Poissons Ratio (y) = 0.06562 -0.00862
# Poissons Ratio (z) = -0.54095 -0.03173
#
# Static dielectric constant tensor:
#      x y z
#    x 1.760930 0.008260 0.020930 
#    y 0.008260 1.730600 0.011110 
#    z 0.020930 0.011110 1.748530 
# 
# From -- ./inp_files/187295.got.cif
#   From: 2010.05.17/outbox.cif.g08.bks.cpg/sg2_94_cif.got.tgz:187295.got - 2010.06.03 11:33:40.
