data_PCOD9039415
_publ_section_title
;
Structure prediction by ZEFSAII (Michael W. Deem and Ramdas Pophale) SiO2 
 PCOD9039415
Probable space group: P -1
;
_chemical_formula_sum "Si O2"
_cell_formula_units_Z 12
_cell_length_a 15.930992
_cell_length_b 5.759359
_cell_length_c 9.077034
_cell_angle_alpha 53.232851
_cell_angle_beta 44.339634
_cell_angle_gamma 67.213906
_cell_volume 465.048979
_symmetry_space_group_name_H-M "P -1"
_symmetry_group_IT_number 2
_symmetry_cell_setting 'triclinic'
loop_
_space_group_symop_operation_xyz
x,y,z
-x,-y,-z
loop_
_atom_site_type_symbol
_atom_site_label
_atom_site_fract_x
_atom_site_fract_y
_atom_site_fract_z
Si Si1 0.008832 0.272894 0.715788
Si Si2 0.568340 0.286408 0.382487
Si Si3 0.508293 0.347796 0.889808
Si Si4 0.876211 0.971739 0.762564
Si Si5 0.780848 0.459936 0.500960
Si Si6 0.813451 0.372088 0.163296
O O1 0.143886 0.279750 0.604680
O O2 0.000000 0.500000 0.500000
O O3 0.934416 0.007440 0.837177
O O4 0.931063 0.330356 0.934714
O O5 0.500000 0.500000 0.500000
O O6 0.591935 0.503194 0.133693
O O7 0.689203 0.192503 0.344238
O O8 0.500000 0.000000 0.500000
O O9 0.642676 0.470081 0.629104
O O10 0.500000 0.500000 0.000000
O O11 0.500000 0.000000 0.000000
O O12 0.797117 0.202940 0.695754
O O13 0.789923 0.688985 0.006410
O O14 0.000000 0.000000 0.500000
O O15 0.837005 0.379291 0.304448
#
# Coordination Sequence:
#
# PCOD9039415 Si02
#       6
#     2   2   2   2   2   2
#     4  10  23  42  68 106 141 188 244 305 381 445
#     4  12  28  52  75 112 155 198 264 321 386 458
#     4  12  28  50  80 112 153 206 260 324 386 461
#     4  11  24  45  71 106 152 194 247 316 389 457
#     4  11  25  47  72 111 145 193 262 306 387 467
#     4  12  25  47  74 101 149 196 246 320 377 459
#
# _framework density 25.803736000000001
#
# number of rings (size 3 to 8) (size 9 to 14) (size 15 to 20)
#    0.000    0.667    5.000    2.500    7.000    2.000 
#    0.000    0.000    0.000    0.000    0.000    0.000 
#    0.000    0.000    0.000    0.000    0.000    0.000 
#
# Total GULP energy -66899.490111 kJ/mol
# GULP energy per Si atom -5574.957509 kJ/mol
# Density = 2.574501 g / cm^3
# Si number density = 25.803736 Si / 1000 Ang^3
#
#
#
# Elastic Constant Matrix: (Units=GPa)
#
#
# Indices 1 2 3 4 5 6 
#
# 1 206.8291 49.9388 29.8404 -7.2428 -8.9867 28.5190
# 2 49.9388 100.1973 29.3851 -9.0335 6.8749 21.6150
# 3 29.8404 29.3851 66.1483 10.7985 6.8193 18.9862
# 4 -7.2428 -9.0335 10.7985 48.9261 10.2433 4.6133
# 5 -8.9867 6.8749 6.8193 10.2433 56.2856 -2.3161
# 6 28.5190 21.6150 18.9862 4.6133 -2.3161 52.8920
#
#
#
# Elastic Compliance Matrix: (Units=1/GPa)
#
#
# Indices 1 2 3 4 5 6 
#
# 1 0.005881 -0.002142 -0.001423 0.000714 0.001169 -0.001796
# 2 -0.002142 0.013597 -0.004565 0.003987 -0.002308 -0.003212
# 3 -0.001423 -0.004565 0.019901 -0.004764 -0.001385 -0.004156
# 4 0.000714 0.003987 -0.004764 0.023443 -0.004166 -0.002531
# 5 0.001169 -0.002308 -0.001385 -0.004166 0.019244 0.002016
# 6 -0.001796 -0.003212 -0.004156 -0.002531 0.002016 0.022988
#
#
# Mechanical properties :
#
#
# Convention : Reuss Voigt Hill
#
# Bulk Modulus (GPa) = 43.25543 65.72260 54.48902
# Shear Modulus (GPa) = 38.75340 49.22145 43.98742
#
# Velocity S-wave (km/s) = 3.87958 4.37227 4.13327
# Velocity P-wave (km/s) = 6.07189 7.14244 6.62881
#
# Compressibility (1/GPa) = 0.02311848
#
# Stress axis : x y z
#
# Youngs Moduli (GPa) = 170.04368 73.54302 50.24948
#
# Poissons Ratio (x) = 0.15755 0.07150
# Poissons Ratio (y) = 0.36428 0.22940
# Poissons Ratio (z) = 0.24195 0.33573
#
# Static dielectric constant tensor:
#      x y z
#    x 1.936580 -0.081910 -0.126840 
#    y -0.081910 2.317880 -0.088900 
#    z -0.126840 -0.088900 1.920480 
# 
# From -- ./inp_files/286712.got.cif
#   From: 2010.05.17/outbox.cif.g08.bks.cpg/sg2_144_cif.got.tgz:286712.got - 2010.06.03 11:33:40.
