data_PCOD9039025
_publ_section_title
;
Structure prediction by ZEFSAII (Michael W. Deem and Ramdas Pophale) SiO2 
 PCOD9039025
Probable space group: P -1
;
_chemical_formula_sum "Si O2"
_cell_formula_units_Z 14
_cell_length_a 9.150861
_cell_length_b 8.235898
_cell_length_c 9.560845
_cell_angle_alpha 65.607810
_cell_angle_beta 69.494551
_cell_angle_gamma 84.386745
_cell_volume 613.733337
_symmetry_space_group_name_H-M "P -1"
_symmetry_group_IT_number 2
_symmetry_cell_setting 'triclinic'
loop_
_space_group_symop_operation_xyz
x,y,z
-x,-y,-z
loop_
_atom_site_type_symbol
_atom_site_label
_atom_site_fract_x
_atom_site_fract_y
_atom_site_fract_z
Si Si1 0.875962 0.763179 0.175246
Si Si2 0.771635 0.575447 0.016425
Si Si3 0.401188 0.072191 0.664395
Si Si4 0.799192 0.332533 0.851002
Si Si5 0.518901 0.856360 0.922634
Si Si6 0.165977 0.559751 0.495222
Si Si7 0.323141 0.744644 0.620969
O O1 0.884269 0.693931 0.038868
O O2 0.737740 0.894788 0.192263
O O3 0.806806 0.611360 0.359366
O O4 0.054677 0.795179 0.154799
O O5 0.707465 0.413501 0.198126
O O6 0.846495 0.499400 0.877225
O O7 0.641388 0.709771 0.966249
O O8 0.499501 0.242592 0.505704
O O9 0.536551 0.968583 0.735145
O O10 0.320732 0.936854 0.627602
O O11 0.744219 0.385652 0.695699
O O12 0.646594 0.248368 0.002654
O O13 0.500000 0.000000 0.000000
O O14 0.200796 0.711933 0.545974
O O15 0.000000 0.500000 0.500000
#
# Coordination Sequence:
#
# PCOD9039025 Si02
#       7
#     2   2   2   2   2   2   2
#     4  10  23  42  65  97 130 176 214 268 328 396
#     4  11  23  42  70  96 127 171 224 267 327 389
#     4  11  23  41  65 100 137 168 222 270 334 386
#     4  11  23  41  65  95 135 168 217 268 331 386
#     4  12  24  41  62 100 132 166 216 275 328 380
#     4   9  21  41  64  93 129 174 223 262 323 392
#     4  10  23  42  68  96 131 177 219 273 322 394
#
# _framework density 22.811209999999999
#
# number of rings (size 3 to 8) (size 9 to 14) (size 15 to 20)
#    0.000    1.429    2.857    1.714    2.000    2.857 
#    0.000    2.857    0.000    0.000    0.000    0.000 
#    0.000    0.000    0.000    0.000    0.000    0.000 
#
# Total GULP energy -77980.522963 kJ/mol
# GULP energy per Si atom -5570.037355 kJ/mol
# Density = 2.275929 g / cm^3
# Si number density = 22.811210 Si / 1000 Ang^3
#
#
#
# Elastic Constant Matrix: (Units=GPa)
#
#
# Indices 1 2 3 4 5 6 
#
# 1 83.1945 29.9423 2.0545 7.8108 18.8249 3.9590
# 2 29.9423 52.8527 8.7208 20.4819 20.5395 19.6955
# 3 2.0545 8.7208 79.3018 4.9372 35.8827 12.1118
# 4 7.8108 20.4819 4.9372 36.6820 9.8698 9.7469
# 5 18.8249 20.5395 35.8827 9.8698 38.2068 5.4264
# 6 3.9590 19.6955 12.1118 9.7469 5.4264 33.5959
#
#
#
# Elastic Compliance Matrix: (Units=1/GPa)
#
#
# Indices 1 2 3 4 5 6 
#
# 1 0.016477 -0.008795 0.003437 0.002305 -0.007574 0.002529
# 2 -0.008795 0.042975 0.008928 -0.012222 -0.021097 -0.020423
# 3 0.003437 0.008928 0.027035 0.001841 -0.030804 -0.010944
# 4 0.002305 -0.012222 0.001841 0.035568 -0.005017 -0.003279
# 5 -0.007574 -0.021097 -0.030804 -0.005017 0.069398 0.014612
# 6 0.002529 -0.020423 -0.010944 -0.003279 0.014612 0.043977
#
#
# Mechanical properties :
#
#
# Convention : Reuss Voigt Hill
#
# Bulk Modulus (GPa) = 10.68047 32.97603 21.82825
# Shear Modulus (GPa) = 19.26798 33.33902 26.30350
#
# Velocity S-wave (km/s) = 2.90948 3.82713 3.39941
# Velocity P-wave (km/s) = 3.99738 5.83238 4.99978
#
# Compressibility (1/GPa) = 0.09362888
#
# Stress axis : x y z
#
# Youngs Moduli (GPa) = 60.68952 23.26922 36.98966
#
# Poissons Ratio (x) = 0.20464 -0.12715
# Poissons Ratio (y) = 0.53374 -0.33024
# Poissons Ratio (z) = -0.20861 -0.20775
#
# Static dielectric constant tensor:
#      x y z
#    x 1.852980 0.012350 0.030940 
#    y 0.012350 1.977830 -0.040000 
#    z 0.030940 -0.040000 1.996130 
# 
# From -- ./inp_files/157265.got.cif
#   From: 2010.05.17/outbox.cif.g08.bks.cpg/sg2_79_cif.got.tgz:157265.got - 2010.06.03 11:33:40.
