data_PCOD9039434
_publ_section_title
;
Structure prediction by ZEFSAII (Michael W. Deem and Ramdas Pophale) SiO2 
 PCOD9039434
Probable space group: P -1
;
_chemical_formula_sum "Si O2"
_cell_formula_units_Z 15
_cell_length_a 19.077497
_cell_length_b 6.750796
_cell_length_c 19.277403
_cell_angle_alpha 139.154447
_cell_angle_beta 27.492958
_cell_angle_gamma 137.066376
_cell_volume 734.075509
_symmetry_space_group_name_H-M "P -1"
_symmetry_group_IT_number 2
_symmetry_cell_setting 'triclinic'
loop_
_space_group_symop_operation_xyz
x,y,z
-x,-y,-z
loop_
_atom_site_type_symbol
_atom_site_label
_atom_site_fract_x
_atom_site_fract_y
_atom_site_fract_z
Si Si1 0.300353 0.227991 0.090944
Si Si2 0.233327 0.641096 0.667736
Si Si3 0.165729 0.278527 0.489200
Si Si4 0.500000 0.500000 0.500000
Si Si5 0.096516 0.310748 0.411522
Si Si6 0.951300 0.230813 0.890776
Si Si7 0.197018 0.229662 0.782053
Si Si8 0.572197 0.091103 0.885563
O O1 0.252295 0.312743 0.232831
O O2 0.360023 0.541679 0.079966
O O3 0.149335 0.033069 0.136730
O O4 0.436334 0.040819 0.933691
O O5 0.227502 0.487560 0.555599
O O6 0.382612 0.603862 0.570643
O O7 0.082470 0.454819 0.790806
O O8 0.218440 0.993947 0.761228
O O9 0.129533 0.447960 0.495625
O O10 0.292958 0.083900 0.301086
O O11 0.007882 0.033588 0.581217
O O12 0.347430 0.295937 0.619377
O O13 0.000000 0.500000 0.500000
O O14 0.042622 0.100097 0.837835
O O15 0.835650 0.441382 0.076798
O O16 0.500000 0.000000 0.000000
#
# Coordination Sequence:
#
# PCOD9039434 Si02
#       8
#     2   2   2   1   2   2   2   2
#     4  11  23  41  66  89 132 173 210 267 321 380
#     4  11  23  42  69  95 129 169 218 271 330 379
#     4  11  24  38  65  95 126 168 214 263 319 390
#     4  10  24  44  64  92 132 164 216 272 322 390
#     4  11  22  39  64  92 130 163 214 265 313 383
#     4  10  23  42  68  94 124 171 221 267 323 385
#     4  10  23  44  65  96 130 164 218 273 321 389
#     4  11  24  43  58  94 135 169 215 259 316 395
#
# _framework density 20.433865999999998
#
# number of rings (size 3 to 8) (size 9 to 14) (size 15 to 20)
#    0.000    1.333    4.000    0.800    3.733    1.067 
#    2.400    0.000    0.000    0.000    0.000    0.000 
#    0.000    0.000    0.000    0.000    0.000    0.000 
#
# Total GULP energy -83530.998329 kJ/mol
# GULP energy per Si atom -5568.733222 kJ/mol
# Density = 2.038736 g / cm^3
# Si number density = 20.433866 Si / 1000 Ang^3
#
#
#
# Elastic Constant Matrix: (Units=GPa)
#
#
# Indices 1 2 3 4 5 6 
#
# 1 119.6783 38.1545 12.2353 5.8881 -21.6487 -24.0057
# 2 38.1545 59.5208 21.5000 -18.9967 -9.8683 -16.6118
# 3 12.2353 21.5000 42.0939 -9.2512 -12.2972 -7.6178
# 4 5.8881 -18.9967 -9.2512 25.8949 -2.9310 -1.3452
# 5 -21.6487 -9.8683 -12.2972 -2.9310 32.7469 0.2284
# 6 -24.0057 -16.6118 -7.6178 -1.3452 0.2284 31.8370
#
#
#
# Elastic Compliance Matrix: (Units=1/GPa)
#
#
# Indices 1 2 3 4 5 6 
#
# 1 0.013935 -0.009895 0.001815 -0.008812 0.006086 0.005363
# 2 -0.009895 0.039802 -0.006852 0.030295 0.005501 0.012908
# 3 0.001815 -0.006852 0.033184 0.008117 0.012281 0.005988
# 4 -0.008812 0.030295 0.008117 0.067862 0.012329 0.013884
# 5 0.006086 0.005501 0.012281 0.012329 0.041860 0.010619
# 6 0.005363 0.012908 0.005988 0.013884 0.010619 0.044132
#
#
# Mechanical properties :
#
#
# Convention : Reuss Voigt Hill
#
# Bulk Modulus (GPa) = 17.52616 40.56361 29.04489
# Shear Modulus (GPa) = 17.26172 28.05598 22.65885
#
# Velocity S-wave (km/s) = 2.90963 3.70944 3.33361
# Velocity P-wave (km/s) = 4.45910 6.18392 5.39094
#
# Compressibility (1/GPa) = 0.05705756
#
# Stress axis : x y z
#
# Youngs Moduli (GPa) = 71.76269 25.12408 30.13492
#
# Poissons Ratio (x) = 0.24860 -0.05471
# Poissons Ratio (y) = 0.71009 0.20649
# Poissons Ratio (z) = -0.13028 0.17216
#
# Static dielectric constant tensor:
#      x y z
#    x 1.751640 -0.014770 -0.012510 
#    y -0.014770 1.706120 0.002690 
#    z -0.012510 0.002690 1.773550 
# 
# From -- ./inp_files/109120.got.cif
#   From: 2010.05.17/outbox.cif.g08.bks.cpg/sg2_55_cif.got.tgz:109120.got - 2010.06.03 11:33:40.
