data_PCOD9039492
_publ_section_title
;
Structure prediction by ZEFSAII (Michael W. Deem and Ramdas Pophale) SiO2 
 PCOD9039492
Probable space group: P -1
;
_chemical_formula_sum "Si O2"
_cell_formula_units_Z 14
_cell_length_a 5.118735
_cell_length_b 5.723032
_cell_length_c 23.439713
_cell_angle_alpha 83.311029
_cell_angle_beta 122.018004
_cell_angle_gamma 89.748470
_cell_volume 576.455897
_symmetry_space_group_name_H-M "P -1"
_symmetry_group_IT_number 2
_symmetry_cell_setting 'triclinic'
loop_
_space_group_symop_operation_xyz
x,y,z
-x,-y,-z
loop_
_atom_site_type_symbol
_atom_site_label
_atom_site_fract_x
_atom_site_fract_y
_atom_site_fract_z
Si Si1 0.934188 0.278420 0.709773
Si Si2 0.567962 0.999689 0.287267
Si Si3 0.076859 0.843009 0.569029
Si Si4 0.426628 0.407767 0.431833
Si Si5 0.988096 0.804516 0.853541
Si Si6 0.246044 0.662806 0.001007
Si Si7 0.731135 0.699811 0.147325
O O1 0.639559 0.219460 0.715443
O O2 0.815390 0.437231 0.639053
O O3 0.114415 0.053159 0.708184
O O4 0.203397 0.376154 0.777406
O O5 0.668127 0.082256 0.358727
O O6 0.347430 0.161754 0.215300
O O7 0.259258 0.616386 0.567372
O O8 0.763119 0.816896 0.568160
O O9 0.000000 0.000000 0.500000
O O10 0.500000 0.500000 0.500000
O O11 0.112009 0.536328 0.858994
O O12 0.144397 0.038550 0.843926
O O13 0.057802 0.827311 0.928654
O O14 0.415173 0.752505 0.073952
O O15 0.500000 0.500000 0.000000
O O16 0.000000 0.500000 0.000000
#
# Coordination Sequence:
#
# PCOD9039492 Si02
#       7
#     2   2   2   2   2   2   2
#     4  11  24  43  66  96 131 173 223 281 340 406
#     4  11  24  43  66  96 131 173 223 281 340 406
#     4  12  24  41  65  94 131 175 224 282 340 406
#     4  12  24  41  65  94 131 175 224 282 340 406
#     4  10  23  45  70 101 138 181 229 284 344 410
#     4  10  23  42  68  98 136 178 228 282 342 408
#     4  10  23  45  70 101 138 181 229 284 344 410
#
# _framework density 24.286332000000002
#
# number of rings (size 3 to 8) (size 9 to 14) (size 15 to 20)
#    0.000    1.143    0.000    5.571    0.000   12.571 
#    0.000    6.429    0.000    0.000    0.000    0.000 
#    0.000    0.000    0.000    0.000    0.000    0.000 
#
# Total GULP energy -78002.076040 kJ/mol
# GULP energy per Si atom -5571.576860 kJ/mol
# Density = 2.423106 g / cm^3
# Si number density = 24.286332 Si / 1000 Ang^3
#
#
#
# Elastic Constant Matrix: (Units=GPa)
#
#
# Indices 1 2 3 4 5 6 
#
# 1 82.4665 20.3808 11.2245 -1.7690 13.1465 3.9382
# 2 20.3808 -0.3398 16.9260 7.9848 -75.9730 -10.5805
# 3 11.2245 16.9260 273.4024 3.6878 -11.8697 -5.7667
# 4 -1.7690 7.9848 3.6878 49.0434 16.6074 2.5382
# 5 13.1465 -75.9730 -11.8697 16.6074 -104.8400 -12.0179
# 6 3.9382 -10.5805 -5.7667 2.5382 -12.0179 32.9197
#
#
#
# Elastic Compliance Matrix: (Units=1/GPa)
#
#
# Indices 1 2 3 4 5 6 
#
# 1 0.012252 -0.002377 -0.000228 -0.000240 0.003364 -0.001023
# 2 -0.002377 0.019714 -0.001742 0.001608 -0.014245 0.000991
# 3 -0.000228 -0.001742 0.003818 -0.000274 0.000710 0.000417
# 4 -0.000240 0.001608 -0.000274 0.019493 0.001957 -0.000291
# 5 0.003364 -0.014245 0.000710 0.001957 0.001929 -0.004303
# 6 -0.001023 0.000991 0.000417 -0.000291 -0.004303 0.029342
#
#
# Mechanical properties :
#
#
# Convention : Reuss Voigt Hill
#
# Bulk Modulus (GPa) = 36.91419 50.28799 43.60109
# Shear Modulus (GPa) = 47.95118 15.89115 31.92116
#
# Velocity S-wave (km/s) = 4.44825 2.56075 3.62935
# Velocity P-wave (km/s) = 6.45098 5.43089 5.96279
#
# Compressibility (1/GPa) = 0.02708986
#
# Stress axis : x y z
#
# Youngs Moduli (GPa) = 81.61887 50.72553 261.90637
#
# Poissons Ratio (x) = 0.12057 0.05976
# Poissons Ratio (y) = 0.19400 0.45628
# Poissons Ratio (z) = 0.01862 0.08837
#
# Static dielectric constant tensor:
#      x y z
#    x 2.272870 0.089420 -0.045680 
#    y 0.089420 2.092470 -0.120500 
#    z -0.045680 -0.120500 2.316330 
# 
# From -- ./inp_files/125559.got.cif
#   From: 2010.05.17/outbox.cif.g08.bks.cpg/sg2_63_cif.got.tgz:125559.got - 2010.06.03 11:33:40.
