data_PCOD9039674
_publ_section_title
;
Structure prediction by ZEFSAII (Michael W. Deem and Ramdas Pophale) SiO2 
 PCOD9039674
Probable space group: P -1
;
_chemical_formula_sum "Si O2"
_cell_formula_units_Z 16
_cell_length_a 14.139424
_cell_length_b 18.335040
_cell_length_c 27.635206
_cell_angle_alpha 19.632396
_cell_angle_beta 20.893802
_cell_angle_gamma 20.365382
_cell_volume 752.931938
_symmetry_space_group_name_H-M "P -1"
_symmetry_group_IT_number 2
_symmetry_cell_setting 'triclinic'
loop_
_space_group_symop_operation_xyz
x,y,z
-x,-y,-z
loop_
_atom_site_type_symbol
_atom_site_label
_atom_site_fract_x
_atom_site_fract_y
_atom_site_fract_z
Si Si1 0.561375 0.850700 0.977186
Si Si2 0.397568 0.190409 0.474008
Si Si3 0.797619 0.426261 0.436478
Si Si4 0.197545 0.641168 0.767697
Si Si5 0.785349 0.903232 0.184596
Si Si6 0.988595 0.238475 0.726826
Si Si7 0.102174 0.200261 0.341840
Si Si8 0.428087 0.384622 0.720609
O O1 0.833398 0.788929 0.847591
O O2 0.472603 0.114120 0.878749
O O3 0.703200 0.622840 0.089076
O O4 0.266390 0.848632 0.098675
O O5 0.671586 0.214524 0.353120
O O6 0.178213 0.465289 0.386507
O O7 0.217849 0.132268 0.638270
O O8 0.500000 0.000000 0.500000
O O9 0.500000 0.500000 0.500000
O O10 0.830520 0.666085 0.281001
O O11 0.717012 0.349476 0.573966
O O12 0.069170 0.229236 0.397545
O O13 0.363955 0.560646 0.687220
O O14 0.857085 0.830215 0.252060
O O15 0.436380 0.107497 0.221600
O O16 0.000000 0.000000 0.000000
O O17 0.868113 0.462082 0.266795
O O18 0.000000 0.000000 0.500000
#
# Coordination Sequence:
#
# PCOD9039674 Si02
#       8
#     2   2   2   2   2   2   2   2
#     4  10  24  42  66 102 135 168 221 281 338 402
#     4  10  23  46  70  96 132 177 222 277 341 410
#     4  10  23  43  68  97 125 179 232 272 326 400
#     4  10  23  42  70 100 131 173 225 273 343 403
#     4  12  27  45  69 101 145 178 224 289 345 400
#     4  10  25  44  66  99 140 170 221 281 345 396
#     4  11  25  45  68  98 133 180 234 276 329 402
#     4  11  23  39  75  94 133 173 230 277 330 395
#
# _framework density 21.250260000000001
#
# number of rings (size 3 to 8) (size 9 to 14) (size 15 to 20)
#    0.000    1.500    2.500    1.125    7.000    8.500 
#    0.000    0.000    0.000    0.000    0.000    0.000 
#    0.000    0.000    0.000    0.000    0.000    0.000 
#
# Total GULP energy -89468.443551 kJ/mol
# GULP energy per Si atom -5591.777722 kJ/mol
# Density = 2.120189 g / cm^3
# Si number density = 21.250260 Si / 1000 Ang^3
#
#
#
# Elastic Constant Matrix: (Units=GPa)
#
#
# Indices 1 2 3 4 5 6 
#
# 1 91.9006 52.8002 52.6792 2.0090 -3.7919 32.5516
# 2 52.8002 127.4758 69.5482 15.9437 -13.1345 33.0872
# 3 52.6792 69.5482 128.5421 13.2771 -21.9662 18.5974
# 4 2.0090 15.9437 13.2771 32.2624 6.1105 1.9382
# 5 -3.7919 -13.1345 -21.9662 6.1105 28.2774 1.2854
# 6 32.5516 33.0872 18.5974 1.9382 1.2854 49.1838
#
#
#
# Elastic Compliance Matrix: (Units=1/GPa)
#
#
# Indices 1 2 3 4 5 6 
#
# 1 0.018759 -0.003512 -0.005788 0.004214 -0.004162 -0.007921
# 2 -0.003512 0.014097 -0.004068 -0.005571 0.004372 -0.005516
# 3 -0.005788 -0.004068 0.014410 -0.005453 0.009657 0.001081
# 4 0.004214 -0.005571 -0.005453 0.038390 -0.014641 0.001891
# 5 -0.004162 0.004372 0.009657 -0.014641 0.047707 -0.004508
# 6 -0.007921 -0.005516 0.001081 0.001891 -0.004508 0.028920
#
#
# Mechanical properties :
#
#
# Convention : Reuss Voigt Hill
#
# Bulk Modulus (GPa) = 48.70772 77.55264 63.13018
# Shear Modulus (GPa) = 25.52823 33.47077 29.49950
#
# Velocity S-wave (km/s) = 3.46976 3.97303 3.72989
# Velocity P-wave (km/s) = 6.24684 7.59083 6.95140
#
# Compressibility (1/GPa) = 0.02053063
#
# Stress axis : x y z
#
# Youngs Moduli (GPa) = 53.30836 70.93517 69.39784
#
# Poissons Ratio (x) = 0.24911 0.40168
# Poissons Ratio (y) = 0.18721 0.28229
# Poissons Ratio (z) = 0.30856 0.28854
#
# Static dielectric constant tensor:
#      x y z
#    x 1.788760 -0.012520 0.036720 
#    y -0.012520 1.767620 0.021480 
#    z 0.036720 0.021480 1.763110 
# 
# From -- ./inp_files/619722.got.cif
#   From: 2010.05.17/outbox.cif.g08.bks.cpg/sg2_310_cif.got.tgz:619722.got - 2010.06.03 11:33:40.
