data_PCOD9039366
_publ_section_title
;
Structure prediction by ZEFSAII (Michael W. Deem and Ramdas Pophale) SiO2 
 PCOD9039366
Probable space group: P -1
;
_chemical_formula_sum "Si O2"
_cell_formula_units_Z 16
_cell_length_a 8.804752
_cell_length_b 20.544520
_cell_length_c 12.281646
_cell_angle_alpha 146.842655
_cell_angle_beta 37.124094
_cell_angle_gamma 133.628252
_cell_volume 731.659596
_symmetry_space_group_name_H-M "P -1"
_symmetry_group_IT_number 2
_symmetry_cell_setting 'triclinic'
loop_
_space_group_symop_operation_xyz
x,y,z
-x,-y,-z
loop_
_atom_site_type_symbol
_atom_site_label
_atom_site_fract_x
_atom_site_fract_y
_atom_site_fract_z
Si Si1 0.015161 0.226947 0.921525
Si Si2 0.723236 0.244185 0.897969
Si Si3 0.444260 0.637125 0.217606
Si Si4 0.417372 0.503478 0.676106
Si Si5 0.194846 0.616524 0.558267
Si Si6 0.303389 0.021672 0.522949
Si Si7 0.134579 0.931721 0.730638
Si Si8 0.972300 0.312152 0.642134
O O1 0.282231 0.296091 0.842450
O O2 0.816215 0.255633 0.983528
O O3 0.081611 0.089399 0.688699
O O4 0.920647 0.277140 0.159841
O O5 0.631696 0.108437 0.737928
O O6 0.949579 0.264660 0.711427
O O7 0.563074 0.354983 0.112948
O O8 0.280047 0.659588 0.450377
O O9 0.283632 0.655704 0.226618
O O10 0.500000 0.500000 0.000000
O O11 0.500000 0.500000 0.500000
O O12 0.576086 0.430849 0.568154
O O13 0.144540 0.433336 0.723820
O O14 0.000000 0.500000 0.500000
O O15 0.198426 0.005051 0.683948
O O16 0.572303 0.096046 0.453315
O O17 0.968598 0.807959 0.626457
O O18 0.000000 0.000000 0.000000
#
# Coordination Sequence:
#
# PCOD9039366 Si02
#       8
#     2   2   2   2   2   2   2   2
#     4  12  24  44  67 102 138 179 227 278 342 405
#     4  11  24  45  68  94 139 179 227 279 335 410
#     4  12  23  42  67  97 138 174 222 282 337 400
#     4  12  24  43  66 101 134 175 226 280 343 404
#     4  12  26  42  68 103 136 179 224 282 347 403
#     4  10  24  43  67  99 135 181 229 273 338 401
#     4  10  23  42  68 101 133 179 225 280 332 402
#     4  11  24  44  67  99 130 180 223 276 344 398
#
# _framework density 21.868093999999999
#
# number of rings (size 3 to 8) (size 9 to 14) (size 15 to 20)
#    0.000    0.750    3.750    3.750    3.500    0.000 
#    0.000    0.000    0.000    5.250    0.000    0.000 
#    0.000    0.000    0.000    0.000    0.000    0.000 
#
# Total GULP energy -89228.337118 kJ/mol
# GULP energy per Si atom -5576.771070 kJ/mol
# Density = 2.181832 g / cm^3
# Si number density = 21.868094 Si / 1000 Ang^3
#
#
#
# Elastic Constant Matrix: (Units=GPa)
#
#
# Indices 1 2 3 4 5 6 
#
# 1 63.1224 11.9800 8.5370 -5.2555 6.8174 -4.3530
# 2 11.9800 60.0205 26.4975 -0.0172 8.3792 6.1680
# 3 8.5370 26.4975 122.0970 6.7248 19.3756 -9.2962
# 4 -5.2555 -0.0172 6.7248 41.4396 -13.5059 7.3351
# 5 6.8174 8.3792 19.3756 -13.5059 33.8486 -1.4830
# 6 -4.3530 6.1680 -9.2962 7.3351 -1.4830 27.4625
#
#
#
# Elastic Compliance Matrix: (Units=1/GPa)
#
#
# Indices 1 2 3 4 5 6 
#
# 1 0.017008 -0.003461 0.000091 0.000890 -0.002127 0.003151
# 2 -0.003461 0.020279 -0.004479 0.000986 -0.001671 -0.006973
# 3 0.000091 -0.004479 0.010972 -0.005048 -0.006954 0.005707
# 4 0.000890 0.000986 -0.005048 0.031495 0.014620 -0.009412
# 5 -0.002127 -0.001671 -0.006954 0.014620 0.040022 -0.004060
# 6 0.003151 -0.006973 0.005707 -0.009412 -0.004060 0.042705
#
#
# Mechanical properties :
#
#
# Convention : Reuss Voigt Hill
#
# Bulk Modulus (GPa) = 30.71272 37.69655 34.20464
# Shear Modulus (GPa) = 26.45017 33.76517 30.10767
#
# Velocity S-wave (km/s) = 3.48161 3.93369 3.71453
# Velocity P-wave (km/s) = 5.49883 6.15690 5.83715
#
# Compressibility (1/GPa) = 0.03255979
#
# Stress axis : x y z
#
# Youngs Moduli (GPa) = 58.79554 49.31109 91.14112
#
# Poissons Ratio (x) = 0.17068 -0.00825
# Poissons Ratio (y) = 0.20351 0.40823
# Poissons Ratio (z) = -0.00532 0.22087
#
# Static dielectric constant tensor:
#      x y z
#    x 1.763760 -0.053980 -0.036010 
#    y -0.053980 1.681100 -0.041250 
#    z -0.036010 -0.041250 1.836860 
# 
# From -- ./inp_files/405655.got.cif
#   From: 2010.05.17/outbox.cif.g08.bks.cpg/sg2_203_cif.got.tgz:405655.got - 2010.06.03 11:33:40.
