data_PCOD9039374
_publ_section_title
;
Structure prediction by ZEFSAII (Michael W. Deem and Ramdas Pophale) SiO2 
 PCOD9039374
Probable space group: P -1
;
_chemical_formula_sum "Si O2"
_cell_formula_units_Z 14
_cell_length_a 8.696646
_cell_length_b 24.554009
_cell_length_c 12.392241
_cell_angle_alpha 152.055798
_cell_angle_beta 150.831993
_cell_angle_gamma 37.228578
_cell_volume 600.776230
_symmetry_space_group_name_H-M "P -1"
_symmetry_group_IT_number 2
_symmetry_cell_setting 'triclinic'
loop_
_space_group_symop_operation_xyz
x,y,z
-x,-y,-z
loop_
_atom_site_type_symbol
_atom_site_label
_atom_site_fract_x
_atom_site_fract_y
_atom_site_fract_z
Si Si1 0.213535 0.322043 0.739391
Si Si2 0.339806 0.487377 0.266020
Si Si3 0.142229 0.049666 0.894711
Si Si4 0.142864 0.903349 0.834429
Si Si5 0.725091 0.605078 0.528187
Si Si6 0.109516 0.156481 0.846611
Si Si7 0.470973 0.252830 0.546324
O O1 0.421046 0.293165 0.709888
O O2 0.007907 0.446305 0.810719
O O3 0.994499 0.218653 0.441520
O O4 0.374330 0.355389 0.008907
O O5 0.500000 0.500000 0.500000
O O6 0.494346 0.562805 0.402394
O O7 0.201374 0.167603 0.203079
O O8 0.988968 0.078830 0.735446
O O9 0.500000 0.000000 0.000000
O O10 0.020288 0.956461 0.736745
O O11 0.529908 0.889006 0.047493
O O12 0.000000 0.000000 0.000000
O O13 0.569285 0.644500 0.386932
O O14 0.000000 0.500000 0.500000
O O15 0.847882 0.720468 0.854676
O O16 0.824136 0.184091 0.636103
#
# Coordination Sequence:
#
# PCOD9039374 Si02
#       7
#     2   2   2   2   2   2   2
#     4  11  24  44  69 105 136 189 229 289 360 417
#     4  11  25  46  69  98 143 180 235 295 354 418
#     4   9  21  41  66  93 143 182 229 287 345 410
#     4  11  21  45  71 100 144 185 236 295 351 416
#     4  11  23  43  71 102 140 186 232 290 351 420
#     4  10  23  42  68 101 138 186 234 288 351 413
#     4  11  23  43  72 104 141 179 244 284 347 432
#
# _framework density 23.303187000000001
#
# number of rings (size 3 to 8) (size 9 to 14) (size 15 to 20)
#    0.000    1.429    2.857    1.714    0.000    8.000 
#    0.000    2.143    0.000    0.000    0.000    0.000 
#    0.000    0.000    0.000    0.000    0.000    0.000 
#
# Total GULP energy -78228.513907 kJ/mol
# GULP energy per Si atom -5587.750993 kJ/mol
# Density = 2.325015 g / cm^3
# Si number density = 23.303187 Si / 1000 Ang^3
#
#
#
# Elastic Constant Matrix: (Units=GPa)
#
#
# Indices 1 2 3 4 5 6 
#
# 1 143.2344 63.2771 56.2843 0.9572 -12.9865 5.4318
# 2 63.2771 135.9477 35.3613 -8.7037 -4.5542 6.6421
# 3 56.2843 35.3613 108.6955 3.7869 -15.4642 9.2848
# 4 0.9572 -8.7037 3.7869 33.7757 -1.6621 -9.4925
# 5 -12.9865 -4.5542 -15.4642 -1.6621 37.2291 12.1747
# 6 5.4318 6.6421 9.2848 -9.4925 12.1747 41.2525
#
#
#
# Elastic Compliance Matrix: (Units=1/GPa)
#
#
# Indices 1 2 3 4 5 6 
#
# 1 0.010332 -0.003797 -0.003783 -0.000937 0.001731 -0.000624
# 2 -0.003797 0.009626 -0.001352 0.002727 -0.000607 0.000061
# 3 -0.003783 -0.001352 0.012781 -0.002623 0.005103 -0.004271
# 4 -0.000937 0.002727 -0.002623 0.032918 -0.002413 0.008562
# 5 0.001731 -0.000607 0.005103 -0.002413 0.033207 -0.011634
# 6 -0.000624 0.000061 -0.004271 0.008562 -0.011634 0.030678
#
#
# Mechanical properties :
#
#
# Convention : Reuss Voigt Hill
#
# Bulk Modulus (GPa) = 67.22303 77.52481 72.37392
# Shear Modulus (GPa) = 32.81617 37.98180 35.39898
#
# Velocity S-wave (km/s) = 3.75671 4.04158 3.90174
# Velocity P-wave (km/s) = 6.90846 7.42423 7.17099
#
# Compressibility (1/GPa) = 0.01487585
#
# Stress axis : x y z
#
# Youngs Moduli (GPa) = 96.78523 103.88601 78.24158
#
# Poissons Ratio (x) = 0.39443 0.29597
# Poissons Ratio (y) = 0.36747 0.10579
# Poissons Ratio (z) = 0.36612 0.14046
#
# Static dielectric constant tensor:
#      x y z
#    x 1.972480 -0.055510 -0.032070 
#    y -0.055510 1.975520 -0.040950 
#    z -0.032070 -0.040950 2.058280 
# 
# From -- ./inp_files/406927.got.cif
#   From: 2010.05.17/outbox.cif.g08.bks.cpg/sg2_204_cif.got.tgz:406927.got - 2010.06.03 11:33:40.
