data_PCOD9039894
_publ_section_title
;
Structure prediction by ZEFSAII (Michael W. Deem and Ramdas Pophale) SiO2 
 PCOD9039894
Probable space group: P -1
;
_chemical_formula_sum "Si O2"
_cell_formula_units_Z 16
_cell_length_a 9.082671
_cell_length_b 21.503484
_cell_length_c 13.996219
_cell_angle_alpha 161.042695
_cell_angle_beta 53.432499
_cell_angle_gamma 128.398465
_cell_volume 695.595574
_symmetry_space_group_name_H-M "P -1"
_symmetry_group_IT_number 2
_symmetry_cell_setting 'triclinic'
loop_
_space_group_symop_operation_xyz
x,y,z
-x,-y,-z
loop_
_atom_site_type_symbol
_atom_site_label
_atom_site_fract_x
_atom_site_fract_y
_atom_site_fract_z
Si Si1 0.587885 0.564421 0.162150
Si Si2 0.642731 0.215838 0.762441
Si Si3 0.134486 0.941782 0.943425
Si Si4 0.515557 0.140615 0.022162
Si Si5 0.696186 0.341904 0.430535
Si Si6 0.371944 0.305365 0.146466
Si Si7 0.146865 0.021560 0.389262
Si Si8 0.054908 0.973085 0.696887
O O1 0.440991 0.617762 0.373200
O O2 0.756205 0.755741 0.357222
O O3 0.500000 0.500000 0.000000
O O4 0.635520 0.367271 0.900183
O O5 0.500000 0.000000 0.500000
O O6 0.849891 0.176009 0.615485
O O7 0.564855 0.312166 0.023643
O O8 0.131628 0.735538 0.699954
O O9 0.111964 0.090386 0.254605
O O10 0.334581 0.969267 0.856460
O O11 0.000000 0.000000 0.000000
O O12 0.590302 0.186223 0.166797
O O13 0.426933 0.296053 0.222476
O O14 0.677748 0.078087 0.807233
O O15 0.723393 0.530393 0.623980
O O16 0.221670 0.105553 0.886720
O O17 0.000000 0.000000 0.500000
O O18 0.027891 0.913696 0.189392
#
# Coordination Sequence:
#
# PCOD9039894 Si02
#       8
#     2   2   2   2   2   2   2   2
#     4  11  26  44  74 106 139 193 246 294 363 432
#     4   9  22  42  72  98 141 188 234 298 357 425
#     4  12  24  42  70 102 134 191 237 288 360 434
#     4  12  23  47  71 102 143 193 233 299 370 426
#     4  11  24  45  71 103 144 185 242 303 356 431
#     4  10  23  42  72 101 141 189 240 297 362 426
#     4  12  27  44  74 108 148 188 243 301 368 430
#     4  11  23  44  66 104 143 187 237 290 365 429
#
# _framework density 23.001873
#
# number of rings (size 3 to 8) (size 9 to 14) (size 15 to 20)
#    0.000    1.000    3.750    2.250   10.500    1.000 
#    0.000    2.500    0.000    0.000    0.000    0.000 
#    0.000    0.000    0.000    0.000    0.000    0.000 
#
# Total GULP energy -89102.577976 kJ/mol
# GULP energy per Si atom -5568.911124 kJ/mol
# Density = 2.294952 g / cm^3
# Si number density = 23.001873 Si / 1000 Ang^3
#
#
#
# Elastic Constant Matrix: (Units=GPa)
#
#
# Indices 1 2 3 4 5 6 
#
# 1 117.7923 47.8374 36.2819 -6.5330 -30.2667 -16.7202
# 2 47.8374 120.1566 25.3233 -7.5672 -16.5328 -7.0839
# 3 36.2819 25.3233 72.5690 16.1086 -28.8300 0.1473
# 4 -6.5330 -7.5672 16.1086 37.3871 -6.0508 -10.9783
# 5 -30.2667 -16.5328 -28.8300 -6.0508 33.3787 -0.2054
# 6 -16.7202 -7.0839 0.1473 -10.9783 -0.2054 43.3572
#
#
#
# Elastic Compliance Matrix: (Units=1/GPa)
#
#
# Indices 1 2 3 4 5 6 
#
# 1 0.014939 -0.002771 -0.004276 0.007641 0.009911 0.007304
# 2 -0.002771 0.010410 -0.002584 0.003340 0.001026 0.001492
# 3 -0.004276 -0.002584 0.025033 -0.011167 0.014410 -0.004915
# 4 0.007641 0.003340 -0.011167 0.038442 0.005988 0.013292
# 5 0.009911 0.001026 0.014410 0.005988 0.053022 0.005708
# 6 0.007304 0.001492 -0.004915 0.013292 0.005708 0.029534
#
#
# Mechanical properties :
#
#
# Convention : Reuss Voigt Hill
#
# Bulk Modulus (GPa) = 32.13275 58.82258 45.47766
# Shear Modulus (GPa) = 24.87394 36.22962 30.55178
#
# Velocity S-wave (km/s) = 3.29201 3.97302 3.64844
# Velocity P-wave (km/s) = 5.33383 6.83191 6.12882
#
# Compressibility (1/GPa) = 0.03112090
#
# Stress axis : x y z
#
# Youngs Moduli (GPa) = 66.93899 96.06390 39.94747
#
# Poissons Ratio (x) = 0.26620 0.17080
# Poissons Ratio (y) = 0.18549 0.10322
# Poissons Ratio (z) = 0.28620 0.24821
#
# Static dielectric constant tensor:
#      x y z
#    x 1.896320 0.011490 -0.005640 
#    y 0.011490 1.923960 0.024170 
#    z -0.005640 0.024170 1.980720 
# 
# From -- ./inp_files/508171.got.cif
#   From: 2010.05.17/outbox.cif.g08.bks.cpg/sg2_255_cif.got.tgz:508171.got - 2010.06.03 11:33:40.
