data_PCOD9039986
_publ_section_title
;
Structure prediction by ZEFSAII (Michael W. Deem and Ramdas Pophale) SiO2 
 PCOD9039986
Probable space group: P -1
;
_chemical_formula_sum "Si O2"
_cell_formula_units_Z 16
_cell_length_a 14.545304
_cell_length_b 13.497387
_cell_length_c 12.944811
_cell_angle_alpha 144.892441
_cell_angle_beta 148.615606
_cell_angle_gamma 46.674811
_cell_volume 760.519144
_symmetry_space_group_name_H-M "P -1"
_symmetry_group_IT_number 2
_symmetry_cell_setting 'triclinic'
loop_
_space_group_symop_operation_xyz
x,y,z
-x,-y,-z
loop_
_atom_site_type_symbol
_atom_site_label
_atom_site_fract_x
_atom_site_fract_y
_atom_site_fract_z
Si Si1 0.804937 0.424313 0.243555
Si Si2 0.642461 0.203341 0.061474
Si Si3 0.637337 0.774408 0.364710
Si Si4 0.813395 0.578262 0.852476
Si Si5 0.819553 0.871768 0.948509
Si Si6 0.149494 0.875909 0.131235
Si Si7 0.499314 0.387286 0.257828
Si Si8 0.471856 0.722142 0.388251
O O1 0.697717 0.583037 0.230396
O O2 0.000000 0.500000 0.500000
O O3 0.732976 0.377451 0.248201
O O4 0.816685 0.247073 0.038985
O O5 0.498039 0.161857 0.797396
O O6 0.799044 0.073641 0.117562
O O7 0.545704 0.224433 0.094908
O O8 0.540422 0.749776 0.360615
O O9 0.789851 0.923733 0.652996
O O10 0.866178 0.747855 0.980802
O O11 0.678534 0.451876 0.546702
O O12 0.674688 0.629321 0.852463
O O13 0.000000 0.500000 0.000000
O O14 0.620905 0.813226 0.678457
O O15 0.953768 0.850304 0.964874
O O16 0.282771 0.803867 0.282688
O O17 0.457969 0.530417 0.254302
#
# Coordination Sequence:
#
# PCOD9039986 Si02
#       8
#     2   2   2   2   2   2   2   2
#     4  12  25  39  64  97 144 193 233 271 324 399
#     4  12  23  44  63 103 142 177 227 278 336 413
#     4  12  23  42  65  99 145 188 226 267 330 412
#     4  10  23  48  71  97 122 171 232 289 355 410
#     4  11  25  41  68  97 134 175 227 282 339 398
#     4  12  24  41  64  97 143 189 225 269 331 398
#     4  10  23  42  73  95 131 169 227 289 345 404
#     4  11  20  42  65  94 135 185 217 272 332 403
#
# _framework density 21.038260999999999
#
# number of rings (size 3 to 8) (size 9 to 14) (size 15 to 20)
#    0.000    0.750    3.750    4.500    1.750    2.000 
#    2.250    0.625    0.000    0.000    0.000    0.000 
#    0.000    0.000    0.000    0.000    0.000    0.000 
#
# Total GULP energy -89293.161178 kJ/mol
# GULP energy per Si atom -5580.822574 kJ/mol
# Density = 2.099038 g / cm^3
# Si number density = 21.038261 Si / 1000 Ang^3
#
#
#
# Elastic Constant Matrix: (Units=GPa)
#
#
# Indices 1 2 3 4 5 6 
#
# 1 98.5815 40.4654 11.7208 7.3941 -0.7298 6.5673
# 2 40.4654 149.5349 19.3326 -12.3197 -2.3289 3.3731
# 3 11.7208 19.3326 56.6937 -1.7283 9.9895 8.6818
# 4 7.3941 -12.3197 -1.7283 32.2482 -3.5196 -5.8077
# 5 -0.7298 -2.3289 9.9895 -3.5196 26.1748 -2.5073
# 6 6.5673 3.3731 8.6818 -5.8077 -2.5073 23.4220
#
#
#
# Elastic Compliance Matrix: (Units=1/GPa)
#
#
# Indices 1 2 3 4 5 6 
#
# 1 0.012340 -0.003581 -0.000738 -0.005040 -0.000754 -0.004001
# 2 -0.003581 0.008377 -0.002762 0.004549 0.002524 0.002220
# 3 -0.000738 -0.002762 0.021778 -0.002428 -0.009778 -0.009116
# 4 -0.005040 0.004549 -0.002428 0.036634 0.007220 0.011515
# 5 -0.000754 0.002524 -0.009778 0.007220 0.044067 0.009979
# 6 -0.004001 0.002220 -0.009116 0.011515 0.009979 0.050800
#
#
# Mechanical properties :
#
#
# Convention : Reuss Voigt Hill
#
# Bulk Modulus (GPa) = 35.29441 49.76086 42.52763
# Shear Modulus (GPa) = 25.30312 31.92173 28.61242
#
# Velocity S-wave (km/s) = 3.47179 3.89950 3.69184
# Velocity P-wave (km/s) = 5.73444 6.63165 6.19929
#
# Compressibility (1/GPa) = 0.02833310
#
# Stress axis : x y z
#
# Youngs Moduli (GPa) = 81.03434 119.36740 45.91768
#
# Poissons Ratio (x) = 0.42742 0.03390
# Poissons Ratio (y) = 0.29016 0.12684
# Poissons Ratio (z) = 0.05983 0.32974
#
# Static dielectric constant tensor:
#      x y z
#    x 1.738160 -0.015720 -0.029680 
#    y -0.015720 1.835230 0.033740 
#    z -0.029680 0.033740 1.824150 
# 
# From -- ./inp_files/534643.got.cif
#   From: 2010.05.17/outbox.cif.g08.bks.cpg/sg2_268_cif.got.tgz:534643.got - 2010.06.03 11:33:40.
