data_PCOD9039246
_publ_section_title
;
Structure prediction by ZEFSAII (Michael W. Deem and Ramdas Pophale) SiO2 
 PCOD9039246
Probable space group: P -1
;
_chemical_formula_sum "Si O2"
_cell_formula_units_Z 16
_cell_length_a 27.153510
_cell_length_b 11.541053
_cell_length_c 8.949120
_cell_angle_alpha 140.371366
_cell_angle_beta 29.195051
_cell_angle_gamma 149.520624
_cell_volume 692.066717
_symmetry_space_group_name_H-M "P -1"
_symmetry_group_IT_number 2
_symmetry_cell_setting 'triclinic'
loop_
_space_group_symop_operation_xyz
x,y,z
-x,-y,-z
loop_
_atom_site_type_symbol
_atom_site_label
_atom_site_fract_x
_atom_site_fract_y
_atom_site_fract_z
Si Si1 0.106527 0.708202 0.319496
Si Si2 0.701045 0.401686 0.383073
Si Si3 0.513444 0.652580 0.253020
Si Si4 0.999416 0.301218 0.727870
Si Si5 0.270602 0.030158 0.792196
Si Si6 0.285775 0.616380 0.326423
Si Si7 0.657317 0.601112 0.270608
Si Si8 0.849735 0.860019 0.264615
O O1 0.034508 0.706356 0.362719
O O2 0.000000 0.500000 0.500000
O O3 0.173010 0.951140 0.465023
O O4 0.209945 0.672898 0.961026
O O5 0.573127 0.271842 0.494115
O O6 0.670669 0.375812 0.612914
O O7 0.784505 0.667683 0.374793
O O8 0.653184 0.854259 0.140176
O O9 0.445453 0.495035 0.422315
O O10 0.500000 0.500000 0.000000
O O11 0.140248 0.384099 0.466497
O O12 0.000000 0.500000 0.000000
O O13 0.876243 0.073419 0.900418
O O14 0.330242 0.213864 0.685625
O O15 0.281543 0.828412 0.527111
O O16 0.363370 0.596891 0.974947
O O17 0.787514 0.724747 0.141838
O O18 0.000000 0.000000 0.000000
#
# Coordination Sequence:
#
# PCOD9039246 Si02
#       8
#     2   2   2   2   2   2   2   2
#     4  12  24  42  71 103 151 185 238 291 349 434
#     4  11  25  45  68 102 143 184 238 293 351 416
#     4  11  27  51  73 101 144 185 250 296 345 429
#     4  10  23  42  67 107 144 180 230 284 353 425
#     4  11  25  46  74  99 142 194 232 288 362 407
#     4  11  25  45  71 108 144 177 239 291 356 437
#     4  11  27  44  72 104 136 187 235 300 351 421
#     4  11  25  40  67 105 143 189 228 282 366 412
#
# _framework density 23.119157999999999
#
# number of rings (size 3 to 8) (size 9 to 14) (size 15 to 20)
#    0.000    1.000    3.750    1.875   12.250    1.500 
#    0.000    2.500    0.000    0.000    0.000    0.000 
#    0.000    0.000    0.000    0.000    0.000    0.000 
#
# Total GULP energy -89581.509193 kJ/mol
# GULP energy per Si atom -5598.844325 kJ/mol
# Density = 2.306654 g / cm^3
# Si number density = 23.119158 Si / 1000 Ang^3
#
#
#
# Elastic Constant Matrix: (Units=GPa)
#
#
# Indices 1 2 3 4 5 6 
#
# 1 83.2158 5.2482 18.5746 -0.3835 14.9284 -9.9519
# 2 5.2482 62.3447 32.8779 19.2584 3.2086 -7.3700
# 3 18.5746 32.8779 94.5292 12.6014 23.8954 -1.7040
# 4 -0.3835 19.2584 12.6014 37.8991 8.5529 -9.5526
# 5 14.9284 3.2086 23.8954 8.5529 43.6369 -7.3822
# 6 -9.9519 -7.3700 -1.7040 -9.5526 -7.3822 42.9017
#
#
#
# Elastic Compliance Matrix: (Units=1/GPa)
#
#
# Indices 1 2 3 4 5 6 
#
# 1 0.013460 -0.000371 -0.001903 0.002493 -0.003528 0.002931
# 2 -0.000371 0.023301 -0.007974 -0.009760 0.005082 0.002301
# 3 -0.001903 -0.007974 0.015647 -0.000061 -0.007748 -0.002537
# 4 0.002493 -0.009760 -0.000061 0.034095 -0.005857 0.005483
# 5 -0.003528 0.005082 -0.007748 -0.005857 0.029743 0.003561
# 6 0.002931 0.002301 -0.002537 0.005483 0.003561 0.026117
#
#
# Mechanical properties :
#
#
# Convention : Reuss Voigt Hill
#
# Bulk Modulus (GPa) = 31.33616 39.27679 35.30647
# Shear Modulus (GPa) = 28.81900 37.11348 32.96624
#
# Velocity S-wave (km/s) = 3.53447 4.01098 3.78024
# Velocity P-wave (km/s) = 5.49911 6.20293 5.86160
#
# Compressibility (1/GPa) = 0.03191202
#
# Stress axis : x y z
#
# Youngs Moduli (GPa) = 74.29360 42.91589 63.91021
#
# Poissons Ratio (x) = 0.01593 0.12165
# Poissons Ratio (y) = 0.02758 0.50959
# Poissons Ratio (z) = 0.14141 0.34219
#
# Static dielectric constant tensor:
#      x y z
#    x 1.823350 -0.009850 -0.048000 
#    y -0.009850 1.842510 -0.038230 
#    z -0.048000 -0.038230 1.894810 
# 
# From -- ./inp_files/357081.got.cif
#   From: 2010.05.17/outbox.cif.g08.bks.cpg/sg2_179_cif.got.tgz:357081.got - 2010.06.03 11:33:40.
