data_PCOD9039454
_publ_section_title
;
Structure prediction by ZEFSAII (Michael W. Deem and Ramdas Pophale) SiO2 
 PCOD9039454
Probable space group: P -1
;
_chemical_formula_sum "Si O2"
_cell_formula_units_Z 12
_cell_length_a 5.740994
_cell_length_b 8.946144
_cell_length_c 14.662674
_cell_angle_alpha 56.229198
_cell_angle_beta 98.693604
_cell_angle_gamma 126.069361
_cell_volume 488.309065
_symmetry_space_group_name_H-M "P -1"
_symmetry_group_IT_number 2
_symmetry_cell_setting 'triclinic'
loop_
_space_group_symop_operation_xyz
x,y,z
-x,-y,-z
loop_
_atom_site_type_symbol
_atom_site_label
_atom_site_fract_x
_atom_site_fract_y
_atom_site_fract_z
Si Si1 0.242371 0.175454 0.165815
Si Si2 0.183440 0.313019 0.761717
Si Si3 0.901052 0.599666 0.065928
Si Si4 0.781373 0.539764 0.785901
Si Si5 0.338278 0.594681 0.505396
Si Si6 0.767647 0.049581 0.435554
O O1 0.597280 0.345917 0.116162
O O2 0.222320 0.267618 0.230117
O O3 0.099317 0.236649 0.058857
O O4 0.073260 0.909410 0.233460
O O5 0.091284 0.325265 0.854235
O O6 0.480080 0.335418 0.789752
O O7 0.320110 0.531749 0.632029
O O8 0.156658 0.571685 0.092417
O O9 0.035876 0.692416 0.675001
O O10 0.500000 0.500000 0.500000
O O11 0.000000 0.500000 0.500000
O O12 0.569332 0.862909 0.409137
O O13 0.500000 0.000000 0.500000
O O14 0.000000 0.000000 0.500000
#
# Coordination Sequence:
#
# PCOD9039454 Si02
#       6
#     2   2   2   2   2   2
#     4  10  23  43  65 100 132 171 226 281 340 407
#     4  11  24  42  67  96 134 176 226 278 344 406
#     4  10  23  42  68  96 133 174 222 282 342 408
#     4  11  24  41  68  96 132 179 222 279 342 409
#     4  12  27  44  68 102 137 178 232 284 338 411
#     4  12  25  45  70  99 139 181 228 283 344 409
#
# _framework density 24.5746
#
# number of rings (size 3 to 8) (size 9 to 14) (size 15 to 20)
#    0.000    1.000    1.667    4.000    7.000    2.000 
#    0.000    0.000    0.000    0.000    0.000    0.000 
#    0.000    0.000    0.000    0.000    0.000    0.000 
#
# Total GULP energy -66982.082737 kJ/mol
# GULP energy per Si atom -5581.840228 kJ/mol
# Density = 2.451867 g / cm^3
# Si number density = 24.574600 Si / 1000 Ang^3
#
#
#
# Elastic Constant Matrix: (Units=GPa)
#
#
# Indices 1 2 3 4 5 6 
#
# 1 114.5403 23.1317 10.2265 11.8482 -1.7384 11.9671
# 2 23.1317 103.3745 -15.6007 -9.3623 -9.0930 6.9213
# 3 10.2265 -15.6007 54.8494 16.8751 -0.1874 2.8790
# 4 11.8482 -9.3623 16.8751 36.3270 1.0606 -4.0968
# 5 -1.7384 -9.0930 -0.1874 1.0606 47.4609 15.8951
# 6 11.9671 6.9213 2.8790 -4.0968 15.8951 42.7858
#
#
#
# Elastic Compliance Matrix: (Units=1/GPa)
#
#
# Indices 1 2 3 4 5 6 
#
# 1 0.010064 -0.002490 -0.001283 -0.003701 0.000990 -0.003048
# 2 -0.002490 0.011278 0.003213 0.001898 0.002774 -0.002193
# 3 -0.001283 0.003213 0.022539 -0.009659 0.001993 -0.003343
# 4 -0.003701 0.001898 -0.009659 0.034412 -0.002449 0.005583
# 5 0.000990 0.002774 0.001993 -0.002449 0.025203 -0.010457
# 6 -0.003048 -0.002193 -0.003343 0.005583 -0.010457 0.029224
#
#
# Mechanical properties :
#
#
# Convention : Reuss Voigt Hill
#
# Bulk Modulus (GPa) = 23.38507 34.25324 28.81915
# Shear Modulus (GPa) = 33.76276 42.31521 38.03898
#
# Velocity S-wave (km/s) = 3.71062 4.15409 3.93860
# Velocity P-wave (km/s) = 5.28156 6.08090 5.69527
#
# Compressibility (1/GPa) = 0.04276233
#
# Stress axis : x y z
#
# Youngs Moduli (GPa) = 99.36245 88.66603 44.36834
#
# Poissons Ratio (x) = 0.22074 0.05690
# Poissons Ratio (y) = 0.24737 -0.14254
# Poissons Ratio (z) = 0.12743 -0.28486
#
# Static dielectric constant tensor:
#      x y z
#    x 2.065270 -0.035470 -0.034090 
#    y -0.035470 1.932620 0.056000 
#    z -0.034090 0.056000 1.924310 
# 
# From -- ./inp_files/31048.got.cif
#   From: 2010.05.17/outbox.cif.g08.bks.cpg/sg2_16_cif.got.tgz:31048.got - 2010.06.03 11:33:40.
