data_PCOD9039325
_publ_section_title
;
Structure prediction by ZEFSAII (Michael W. Deem and Ramdas Pophale) SiO2 
 PCOD9039325
Probable space group: P -1
;
_chemical_formula_sum "Si O2"
_cell_formula_units_Z 14
_cell_length_a 8.738740
_cell_length_b 18.498883
_cell_length_c 6.738438
_cell_angle_alpha 83.687930
_cell_angle_beta 100.100960
_cell_angle_gamma 141.278847
_cell_volume 670.198786
_symmetry_space_group_name_H-M "P -1"
_symmetry_group_IT_number 2
_symmetry_cell_setting 'triclinic'
loop_
_space_group_symop_operation_xyz
x,y,z
-x,-y,-z
loop_
_atom_site_type_symbol
_atom_site_label
_atom_site_fract_x
_atom_site_fract_y
_atom_site_fract_z
Si Si1 0.734911 0.263888 0.363635
Si Si2 0.374602 0.354170 0.699591
Si Si3 0.474594 0.066241 0.091464
Si Si4 0.652191 0.896067 0.327521
Si Si5 0.955842 0.090596 0.637926
Si Si6 0.264692 0.592212 0.928399
Si Si7 0.735981 0.525808 0.377671
O O1 0.681829 0.169577 0.262128
O O2 0.550573 0.201966 0.528155
O O3 0.676530 0.309653 0.190508
O O4 0.013023 0.372270 0.471292
O O5 0.528406 0.421305 0.512790
O O6 0.334603 0.421685 0.744842
O O7 0.115094 0.221311 0.636649
O O8 0.529447 0.361043 0.884882
O O9 0.224123 0.976229 0.192824
O O10 0.465355 0.121459 0.897362
O O11 0.500000 0.000000 0.000000
O O12 0.849538 0.905132 0.322950
O O13 0.791130 0.014590 0.429056
O O14 0.235396 0.522536 0.770505
O O15 0.000000 0.500000 0.000000
#
# Coordination Sequence:
#
# PCOD9039325 Si02
#       7
#     2   2   2   2   2   2   2
#     4  11  25  42  73  97 135 178 225 271 333 393
#     4  11  25  44  68  97 141 173 223 273 338 388
#     4  11  26  42  68 102 133 172 222 272 337 394
#     4  10  23  43  69  95 134 172 226 272 329 392
#     4  10  23  42  67  98 128 180 217 277 326 398
#     4  12  25  43  69 101 132 177 227 271 325 399
#     4  11  26  44  66 101 138 179 219 273 336 395
#
# _framework density 20.889326000000001
#
# number of rings (size 3 to 8) (size 9 to 14) (size 15 to 20)
#    0.000    1.143    1.429    3.000    8.000    4.571 
#    2.571    0.000    0.000    0.000    0.000    0.000 
#    0.000    0.000    0.000    0.000    0.000    0.000 
#
# Total GULP energy -78303.929423 kJ/mol
# GULP energy per Si atom -5593.137816 kJ/mol
# Density = 2.084178 g / cm^3
# Si number density = 20.889326 Si / 1000 Ang^3
#
#
#
# Elastic Constant Matrix: (Units=GPa)
#
#
# Indices 1 2 3 4 5 6 
#
# 1 61.6045 11.8475 37.4375 -13.6216 -19.2873 -22.8813
# 2 11.8475 114.9270 53.2677 -23.5897 -13.2119 -10.8167
# 3 37.4375 53.2677 82.2531 -2.8070 -14.2780 1.5387
# 4 -13.6216 -23.5897 -2.8070 16.8595 -1.7232 -10.4363
# 5 -19.2873 -13.2119 -14.2780 -1.7232 45.1060 12.9918
# 6 -22.8813 -10.8167 1.5387 -10.4363 12.9918 18.0793
#
#
#
# Elastic Compliance Matrix: (Units=1/GPa)
#
#
# Indices 1 2 3 4 5 6 
#
# 1 0.001402 -0.010067 0.006400 -0.026069 0.005543 -0.023825
# 2 -0.010067 0.005492 0.001397 -0.010828 0.002384 -0.017537
# 3 0.006400 0.001397 0.008896 0.020620 0.001217 0.019206
# 4 -0.026069 -0.010828 0.020620 -0.001275 0.005354 -0.045809
# 5 0.005543 0.002384 0.001217 0.005354 0.028418 -0.008993
# 6 -0.023825 -0.017537 0.019206 -0.045809 -0.008993 -0.006949
#
#
# Mechanical properties :
#
#
# Convention : Reuss Voigt Hill
#
# Bulk Modulus (GPa) = 88.88938 51.54333 70.21635
# Shear Modulus (GPa) = 112.93366 26.42443 69.67905
#
# Velocity S-wave (km/s) = 7.36072 3.56050 5.78176
# Velocity P-wave (km/s) = 10.71845 6.45221 8.84636
#
# Compressibility (1/GPa) = 0.01124994
#
# Stress axis : x y z
#
# Youngs Moduli (GPa) = 713.51816 182.07007 112.41451
#
# Poissons Ratio (x) = 1.83283 -0.71940
# Poissons Ratio (y) = 7.18273 -0.15708
# Poissons Ratio (z) = -4.56619 -0.25441
#
# Static dielectric constant tensor:
#      x y z
#    x 1.783440 -0.021260 0.025300 
#    y -0.021260 1.734700 0.010350 
#    z 0.025300 0.010350 1.711710 
# 
# From -- ./inp_files/24022.got.cif
#   From: 2010.05.17/outbox.cif.g08.bks.cpg/sg2_13_cif.got.tgz:24022.got - 2010.06.03 11:33:40.
