data_PCOD9039739
_publ_section_title
;
Structure prediction by ZEFSAII (Michael W. Deem and Ramdas Pophale) SiO2 
 PCOD9039739
Probable space group: P -1
;
_chemical_formula_sum "Si O2"
_cell_formula_units_Z 16
_cell_length_a 8.580472
_cell_length_b 14.631484
_cell_length_c 12.830520
_cell_angle_alpha 112.279245
_cell_angle_beta 66.039420
_cell_angle_gamma 56.589569
_cell_volume 753.114135
_symmetry_space_group_name_H-M "P -1"
_symmetry_group_IT_number 2
_symmetry_cell_setting 'triclinic'
loop_
_space_group_symop_operation_xyz
x,y,z
-x,-y,-z
loop_
_atom_site_type_symbol
_atom_site_label
_atom_site_fract_x
_atom_site_fract_y
_atom_site_fract_z
Si Si1 0.122213 0.870507 0.817496
Si Si2 0.673531 0.858389 0.181716
Si Si3 0.302856 0.204927 0.527571
Si Si4 0.808827 0.813548 0.890958
Si Si5 0.186531 0.604563 0.084056
Si Si6 0.126835 0.946328 0.618181
Si Si7 0.849789 0.536479 0.451287
Si Si8 0.557277 0.246460 0.751966
O O1 0.030946 0.947132 0.756516
O O2 0.489989 0.694263 0.637958
O O3 0.012460 0.813292 0.844302
O O4 0.000000 0.000000 0.000000
O O5 0.556344 0.812067 0.242714
O O6 0.993644 0.740034 0.096986
O O7 0.413796 0.067159 0.358539
O O8 0.727671 0.814123 0.027331
O O9 0.621391 0.091678 0.440849
O O10 0.139235 0.378489 0.596274
O O11 0.068794 0.274351 0.704374
O O12 0.982955 0.642388 0.710207
O O13 0.500000 0.000000 0.000000
O O14 0.500000 0.500000 0.000000
O O15 0.287056 0.448072 0.949076
O O16 0.308835 0.791417 0.415626
O O17 0.831957 0.123207 0.708821
O O18 0.000000 0.500000 0.500000
#
# Coordination Sequence:
#
# PCOD9039739 Si02
#       8
#     2   2   2   2   2   2   2   2
#     4  11  24  44  70 101 141 181 232 285 340 408
#     4  12  25  43  72  97 139 182 226 280 344 405
#     4  11  24  45  66  96 138 177 224 281 339 408
#     4  12  25  45  70 105 137 180 233 285 346 411
#     4  12  27  42  65 101 140 175 229 275 345 407
#     4  10  23  42  70  94 138 176 224 274 346 395
#     4  11  25  45  71  98 138 183 231 285 343 405
#     4  11  24  42  69 101 134 177 225 280 340 412
#
# _framework density 21.245121000000001
#
# number of rings (size 3 to 8) (size 9 to 14) (size 15 to 20)
#    0.000    0.750    1.250    6.375    7.000    2.000 
#    0.000    0.000    0.000    0.000    0.000    0.000 
#    0.000    0.000    0.000    0.000    0.000    0.000 
#
# Total GULP energy -89453.180579 kJ/mol
# GULP energy per Si atom -5590.823786 kJ/mol
# Density = 2.119677 g / cm^3
# Si number density = 21.245121 Si / 1000 Ang^3
#
#
#
# Elastic Constant Matrix: (Units=GPa)
#
#
# Indices 1 2 3 4 5 6 
#
# 1 64.9651 35.0426 20.0489 3.0466 24.6037 -2.4341
# 2 35.0426 89.8636 45.2052 -0.5587 15.3276 -10.9910
# 3 20.0489 45.2052 127.9700 0.7431 41.7280 0.6041
# 4 3.0466 -0.5587 0.7431 41.2294 3.2876 1.2578
# 5 24.6037 15.3276 41.7280 3.2876 43.3220 7.5161
# 6 -2.4341 -10.9910 0.6041 1.2578 7.5161 38.5303
#
#
#
# Elastic Compliance Matrix: (Units=1/GPa)
#
#
# Indices 1 2 3 4 5 6 
#
# 1 0.024837 -0.008990 0.004274 -0.000873 -0.015314 0.001954
# 2 -0.008990 0.017466 -0.006137 0.000568 0.004155 0.003681
# 3 0.004274 -0.006137 0.013783 0.000418 -0.013732 0.000968
# 4 -0.000873 0.000568 0.000418 0.024481 -0.001909 -0.000326
# 5 -0.015314 0.004155 -0.013732 -0.001909 0.045123 -0.008307
# 6 0.001954 0.003681 0.000968 -0.000326 -0.008307 0.028743
#
#
# Mechanical properties :
#
#
# Convention : Reuss Voigt Hill
#
# Bulk Modulus (GPa) = 29.08627 53.71021 41.39824
# Shear Modulus (GPa) = 26.65268 36.78314 31.71791
#
# Velocity S-wave (km/s) = 3.54578 4.16549 3.86806
# Velocity P-wave (km/s) = 5.52122 6.96212 6.28311
#
# Compressibility (1/GPa) = 0.03438049
#
# Stress axis : x y z
#
# Youngs Moduli (GPa) = 40.26261 57.25516 72.55196
#
# Poissons Ratio (x) = 0.51470 -0.31008
# Poissons Ratio (y) = 0.36194 0.44525
# Poissons Ratio (z) = -0.17208 0.35137
#
# Static dielectric constant tensor:
#      x y z
#    x 1.760340 -0.002300 0.015290 
#    y -0.002300 1.783940 0.000120 
#    z 0.015290 0.000120 1.736400 
# 
# From -- ./inp_files/271339.got.cif
#   From: 2010.05.17/outbox.cif.g08.bks.cpg/sg2_136_cif.got.tgz:271339.got - 2010.06.03 11:33:40.
