data_PCOD9039892
_publ_section_title
;
Structure prediction by ZEFSAII (Michael W. Deem and Ramdas Pophale) SiO2 
 PCOD9039892
Probable space group: P -1
;
_chemical_formula_sum "Si O2"
_cell_formula_units_Z 16
_cell_length_a 14.240857
_cell_length_b 12.122766
_cell_length_c 8.540661
_cell_angle_alpha 102.255259
_cell_angle_beta 123.861899
_cell_angle_gamma 39.817177
_cell_volume 716.593911
_symmetry_space_group_name_H-M "P -1"
_symmetry_group_IT_number 2
_symmetry_cell_setting 'triclinic'
loop_
_space_group_symop_operation_xyz
x,y,z
-x,-y,-z
loop_
_atom_site_type_symbol
_atom_site_label
_atom_site_fract_x
_atom_site_fract_y
_atom_site_fract_z
Si Si1 0.539061 0.561688 0.423108
Si Si2 0.151898 0.884717 0.968572
Si Si3 0.849482 0.876231 0.117934
Si Si4 0.692850 0.409136 0.202177
Si Si5 0.779643 0.813326 0.348714
Si Si6 0.166893 0.487662 0.790264
Si Si7 0.790541 0.533989 0.812300
Si Si8 0.590362 0.915903 0.727121
O O1 0.500000 0.500000 0.500000
O O2 0.350983 0.731817 0.199269
O O3 0.694743 0.399911 0.388984
O O4 0.612117 0.613612 0.594748
O O5 0.153764 0.777232 0.818951
O O6 0.126443 0.015177 0.878386
O O7 0.000000 0.000000 0.000000
O O8 0.819647 0.873166 0.270935
O O9 0.030071 0.660772 0.165478
O O10 0.671769 0.965855 0.887163
O O11 0.706736 0.529271 0.202961
O O12 0.500000 0.500000 0.000000
O O13 0.782728 0.684305 0.238719
O O14 0.950237 0.676513 0.590599
O O15 0.575697 0.995346 0.288289
O O16 0.193585 0.500034 0.998512
O O17 0.759071 0.691284 0.806458
O O18 0.500000 0.000000 0.500000
#
# Coordination Sequence:
#
# PCOD9039892 Si02
#       8
#     2   2   2   2   2   2   2   2
#     4  11  24  44  70 106 140 192 243 292 358 430
#     4  11  25  47  75 107 146 187 241 301 360 436
#     4  12  25  46  69 105 144 185 238 297 364 428
#     4  10  23  42  72 101 138 190 233 295 354 420
#     4  11  27  44  71 106 140 191 240 305 359 434
#     4  11  24  45  73 101 147 183 248 293 371 428
#     4  12  25  44  69 100 143 190 232 294 362 431
#     4  12  27  42  68 104 141 186 239 291 367 426
#
# _framework density 22.327847999999999
#
# number of rings (size 3 to 8) (size 9 to 14) (size 15 to 20)
#    0.000    0.750    1.250    6.000    8.750    2.000 
#    0.000    4.375    0.000    0.000    0.000    0.000 
#    0.000    0.000    0.000    0.000    0.000    0.000 
#
# Total GULP energy -89589.002148 kJ/mol
# GULP energy per Si atom -5599.312634 kJ/mol
# Density = 2.227703 g / cm^3
# Si number density = 22.327848 Si / 1000 Ang^3
#
#
#
# Elastic Constant Matrix: (Units=GPa)
#
#
# Indices 1 2 3 4 5 6 
#
# 1 127.2599 38.4916 16.1185 5.9230 -24.9746 4.3911
# 2 38.4916 86.7549 22.7058 1.0753 -14.8497 -3.4476
# 3 16.1185 22.7058 107.8875 11.4631 -11.9773 -6.5593
# 4 5.9230 1.0753 11.4631 35.6401 -0.9015 -1.6299
# 5 -24.9746 -14.8497 -11.9773 -0.9015 43.7533 5.0207
# 6 4.3911 -3.4476 -6.5593 -1.6299 5.0207 40.1712
#
#
#
# Elastic Compliance Matrix: (Units=1/GPa)
#
#
# Indices 1 2 3 4 5 6 
#
# 1 0.010046 -0.003679 -0.000180 -0.001478 0.004645 -0.002084
# 2 -0.003679 0.014114 -0.002245 0.001005 0.001977 0.001041
# 3 -0.000180 -0.002245 0.010370 -0.003139 0.001775 0.001171
# 4 -0.001478 0.001005 -0.003139 0.029308 -0.000877 0.001034
# 5 0.004645 0.001977 0.001775 -0.000877 0.027043 -0.003464
# 6 -0.002084 0.001041 0.001171 0.001034 -0.003464 0.025877
#
#
# Mechanical properties :
#
#
# Convention : Reuss Voigt Hill
#
# Bulk Modulus (GPa) = 44.80156 52.94822 48.87489
# Shear Modulus (GPa) = 36.65489 40.21868 38.43679
#
# Velocity S-wave (km/s) = 4.05614 4.24875 4.15356
# Velocity P-wave (km/s) = 6.48423 6.91626 6.70373
#
# Compressibility (1/GPa) = 0.02232065
#
# Stress axis : x y z
#
# Youngs Moduli (GPa) = 99.54296 70.85172 96.43114
#
# Poissons Ratio (x) = 0.26069 0.01740
# Poissons Ratio (y) = 0.36626 0.21647
# Poissons Ratio (z) = 0.01797 0.15905
#
# Static dielectric constant tensor:
#      x y z
#    x 1.898540 -0.009610 0.051940 
#    y -0.009610 1.837500 0.004820 
#    z 0.051940 0.004820 1.821960 
# 
# From -- ./inp_files/308187.got.cif
#   From: 2010.05.17/outbox.cif.g08.bks.cpg/sg2_155_cif.got.tgz:308187.got - 2010.06.03 11:33:40.
