data_PCOD9039073
_publ_section_title
;
Structure prediction by ZEFSAII (Michael W. Deem and Ramdas Pophale) SiO2 
 PCOD9039073
Probable space group: P -1
;
_chemical_formula_sum "Si O2"
_cell_formula_units_Z 16
_cell_length_a 10.432658
_cell_length_b 11.286207
_cell_length_c 10.001737
_cell_angle_alpha 118.463028
_cell_angle_beta 127.438362
_cell_angle_gamma 100.074001
_cell_volume 613.461434
_symmetry_space_group_name_H-M "P -1"
_symmetry_group_IT_number 2
_symmetry_cell_setting 'triclinic'
loop_
_space_group_symop_operation_xyz
x,y,z
-x,-y,-z
loop_
_atom_site_type_symbol
_atom_site_label
_atom_site_fract_x
_atom_site_fract_y
_atom_site_fract_z
Si Si1 0.017434 0.249553 0.671393
Si Si2 0.588491 0.190512 0.995220
Si Si3 0.146062 0.758234 0.013662
Si Si4 0.765177 0.368955 0.633340
Si Si5 0.787476 0.039661 0.174017
Si Si6 0.942606 0.860019 0.098823
Si Si7 0.763814 0.515890 0.445589
Si Si8 0.594978 0.470773 0.764777
O O1 0.829229 0.250675 0.592557
O O2 0.991453 0.207351 0.477172
O O3 0.994428 0.116076 0.691613
O O4 0.251968 0.439304 0.960046
O O5 0.628745 0.178086 0.858528
O O6 0.655106 0.086030 0.049171
O O7 0.742379 0.401143 0.247804
O O8 0.361877 0.101103 0.873680
O O9 0.000185 0.574401 0.910097
O O10 0.996911 0.679426 0.742173
O O11 0.124569 0.889618 0.141975
O O12 0.675127 0.373936 0.437474
O O13 0.606027 0.332586 0.627063
O O14 0.863347 0.965673 0.082781
O O15 0.732829 0.644363 0.842616
O O16 0.625473 0.574111 0.375620
#
# Coordination Sequence:
#
# PCOD9039073 Si02
#       8
#     2   2   2   2   2   2   2   2
#     4  10  18  34  55  86 104 143 179 220 260 322
#     4  11  21  35  54  81 107 142 185 221 261 319
#     4   9  21  34  55  80 110 141 170 228 277 307
#     4   9  18  31  58  82 109 135 176 222 270 315
#     4  11  21  35  56  77 105 147 188 218 253 316
#     4   9  20  33  55  78 109 141 178 218 264 314
#     4  10  17  33  54  82 104 138 172 226 264 314
#     4   9  18  29  55  82 109 130 178 217 267 309
#
# _framework density 26.081510999999999
#
# number of rings (size 3 to 8) (size 9 to 14) (size 15 to 20)
#    1.500    0.750    2.500    1.500    0.000    0.500 
#    0.000    0.625    0.000    8.250    0.000    0.000 
#    0.000    0.000    0.000    0.000    0.000    0.000 
#
# Total GULP energy -89302.911598 kJ/mol
# GULP energy per Si atom -5581.431975 kJ/mol
# Density = 2.602215 g / cm^3
# Si number density = 26.081511 Si / 1000 Ang^3
#
#
#
# Elastic Constant Matrix: (Units=GPa)
#
#
# Indices 1 2 3 4 5 6 
#
# 1 134.2223 32.6613 8.9859 4.9582 -9.5220 -17.1147
# 2 32.6613 66.4243 5.4990 -1.7522 3.1287 -13.3044
# 3 8.9859 5.4990 35.6855 -5.2206 1.7923 0.9461
# 4 4.9582 -1.7522 -5.2206 30.2425 -0.6042 1.9031
# 5 -9.5220 3.1287 1.7923 -0.6042 31.6016 1.2874
# 6 -17.1147 -13.3044 0.9461 1.9031 1.2874 39.2946
#
#
#
# Elastic Compliance Matrix: (Units=1/GPa)
#
#
# Indices 1 2 3 4 5 6 
#
# 1 0.009233 -0.004015 -0.002265 -0.002246 0.003154 0.002722
# 2 -0.004015 0.018240 -0.001605 0.001092 -0.003088 0.004514
# 3 -0.002265 -0.001605 0.029816 0.005540 -0.002009 -0.002450
# 4 -0.002246 0.001092 0.005540 0.034598 -0.000339 -0.002406
# 5 0.003154 -0.003088 -0.002009 -0.000339 0.033036 -0.000689
# 6 0.002722 0.004514 -0.002450 -0.002406 -0.000689 0.028361
#
#
# Mechanical properties :
#
#
# Convention : Reuss Voigt Hill
#
# Bulk Modulus (GPa) = 24.08485 36.73606 30.41046
# Shear Modulus (GPa) = 27.33833 32.84014 30.08923
#
# Velocity S-wave (km/s) = 3.24109 3.55228 3.40024
# Velocity P-wave (km/s) = 4.82293 5.56243 5.20583
#
# Compressibility (1/GPa) = 0.04151987
#
# Stress axis : x y z
#
# Youngs Moduli (GPa) = 108.31022 54.82431 33.53848
#
# Poissons Ratio (x) = 0.22011 0.07597
# Poissons Ratio (y) = 0.43485 0.05381
# Poissons Ratio (z) = 0.24535 0.08797
#
# Static dielectric constant tensor:
#      x y z
#    x 2.043540 0.080990 0.020570 
#    y 0.080990 2.134210 0.050780 
#    z 0.020570 0.050780 2.117450 
# 
# From -- ./inp_files/397826.got.cif
#   From: 2010.05.17/outbox.cif.g08.bks.cpg/sg2_199_cif.got.tgz:397826.got - 2010.06.03 11:33:40.
