data_PCOD9039460
_publ_section_title
;
Structure prediction by ZEFSAII (Michael W. Deem and Ramdas Pophale) SiO2 
 PCOD9039460
Probable space group: P -1
;
_chemical_formula_sum "Si O2"
_cell_formula_units_Z 14
_cell_length_a 6.115876
_cell_length_b 7.707225
_cell_length_c 16.438117
_cell_angle_alpha 122.341907
_cell_angle_beta 77.035337
_cell_angle_gamma 117.916703
_cell_volume 578.100319
_symmetry_space_group_name_H-M "P -1"
_symmetry_group_IT_number 2
_symmetry_cell_setting 'triclinic'
loop_
_space_group_symop_operation_xyz
x,y,z
-x,-y,-z
loop_
_atom_site_type_symbol
_atom_site_label
_atom_site_fract_x
_atom_site_fract_y
_atom_site_fract_z
Si Si1 0.443748 0.228555 0.345848
Si Si2 0.828700 0.368077 0.680645
Si Si3 0.105255 0.357524 0.512852
Si Si4 0.897837 0.859135 0.786190
Si Si5 0.225129 0.864062 0.024612
Si Si6 0.824512 0.408273 0.871580
Si Si7 0.390118 0.177594 0.753457
O O1 0.203893 0.209658 0.413093
O O2 0.657750 0.465118 0.414093
O O3 0.361169 0.213149 0.256083
O O4 0.535040 0.034516 0.303834
O O5 0.950581 0.638280 0.725360
O O6 0.901316 0.338369 0.759844
O O7 0.531324 0.294928 0.689072
O O8 0.903353 0.246294 0.572058
O O9 0.000000 0.500000 0.500000
O O10 0.880432 0.951594 0.899178
O O11 0.107859 0.064654 0.771636
O O12 0.221561 0.747298 0.083980
O O13 0.032616 0.654948 0.936485
O O14 0.500000 0.000000 0.000000
O O15 0.546124 0.365781 0.855605
#
# Coordination Sequence:
#
# PCOD9039460 Si02
#       7
#     2   2   2   2   2   2   2
#     4  11  22  42  71  97 140 176 223 279 330 400
#     4  10  23  42  68  96 137 175 223 273 332 396
#     4  11  22  42  72 103 132 179 231 269 332 404
#     4  12  23  43  70  97 134 182 217 280 339 396
#     4  11  25  44  71  99 134 177 229 273 340 400
#     4   9  24  44  63 103 136 171 226 280 323 411
#     4  10  23  44  64  96 140 172 223 271 334 396
#
# _framework density 24.217251000000001
#
# number of rings (size 3 to 8) (size 9 to 14) (size 15 to 20)
#    0.857    0.571    4.286    0.000    4.000    4.000 
#    2.571    2.857    0.000    0.000    0.000    0.000 
#    0.000    0.000    0.000    0.000    0.000    0.000 
#
# Total GULP energy -78052.539041 kJ/mol
# GULP energy per Si atom -5575.181360 kJ/mol
# Density = 2.416213 g / cm^3
# Si number density = 24.217251 Si / 1000 Ang^3
#
#
#
# Elastic Constant Matrix: (Units=GPa)
#
#
# Indices 1 2 3 4 5 6 
#
# 1 51.3343 29.7325 21.4908 -5.7158 -3.8976 12.1541
# 2 29.7325 117.6197 16.0259 -8.5265 0.3777 21.3316
# 3 21.4908 16.0259 85.3436 -7.3602 -6.6837 8.4586
# 4 -5.7158 -8.5265 -7.3602 41.8606 6.8249 4.1126
# 5 -3.8976 0.3777 -6.6837 6.8249 39.4863 -1.8229
# 6 12.1541 21.3316 8.4586 4.1126 -1.8229 35.8534
#
#
#
# Elastic Compliance Matrix: (Units=1/GPa)
#
#
# Indices 1 2 3 4 5 6 
#
# 1 0.025769 -0.004831 -0.004834 0.001968 0.001206 -0.004886
# 2 -0.004831 0.010838 -0.000222 0.002209 -0.001234 -0.005074
# 3 -0.004834 -0.000222 0.013372 0.001556 0.001451 -0.001489
# 4 0.001968 0.002209 0.001556 0.026135 -0.004338 -0.005567
# 5 0.001206 -0.001234 0.001451 -0.004338 0.026536 0.001830
# 6 -0.004886 -0.005074 -0.001489 -0.005567 0.001830 0.033649
#
#
# Mechanical properties :
#
#
# Convention : Reuss Voigt Hill
#
# Bulk Modulus (GPa) = 33.10598 43.19955 38.15276
# Shear Modulus (GPa) = 30.09526 35.90996 33.00261
#
# Velocity S-wave (km/s) = 3.52905 3.85492 3.69558
# Velocity P-wave (km/s) = 5.50506 6.13930 5.83081
#
# Compressibility (1/GPa) = 0.03020603
#
# Stress axis : x y z
#
# Youngs Moduli (GPa) = 38.80637 92.27100 74.78589
#
# Poissons Ratio (x) = 0.44572 0.36148
# Poissons Ratio (y) = 0.18746 0.01660
# Poissons Ratio (z) = 0.18757 0.02048
#
# Static dielectric constant tensor:
#      x y z
#    x 1.987600 0.029440 -0.024770 
#    y 0.029440 2.010830 -0.029120 
#    z -0.024770 -0.029120 1.917010 
# 
# From -- ./inp_files/548294.got.cif
#   From: 2010.05.17/outbox.cif.g08.bks.cpg/sg2_275_cif.got.tgz:548294.got - 2010.06.03 11:33:40.
