data_PCOD9039411
_publ_section_title
;
Structure prediction by ZEFSAII (Michael W. Deem and Ramdas Pophale) SiO2 
 PCOD9039411
Probable space group: P -1
;
_chemical_formula_sum "Si O2"
_cell_formula_units_Z 16
_cell_length_a 9.148077
_cell_length_b 24.699100
_cell_length_c 9.647127
_cell_angle_alpha 41.308336
_cell_angle_beta 106.048111
_cell_angle_gamma 139.807924
_cell_volume 664.935509
_symmetry_space_group_name_H-M "P -1"
_symmetry_group_IT_number 2
_symmetry_cell_setting 'triclinic'
loop_
_space_group_symop_operation_xyz
x,y,z
-x,-y,-z
loop_
_atom_site_type_symbol
_atom_site_label
_atom_site_fract_x
_atom_site_fract_y
_atom_site_fract_z
Si Si1 0.159213 0.256339 0.921760
Si Si2 0.656860 0.716988 0.810652
Si Si3 0.621995 0.878775 0.602185
Si Si4 0.374982 0.590344 0.474564
Si Si5 0.250353 0.321542 0.352389
Si Si6 0.374636 0.777811 0.038569
Si Si7 0.306463 0.847068 0.143686
Si Si8 0.944501 0.340771 0.310909
O O1 0.275237 0.322220 0.983320
O O2 0.453335 0.359033 0.717892
O O3 0.859637 0.054006 0.252513
O O4 0.013028 0.260795 0.787367
O O5 0.725952 0.835689 0.674328
O O6 0.841027 0.784683 0.588492
O O7 0.286655 0.542997 0.012724
O O8 0.281961 0.731970 0.724890
O O9 0.566294 0.869320 0.768457
O O10 0.577231 0.646402 0.543200
O O11 0.405648 0.702979 0.259567
O O12 0.003603 0.392330 0.765456
O O13 0.999153 0.269119 0.438929
O O14 0.500000 0.500000 0.000000
O O15 0.461839 0.886602 0.967657
O O16 0.214216 0.727773 0.448198
O O17 0.500000 0.000000 0.000000
#
# Coordination Sequence:
#
# PCOD9039411 Si02
#       8
#     2   2   2   2   2   2   2   2
#     4  12  26  47  73 103 148 188 240 301 361 430
#     4  11  25  43  73 104 140 194 243 297 357 431
#     4  12  26  48  70 108 150 189 239 299 368 427
#     4  11  24  48  72 110 141 190 243 304 353 431
#     4  10  23  42  68 105 142 181 238 293 356 417
#     4  11  27  44  76 104 146 189 247 294 363 427
#     4  12  27  47  68 105 147 195 237 297 369 431
#     4  11  24  44  71 102 146 192 243 294 359 430
#
# _framework density 24.062481999999999
#
# number of rings (size 3 to 8) (size 9 to 14) (size 15 to 20)
#    0.000    0.750    3.750    3.000    8.750    2.500 
#    0.000    1.250    0.000    0.000    0.000    0.000 
#    0.000    0.000    0.000    0.000    0.000    0.000 
#
# Total GULP energy -89555.584755 kJ/mol
# GULP energy per Si atom -5597.224047 kJ/mol
# Density = 2.400771 g / cm^3
# Si number density = 24.062482 Si / 1000 Ang^3
#
#
#
# Elastic Constant Matrix: (Units=GPa)
#
#
# Indices 1 2 3 4 5 6 
#
# 1 112.3407 55.0564 17.8950 9.4097 -13.7684 -16.6795
# 2 55.0564 134.2529 16.5688 14.2743 3.2289 -8.0140
# 3 17.8950 16.5688 94.6771 3.0769 -20.3734 -25.6932
# 4 9.4097 14.2743 3.0769 46.5302 -2.9209 0.3464
# 5 -13.7684 3.2289 -20.3734 -2.9209 35.3215 9.0725
# 6 -16.6795 -8.0140 -25.6932 0.3464 9.0725 45.4769
#
#
#
# Elastic Compliance Matrix: (Units=1/GPa)
#
#
# Indices 1 2 3 4 5 6 
#
# 1 0.012346 -0.004967 0.000357 -0.000726 0.004660 0.002931
# 2 -0.004967 0.010005 -0.001636 -0.002202 -0.003929 -0.000182
# 3 0.000357 -0.001636 0.013960 -0.000121 0.006688 0.006397
# 4 -0.000726 -0.002202 -0.000121 0.022459 0.002040 -0.001301
# 5 0.004660 -0.003929 0.006688 0.002040 0.035083 -0.002219
# 6 0.002931 -0.000182 0.006397 -0.001301 -0.002219 0.027099
#
#
# Mechanical properties :
#
#
# Convention : Reuss Voigt Hill
#
# Bulk Modulus (GPa) = 41.98052 57.81234 49.89643
# Shear Modulus (GPa) = 35.36501 42.24909 38.80705
#
# Velocity S-wave (km/s) = 3.83785 4.19478 4.02028
# Velocity P-wave (km/s) = 6.09287 6.89490 6.50626
#
# Compressibility (1/GPa) = 0.02382057
#
# Stress axis : x y z
#
# Youngs Moduli (GPa) = 80.99893 99.94801 71.63406
#
# Poissons Ratio (x) = 0.49644 -0.02560
# Poissons Ratio (y) = 0.40232 0.11716
# Poissons Ratio (z) = -0.02895 0.16347
#
# Static dielectric constant tensor:
#      x y z
#    x 1.953570 -0.052110 -0.008510 
#    y -0.052110 1.932910 -0.023390 
#    z -0.008510 -0.023390 1.932710 
# 
# From -- ./inp_files/226157.got.cif
#   From: 2010.05.17/outbox.cif.g08.bks.cpg/sg2_114_cif.got.tgz:226157.got - 2010.06.03 11:33:40.
