data_PCOD9039679
_publ_section_title
;
Structure prediction by ZEFSAII (Michael W. Deem and Ramdas Pophale) SiO2 
 PCOD9039679
Probable space group: P -1
;
_chemical_formula_sum "Si O2"
_cell_formula_units_Z 14
_cell_length_a 5.092672
_cell_length_b 13.632689
_cell_length_c 13.440689
_cell_angle_alpha 39.791779
_cell_angle_beta 100.506583
_cell_angle_gamma 118.227005
_cell_volume 498.326916
_symmetry_space_group_name_H-M "P -1"
_symmetry_group_IT_number 2
_symmetry_cell_setting 'triclinic'
loop_
_space_group_symop_operation_xyz
x,y,z
-x,-y,-z
loop_
_atom_site_type_symbol
_atom_site_label
_atom_site_fract_x
_atom_site_fract_y
_atom_site_fract_z
Si Si1 0.336986 0.169173 0.364630
Si Si2 0.477923 0.109612 0.211298
Si Si3 0.873099 0.194678 0.991466
Si Si4 0.387201 0.172495 0.824363
Si Si5 0.879512 0.423561 0.325059
Si Si6 0.743111 0.501589 0.906535
Si Si7 0.066066 0.744621 0.357407
O O1 0.485194 0.115142 0.326966
O O2 0.546398 0.243827 0.420171
O O3 0.333382 0.346916 0.189524
O O4 0.000000 0.000000 0.500000
O O5 0.189046 0.922277 0.297114
O O6 0.777812 0.144651 0.139350
O O7 0.474372 0.290121 0.045906
O O8 0.565945 0.189175 0.925344
O O9 0.136815 0.399365 0.826832
O O10 0.872124 0.038756 0.051031
O O11 0.647092 0.217549 0.721966
O O12 0.223091 0.282993 0.705536
O O13 0.009039 0.412076 0.448437
O O14 0.093966 0.436749 0.237856
O O15 0.000000 0.500000 0.000000
#
# Coordination Sequence:
#
# PCOD9039679 Si02
#       7
#     2   2   2   2   2   2   2
#     4  12  27  42  68 101 147 186 232 291 356 433
#     4  10  23  42  70 100 134 186 234 290 346 429
#     4   9  23  47  76 103 137 182 244 300 359 423
#     4  10  24  49  74 109 139 191 238 308 360 428
#     4  11  26  45  67 105 143 189 234 294 359 431
#     4  11  24  43  65  97 135 186 240 289 348 413
#     4  11  26  44  73 106 148 189 240 290 370 431
#
# _framework density 28.094007000000001
#
# number of rings (size 3 to 8) (size 9 to 14) (size 15 to 20)
#    0.000    1.429    1.429    1.286    8.000    8.571 
#    2.571    0.000    0.000    0.000    0.000    0.000 
#    0.000    0.000    0.000    0.000    0.000    0.000 
#
# Total GULP energy -78548.356339 kJ/mol
# GULP energy per Si atom -5610.596881 kJ/mol
# Density = 2.803006 g / cm^3
# Si number density = 28.094007 Si / 1000 Ang^3
#
#
#
# Elastic Constant Matrix: (Units=GPa)
#
#
# Indices 1 2 3 4 5 6 
#
# 1 92.4544 20.7119 23.1397 11.5343 7.3150 -6.4389
# 2 20.7119 138.4834 33.3540 -12.4370 -7.6628 -19.5603
# 3 23.1397 33.3540 121.6430 3.8631 -2.0991 -1.9569
# 4 11.5343 -12.4370 3.8631 67.8365 0.0024 -4.3957
# 5 7.3150 -7.6628 -2.0991 0.0024 45.4161 4.8436
# 6 -6.4389 -19.5603 -1.9569 -4.3957 4.8436 41.0667
#
#
#
# Elastic Compliance Matrix: (Units=1/GPa)
#
#
# Indices 1 2 3 4 5 6 
#
# 1 0.012166 -0.001544 -0.001846 -0.002173 -0.002427 0.001138
# 2 -0.001544 0.008784 -0.002102 0.002248 0.001213 0.003939
# 3 -0.001846 -0.002102 0.009161 -0.000657 0.000471 -0.000980
# 4 -0.002173 0.002248 -0.000657 0.015711 0.000450 0.002327
# 5 -0.002427 0.001213 0.000471 0.000450 0.022895 -0.002432
# 6 0.001138 0.003939 -0.000980 0.002327 -0.002432 0.026894
#
#
# Mechanical properties :
#
#
# Convention : Reuss Voigt Hill
#
# Bulk Modulus (GPa) = 52.27726 56.33243 54.30485
# Shear Modulus (GPa) = 44.25928 49.22221 46.74074
#
# Velocity S-wave (km/s) = 3.97344 4.19029 4.08331
# Velocity P-wave (km/s) = 6.30074 6.59594 6.45003
#
# Compressibility (1/GPa) = 0.01912878
#
# Stress axis : x y z
#
# Youngs Moduli (GPa) = 82.19485 113.84901 109.15373
#
# Poissons Ratio (x) = 0.17576 0.20145
# Poissons Ratio (y) = 0.12689 0.22942
# Poissons Ratio (z) = 0.15170 0.23929
#
# Static dielectric constant tensor:
#      x y z
#    x 2.194740 0.079030 0.030520 
#    y 0.079030 2.188700 -0.045630 
#    z 0.030520 -0.045630 2.205160 
# 
# From -- ./inp_files/483838.got.cif
#   From: 2010.05.17/outbox.cif.g08.bks.cpg/sg2_242_cif.got.tgz:483838.got - 2010.06.03 11:33:40.
