data_PCOD9039244
_publ_section_title
;
Structure prediction by ZEFSAII (Michael W. Deem and Ramdas Pophale) SiO2 
 PCOD9039244
Probable space group: P -1
;
_chemical_formula_sum "Si O2"
_cell_formula_units_Z 16
_cell_length_a 11.984777
_cell_length_b 7.896547
_cell_length_c 17.963489
_cell_angle_alpha 116.631573
_cell_angle_beta 29.620435
_cell_angle_gamma 128.281278
_cell_volume 641.457178
_symmetry_space_group_name_H-M "P -1"
_symmetry_group_IT_number 2
_symmetry_cell_setting 'triclinic'
loop_
_space_group_symop_operation_xyz
x,y,z
-x,-y,-z
loop_
_atom_site_type_symbol
_atom_site_label
_atom_site_fract_x
_atom_site_fract_y
_atom_site_fract_z
Si Si1 0.537949 0.687733 0.573429
Si Si2 0.656908 0.214620 0.754211
Si Si3 0.930246 0.979018 0.299680
Si Si4 0.259863 0.168606 0.784862
Si Si5 0.762853 0.628244 0.581232
Si Si6 0.247725 0.766323 0.123580
Si Si7 0.426590 0.395391 0.157774
Si Si8 0.181942 0.805759 0.878518
O O1 0.500000 0.500000 0.500000
O O2 0.687943 0.915105 0.483431
O O3 0.714751 0.708312 0.546180
O O4 0.268740 0.648766 0.758490
O O5 0.736698 0.259703 0.802933
O O6 0.551364 0.371317 0.819020
O O7 0.931009 0.285914 0.568669
O O8 0.423517 0.964936 0.825483
O O9 0.839563 0.930593 0.258418
O O10 0.019462 0.807285 0.239464
O O11 0.183769 0.222327 0.212252
O O12 0.565566 0.362274 0.640803
O O13 0.201468 0.972039 0.835366
O O14 0.088816 0.273645 0.935816
O O15 0.665323 0.697779 0.724198
O O16 0.303831 0.591019 0.017501
O O17 0.500000 0.000000 0.000000
#
# Coordination Sequence:
#
# PCOD9039244 Si02
#       8
#     2   2   2   2   2   2   2   2
#     4  12  27  46  69 106 145 194 241 298 366 436
#     4  12  24  47  74 110 144 188 244 299 357 431
#     4  11  24  46  69 106 149 190 239 295 370 425
#     4  11  26  50  71 107 147 192 238 299 362 431
#     4  12  26  45  73 106 144 183 246 299 358 427
#     4  10  23  42  67 106 146 186 234 293 356 425
#     4  11  25  42  74 107 142 193 240 298 360 426
#     4  11  27  47  76 104 147 192 242 295 366 432
#
# _framework density 24.943207000000001
#
# number of rings (size 3 to 8) (size 9 to 14) (size 15 to 20)
#    0.000    0.750    3.750    3.000    7.000    4.000 
#    0.000    0.000    0.000    0.000    0.000    0.000 
#    0.000    0.000    0.000    0.000    0.000    0.000 
#
# Total GULP energy -89638.596438 kJ/mol
# GULP energy per Si atom -5602.412277 kJ/mol
# Density = 2.488643 g / cm^3
# Si number density = 24.943207 Si / 1000 Ang^3
#
#
#
# Elastic Constant Matrix: (Units=GPa)
#
#
# Indices 1 2 3 4 5 6 
#
# 1 98.7815 -5.9751 3.7750 14.9170 13.6351 7.6049
# 2 -5.9751 64.2191 9.8138 11.0929 -7.0716 11.0137
# 3 3.7750 9.8138 99.1804 4.1445 -5.3939 -0.0194
# 4 14.9170 11.0929 4.1445 44.8607 6.1284 0.3300
# 5 13.6351 -7.0716 -5.3939 6.1284 41.0044 -0.5486
# 6 7.6049 11.0137 -0.0194 0.3300 -0.5486 34.2836
#
#
#
# Elastic Compliance Matrix: (Units=1/GPa)
#
#
# Indices 1 2 3 4 5 6 
#
# 1 0.011519 0.002054 -0.000647 -0.003841 -0.003030 -0.003227
# 2 0.002054 0.018335 -0.001502 -0.005443 0.003012 -0.006246
# 3 -0.000647 -0.001502 0.010357 -0.000568 0.001412 0.000660
# 4 -0.003841 -0.005443 -0.000568 0.025429 -0.003506 0.002299
# 5 -0.003030 0.003012 0.001412 -0.003506 0.026627 0.000165
# 6 -0.003227 -0.006246 0.000660 0.002299 0.000165 0.031872
#
#
# Mechanical properties :
#
#
# Convention : Reuss Voigt Hill
#
# Bulk Modulus (GPa) = 24.98725 30.82314 27.90519
# Shear Modulus (GPa) = 36.31898 41.00089 38.65994
#
# Velocity S-wave (km/s) = 3.81998 4.05874 3.94117
# Velocity P-wave (km/s) = 5.43100 5.86077 5.64998
#
# Compressibility (1/GPa) = 0.04002041
#
# Stress axis : x y z
#
# Youngs Moduli (GPa) = 86.81327 54.53903 96.55709
#
# Poissons Ratio (x) = -0.11201 0.06243
# Poissons Ratio (y) = -0.17829 0.14507
# Poissons Ratio (z) = 0.05613 0.08194
#
# Static dielectric constant tensor:
#      x y z
#    x 1.947680 0.034200 -0.009940 
#    y 0.034200 2.004920 0.041140 
#    z -0.009940 0.041140 2.044630 
# 
# From -- ./inp_files/261673.got.cif
#   From: 2010.05.17/outbox.cif.g08.bks.cpg/sg2_131_cif.got.tgz:261673.got - 2010.06.03 11:33:40.
