data_PCOD9039743
_publ_section_title
;
Structure prediction by ZEFSAII (Michael W. Deem and Ramdas Pophale) SiO2 
 PCOD9039743
Probable space group: P -1
;
_chemical_formula_sum "Si O2"
_cell_formula_units_Z 16
_cell_length_a 7.039582
_cell_length_b 9.048405
_cell_length_c 18.065030
_cell_angle_alpha 68.933097
_cell_angle_beta 40.322738
_cell_angle_gamma 82.126426
_cell_volume 676.695823
_symmetry_space_group_name_H-M "P -1"
_symmetry_group_IT_number 2
_symmetry_cell_setting 'triclinic'
loop_
_space_group_symop_operation_xyz
x,y,z
-x,-y,-z
loop_
_atom_site_type_symbol
_atom_site_label
_atom_site_fract_x
_atom_site_fract_y
_atom_site_fract_z
Si Si1 0.968362 0.360283 0.597082
Si Si2 0.680892 0.603828 0.861416
Si Si3 0.487723 0.467371 0.232720
Si Si4 0.778109 0.014014 0.996159
Si Si5 0.918607 0.625496 0.197421
Si Si6 0.137564 0.050633 0.180482
Si Si7 0.014522 0.818582 0.511770
Si Si8 0.397853 0.255854 0.596123
O O1 0.271386 0.356815 0.552425
O O2 0.000000 0.500000 0.500000
O O3 0.719630 0.400761 0.718472
O O4 0.891455 0.200289 0.597877
O O5 0.479215 0.583803 0.851664
O O6 0.813633 0.785765 0.816418
O O7 0.942680 0.511248 0.781702
O O8 0.500000 0.500000 0.000000
O O9 0.783473 0.548349 0.174681
O O10 0.305668 0.303789 0.356681
O O11 0.847023 0.204924 0.918301
O O12 0.843148 0.920400 0.919677
O O13 0.423433 0.970893 0.126708
O O14 0.000000 0.000000 0.000000
O O15 0.675854 0.674481 0.315064
O O16 0.825822 0.922879 0.310952
O O17 0.260642 0.760913 0.500726
O O18 0.000000 0.000000 0.500000
#
# Coordination Sequence:
#
# PCOD9039743 Si02
#       8
#     2   2   2   2   2   2   2   2
#     4  10  23  45  72 101 135 182 239 287 350 428
#     4  12  26  46  68 101 147 182 240 297 353 412
#     4  11  26  44  71 101 144 184 237 294 348 429
#     4  10  23  42  70  95 141 182 238 290 352 417
#     4  11  24  43  72 103 132 193 233 288 358 417
#     4  10  25  42  65 106 134 186 232 290 354 421
#     4  11  27  47  69 110 143 186 239 292 359 431
#     4  11  24  45  76  99 147 186 234 293 360 428
#
# _framework density 23.644299
#
# number of rings (size 3 to 8) (size 9 to 14) (size 15 to 20)
#    0.000    1.250    3.750    0.000    7.000    6.000 
#    0.000    0.000    0.000    0.000    0.000    0.000 
#    0.000    0.000    0.000    0.000    0.000    0.000 
#
# Total GULP energy -89541.504773 kJ/mol
# GULP energy per Si atom -5596.344048 kJ/mol
# Density = 2.359048 g / cm^3
# Si number density = 23.644299 Si / 1000 Ang^3
#
#
#
# Elastic Constant Matrix: (Units=GPa)
#
#
# Indices 1 2 3 4 5 6 
#
# 1 128.3517 10.6409 -4.9272 11.2354 14.2978 25.0130
# 2 10.6409 132.0314 10.0490 -0.7698 16.0017 28.5700
# 3 -4.9272 10.0490 42.5522 -8.4288 9.6577 13.1503
# 4 11.2354 -0.7698 -8.4288 26.1588 7.1383 -4.3016
# 5 14.2978 16.0017 9.6577 7.1383 35.8253 6.4840
# 6 25.0130 28.5700 13.1503 -4.3016 6.4840 47.7005
#
#
#
# Elastic Compliance Matrix: (Units=1/GPa)
#
#
# Indices 1 2 3 4 5 6 
#
# 1 0.009698 0.000700 0.002928 -0.003348 -0.003186 -0.006180
# 2 0.000700 0.009087 0.000447 0.000174 -0.003509 -0.005440
# 3 0.002928 0.000447 0.030474 0.010043 -0.010151 -0.007919
# 4 -0.003348 0.000174 0.010043 0.046853 -0.011633 0.004689
# 5 -0.003186 -0.003509 -0.010151 -0.011633 0.035685 0.000671
# 6 -0.006180 -0.005440 -0.007919 0.004689 0.000671 0.029978
#
#
# Mechanical properties :
#
#
# Convention : Reuss Voigt Hill
#
# Bulk Modulus (GPa) = 17.41926 37.16231 27.29078
# Shear Modulus (GPa) = 28.94143 41.08174 35.01159
#
# Velocity S-wave (km/s) = 3.50242 4.17284 3.85224
# Velocity P-wave (km/s) = 4.87228 6.24245 5.59943
#
# Compressibility (1/GPa) = 0.05740773
#
# Stress axis : x y z
#
# Youngs Moduli (GPa) = 103.11479 110.04793 32.81437
#
# Poissons Ratio (x) = -0.07699 -0.09607
# Poissons Ratio (y) = -0.07214 -0.01467
# Poissons Ratio (z) = -0.30188 -0.04919
#
# Static dielectric constant tensor:
#      x y z
#    x 1.932050 -0.020220 0.005450 
#    y -0.020220 1.900740 0.020480 
#    z 0.005450 0.020480 1.934330 
# 
# From -- ./inp_files/548016.got.cif
#   From: 2010.05.17/outbox.cif.g08.bks.cpg/sg2_275_cif.got.tgz:548016.got - 2010.06.03 11:33:40.
