data_PCOD9039146
_publ_section_title
;
Structure prediction by ZEFSAII (Michael W. Deem and Ramdas Pophale) SiO2 
 PCOD9039146
Probable space group: P -1
;
_chemical_formula_sum "Si O2"
_cell_formula_units_Z 16
_cell_length_a 12.124401
_cell_length_b 11.826747
_cell_length_c 14.628177
_cell_angle_alpha 29.486089
_cell_angle_beta 64.298755
_cell_angle_gamma 81.336255
_cell_volume 799.380272
_symmetry_space_group_name_H-M "P -1"
_symmetry_group_IT_number 2
_symmetry_cell_setting 'triclinic'
loop_
_space_group_symop_operation_xyz
x,y,z
-x,-y,-z
loop_
_atom_site_type_symbol
_atom_site_label
_atom_site_fract_x
_atom_site_fract_y
_atom_site_fract_z
Si Si1 0.268906 0.652027 0.567581
Si Si2 0.820278 0.132364 0.384931
Si Si3 0.276148 0.217782 0.997015
Si Si4 0.201646 0.717688 0.258494
Si Si5 0.850161 0.613247 0.914996
Si Si6 0.035200 0.299074 0.757095
Si Si7 0.517502 0.140411 0.039300
Si Si8 0.643665 0.536943 0.878053
O O1 0.248248 0.834070 0.520956
O O2 0.294248 0.442368 0.761372
O O3 0.125557 0.483394 0.679299
O O4 0.399835 0.840850 0.322040
O O5 0.822915 0.342139 0.164192
O O6 0.728656 0.830656 0.596100
O O7 0.982740 0.216880 0.286416
O O8 0.190539 0.233811 0.102996
O O9 0.426304 0.263581 0.945232
O O10 0.196475 0.931677 0.177436
O O11 0.133338 0.438959 0.533631
O O12 0.363848 0.833129 0.091457
O O13 0.106887 0.695976 0.220386
O O14 0.748158 0.544824 0.913520
O O15 0.000000 0.000000 0.000000
O O16 0.599358 0.306177 0.982999
O O17 0.500000 0.500000 0.000000
#
# Coordination Sequence:
#
# PCOD9039146 Si02
#       8
#     2   2   2   2   2   2   2   2
#     4  11  23  41  69  92 132 169 215 264 327 379
#     4  10  23  42  66  97 126 168 214 271 315 382
#     4  11  22  42  67  92 129 171 213 266 318 377
#     4  11  26  43  68  95 130 169 213 268 319 378
#     4  10  23  42  67  95 126 169 217 265 321 374
#     4  11  24  45  66  96 127 167 217 269 319 375
#     4  12  26  43  63  98 132 174 214 262 314 391
#     4  12  23  41  64  92 130 170 213 256 324 376
#
# _framework density 20.015505000000001
#
# number of rings (size 3 to 8) (size 9 to 14) (size 15 to 20)
#    0.000    1.000    5.000    0.750    1.750    5.000 
#    2.250    0.000    0.000    0.000    0.000    0.000 
#    0.000    0.000    0.000    0.000    0.000    0.000 
#
# Total GULP energy -89467.380660 kJ/mol
# GULP energy per Si atom -5591.711291 kJ/mol
# Density = 1.996995 g / cm^3
# Si number density = 20.015505 Si / 1000 Ang^3
#
#
#
# Elastic Constant Matrix: (Units=GPa)
#
#
# Indices 1 2 3 4 5 6 
#
# 1 98.6265 27.3177 55.4522 6.3415 1.8128 -5.5355
# 2 27.3177 50.9781 21.9641 -11.1598 2.0229 4.1031
# 3 55.4522 21.9641 103.7836 -2.3796 -1.8632 -7.1176
# 4 6.3415 -11.1598 -2.3796 31.2849 1.5359 -12.0707
# 5 1.8128 2.0229 -1.8632 1.5359 35.0841 0.7239
# 6 -5.5355 4.1031 -7.1176 -12.0707 0.7239 25.9438
#
#
#
# Elastic Compliance Matrix: (Units=1/GPa)
#
#
# Indices 1 2 3 4 5 6 
#
# 1 0.016851 -0.007120 -0.007695 -0.006703 -0.000565 -0.000492
# 2 -0.007120 0.026615 -0.001711 0.010380 -0.001685 -0.001322
# 3 -0.007695 -0.001711 0.014504 0.003654 0.001018 0.004280
# 4 -0.006703 0.010380 0.003654 0.044667 -0.002401 0.018780
# 5 -0.000565 -0.001685 0.001018 -0.002401 0.028819 -0.001496
# 6 -0.000492 -0.001322 0.004280 0.018780 -0.001496 0.048602
#
#
# Mechanical properties :
#
#
# Convention : Reuss Voigt Hill
#
# Bulk Modulus (GPa) = 40.13066 51.42846 45.77956
# Shear Modulus (GPa) = 22.58184 28.37283 25.47734
#
# Velocity S-wave (km/s) = 3.36254 3.76911 3.57161
# Velocity P-wave (km/s) = 5.93033 6.68518 6.31904
#
# Compressibility (1/GPa) = 0.02491860
#
# Stress axis : x y z
#
# Youngs Moduli (GPa) = 59.34209 37.57348 68.94488
#
# Poissons Ratio (x) = 0.26754 0.53050
# Poissons Ratio (y) = 0.42254 0.11796
# Poissons Ratio (z) = 0.45661 0.06429
#
# Static dielectric constant tensor:
#      x y z
#    x 1.699050 0.011800 0.013540 
#    y 0.011800 1.698930 0.005220 
#    z 0.013540 0.005220 1.699450 
# 
# From -- ./inp_files/399384.got.cif
#   From: 2010.05.17/outbox.cif.g08.bks.cpg/sg2_200_cif.got.tgz:399384.got - 2010.06.03 11:33:40.
