data_PCOD9039174
_publ_section_title
;
Structure prediction by ZEFSAII (Michael W. Deem and Ramdas Pophale) SiO2 
 PCOD9039174
Probable space group: P -1
;
_chemical_formula_sum "Si O2"
_cell_formula_units_Z 16
_cell_length_a 10.186120
_cell_length_b 9.062577
_cell_length_c 12.009008
_cell_angle_alpha 49.368285
_cell_angle_beta 111.604724
_cell_angle_gamma 134.946259
_cell_volume 586.690275
_symmetry_space_group_name_H-M "P -1"
_symmetry_group_IT_number 2
_symmetry_cell_setting 'triclinic'
loop_
_space_group_symop_operation_xyz
x,y,z
-x,-y,-z
loop_
_atom_site_type_symbol
_atom_site_label
_atom_site_fract_x
_atom_site_fract_y
_atom_site_fract_z
Si Si1 0.472757 0.240945 0.757866
Si Si2 0.669956 0.873580 0.001708
Si Si3 0.098012 0.910281 0.507542
Si Si4 0.712927 0.480329 0.303399
Si Si5 0.860478 0.009730 0.764983
Si Si6 0.643372 0.146182 0.263341
Si Si7 0.034730 0.346226 0.005003
Si Si8 0.284494 0.409789 0.521552
O O1 0.485401 0.217374 0.904240
O O2 0.285463 0.197251 0.687056
O O3 0.620098 0.514907 0.606320
O O4 0.484727 0.061511 0.771973
O O5 0.683586 0.656932 0.143242
O O6 0.849028 0.158292 0.963341
O O7 0.702704 0.904689 0.862609
O O8 0.202397 0.020927 0.367479
O O9 0.215314 0.894763 0.636194
O O10 0.902963 0.641472 0.536177
O O11 0.000000 0.000000 0.500000
O O12 0.607259 0.220206 0.330075
O O13 0.627544 0.395503 0.443138
O O14 0.944294 0.695421 0.285969
O O15 0.923579 0.840336 0.860606
O O16 0.774150 0.422899 0.108869
O O17 0.000000 0.500000 0.000000
#
# Coordination Sequence:
#
# PCOD9039174 Si02
#       8
#     2   2   2   2   2   2   2   2
#     4  10  20  34  59  82 108 152 194 225 271 337
#     4  10  17  33  54  83 114 146 188 232 278 324
#     4  11  22  37  57  87 115 142 184 236 287 330
#     4   9  18  32  54  84 114 141 185 235 278 322
#     4  10  19  34  53  81 120 147 176 234 291 325
#     4  12  20  32  58  94 109 138 191 240 278 323
#     4  11  18  30  53  86 113 140 187 238 271 322
#     4   9  20  38  53  78 117 155 180 224 286 338
#
# _framework density 27.271629999999998
#
# number of rings (size 3 to 8) (size 9 to 14) (size 15 to 20)
#    0.000    1.750    5.000    2.250    0.000    2.500 
#    0.000    0.000    0.000    1.500    0.000    0.000 
#    0.000    1.375    0.000    0.000    0.000    0.000 
#
# Total GULP energy -89095.918022 kJ/mol
# GULP energy per Si atom -5568.494876 kJ/mol
# Density = 2.720956 g / cm^3
# Si number density = 27.271630 Si / 1000 Ang^3
#
#
#
# Elastic Constant Matrix: (Units=GPa)
#
#
# Indices 1 2 3 4 5 6 
#
# 1 105.6798 39.8691 39.2332 12.6290 -29.7011 -38.6708
# 2 39.8691 125.6080 28.6590 14.4367 8.0851 -41.0485
# 3 39.2332 28.6590 84.0004 23.9266 -22.0270 3.0413
# 4 12.6290 14.4367 23.9266 43.5091 -8.7711 -6.9174
# 5 -29.7011 8.0851 -22.0270 -8.7711 45.3565 2.6449
# 6 -38.6708 -41.0485 3.0413 -6.9174 2.6449 44.4117
#
#
#
# Elastic Compliance Matrix: (Units=1/GPa)
#
#
# Indices 1 2 3 4 5 6 
#
# 1 0.023285 0.001331 -0.010924 0.004221 0.009217 0.022362
# 2 0.001331 0.015048 -0.008178 0.000332 -0.006656 0.016076
# 3 -0.010924 -0.008178 0.024857 -0.009928 0.005660 -0.020656
# 4 0.004221 0.000332 -0.009928 0.029146 0.002993 0.009023
# 5 0.009217 -0.006656 0.005660 0.002993 0.032597 0.000012
# 6 0.022362 0.016076 -0.020656 0.009023 0.000012 0.059665
#
#
# Mechanical properties :
#
#
# Convention : Reuss Voigt Hill
#
# Bulk Modulus (GPa) = 36.16808 58.97896 47.57352
# Shear Modulus (GPa) = 21.80009 40.49060 31.14534
#
# Velocity S-wave (km/s) = 2.83038 3.85738 3.38308
# Velocity P-wave (km/s) = 4.89616 6.44303 5.72210
#
# Compressibility (1/GPa) = 0.02764869
#
# Stress axis : x y z
#
# Youngs Moduli (GPa) = 42.94643 66.45185 40.22995
#
# Poissons Ratio (x) = -0.08845 0.43948
# Poissons Ratio (y) = -0.05717 0.32899
# Poissons Ratio (z) = 0.46916 0.54342
#
# Static dielectric constant tensor:
#      x y z
#    x 2.395650 -0.025630 -0.000570 
#    y -0.025630 2.266030 -0.041760 
#    z -0.000570 -0.041760 2.173170 
# 
# From -- ./inp_files/389952.got.cif
#   From: 2010.05.17/outbox.cif.g08.bks.cpg/sg2_195_cif.got.tgz:389952.got - 2010.06.03 11:33:40.
