data_PCOD9039785
_publ_section_title
;
Structure prediction by ZEFSAII (Michael W. Deem and Ramdas Pophale) SiO2 
 PCOD9039785
Probable space group: P -1
;
_chemical_formula_sum "Si O2"
_cell_formula_units_Z 14
_cell_length_a 11.257381
_cell_length_b 5.563877
_cell_length_c 11.349974
_cell_angle_alpha 63.834315
_cell_angle_beta 68.845414
_cell_angle_gamma 96.864364
_cell_volume 561.109916
_symmetry_space_group_name_H-M "P -1"
_symmetry_group_IT_number 2
_symmetry_cell_setting 'triclinic'
loop_
_space_group_symop_operation_xyz
x,y,z
-x,-y,-z
loop_
_atom_site_type_symbol
_atom_site_label
_atom_site_fract_x
_atom_site_fract_y
_atom_site_fract_z
Si Si1 0.076518 0.279898 0.985034
Si Si2 0.566734 0.679544 0.550351
Si Si3 0.278861 0.721143 0.644680
Si Si4 0.363351 0.747761 0.983169
Si Si5 0.450845 0.357685 0.868011
Si Si6 0.121418 0.241364 0.244875
Si Si7 0.104609 0.715671 0.506272
O O1 0.186468 0.480530 0.813334
O O2 0.105533 0.172994 0.126451
O O3 0.000000 0.500000 0.000000
O O4 0.000000 0.000000 0.000000
O O5 0.500000 0.500000 0.500000
O O6 0.431345 0.751079 0.615894
O O7 0.572660 0.501729 0.702825
O O8 0.701727 0.942892 0.422756
O O9 0.224349 0.641780 0.547104
O O10 0.491158 0.748902 0.014707
O O11 0.230211 0.554877 0.138974
O O12 0.381381 0.573225 0.900212
O O13 0.361394 0.065839 0.898948
O O14 0.987059 0.243106 0.360319
O O15 0.166030 0.006973 0.348779
O O16 0.000000 0.500000 0.500000
#
# Coordination Sequence:
#
# PCOD9039785 Si02
#       7
#     2   2   2   2   2   2   2
#     4  12  27  47  76 108 148 198 246 311 368 442
#     4  11  27  44  74 103 147 198 241 310 367 446
#     4  11  26  48  72 108 148 192 254 303 374 447
#     4  10  23  42  71 101 138 184 236 303 354 437
#     4  10  23  44  68 103 141 182 242 292 363 422
#     4  11  25  42  70 103 139 188 241 299 372 433
#     4  11  25  46  70 103 145 191 247 304 372 441
#
# _framework density 24.950551000000001
#
# number of rings (size 3 to 8) (size 9 to 14) (size 15 to 20)
#    0.000    1.143    1.429    2.571   10.000    3.429 
#    0.000    0.000    0.000    0.000    0.000    0.000 
#    0.000    0.000    0.000    0.000    0.000    0.000 
#
# Total GULP energy -78103.727435 kJ/mol
# GULP energy per Si atom -5578.837674 kJ/mol
# Density = 2.489376 g / cm^3
# Si number density = 24.950551 Si / 1000 Ang^3
#
#
#
# Elastic Constant Matrix: (Units=GPa)
#
#
# Indices 1 2 3 4 5 6 
#
# 1 53.1946 17.9753 21.1690 2.5803 17.8541 23.2935
# 2 17.9753 164.4083 84.1344 -20.3743 -2.1696 23.8118
# 3 21.1690 84.1344 198.7874 -14.2184 0.7705 16.1896
# 4 2.5803 -20.3743 -14.2184 36.2064 17.7415 -5.8643
# 5 17.8541 -2.1696 0.7705 17.7415 42.8454 -0.2622
# 6 23.2935 23.8118 16.1896 -5.8643 -0.2622 33.0881
#
#
#
# Elastic Compliance Matrix: (Units=1/GPa)
#
#
# Indices 1 2 3 4 5 6 
#
# 1 0.034824 0.000480 -0.001872 0.000404 -0.014768 -0.023991
# 2 0.000480 0.008683 -0.003109 0.003485 -0.001175 -0.004457
# 3 -0.001872 -0.003109 0.006575 0.001005 0.000091 0.000517
# 4 0.000404 0.003485 0.001005 0.038247 -0.015827 0.003370
# 5 -0.014768 -0.001175 0.000091 -0.015827 0.036039 0.008677
# 6 -0.023991 -0.004457 0.000517 0.003370 0.008677 0.050732
#
#
# Mechanical properties :
#
#
# Convention : Reuss Voigt Hill
#
# Bulk Modulus (GPa) = 24.34256 73.66085 49.00170
# Shear Modulus (GPa) = 25.27873 41.96877 33.62375
#
# Velocity S-wave (km/s) = 3.18646 4.10576 3.67497
# Velocity P-wave (km/s) = 4.82862 7.21548 6.13917
#
# Compressibility (1/GPa) = 0.04108031
#
# Stress axis : x y z
#
# Youngs Moduli (GPa) = 28.71610 115.16846 152.08639
#
# Poissons Ratio (x) = -0.05531 0.28466
# Poissons Ratio (y) = -0.01379 0.47288
# Poissons Ratio (z) = 0.05375 0.35809
#
# Static dielectric constant tensor:
#      x y z
#    x 1.692070 0.396410 -0.281250 
#    y 0.396410 1.296400 0.365640 
#    z -0.281250 0.365640 1.796690 
# 
# From -- ./inp_files/364162.got.cif
#   From: 2010.05.17/outbox.cif.g08.bks.cpg/sg2_183_cif.got.tgz:364162.got - 2010.06.03 11:33:40.
