data_PCOD9039745
_publ_section_title
;
Structure prediction by ZEFSAII (Michael W. Deem and Ramdas Pophale) SiO2 
 PCOD9039745
Probable space group: P -1
;
_chemical_formula_sum "Si O2"
_cell_formula_units_Z 12
_cell_length_a 9.733660
_cell_length_b 5.240505
_cell_length_c 11.469043
_cell_angle_alpha 102.800154
_cell_angle_beta 121.690260
_cell_angle_gamma 73.183314
_cell_volume 474.770821
_symmetry_space_group_name_H-M "P -1"
_symmetry_group_IT_number 2
_symmetry_cell_setting 'triclinic'
loop_
_space_group_symop_operation_xyz
x,y,z
-x,-y,-z
loop_
_atom_site_type_symbol
_atom_site_label
_atom_site_fract_x
_atom_site_fract_y
_atom_site_fract_z
Si Si1 0.506072 0.351187 0.723704
Si Si2 0.066595 0.004899 0.901237
Si Si3 0.767106 0.288704 0.635044
Si Si4 0.969177 0.449391 0.296008
Si Si5 0.825383 0.829695 0.444011
Si Si6 0.405854 0.110986 0.086952
O O1 0.603196 0.324742 0.641639
O O2 0.318852 0.330452 0.616396
O O3 0.532083 0.627339 0.818247
O O4 0.567913 0.110523 0.819771
O O5 0.130239 0.706676 0.848230
O O6 0.908729 0.122682 0.764958
O O7 0.210464 0.168071 0.980244
O O8 0.000000 0.000000 0.000000
O O9 0.850647 0.541372 0.674745
O O10 0.758806 0.124393 0.495492
O O11 0.880109 0.746345 0.327908
O O12 0.012903 0.281116 0.417174
O O13 0.500000 0.000000 0.000000
#
# Coordination Sequence:
#
# PCOD9039745 Si02
#       6
#     2   2   2   2   2   2
#     4  12  27  45  71 102 139 180 228 283 342 404
#     4  11  23  43  66  99 137 175 232 278 339 410
#     4  11  24  41  71  97 134 181 224 289 338 403
#     4  10  23  42  70  96 133 182 228 286 339 399
#     4  10  24  44  65 101 134 176 235 279 344 404
#     4  12  28  46  70 102 140 185 226 278 343 407
#
# _framework density 25.275355000000001
#
# number of rings (size 3 to 8) (size 9 to 14) (size 15 to 20)
#    0.000    1.000    1.667    3.500    9.333    2.000 
#    0.000    0.000    0.000    0.000    0.000    0.000 
#    0.000    0.000    0.000    0.000    0.000    0.000 
#
# Total GULP energy -67168.919079 kJ/mol
# GULP energy per Si atom -5597.409923 kJ/mol
# Density = 2.521783 g / cm^3
# Si number density = 25.275355 Si / 1000 Ang^3
#
#
#
# Elastic Constant Matrix: (Units=GPa)
#
#
# Indices 1 2 3 4 5 6 
#
# 1 106.8891 -15.0520 4.3362 -0.7374 18.6911 -8.2681
# 2 -15.0520 91.9771 34.8802 17.1494 3.8049 14.5438
# 3 4.3362 34.8802 111.0745 22.9175 9.3286 -4.7579
# 4 -0.7374 17.1494 22.9175 38.9671 12.1763 -1.0502
# 5 18.6911 3.8049 9.3286 12.1763 49.1606 10.0412
# 6 -8.2681 14.5438 -4.7579 -1.0502 10.0412 26.8526
#
#
#
# Elastic Compliance Matrix: (Units=1/GPa)
#
#
# Indices 1 2 3 4 5 6 
#
# 1 0.010893 0.001074 -0.000475 0.001892 -0.005595 0.004854
# 2 0.001074 0.015090 -0.004355 -0.005105 0.002506 -0.009751
# 3 -0.000475 -0.004355 0.011610 -0.004301 -0.001579 0.004692
# 4 0.001892 -0.005105 -0.004301 0.033592 -0.009338 0.007391
# 5 -0.005595 0.002506 -0.001579 -0.009338 0.027769 -0.014109
# 6 0.004854 -0.009751 0.004692 0.007391 -0.014109 0.050412
#
#
# Mechanical properties :
#
#
# Convention : Reuss Voigt Hill
#
# Bulk Modulus (GPa) = 33.24509 39.80773 36.52641
# Shear Modulus (GPa) = 29.95725 42.04782 36.00254
#
# Velocity S-wave (km/s) = 3.44646 4.08314 3.77823
# Velocity P-wave (km/s) = 5.38694 6.16548 5.78931
#
# Compressibility (1/GPa) = 0.03007963
#
# Stress axis : x y z
#
# Youngs Moduli (GPa) = 91.80378 66.27049 86.13201
#
# Poissons Ratio (x) = -0.07117 0.04091
# Poissons Ratio (y) = -0.09858 0.37513
# Poissons Ratio (z) = 0.04361 0.28863
#
# Static dielectric constant tensor:
#      x y z
#    x 1.948940 -0.031310 -0.032470 
#    y -0.031310 2.167810 -0.059530 
#    z -0.032470 -0.059530 1.968780 
# 
# From -- ./inp_files/19659.got.cif
#   From: 2010.05.17/outbox.cif.g08.bks.cpg/sg2_10_cif.got.tgz:19659.got - 2010.06.03 11:33:40.
