data_PCOD9039061
_publ_section_title
;
Structure prediction by ZEFSAII (Michael W. Deem and Ramdas Pophale) SiO2 
 PCOD9039061
Probable space group: P -1
;
_chemical_formula_sum "Si O2"
_cell_formula_units_Z 16
_cell_length_a 8.941246
_cell_length_b 24.002990
_cell_length_c 14.655864
_cell_angle_alpha 19.467422
_cell_angle_beta 131.751509
_cell_angle_gamma 132.962456
_cell_volume 763.600481
_symmetry_space_group_name_H-M "P -1"
_symmetry_group_IT_number 2
_symmetry_cell_setting 'triclinic'
loop_
_space_group_symop_operation_xyz
x,y,z
-x,-y,-z
loop_
_atom_site_type_symbol
_atom_site_label
_atom_site_fract_x
_atom_site_fract_y
_atom_site_fract_z
Si Si1 0.685236 0.622947 0.937850
Si Si2 0.232874 0.658865 0.257456
Si Si3 0.598920 0.935119 0.053637
Si Si4 0.440208 0.912017 0.386979
Si Si5 0.190378 0.343581 0.860696
Si Si6 0.986413 0.840389 0.314065
Si Si7 0.877653 0.440769 0.838298
Si Si8 0.480228 0.837407 0.809236
O O1 0.614003 0.803355 0.634000
O O2 0.500000 0.500000 0.000000
O O3 0.710020 0.579998 0.120870
O O4 0.899396 0.610566 0.995891
O O5 0.447127 0.771992 0.200361
O O6 0.191225 0.493362 0.558886
O O7 0.215374 0.600165 0.237147
O O8 0.042108 0.748485 0.064455
O O9 0.814492 0.886810 0.238293
O O10 0.500000 0.000000 0.000000
O O11 0.607772 0.071057 0.765419
O O12 0.211632 0.839584 0.445367
O O13 0.509704 0.086304 0.202270
O O14 0.324050 0.231340 0.037255
O O15 0.906248 0.645298 0.548327
O O16 0.000000 0.000000 0.000000
O O17 0.720711 0.318769 0.031834
O O18 0.500000 0.000000 0.500000
#
# Coordination Sequence:
#
# PCOD9039061 Si02
#       8
#     2   2   2   2   2   2   2   2
#     4  11  23  45  68  98 140 185 226 281 348 420
#     4  10  23  42  66 101 130 180 228 289 343 409
#     4  11  25  41  65  99 136 172 230 282 347 411
#     4  11  24  45  67  95 136 183 223 289 345 402
#     4  10  24  39  68  95 136 174 230 280 345 403
#     4  10  24  43  69 102 134 179 228 282 352 410
#     4  11  24  45  73  99 138 187 232 284 350 412
#     4  12  25  44  66 100 139 181 235 287 335 413
#
# _framework density 20.953365999999999
#
# number of rings (size 3 to 8) (size 9 to 14) (size 15 to 20)
#    0.000    1.250    3.750    0.750    7.000    4.500 
#    0.000    1.250    0.000    0.000    0.000    0.000 
#    0.000    0.000    0.000    0.000    0.000    0.000 
#
# Total GULP energy -89196.778448 kJ/mol
# GULP energy per Si atom -5574.798653 kJ/mol
# Density = 2.090568 g / cm^3
# Si number density = 20.953366 Si / 1000 Ang^3
#
#
#
# Elastic Constant Matrix: (Units=GPa)
#
#
# Indices 1 2 3 4 5 6 
#
# 1 92.5867 2.7148 61.9807 0.5051 24.0578 -5.3373
# 2 2.7148 36.5681 16.9878 -6.8943 -4.7902 0.2027
# 3 61.9807 16.9878 96.6689 -7.2199 11.9796 9.3890
# 4 0.5051 -6.8943 -7.2199 32.6060 -3.7985 -0.8233
# 5 24.0578 -4.7902 11.9796 -3.7985 39.5228 -0.8379
# 6 -5.3373 0.2027 9.3890 -0.8233 -0.8379 26.3947
#
#
#
# Elastic Compliance Matrix: (Units=1/GPa)
#
#
# Indices 1 2 3 4 5 6 
#
# 1 0.025319 0.003872 -0.017036 -0.004236 -0.009959 0.010702
# 2 0.003872 0.032842 -0.008835 0.005603 0.004925 0.004004
# 3 -0.017036 -0.008835 0.023966 0.003656 0.002138 -0.011720
# 4 -0.004236 0.005603 0.003656 0.033325 0.005331 -0.000991
# 5 -0.009959 0.004925 0.002138 0.005331 0.031791 -0.001637
# 6 0.010702 0.004004 -0.011720 -0.000991 -0.001637 0.044106
#
#
# Mechanical properties :
#
#
# Convention : Reuss Voigt Hill
#
# Bulk Modulus (GPa) = 26.22567 43.24336 34.73452
# Shear Modulus (GPa) = 20.15663 29.31407 24.73535
#
# Velocity S-wave (km/s) = 3.10494 3.74440 3.43956
# Velocity P-wave (km/s) = 5.03960 6.27509 5.69097
#
# Compressibility (1/GPa) = 0.03813058
#
# Stress axis : x y z
#
# Youngs Moduli (GPa) = 39.49539 30.44860 41.72510
#
# Poissons Ratio (x) = -0.11789 0.71082
# Poissons Ratio (y) = -0.15292 0.36863
# Poissons Ratio (z) = 0.67284 0.26900
#
# Static dielectric constant tensor:
#      x y z
#    x 2.049980 0.060550 -0.319370 
#    y 0.060550 1.761750 -0.011470 
#    z -0.319370 -0.011470 2.082230 
# 
# From -- ./inp_files/508577.got.cif
#   From: 2010.05.17/outbox.cif.g08.bks.cpg/sg2_255_cif.got.tgz:508577.got - 2010.06.03 11:33:40.
