data_PCOD9039810
_publ_section_title
;
Structure prediction by ZEFSAII (Michael W. Deem and Ramdas Pophale) SiO2 
 PCOD9039810
Probable space group: P -1
;
_chemical_formula_sum "Si O2"
_cell_formula_units_Z 14
_cell_length_a 11.128976
_cell_length_b 14.347498
_cell_length_c 7.379425
_cell_angle_alpha 56.697902
_cell_angle_beta 139.926007
_cell_angle_gamma 138.385020
_cell_volume 503.043026
_symmetry_space_group_name_H-M "P -1"
_symmetry_group_IT_number 2
_symmetry_cell_setting 'triclinic'
loop_
_space_group_symop_operation_xyz
x,y,z
-x,-y,-z
loop_
_atom_site_type_symbol
_atom_site_label
_atom_site_fract_x
_atom_site_fract_y
_atom_site_fract_z
Si Si1 0.272988 0.984399 0.179227
Si Si2 0.397823 0.223911 0.328182
Si Si3 0.387067 0.563213 0.188923
Si Si4 0.860626 0.661377 0.144755
Si Si5 0.222081 0.705485 0.095965
Si Si6 0.895068 0.732059 0.498934
Si Si7 0.696731 0.955303 0.273731
O O1 0.500000 0.000000 0.500000
O O2 0.272365 0.094707 0.184422
O O3 0.061805 0.819885 0.137755
O O4 0.282812 0.026595 0.937028
O O5 0.366722 0.340178 0.125106
O O6 0.288737 0.156687 0.474638
O O7 0.673878 0.294092 0.592094
O O8 0.500000 0.500000 0.500000
O O9 0.212505 0.466282 0.929083
O O10 0.638291 0.691932 0.256307
O O11 0.266809 0.616920 0.110566
O O12 0.915135 0.664381 0.414332
O O13 0.978700 0.678899 0.812420
O O14 0.419654 0.870189 0.092641
O O15 0.093778 0.898914 0.549664
#
# Coordination Sequence:
#
# PCOD9039810 Si02
#       7
#     2   2   2   2   2   2   2
#     4  12  24  41  73 106 136 183 233 290 356 416
#     4  10  24  44  69 102 141 178 230 292 353 406
#     4  12  26  47  68 101 140 188 240 279 350 428
#     4  12  25  47  64 104 143 177 239 290 340 426
#     4  10  24  47  71 101 142 183 230 292 351 411
#     4  12  25  45  73 100 142 187 230 296 351 410
#     4  10  23  42  71 103 142 178 231 297 348 408
#
# _framework density 27.830622999999999
#
# number of rings (size 3 to 8) (size 9 to 14) (size 15 to 20)
#    0.857    0.000    2.857    3.857    2.000    2.286 
#    2.571    0.000    0.000    0.000    0.000    0.000 
#    0.000    0.000    0.000    0.000    0.000    0.000 
#
# Total GULP energy -78356.022174 kJ/mol
# GULP energy per Si atom -5596.858727 kJ/mol
# Density = 2.776728 g / cm^3
# Si number density = 27.830623 Si / 1000 Ang^3
#
#
#
# Elastic Constant Matrix: (Units=GPa)
#
#
# Indices 1 2 3 4 5 6 
#
# 1 86.2555 19.0982 38.0380 20.8434 -18.5625 -17.9711
# 2 19.0982 107.8519 22.0974 30.6782 -7.7133 -26.7188
# 3 38.0380 22.0974 138.6763 26.2917 -2.8529 -0.2836
# 4 20.8434 30.6782 26.2917 50.8512 -5.5307 -10.0022
# 5 -18.5625 -7.7133 -2.8529 -5.5307 64.1872 10.9995
# 6 -17.9711 -26.7188 -0.2836 -10.0022 10.9995 54.0238
#
#
#
# Elastic Compliance Matrix: (Units=1/GPa)
#
#
# Indices 1 2 3 4 5 6 
#
# 1 0.015497 0.000182 -0.003539 -0.003499 0.003378 0.003891
# 2 0.000182 0.012411 -0.000855 -0.006116 0.000116 0.005038
# 3 -0.003539 -0.000855 0.008886 -0.003091 -0.000656 -0.001992
# 4 -0.003499 -0.006116 -0.003091 0.026548 0.000292 0.000650
# 5 0.003378 0.000116 -0.000656 0.000292 0.016946 -0.002219
# 6 0.003891 0.005038 -0.001992 0.000650 -0.002219 0.022858
#
#
# Mechanical properties :
#
#
# Convention : Reuss Voigt Hill
#
# Bulk Modulus (GPa) = 35.24839 54.58345 44.91592
# Shear Modulus (GPa) = 41.31271 50.71577 46.01424
#
# Velocity S-wave (km/s) = 3.85701 4.27347 4.07057
# Velocity P-wave (km/s) = 5.70335 6.63366 6.18602
#
# Compressibility (1/GPa) = 0.02837009
#
# Stress axis : x y z
#
# Youngs Moduli (GPa) = 64.52876 80.57215 112.53028
#
# Poissons Ratio (x) = -0.01464 0.39822
# Poissons Ratio (y) = -0.01173 0.09624
# Poissons Ratio (z) = 0.22835 0.06891
#
# Static dielectric constant tensor:
#      x y z
#    x 2.245730 0.029080 0.053460 
#    y 0.029080 2.249000 -0.025450 
#    z 0.053460 -0.025450 2.211720 
# 
# From -- ./inp_files/272732.got.cif
#   From: 2010.05.17/outbox.cif.g08.bks.cpg/sg2_137_cif.got.tgz:272732.got - 2010.06.03 11:33:40.
