data_PCOD9039889
_publ_section_title
;
Structure prediction by ZEFSAII (Michael W. Deem and Ramdas Pophale) SiO2 
 PCOD9039889
Probable space group: P -1
;
_chemical_formula_sum "Si O2"
_cell_formula_units_Z 14
_cell_length_a 12.302123
_cell_length_b 20.047140
_cell_length_c 7.242024
_cell_angle_alpha 61.156650
_cell_angle_beta 56.899979
_cell_angle_gamma 23.341092
_cell_volume 591.830337
_symmetry_space_group_name_H-M "P -1"
_symmetry_group_IT_number 2
_symmetry_cell_setting 'triclinic'
loop_
_space_group_symop_operation_xyz
x,y,z
-x,-y,-z
loop_
_atom_site_type_symbol
_atom_site_label
_atom_site_fract_x
_atom_site_fract_y
_atom_site_fract_z
Si Si1 0.434510 0.366516 0.111415
Si Si2 0.279967 0.679439 0.396150
Si Si3 0.107900 0.356038 0.568064
Si Si4 0.639568 0.980071 0.635024
Si Si5 0.316480 0.013083 0.996702
Si Si6 0.831620 0.160126 0.358224
Si Si7 0.764276 0.670453 0.886530
O O1 0.581010 0.272040 0.298233
O O2 0.416718 0.297490 0.102762
O O3 0.118387 0.565199 0.191617
O O4 0.596305 0.342001 0.867171
O O5 0.500000 0.500000 0.500000
O O6 0.265126 0.744317 0.497770
O O7 0.952537 0.823770 0.464097
O O8 0.086393 0.353763 0.371931
O O9 0.000000 0.500000 0.500000
O O10 0.434665 0.161161 0.565752
O O11 0.718101 0.932754 0.842021
O O12 0.576948 0.977388 0.255397
O O13 0.036525 0.107736 0.114829
O O14 0.575347 0.817315 0.004799
O O15 0.000000 0.000000 0.500000
O O16 0.000000 0.500000 0.000000
#
# Coordination Sequence:
#
# PCOD9039889 Si02
#       7
#     2   2   2   2   2   2   2
#     4  11  27  47  75 107 154 189 257 318 375 444
#     4  11  28  48  77 110 152 202 252 312 384 451
#     4  10  24  43  72 105 142 187 247 306 366 445
#     4  10  24  47  71 102 148 190 248 306 373 450
#     4  10  23  42  72 100 141 191 249 295 376 442
#     4  11  27  47  76 110 153 199 252 312 386 447
#     4  11  25  42  75 105 142 196 255 307 375 448
#
# _framework density 23.655429000000002
#
# number of rings (size 3 to 8) (size 9 to 14) (size 15 to 20)
#    0.000    1.429    0.000    2.571   22.000    2.286 
#    0.000    0.000    0.000    0.000    0.000    0.000 
#    0.000    0.000    0.000    0.000    0.000    0.000 
#
# Total GULP energy -78186.370477 kJ/mol
# GULP energy per Si atom -5584.740748 kJ/mol
# Density = 2.360159 g / cm^3
# Si number density = 23.655429 Si / 1000 Ang^3
#
#
#
# Elastic Constant Matrix: (Units=GPa)
#
#
# Indices 1 2 3 4 5 6 
#
# 1 78.1247 36.8940 24.1300 -7.8634 -8.2105 -14.7767
# 2 36.8940 137.8082 43.5765 5.7981 -14.9545 -3.6489
# 3 24.1300 43.5765 130.6695 15.4874 -18.9995 -17.5540
# 4 -7.8634 5.7981 15.4874 48.6618 -10.7412 -3.6249
# 5 -8.2105 -14.9545 -18.9995 -10.7412 38.6512 4.2232
# 6 -14.7767 -3.6489 -17.5540 -3.6249 4.2232 34.1824
#
#
#
# Elastic Compliance Matrix: (Units=1/GPa)
#
#
# Indices 1 2 3 4 5 6 
#
# 1 0.016934 -0.003960 -0.001169 0.004515 0.002032 0.006525
# 2 -0.003960 0.009194 -0.002301 -0.000814 0.001599 -0.002196
# 3 -0.001169 -0.002301 0.009778 -0.002163 0.002661 0.003712
# 4 0.004515 -0.000814 -0.002163 0.023544 0.005848 0.002528
# 5 0.002032 0.001599 0.002661 0.005848 0.029928 -0.000662
# 6 0.006525 -0.002196 0.003712 0.002528 -0.000662 0.034097
#
#
# Mechanical properties :
#
#
# Convention : Reuss Voigt Hill
#
# Bulk Modulus (GPa) = 47.51890 61.75596 54.63743
# Shear Modulus (GPa) = 34.39952 40.43254 37.41603
#
# Velocity S-wave (km/s) = 3.81752 4.13877 3.98139
# Velocity P-wave (km/s) = 6.28990 7.00017 6.65452
#
# Compressibility (1/GPa) = 0.02104426
#
# Stress axis : x y z
#
# Youngs Moduli (GPa) = 59.05432 108.76848 102.26907
#
# Poissons Ratio (x) = 0.43076 0.11960
# Poissons Ratio (y) = 0.23388 0.23530
# Poissons Ratio (z) = 0.06906 0.25025
#
# Static dielectric constant tensor:
#      x y z
#    x 2.001730 -0.067180 -0.073290 
#    y -0.067180 1.972010 0.024120 
#    z -0.073290 0.024120 1.945180 
# 
# From -- ./inp_files/100987.got.cif
#   From: 2010.05.17/outbox.cif.g08.bks.cpg/sg2_51_cif.got.tgz:100987.got - 2010.06.03 11:33:40.
