data_PCOD9039385
_publ_section_title
;
Structure prediction by ZEFSAII (Michael W. Deem and Ramdas Pophale) SiO2 
 PCOD9039385
Probable space group: P -1
;
_chemical_formula_sum "Si O2"
_cell_formula_units_Z 16
_cell_length_a 5.091456
_cell_length_b 19.138905
_cell_length_c 7.434810
_cell_angle_alpha 65.442407
_cell_angle_beta 110.144216
_cell_angle_gamma 80.675918
_cell_volume 577.791806
_symmetry_space_group_name_H-M "P -1"
_symmetry_group_IT_number 2
_symmetry_cell_setting 'triclinic'
loop_
_space_group_symop_operation_xyz
x,y,z
-x,-y,-z
loop_
_atom_site_type_symbol
_atom_site_label
_atom_site_fract_x
_atom_site_fract_y
_atom_site_fract_z
Si Si1 0.801645 0.937211 0.726185
Si Si2 0.355614 0.455298 0.649665
Si Si3 0.567926 0.096824 0.996268
Si Si4 0.151254 0.568985 0.936048
Si Si5 0.198196 0.148771 0.524950
Si Si6 0.633905 0.716382 0.756995
Si Si7 0.578558 0.723160 0.136598
Si Si8 0.852395 0.308891 0.504180
O O1 0.661171 0.901761 0.896855
O O2 0.941707 0.886365 0.630519
O O3 0.083279 0.959703 0.837863
O O4 0.500000 0.000000 0.500000
O O5 0.500000 0.500000 0.500000
O O6 0.449052 0.360718 0.716233
O O7 0.000000 0.500000 0.500000
O O8 0.511024 0.457117 0.877972
O O9 0.422338 0.085202 0.785140
O O10 0.577883 0.190288 0.893772
O O11 0.121095 0.616831 0.688584
O O12 0.957101 0.646130 0.933189
O O13 0.000000 0.500000 0.000000
O O14 0.372255 0.196320 0.402035
O O15 0.986364 0.221707 0.521240
O O16 0.491314 0.679218 0.605326
O O17 0.486014 0.727984 0.903297
O O18 0.934372 0.705568 0.260846
#
# Coordination Sequence:
#
# PCOD9039385 Si02
#       8
#     2   2   2   2   2   2   2   2
#     4  12  27  48  76 112 154 195 241 305 372 440
#     4  12  27  44  67 101 142 191 243 310 375 439
#     4  11  27  46  78 110 147 197 247 302 365 449
#     4  11  25  43  62  95 141 189 243 308 379 440
#     4  10  25  43  72 110 146 189 250 300 366 441
#     4  11  22  43  71  97 139 188 245 310 365 435
#     4  11  23  45  73 104 138 192 252 300 374 442
#     4  10  23  42  68 102 133 186 245 311 358 443
#
# _framework density 27.691631000000001
#
# number of rings (size 3 to 8) (size 9 to 14) (size 15 to 20)
#    0.000    1.000    2.500    2.625    7.000    2.500 
#    4.500    0.000    0.000    0.000    0.000    0.000 
#    0.000    0.000    0.000    0.000    0.000    0.000 
#
# Total GULP energy -89569.747941 kJ/mol
# GULP energy per Si atom -5598.109246 kJ/mol
# Density = 2.762860 g / cm^3
# Si number density = 27.691631 Si / 1000 Ang^3
#
#
#
# Elastic Constant Matrix: (Units=GPa)
#
#
# Indices 1 2 3 4 5 6 
#
# 1 96.9814 6.1296 38.8835 -4.4153 30.0922 6.7575
# 2 6.1296 72.4134 25.4410 13.3094 6.7329 -3.4719
# 3 38.8835 25.4410 169.5798 21.9568 27.8682 3.9746
# 4 -4.4153 13.3094 21.9568 51.2489 5.1932 7.5829
# 5 30.0922 6.7329 27.8682 5.1932 56.3238 1.2109
# 6 6.7575 -3.4719 3.9746 7.5829 1.2109 39.4367
#
#
#
# Elastic Compliance Matrix: (Units=1/GPa)
#
#
# Indices 1 2 3 4 5 6 
#
# 1 0.013571 -0.000464 -0.002383 0.003326 -0.006268 -0.002573
# 2 -0.000464 0.015254 -0.001699 -0.003567 -0.000455 0.002293
# 3 -0.002383 -0.001699 0.007366 -0.002740 -0.001918 0.000102
# 4 0.003326 -0.003567 -0.002740 0.022832 -0.001994 -0.004937
# 5 -0.006268 -0.000455 -0.001918 -0.001994 0.022271 0.000927
# 6 -0.002573 0.002293 0.000102 -0.004937 0.000927 0.026910
#
#
# Mechanical properties :
#
#
# Convention : Reuss Voigt Hill
#
# Bulk Modulus (GPa) = 36.90056 53.32033 45.11044
# Shear Modulus (GPa) = 39.57949 47.30327 43.44138
#
# Velocity S-wave (km/s) = 3.78470 4.13754 3.96505
# Velocity P-wave (km/s) = 5.69676 6.49018 6.10637
#
# Compressibility (1/GPa) = 0.02709986
#
# Stress axis : x y z
#
# Youngs Moduli (GPa) = 73.68422 65.55807 135.76270
#
# Poissons Ratio (x) = 0.03040 0.32347
# Poissons Ratio (y) = 0.03417 0.23069
# Poissons Ratio (z) = 0.17556 0.11140
#
# Static dielectric constant tensor:
#      x y z
#    x 2.203590 -0.060740 0.038020 
#    y -0.060740 2.228600 -0.034070 
#    z 0.038020 -0.034070 2.162690 
# 
# From -- ./inp_files/140625.got.cif
#   From: 2010.05.17/outbox.cif.g08.bks.cpg/sg2_71_cif.got.tgz:140625.got - 2010.06.03 11:33:40.
