data_PCOD9039969
_publ_section_title
;
Structure prediction by ZEFSAII (Michael W. Deem and Ramdas Pophale) SiO2 
 PCOD9039969
Probable space group: P -1
;
_chemical_formula_sum "Si O2"
_cell_formula_units_Z 16
_cell_length_a 14.795885
_cell_length_b 8.361357
_cell_length_c 12.653235
_cell_angle_alpha 47.949990
_cell_angle_beta 119.511032
_cell_angle_gamma 83.006675
_cell_volume 723.445916
_symmetry_space_group_name_H-M "P -1"
_symmetry_group_IT_number 2
_symmetry_cell_setting 'triclinic'
loop_
_space_group_symop_operation_xyz
x,y,z
-x,-y,-z
loop_
_atom_site_type_symbol
_atom_site_label
_atom_site_fract_x
_atom_site_fract_y
_atom_site_fract_z
Si Si1 0.910593 0.573161 0.160511
Si Si2 0.244174 0.690999 0.509019
Si Si3 0.838539 0.644952 0.314708
Si Si4 0.809282 0.633014 0.644171
Si Si5 0.670954 0.323528 0.892764
Si Si6 0.915791 0.324548 0.055210
Si Si7 0.726538 0.276133 0.716307
Si Si8 0.564187 0.309481 0.228064
O O1 0.853841 0.546068 0.245625
O O2 0.892976 0.457258 0.098062
O O3 0.079797 0.388741 0.350715
O O4 0.828295 0.920016 0.945125
O O5 0.221335 0.468371 0.603800
O O6 0.327713 0.635804 0.474173
O O7 0.325913 0.678734 0.660112
O O8 0.081638 0.020941 0.265445
O O9 0.000000 0.500000 0.500000
O O10 0.723963 0.005632 0.088996
O O11 0.812145 0.378815 0.728301
O O12 0.651937 0.965723 0.403469
O O13 0.865535 0.559086 0.830251
O O14 0.627892 0.412943 0.704433
O O15 0.554828 0.561739 0.807102
O O16 0.813894 0.264174 0.012697
O O17 0.500000 0.500000 0.000000
#
# Coordination Sequence:
#
# PCOD9039969 Si02
#       8
#     2   2   2   2   2   2   2   2
#     4  11  21  38  69 107 132 169 228 292 341 395
#     4  12  24  44  73 106 133 186 231 283 346 405
#     4  11  24  40  70 104 141 176 226 293 345 401
#     4  11  22  42  71 101 139 180 222 292 343 403
#     4  10  26  47  65 102 143 184 224 283 345 414
#     4  11  22  40  77 105 133 169 243 292 338 398
#     4  10  23  42  73 103 134 170 234 292 343 396
#     4  12  30  47  66  97 150 190 226 271 351 424
#
# _framework density 22.116372999999999
#
# number of rings (size 3 to 8) (size 9 to 14) (size 15 to 20)
#    0.000    1.000    3.750    2.250    7.000    3.500 
#    0.000    0.000    0.000    0.000    0.000    0.000 
#    0.000    0.000    0.000    0.000    0.000    0.000 
#
# Total GULP energy -89500.731028 kJ/mol
# GULP energy per Si atom -5593.795689 kJ/mol
# Density = 2.206604 g / cm^3
# Si number density = 22.116373 Si / 1000 Ang^3
#
#
#
# Elastic Constant Matrix: (Units=GPa)
#
#
# Indices 1 2 3 4 5 6 
#
# 1 94.2585 30.9872 39.8667 0.7884 -2.6444 -17.6290
# 2 30.9872 100.6253 19.6209 13.5348 -15.3729 -14.0663
# 3 39.8667 19.6209 73.0534 12.7568 -20.2878 -9.1130
# 4 0.7884 13.5348 12.7568 28.9149 0.4709 -3.4723
# 5 -2.6444 -15.3729 -20.2878 0.4709 25.3273 3.8621
# 6 -17.6290 -14.0663 -9.1130 -3.4723 3.8621 41.7310
#
#
#
# Elastic Compliance Matrix: (Units=1/GPa)
#
#
# Indices 1 2 3 4 5 6 
#
# 1 0.018441 -0.005564 -0.013012 0.008648 -0.012794 0.004977
# 2 -0.005564 0.013842 0.003940 -0.008063 0.010898 0.001496
# 3 -0.013012 0.003940 0.029039 -0.014867 0.024777 -0.001357
# 4 0.008648 -0.008063 -0.014867 0.045329 -0.017209 0.003053
# 5 -0.012794 0.010898 0.024777 -0.017209 0.065511 -0.003815
# 6 0.004977 0.001496 -0.001357 0.003053 -0.003815 0.026881
#
#
# Mechanical properties :
#
#
# Convention : Reuss Voigt Hill
#
# Bulk Modulus (GPa) = 31.20068 49.87630 40.53849
# Shear Modulus (GPa) = 20.92081 31.02547 25.97314
#
# Velocity S-wave (km/s) = 3.07895 3.74950 3.43065
# Velocity P-wave (km/s) = 5.17475 6.43006 5.83626
#
# Compressibility (1/GPa) = 0.03205058
#
# Stress axis : x y z
#
# Youngs Moduli (GPa) = 54.22684 72.24574 34.43660
#
# Poissons Ratio (x) = 0.40196 0.44808
# Poissons Ratio (y) = 0.30171 -0.13568
# Poissons Ratio (z) = 0.70558 -0.28464
#
# Static dielectric constant tensor:
#      x y z
#    x 1.790400 -0.013040 0.002690 
#    y -0.013040 1.842720 0.040540 
#    z 0.002690 0.040540 1.801400 
# 
# From -- ./inp_files/206967.got.cif
#   From: 2010.05.17/outbox.cif.g08.bks.cpg/sg2_104_cif.got.tgz:206967.got - 2010.06.03 11:33:40.
