data_PCOD9039996
_publ_section_title
;
Structure prediction by ZEFSAII (Michael W. Deem and Ramdas Pophale) SiO2 
 PCOD9039996
Probable space group: P -1
;
_chemical_formula_sum "Si O2"
_cell_formula_units_Z 14
_cell_length_a 8.182359
_cell_length_b 15.126275
_cell_length_c 7.935789
_cell_angle_alpha 136.009745
_cell_angle_beta 105.073303
_cell_angle_gamma 60.718582
_cell_volume 588.135324
_symmetry_space_group_name_H-M "P -1"
_symmetry_group_IT_number 2
_symmetry_cell_setting 'triclinic'
loop_
_space_group_symop_operation_xyz
x,y,z
-x,-y,-z
loop_
_atom_site_type_symbol
_atom_site_label
_atom_site_fract_x
_atom_site_fract_y
_atom_site_fract_z
Si Si1 0.716589 0.695187 0.202363
Si Si2 0.466708 0.716424 0.870052
Si Si3 0.889761 0.402206 0.026660
Si Si4 0.872753 0.130979 0.527115
Si Si5 0.918795 0.803694 0.631350
Si Si6 0.329061 0.959748 0.896236
Si Si7 0.792228 0.445012 0.431782
O O1 0.738884 0.796883 0.487508
O O2 0.903676 0.655220 0.081559
O O3 0.535438 0.753553 0.114287
O O4 0.749078 0.548101 0.097406
O O5 0.360255 0.851389 0.908575
O O6 0.655368 0.604662 0.669992
O O7 0.340659 0.633501 0.743310
O O8 0.824599 0.279492 0.808746
O O9 0.895733 0.432939 0.267055
O O10 0.699539 0.108460 0.375953
O O11 0.988224 0.135082 0.396307
O O12 0.000000 0.000000 0.500000
O O13 0.067796 0.644089 0.503182
O O14 0.858597 0.896525 0.911008
O O15 0.500000 0.000000 0.000000
#
# Coordination Sequence:
#
# PCOD9039996 Si02
#       7
#     2   2   2   2   2   2   2
#     4  10  24  43  68 104 136 169 232 286 330 397
#     4  11  26  44  65 106 140 170 227 291 333 392
#     4  10  23  42  73  99 133 181 230 274 337 406
#     4  11  24  45  72  97 135 184 229 268 338 419
#     4  11  25  48  71  97 136 188 225 271 337 418
#     4  12  29  45  68 103 142 176 225 284 340 398
#     4  11  24  44  75  96 135 185 227 276 338 404
#
# _framework density 23.804046
#
# number of rings (size 3 to 8) (size 9 to 14) (size 15 to 20)
#    0.000    1.143    1.429    3.857   12.000    3.429 
#    0.000    0.000    0.000    0.000    0.000    0.000 
#    0.000    0.000    0.000    0.000    0.000    0.000 
#
# Total GULP energy -78464.891273 kJ/mol
# GULP energy per Si atom -5604.635091 kJ/mol
# Density = 2.374987 g / cm^3
# Si number density = 23.804046 Si / 1000 Ang^3
#
#
#
# Elastic Constant Matrix: (Units=GPa)
#
#
# Indices 1 2 3 4 5 6 
#
# 1 52.2186 14.5515 20.1908 -3.9200 5.0955 5.5328
# 2 14.5515 105.4035 16.5968 -13.7675 12.4834 -1.6349
# 3 20.1908 16.5968 120.2010 -14.3529 27.7696 3.8965
# 4 -3.9200 -13.7675 -14.3529 43.1524 -8.8750 5.8961
# 5 5.0955 12.4834 27.7696 -8.8750 46.2172 -14.3610
# 6 5.5328 -1.6349 3.8965 5.8961 -14.3610 30.6659
#
#
#
# Elastic Compliance Matrix: (Units=1/GPa)
#
#
# Indices 1 2 3 4 5 6 
#
# 1 0.021520 -0.002368 -0.002769 0.000608 -0.001317 -0.004391
# 2 -0.002368 0.010436 -0.000236 0.002678 -0.002044 -0.000459
# 3 -0.002769 -0.000236 0.010930 0.002477 -0.007198 -0.004749
# 4 0.000608 0.002678 0.002477 0.025797 0.001225 -0.004668
# 5 -0.001317 -0.002044 -0.007198 0.001225 0.031768 0.015685
# 6 -0.004391 -0.000459 -0.004749 -0.004668 0.015685 0.042223
#
#
# Mechanical properties :
#
#
# Convention : Reuss Voigt Hill
#
# Bulk Modulus (GPa) = 31.11362 42.27791 36.69576
# Shear Modulus (GPa) = 30.46300 39.10603 34.78452
#
# Velocity S-wave (km/s) = 3.58123 4.05758 3.82682
# Velocity P-wave (km/s) = 5.49539 6.30487 5.91400
#
# Compressibility (1/GPa) = 0.03214027
#
# Stress axis : x y z
#
# Youngs Moduli (GPa) = 46.46850 95.81999 91.49336
#
# Poissons Ratio (x) = 0.22688 0.25332
# Poissons Ratio (y) = 0.11002 0.02163
# Poissons Ratio (z) = 0.12866 0.02265
#
# Static dielectric constant tensor:
#      x y z
#    x 1.926360 0.022530 0.026490 
#    y 0.022530 1.832000 -0.009560 
#    z 0.026490 -0.009560 1.889710 
# 
# From -- ./inp_files/209503.got.cif
#   From: 2010.05.17/outbox.cif.g08.bks.cpg/sg2_105_cif.got.tgz:209503.got - 2010.06.03 11:33:40.
