data_PCOD9039677
_publ_section_title
;
Structure prediction by ZEFSAII (Michael W. Deem and Ramdas Pophale) SiO2 
 PCOD9039677
Probable space group: P -1
;
_chemical_formula_sum "Si O2"
_cell_formula_units_Z 16
_cell_length_a 11.259703
_cell_length_b 9.223525
_cell_length_c 7.963600
_cell_angle_alpha 78.554471
_cell_angle_beta 60.397292
_cell_angle_gamma 77.232850
_cell_volume 697.422976
_symmetry_space_group_name_H-M "P -1"
_symmetry_group_IT_number 2
_symmetry_cell_setting 'triclinic'
loop_
_space_group_symop_operation_xyz
x,y,z
-x,-y,-z
loop_
_atom_site_type_symbol
_atom_site_label
_atom_site_fract_x
_atom_site_fract_y
_atom_site_fract_z
Si Si1 0.319505 0.123881 0.501936
Si Si2 0.201627 0.769614 0.136744
Si Si3 0.648858 0.380444 0.258814
Si Si4 0.445908 0.592923 0.185367
Si Si5 0.078945 0.353215 0.567236
Si Si6 0.140171 0.056696 0.950732
Si Si7 0.534629 0.181386 0.624176
Si Si8 0.141387 0.399978 0.878533
O O1 0.211873 0.237317 0.439149
O O2 0.230233 0.047627 0.719814
O O3 0.423813 0.187192 0.547269
O O4 0.405228 0.992724 0.363790
O O5 0.291357 0.668008 0.234213
O O6 0.045750 0.735458 0.269298
O O7 0.279898 0.719054 0.919803
O O8 0.197869 0.947299 0.087011
O O9 0.493405 0.462177 0.314772
O O10 0.647203 0.278395 0.446420
O O11 0.736582 0.516946 0.163458
O O12 0.507209 0.736653 0.189327
O O13 0.500000 0.500000 0.000000
O O14 0.147625 0.406005 0.673421
O O15 0.000000 0.500000 0.500000
O O16 0.132796 0.229012 0.971590
O O17 0.000000 0.000000 0.000000
O O18 0.000000 0.500000 0.000000
#
# Coordination Sequence:
#
# PCOD9039677 Si02
#       8
#     2   2   2   2   2   2   2   2
#     4  10  23  42  70 100 132 180 235 280 332 407
#     4  11  22  42  64  95 133 180 214 278 347 399
#     4  11  22  42  69  96 128 177 229 283 332 402
#     4  10  24  40  62  97 135 170 222 272 345 404
#     4  11  24  40  63  96 142 172 220 285 338 399
#     4  11  19  40  66  90 131 175 221 276 324 402
#     4  11  23  43  70  98 134 181 233 279 339 407
#     4  11  22  39  66  99 122 169 236 270 325 399
#
# _framework density 22.941600000000001
#
# number of rings (size 3 to 8) (size 9 to 14) (size 15 to 20)
#    0.000    1.250    5.000    1.875    3.500    0.000 
#    2.250    3.125    0.000    0.000    0.000    0.000 
#    0.000    0.000    0.000    0.000    0.000    0.000 
#
# Total GULP energy -89095.322402 kJ/mol
# GULP energy per Si atom -5568.457650 kJ/mol
# Density = 2.288938 g / cm^3
# Si number density = 22.941600 Si / 1000 Ang^3
#
#
#
# Elastic Constant Matrix: (Units=GPa)
#
#
# Indices 1 2 3 4 5 6 
#
# 1 82.3440 71.0241 13.4580 7.2094 -13.7457 -25.3523
# 2 71.0241 186.7518 37.4207 1.2885 4.6081 -21.4740
# 3 13.4580 37.4207 33.3319 -1.7998 -2.6954 4.2843
# 4 7.2094 1.2885 -1.7998 38.4023 3.2715 4.3278
# 5 -13.7457 4.6081 -2.6954 3.2715 25.5829 -2.5800
# 6 -25.3523 -21.4740 4.2843 4.3278 -2.5800 46.1836
#
#
#
# Elastic Compliance Matrix: (Units=1/GPa)
#
#
# Indices 1 2 3 4 5 6 
#
# 1 0.028588 -0.009460 -0.001515 -0.008262 0.019301 0.013288
# 2 -0.009460 0.010985 -0.009106 0.001665 -0.008219 0.000144
# 3 -0.001515 -0.009106 0.042503 0.003269 0.003969 -0.009093
# 4 -0.008262 0.001665 0.003269 0.029268 -0.008874 -0.007303
# 5 0.019301 -0.008219 0.003969 -0.008874 0.053524 0.010227
# 6 0.013288 0.000144 -0.009093 -0.007303 0.010227 0.031113
#
#
# Mechanical properties :
#
#
# Convention : Reuss Voigt Hill
#
# Bulk Modulus (GPa) = 23.85936 60.69256 42.27596
# Shear Modulus (GPa) = 19.99087 34.06875 27.02981
#
# Velocity S-wave (km/s) = 2.95512 3.85778 3.43622
# Velocity P-wave (km/s) = 4.69747 6.80852 5.84903
#
# Compressibility (1/GPa) = 0.04191227
#
# Stress axis : x y z
#
# Youngs Moduli (GPa) = 34.98019 91.03272 23.52781
#
# Poissons Ratio (x) = 0.86116 0.03565
# Poissons Ratio (y) = 0.33091 0.21425
# Poissons Ratio (z) = 0.05301 0.82898
#
# Static dielectric constant tensor:
#      x y z
#    x 1.958120 -0.052800 -0.040460 
#    y -0.052800 1.925090 -0.019500 
#    z -0.040460 -0.019500 1.778260 
# 
# From -- ./inp_files/238215.got.cif
#   From: 2010.05.17/outbox.cif.g08.bks.cpg/sg2_120_cif.got.tgz:238215.got - 2010.06.03 11:33:40.
