data_PCOD9039217
_publ_section_title
;
Structure prediction by ZEFSAII (Michael W. Deem and Ramdas Pophale) SiO2 
 PCOD9039217
Probable space group: P -1
;
_chemical_formula_sum "Si O2"
_cell_formula_units_Z 14
_cell_length_a 12.875299
_cell_length_b 11.589042
_cell_length_c 5.195347
_cell_angle_alpha 86.296608
_cell_angle_beta 57.762219
_cell_angle_gamma 61.879055
_cell_volume 559.871207
_symmetry_space_group_name_H-M "P -1"
_symmetry_group_IT_number 2
_symmetry_cell_setting 'triclinic'
loop_
_space_group_symop_operation_xyz
x,y,z
-x,-y,-z
loop_
_atom_site_type_symbol
_atom_site_label
_atom_site_fract_x
_atom_site_fract_y
_atom_site_fract_z
Si Si1 0.719147 0.622178 0.142384
Si Si2 0.117647 0.084542 0.061478
Si Si3 0.626586 0.883234 0.507101
Si Si4 0.464819 0.642139 0.153909
Si Si5 0.723667 0.230599 0.092537
Si Si6 0.094327 0.670198 0.996661
Si Si7 0.829685 0.762454 0.644422
O O1 0.796942 0.481798 0.212099
O O2 0.829947 0.657887 0.859980
O O3 0.634890 0.747714 0.423673
O O4 0.612974 0.623870 0.065775
O O5 0.239810 0.100731 0.754953
O O6 0.966949 0.202882 0.132847
O O7 0.167035 0.929677 0.997073
O O8 0.127602 0.131966 0.325752
O O9 0.663209 0.856288 0.763347
O O10 0.500000 0.000000 0.500000
O O11 0.366534 0.696798 0.537086
O O12 0.500000 0.500000 0.000000
O O13 0.377479 0.745544 0.022418
O O14 0.816821 0.300628 0.913953
O O15 0.953911 0.674628 0.290321
#
# Coordination Sequence:
#
# PCOD9039217 Si02
#       7
#     2   2   2   2   2   2   2
#     4  11  25  43  73 104 145 190 242 308 362 440
#     4  10  25  43  69 105 143 192 244 297 365 436
#     4  10  23  42  67 101 144 186 244 301 368 430
#     4  12  28  49  76 112 145 195 245 304 369 431
#     4  12  28  48  78 107 152 192 249 302 364 436
#     4  11  25  46  69 103 149 191 246 298 368 436
#     4  10  25  43  70 105 139 195 244 299 367 431
#
# _framework density 25.005749000000002
#
# number of rings (size 3 to 8) (size 9 to 14) (size 15 to 20)
#    0.000    1.143    1.429    2.143   12.000    8.000 
#    0.000    0.000    0.000    0.000    0.000    0.000 
#    0.000    0.000    0.000    0.000    0.000    0.000 
#
# Total GULP energy -78157.831716 kJ/mol
# GULP energy per Si atom -5582.702265 kJ/mol
# Density = 2.494883 g / cm^3
# Si number density = 25.005749 Si / 1000 Ang^3
#
#
#
# Elastic Constant Matrix: (Units=GPa)
#
#
# Indices 1 2 3 4 5 6 
#
# 1 108.0038 44.0192 22.3027 13.5350 15.4223 -10.8287
# 2 44.0192 172.2613 24.1747 42.6254 2.0295 -20.0749
# 3 22.3027 24.1747 68.3347 0.1969 11.4245 -14.5968
# 4 13.5350 42.6254 0.1969 32.1893 4.6139 -0.6054
# 5 15.4223 2.0295 11.4245 4.6139 35.0404 -1.0755
# 6 -10.8287 -20.0749 -14.5968 -0.6054 -1.0755 43.7537
#
#
#
# Elastic Compliance Matrix: (Units=1/GPa)
#
#
# Indices 1 2 3 4 5 6 
#
# 1 0.011398 -0.002106 -0.002079 -0.001398 -0.004001 0.001043
# 2 -0.002106 0.010315 -0.002754 -0.013135 0.003055 0.003186
# 3 -0.002079 -0.002754 0.018066 0.005261 -0.005380 0.004189
# 4 -0.001398 -0.013135 0.005261 0.049948 -0.007042 -0.004100
# 5 -0.004001 0.003055 -0.005380 -0.007042 0.032783 -0.000675
# 6 0.001043 0.003186 0.004189 -0.004100 -0.000675 0.025900
#
#
# Mechanical properties :
#
#
# Convention : Reuss Voigt Hill
#
# Bulk Modulus (GPa) = 38.60997 58.84369 48.72683
# Shear Modulus (GPa) = 29.25320 39.40358 34.32839
#
# Velocity S-wave (km/s) = 3.42403 3.97392 3.70918
# Velocity P-wave (km/s) = 5.57727 6.68126 6.15407
#
# Compressibility (1/GPa) = 0.02590004
#
# Stress axis : x y z
#
# Youngs Moduli (GPa) = 87.73696 96.94200 55.35299
#
# Poissons Ratio (x) = 0.20418 0.11509
# Poissons Ratio (y) = 0.18479 0.15245
# Poissons Ratio (z) = 0.18242 0.26699
#
# Static dielectric constant tensor:
#      x y z
#    x 2.060300 -0.094380 0.054800 
#    y -0.094380 2.017400 -0.060720 
#    z 0.054800 -0.060720 2.134700 
# 
# From -- ./inp_files/67269.got.cif
#   From: 2010.05.17/outbox.cif.g08.bks.cpg/sg2_34_cif.got.tgz:67269.got - 2010.06.03 11:33:40.
