data_PCOD9039731
_publ_section_title
;
Structure prediction by ZEFSAII (Michael W. Deem and Ramdas Pophale) SiO2 
 PCOD9039731
Probable space group: P -1
;
_chemical_formula_sum "Si O2"
_cell_formula_units_Z 16
_cell_length_a 11.021107
_cell_length_b 14.472522
_cell_length_c 11.600539
_cell_angle_alpha 151.382908
_cell_angle_beta 70.968865
_cell_angle_gamma 102.236980
_cell_volume 826.425185
_symmetry_space_group_name_H-M "P -1"
_symmetry_group_IT_number 2
_symmetry_cell_setting 'triclinic'
loop_
_space_group_symop_operation_xyz
x,y,z
-x,-y,-z
loop_
_atom_site_type_symbol
_atom_site_label
_atom_site_fract_x
_atom_site_fract_y
_atom_site_fract_z
Si Si1 0.550062 0.521755 0.696483
Si Si2 0.536317 0.315711 0.874643
Si Si3 0.524783 0.201216 0.160969
Si Si4 0.955010 0.740507 0.915113
Si Si5 0.032369 0.280182 0.388633
Si Si6 0.318255 0.042273 0.686712
Si Si7 0.804788 0.056904 0.928301
Si Si8 0.754128 0.200525 0.361726
O O1 0.514783 0.359161 0.440675
O O2 0.567232 0.701661 0.805999
O O3 0.678878 0.421156 0.612949
O O4 0.447083 0.592094 0.904528
O O5 0.418672 0.188788 0.787867
O O6 0.653677 0.147713 0.613570
O O7 0.500000 0.500000 0.000000
O O8 0.671777 0.146221 0.005074
O O9 0.500000 0.000000 0.000000
O O10 0.000906 0.510639 0.665741
O O11 0.937524 0.763626 0.805365
O O12 0.824222 0.830045 0.119701
O O13 0.072481 0.845623 0.036411
O O14 0.897272 0.199966 0.367665
O O15 0.144376 0.172854 0.320434
O O16 0.331016 0.929154 0.682117
O O17 0.773420 0.125661 0.144601
#
# Coordination Sequence:
#
# PCOD9039731 Si02
#       8
#     2   2   2   2   2   2   2   2
#     4  10  22  39  56  83 118 147 196 236 277 345
#     4  11  24  36  56  85 117 157 195 233 280 342
#     4  10  24  38  61  83 112 159 188 239 291 331
#     4  10  19  30  51  81 114 149 182 227 294 336
#     4  10  18  29  52  85 114 148 176 229 286 352
#     4  11  21  34  55  86 118 154 184 227 295 341
#     4  10  19  33  51  83 116 140 190 225 281 348
#     4  10  17  33  55  82 121 145 178 231 290 344
#
# _framework density 19.360493999999999
#
# number of rings (size 3 to 8) (size 9 to 14) (size 15 to 20)
#    0.000    1.750    3.750    1.500    3.500    6.000 
#    0.000    0.000    0.000    0.750    0.000    2.625 
#    0.000    0.000    0.000    0.000    0.000    0.000 
#
# Total GULP energy -89152.467674 kJ/mol
# GULP energy per Si atom -5572.029230 kJ/mol
# Density = 1.931643 g / cm^3
# Si number density = 19.360494 Si / 1000 Ang^3
#
#
#
# Elastic Constant Matrix: (Units=GPa)
#
#
# Indices 1 2 3 4 5 6 
#
# 1 40.1985 16.0203 28.2175 1.9002 -15.0467 10.0844
# 2 16.0203 85.1977 37.8059 17.3090 -0.7463 10.8537
# 3 28.2175 37.8059 131.9178 11.8974 -25.5610 4.1874
# 4 1.9002 17.3090 11.8974 36.1717 5.2799 -3.0742
# 5 -15.0467 -0.7463 -25.5610 5.2799 20.6492 -1.6470
# 6 10.0844 10.8537 4.1874 -3.0742 -1.6470 23.4286
#
#
#
# Elastic Compliance Matrix: (Units=1/GPa)
#
#
# Indices 1 2 3 4 5 6 
#
# 1 0.042351 -0.004212 -0.001202 -0.005357 0.029417 -0.014698
# 2 -0.004212 0.016384 -0.004450 -0.005657 -0.007035 -0.006219
# 3 -0.001202 -0.004450 0.012457 -0.004090 0.015501 0.000906
# 4 -0.005357 -0.005657 -0.004090 0.035300 -0.017475 0.009061
# 5 0.029417 -0.007035 0.015501 -0.017475 0.092632 -0.007955
# 6 -0.014698 -0.006219 0.000906 0.009061 -0.007955 0.052358
#
#
# Mechanical properties :
#
#
# Convention : Reuss Voigt Hill
#
# Bulk Modulus (GPa) = 19.43121 46.82237 33.12679
# Shear Modulus (GPa) = 17.33922 27.73459 22.53690
#
# Velocity S-wave (km/s) = 2.99590 3.78899 3.41554
# Velocity P-wave (km/s) = 4.69314 6.58627 5.71859
#
# Compressibility (1/GPa) = 0.05146359
#
# Stress axis : x y z
#
# Youngs Moduli (GPa) = 23.61242 61.03553 80.27833
#
# Poissons Ratio (x) = 0.25705 0.09651
# Poissons Ratio (y) = 0.09944 0.35725
# Poissons Ratio (z) = 0.02839 0.27162
#
# Static dielectric constant tensor:
#      x y z
#    x 1.730650 0.004090 -0.028100 
#    y 0.004090 1.707270 0.028010 
#    z -0.028100 0.028010 1.733720 
# 
# From -- ./inp_files/432059.got.cif
#   From: 2010.05.17/outbox.cif.g08.bks.cpg/sg2_217_cif.got.tgz:432059.got - 2010.06.03 11:33:40.
