data_PCOD9039482
_publ_section_title
;
Structure prediction by ZEFSAII (Michael W. Deem and Ramdas Pophale) SiO2 
 PCOD9039482
Probable space group: P -1
;
_chemical_formula_sum "Si O2"
_cell_formula_units_Z 12
_cell_length_a 5.217993
_cell_length_b 7.395981
_cell_length_c 17.580267
_cell_angle_alpha 132.219836
_cell_angle_beta 107.235606
_cell_angle_gamma 67.493448
_cell_volume 463.422682
_symmetry_space_group_name_H-M "P -1"
_symmetry_group_IT_number 2
_symmetry_cell_setting 'triclinic'
loop_
_space_group_symop_operation_xyz
x,y,z
-x,-y,-z
loop_
_atom_site_type_symbol
_atom_site_label
_atom_site_fract_x
_atom_site_fract_y
_atom_site_fract_z
Si Si1 0.431454 0.132697 0.205439
Si Si2 0.747186 0.283673 0.998725
Si Si3 0.982162 0.931579 0.244702
Si Si4 0.724838 0.682531 0.594007
Si Si5 0.671233 0.589764 0.875937
Si Si6 0.013963 0.106487 0.447648
O O1 0.444918 0.234675 0.320519
O O2 0.388720 0.347003 0.199525
O O3 0.726878 0.924782 0.168403
O O4 0.214382 0.973962 0.118212
O O5 0.596277 0.259273 0.058502
O O6 0.039045 0.349496 0.056502
O O7 0.500000 0.500000 0.000000
O O8 0.258105 0.712636 0.190751
O O9 0.939479 0.909939 0.325920
O O10 0.014074 0.216317 0.323477
O O11 0.794421 0.383422 0.505826
O O12 0.714909 0.826743 0.551430
O O13 0.000000 0.000000 0.500000
#
# Coordination Sequence:
#
# PCOD9039482 Si02
#       6
#     2   2   2   2   2   2
#     4  12  25  42  69  99 139 183 240 291 352 428
#     4  12  26  46  71  99 147 186 238 295 353 420
#     4  10  23  42  68  97 141 178 233 293 355 408
#     4   9  22  41  66  98 141 178 229 302 350 416
#     4  12  27  44  72 105 138 196 235 288 363 421
#     4   9  19  42  69  97 138 182 234 288 365 429
#
# _framework density 25.894290000000002
#
# number of rings (size 3 to 8) (size 9 to 14) (size 15 to 20)
#    1.000    0.333    1.667    3.500    4.667    0.667 
#    0.000    0.833    0.000    0.000    0.000    0.000 
#    0.000    0.000    0.000    0.000    0.000    0.000 
#
# Total GULP energy -66861.802949 kJ/mol
# GULP energy per Si atom -5571.816912 kJ/mol
# Density = 2.583535 g / cm^3
# Si number density = 25.894290 Si / 1000 Ang^3
#
#
#
# Elastic Constant Matrix: (Units=GPa)
#
#
# Indices 1 2 3 4 5 6 
#
# 1 81.2430 21.2378 30.5091 -20.2341 -20.7460 5.5148
# 2 21.2378 128.9561 41.9695 -20.3811 -19.4350 20.4276
# 3 30.5091 41.9695 115.7355 1.7263 -26.7729 -2.2552
# 4 -20.2341 -20.3811 1.7263 39.3857 6.3791 -7.6334
# 5 -20.7460 -19.4350 -26.7729 6.3791 42.5037 -6.5484
# 6 5.5148 20.4276 -2.2552 -7.6334 -6.5484 28.6313
#
#
#
# Elastic Compliance Matrix: (Units=1/GPa)
#
#
# Indices 1 2 3 4 5 6 
#
# 1 0.016861 0.000536 -0.003652 0.008194 0.004849 -0.000625
# 2 0.000536 0.010952 -0.004096 0.004655 0.000946 -0.006782
# 3 -0.003652 -0.004096 0.012557 -0.004553 0.005661 0.004696
# 4 0.008194 0.004655 -0.004553 0.033036 -0.001193 0.003277
# 5 0.004849 0.000946 0.005661 -0.001193 0.030934 0.005594
# 6 -0.000625 -0.006782 0.004696 0.003277 0.005594 0.042409
#
#
# Mechanical properties :
#
#
# Convention : Reuss Voigt Hill
#
# Bulk Modulus (GPa) = 38.53877 57.04081 47.78979
# Shear Modulus (GPa) = 29.44284 37.58536 33.51410
#
# Velocity S-wave (km/s) = 3.37566 3.81398 3.60149
# Velocity P-wave (km/s) = 5.48715 6.43983 5.98249
#
# Compressibility (1/GPa) = 0.02594790
#
# Stress axis : x y z
#
# Youngs Moduli (GPa) = 59.30770 91.30920 79.63492
#
# Poissons Ratio (x) = -0.04897 0.29083
# Poissons Ratio (y) = -0.03181 0.32615
# Poissons Ratio (z) = 0.21659 0.37396
#
# Static dielectric constant tensor:
#      x y z
#    x 2.368720 0.048960 -0.108950 
#    y 0.048960 2.081320 -0.024560 
#    z -0.108950 -0.024560 2.051180 
# 
# From -- ./inp_files/546337.got.cif
#   From: 2010.05.17/outbox.cif.g08.bks.cpg/sg2_274_cif.got.tgz:546337.got - 2010.06.03 11:33:40.
