data_PCOD9039219
_publ_section_title
;
Structure prediction by ZEFSAII (Michael W. Deem and Ramdas Pophale) SiO2 
 PCOD9039219
Probable space group: P -1
;
_chemical_formula_sum "Si O2"
_cell_formula_units_Z 13
_cell_length_a 6.443704
_cell_length_b 10.905867
_cell_length_c 12.438092
_cell_angle_alpha 55.519010
_cell_angle_beta 43.228536
_cell_angle_gamma 62.833415
_cell_volume 491.980771
_symmetry_space_group_name_H-M "P -1"
_symmetry_group_IT_number 2
_symmetry_cell_setting 'triclinic'
loop_
_space_group_symop_operation_xyz
x,y,z
-x,-y,-z
loop_
_atom_site_type_symbol
_atom_site_label
_atom_site_fract_x
_atom_site_fract_y
_atom_site_fract_z
Si Si1 0.909165 0.483714 0.272418
Si Si2 0.778129 0.387812 0.585525
Si Si3 0.000000 0.500000 0.000000
Si Si4 0.497271 0.058782 0.646022
Si Si5 0.677083 0.207121 0.291959
Si Si6 0.867175 0.224028 0.846325
Si Si7 0.662273 0.949341 0.852302
O O1 0.898412 0.365753 0.430257
O O2 0.566479 0.542083 0.334426
O O3 0.073135 0.439076 0.123255
O O4 0.037922 0.629184 0.203467
O O5 0.782814 0.260551 0.735572
O O6 0.000000 0.500000 0.500000
O O7 0.729620 0.375126 0.154184
O O8 0.563078 0.182809 0.469500
O O9 0.157243 0.106415 0.792506
O O10 0.513810 0.900396 0.656252
O O11 0.690740 0.052181 0.685777
O O12 0.015134 0.126400 0.200991
O O13 0.576633 0.165422 0.040650
O O14 0.500000 0.000000 0.000000
#
# Coordination Sequence:
#
# PCOD9039219 Si02
#       7
#     2   2   1   2   2   2   2
#     4  10  23  42  67 101 147 187 236 290 357 430
#     4   9  21  41  67 101 135 185 244 282 351 427
#     4  12  26  44  72 102 148 188 224 298 364 424
#     4  11  26  48  74 104 146 188 241 301 363 426
#     4  11  27  49  69 107 147 191 236 298 365 433
#     4  11  23  41  77 103 137 188 249 298 353 425
#     4  12  25  44  75 106 137 187 249 300 353 429
#
# _framework density 26.423795999999999
#
# number of rings (size 3 to 8) (size 9 to 14) (size 15 to 20)
#    0.000    1.231    1.538    2.769   10.769    0.000 
#    5.538    7.692    0.000    0.000    0.000    0.000 
#    0.000    0.000    0.000    0.000    0.000    0.000 
#
# Total GULP energy -72520.095483 kJ/mol
# GULP energy per Si atom -5578.468883 kJ/mol
# Density = 2.636365 g / cm^3
# Si number density = 26.423796 Si / 1000 Ang^3
#
#
#
# Elastic Constant Matrix: (Units=GPa)
#
#
# Indices 1 2 3 4 5 6 
#
# 1 89.8777 30.8684 34.1586 3.6611 16.4559 19.4118
# 2 30.8684 61.2056 31.4459 -11.6191 5.2048 18.7118
# 3 34.1586 31.4459 130.7514 -27.5762 22.6212 -0.1247
# 4 3.6611 -11.6191 -27.5762 46.5658 8.0405 -13.4972
# 5 16.4559 5.2048 22.6212 8.0405 68.7014 7.9766
# 6 19.4118 18.7118 -0.1247 -13.4972 7.9766 38.8878
#
#
#
# Elastic Compliance Matrix: (Units=1/GPa)
#
#
# Indices 1 2 3 4 5 6 
#
# 1 0.016925 -0.004771 -0.004965 -0.008040 -0.000078 -0.008944
# 2 -0.004771 0.023997 -0.004767 0.000479 0.001931 -0.009411
# 3 -0.004965 -0.004767 0.013262 0.010735 -0.005188 0.009605
# 4 -0.008040 0.000479 0.010735 0.035020 -0.007783 0.017569
# 5 -0.000078 0.001931 -0.005188 -0.007783 0.017892 -0.007278
# 6 -0.008944 -0.009411 0.009605 0.017569 -0.007278 0.042329
#
#
# Mechanical properties :
#
#
# Convention : Reuss Voigt Hill
#
# Bulk Modulus (GPa) = 39.71498 52.75340 46.23419
# Shear Modulus (GPa) = 26.76304 43.18846 34.97575
#
# Velocity S-wave (km/s) = 3.18597 4.04722 3.64214
# Velocity P-wave (km/s) = 5.34757 6.46898 5.93482
#
# Compressibility (1/GPa) = 0.02517942
#
# Stress axis : x y z
#
# Youngs Moduli (GPa) = 59.08372 41.67128 75.40105
#
# Poissons Ratio (x) = 0.19879 0.37437
# Poissons Ratio (y) = 0.28186 0.35945
# Poissons Ratio (z) = 0.29335 0.19866
#
# Static dielectric constant tensor:
#      x y z
#    x 2.073730 0.081200 -0.006870 
#    y 0.081200 1.874820 0.030210 
#    z -0.006870 0.030210 2.102040 
# 
# From -- ./inp_files/130802.got.cif
#   From: 2010.05.17/outbox.cif.g08.bks.cpg/sg2_66_cif.got.tgz:130802.got - 2010.06.03 11:33:40.
