data_PCOD9039114
_publ_section_title
;
Structure prediction by ZEFSAII (Michael W. Deem and Ramdas Pophale) SiO2 
 PCOD9039114
Probable space group: P -1
;
_chemical_formula_sum "Si O2"
_cell_formula_units_Z 16
_cell_length_a 10.787294
_cell_length_b 12.221103
_cell_length_c 11.997206
_cell_angle_alpha 116.425326
_cell_angle_beta 48.202216
_cell_angle_gamma 143.111465
_cell_volume 693.935215
_symmetry_space_group_name_H-M "P -1"
_symmetry_group_IT_number 2
_symmetry_cell_setting 'triclinic'
loop_
_space_group_symop_operation_xyz
x,y,z
-x,-y,-z
loop_
_atom_site_type_symbol
_atom_site_label
_atom_site_fract_x
_atom_site_fract_y
_atom_site_fract_z
Si Si1 0.583668 0.993360 0.829013
Si Si2 0.117847 0.184666 0.569823
Si Si3 0.606803 0.154196 0.663130
Si Si4 0.127836 0.508775 0.205666
Si Si5 0.541459 0.544028 0.340708
Si Si6 0.884601 0.145445 0.311155
Si Si7 0.439420 0.398108 0.104057
Si Si8 0.199734 0.568276 0.819610
O O1 0.436934 0.788771 0.792911
O O2 0.542429 0.060206 0.779370
O O3 0.875827 0.124423 0.726536
O O4 0.500000 0.000000 0.000000
O O5 0.275346 0.356416 0.468031
O O6 0.316249 0.271863 0.592091
O O7 0.000000 0.000000 0.500000
O O8 0.766487 0.361721 0.692304
O O9 0.770327 0.147529 0.490385
O O10 0.353888 0.045092 0.695869
O O11 0.984702 0.309062 0.243791
O O12 0.931124 0.481480 0.242995
O O13 0.363996 0.605269 0.025731
O O14 0.510393 0.528737 0.220906
O O15 0.711880 0.518996 0.251192
O O16 0.138407 0.206079 0.207354
O O17 0.500000 0.500000 0.000000
O O18 0.000000 0.500000 0.000000
#
# Coordination Sequence:
#
# PCOD9039114 Si02
#       8
#     2   2   2   2   2   2   2   2
#     4  12  25  41  66 101 134 170 223 279 332 398
#     4  11  24  43  66 101 131 175 217 268 339 395
#     4  11  23  42  68  94 129 173 218 272 324 387
#     4  11  22  41  68  97 128 170 222 265 329 387
#     4  11  23  43  69  96 140 172 216 275 331 396
#     4  10  23  44  64  93 133 171 220 267 319 391
#     4  10  23  42  66  94 132 173 217 266 320 391
#     4  12  22  40  66  98 131 171 215 277 335 387
#
# _framework density 23.056906999999999
#
# number of rings (size 3 to 8) (size 9 to 14) (size 15 to 20)
#    0.000    1.000    3.750    3.375    0.000    1.500 
#    0.000    5.000    0.000    0.000    0.000    0.000 
#    0.000    0.000    0.000    0.000    0.000    0.000 
#
# Total GULP energy -89511.466724 kJ/mol
# GULP energy per Si atom -5594.466670 kJ/mol
# Density = 2.300443 g / cm^3
# Si number density = 23.056907 Si / 1000 Ang^3
#
#
#
# Elastic Constant Matrix: (Units=GPa)
#
#
# Indices 1 2 3 4 5 6 
#
# 1 60.7008 20.5126 29.6372 -1.6821 7.0233 25.4219
# 2 20.5126 153.9676 39.2400 9.8011 -0.5683 42.4699
# 3 29.6372 39.2400 146.0686 -1.6348 7.1992 30.4800
# 4 -1.6821 9.8011 -1.6348 33.3733 12.7404 1.7467
# 5 7.0233 -0.5683 7.1992 12.7404 34.4091 4.7435
# 6 25.4219 42.4699 30.4800 1.7467 4.7435 37.6438
#
#
#
# Elastic Compliance Matrix: (Units=1/GPa)
#
#
# Indices 1 2 3 4 5 6 
#
# 1 0.024089 0.001541 -0.001696 0.002802 -0.003321 -0.016344
# 2 0.001541 0.009989 -0.000679 -0.003365 0.002888 -0.011968
# 3 -0.001696 -0.000679 0.008457 0.001251 -0.001231 -0.004840
# 4 0.002802 -0.003365 0.001251 0.036679 -0.014612 0.001031
# 5 -0.003321 0.002888 -0.001231 -0.014612 0.035990 -0.003877
# 6 -0.016344 -0.011968 -0.004840 0.001031 -0.003877 0.055465
#
#
# Mechanical properties :
#
#
# Convention : Reuss Voigt Hill
#
# Bulk Modulus (GPa) = 24.46967 59.94627 42.20797
# Shear Modulus (GPa) = 26.88779 39.17505 33.03142
#
# Velocity S-wave (km/s) = 3.41860 4.12644 3.78908
# Velocity P-wave (km/s) = 5.12037 6.98277 6.12279
#
# Compressibility (1/GPa) = 0.04086692
#
# Stress axis : x y z
#
# Youngs Moduli (GPa) = 41.51338 100.11304 118.24456
#
# Poissons Ratio (x) = -0.15425 0.20053
# Poissons Ratio (y) = -0.06396 0.08024
# Poissons Ratio (z) = 0.07040 0.06794
#
# Static dielectric constant tensor:
#      x y z
#    x 1.668560 0.079420 0.160530 
#    y 0.079420 1.864830 -0.049700 
#    z 0.160530 -0.049700 1.743090 
# 
# From -- ./inp_files/433075.got.cif
#   From: 2010.05.17/outbox.cif.g08.bks.cpg/sg2_217_cif.got.tgz:433075.got - 2010.06.03 11:33:40.
