data_PCOD9039367
_publ_section_title
;
Structure prediction by ZEFSAII (Michael W. Deem and Ramdas Pophale) SiO2 
 PCOD9039367
Probable space group: P -1
;
_chemical_formula_sum "Si O2"
_cell_formula_units_Z 16
_cell_length_a 8.376801
_cell_length_b 9.693859
_cell_length_c 15.733177
_cell_angle_alpha 135.291468
_cell_angle_beta 77.943660
_cell_angle_gamma 128.120908
_cell_volume 643.218457
_symmetry_space_group_name_H-M "P -1"
_symmetry_group_IT_number 2
_symmetry_cell_setting 'triclinic'
loop_
_space_group_symop_operation_xyz
x,y,z
-x,-y,-z
loop_
_atom_site_type_symbol
_atom_site_label
_atom_site_fract_x
_atom_site_fract_y
_atom_site_fract_z
Si Si1 0.054314 0.450411 0.684480
Si Si2 0.536671 0.959788 0.270167
Si Si3 0.385065 0.258809 0.973573
Si Si4 0.312476 0.374157 0.302422
Si Si5 0.272441 0.097694 0.422903
Si Si6 0.009406 0.793630 0.584373
Si Si7 0.172006 0.391639 0.145980
Si Si8 0.516326 0.237646 0.126654
O O1 0.069143 0.436198 0.575186
O O2 0.264051 0.536357 0.746910
O O3 0.032446 0.645778 0.816405
O O4 0.843232 0.143483 0.602268
O O5 0.323823 0.654948 0.186496
O O6 0.429419 0.088421 0.341561
O O7 0.619197 0.950619 0.165704
O O8 0.736837 0.060524 0.356525
O O9 0.161978 0.183128 0.000625
O O10 0.522505 0.352571 0.085934
O O11 0.500000 0.500000 0.000000
O O12 0.540999 0.614967 0.429169
O O13 0.118332 0.289273 0.348232
O O14 0.298377 0.470403 0.256049
O O15 0.319352 0.154630 0.173749
O O16 0.079005 0.074926 0.392583
O O17 0.500000 0.000000 0.000000
#
# Coordination Sequence:
#
# PCOD9039367 Si02
#       8
#     2   2   2   2   2   2   2   2
#     4  11  24  43  70 102 130 182 230 276 356 403
#     4  10  23  42  68 101 134 176 231 286 339 405
#     4   9  21  43  68  92 134 187 229 282 331 406
#     4  11  24  43  64  99 141 176 224 279 352 411
#     4  11  24  42  68 102 136 174 230 288 331 417
#     4  12  25  39  69 102 136 180 217 285 353 408
#     4   9  21  43  66  95 135 177 231 280 333 414
#     4  11  26  43  69  98 145 179 224 292 347 409
#
# _framework density 24.874907
#
# number of rings (size 3 to 8) (size 9 to 14) (size 15 to 20)
#    0.000    1.500    1.250    2.250    7.000    6.000 
#    0.000    4.375    0.000    0.000    0.000    0.000 
#    0.000    0.000    0.000    0.000    0.000    0.000 
#
# Total GULP energy -89335.967663 kJ/mol
# GULP energy per Si atom -5583.497979 kJ/mol
# Density = 2.481829 g / cm^3
# Si number density = 24.874907 Si / 1000 Ang^3
#
#
#
# Elastic Constant Matrix: (Units=GPa)
#
#
# Indices 1 2 3 4 5 6 
#
# 1 139.7286 10.2023 60.5578 -18.7654 -29.1870 18.9172
# 2 10.2023 76.9531 17.9842 -27.5044 -22.2163 12.9880
# 3 60.5578 17.9842 139.2050 -42.6714 -40.1635 21.3686
# 4 -18.7654 -27.5044 -42.6714 39.4494 8.5245 -1.8845
# 5 -29.1870 -22.2163 -40.1635 8.5245 66.4280 -6.5870
# 6 18.9172 12.9880 21.3686 -1.8845 -6.5870 35.6141
#
#
#
# Elastic Compliance Matrix: (Units=1/GPa)
#
#
# Indices 1 2 3 4 5 6 
#
# 1 0.009360 0.001444 -0.002275 0.002272 0.002577 -0.003536
# 2 0.001444 0.023822 0.007778 0.023182 0.009220 -0.011189
# 3 -0.002275 0.007778 0.017527 0.020997 0.008567 -0.009449
# 4 0.002272 0.023182 0.020997 0.061945 0.011832 -0.016793
# 5 0.002577 0.009220 0.008567 0.011832 0.022426 -0.005098
# 6 -0.003536 -0.011189 -0.009449 -0.016793 -0.005098 0.037875
#
#
# Mechanical properties :
#
#
# Convention : Reuss Voigt Hill
#
# Bulk Modulus (GPa) = 15.47955 59.26392 37.37173
# Shear Modulus (GPa) = 27.68614 46.10779 36.89696
#
# Velocity S-wave (km/s) = 3.33981 4.31000 3.85554
# Velocity P-wave (km/s) = 4.59444 6.97457 5.90565
#
# Compressibility (1/GPa) = 0.06460138
#
# Stress axis : x y z
#
# Youngs Moduli (GPa) = 106.84160 41.97858 57.05410
#
# Poissons Ratio (x) = -0.06060 0.12983
# Poissons Ratio (y) = -0.15424 -0.44378
# Poissons Ratio (z) = 0.24312 -0.32652
#
# Static dielectric constant tensor:
#      x y z
#    x 2.119200 0.015210 -0.087300 
#    y 0.015210 2.029480 -0.048560 
#    z -0.087300 -0.048560 1.995050 
# 
# From -- ./inp_files/239982.got.cif
#   From: 2010.05.17/outbox.cif.g08.bks.cpg/sg2_120_cif.got.tgz:239982.got - 2010.06.03 11:33:40.
