data_PCOD9039220
_publ_section_title
;
Structure prediction by ZEFSAII (Michael W. Deem and Ramdas Pophale) SiO2 
 PCOD9039220
Probable space group: P -1
;
_chemical_formula_sum "Si O2"
_cell_formula_units_Z 16
_cell_length_a 6.408868
_cell_length_b 8.712329
_cell_length_c 13.955608
_cell_angle_alpha 74.967360
_cell_angle_beta 93.971376
_cell_angle_gamma 69.652781
_cell_volume 694.578916
_symmetry_space_group_name_H-M "P -1"
_symmetry_group_IT_number 2
_symmetry_cell_setting 'triclinic'
loop_
_space_group_symop_operation_xyz
x,y,z
-x,-y,-z
loop_
_atom_site_type_symbol
_atom_site_label
_atom_site_fract_x
_atom_site_fract_y
_atom_site_fract_z
Si Si1 0.587209 0.570752 0.083262
Si Si2 0.155026 0.705816 0.185098
Si Si3 0.763449 0.993528 0.786868
Si Si4 0.579427 0.963854 0.364384
Si Si5 0.746820 0.863217 0.008680
Si Si6 0.978397 0.628191 0.744554
Si Si7 0.989866 0.330349 0.486971
Si Si8 0.262324 0.870319 0.515962
O O1 0.370729 0.668121 0.128056
O O2 0.779624 0.448308 0.180911
O O3 0.500000 0.500000 0.000000
O O4 0.706167 0.688908 0.020325
O O5 0.181209 0.833832 0.248695
O O6 0.128755 0.521296 0.229816
O O7 0.926474 0.821961 0.105063
O O8 0.497860 0.046307 0.743783
O O9 0.828966 0.927846 0.906569
O O10 0.862756 0.817421 0.757375
O O11 0.390429 0.935932 0.430245
O O12 0.811095 0.814564 0.425666
O O13 0.612618 0.132524 0.378800
O O14 0.500000 0.000000 0.000000
O O15 0.980566 0.667552 0.626270
O O16 0.756225 0.302539 0.493053
O O17 0.000000 0.500000 0.500000
O O18 0.000000 0.000000 0.500000
#
# Coordination Sequence:
#
# PCOD9039220 Si02
#       8
#     2   2   2   2   2   2   2   2
#     4  11  24  44  71 101 142 181 228 290 345 416
#     4  11  26  46  69 102 144 177 234 287 346 421
#     4  12  24  45  75  97 139 186 230 289 351 411
#     4  10  23  42  67 102 131 177 236 279 345 414
#     4  11  24  43  67 104 137 178 232 279 347 420
#     4  11  27  46  67 108 136 180 240 283 349 418
#     4  11  26  44  68  99 143 183 228 290 354 411
#     4   9  19  42  64  91 131 166 220 283 331 403
#
# _framework density 23.035542
#
# number of rings (size 3 to 8) (size 9 to 14) (size 15 to 20)
#    0.000    1.250    1.250    4.125    5.250    5.500 
#    2.250    0.000    0.000    0.000    0.000    0.000 
#    0.000    0.000    0.000    0.000    0.000    0.000 
#
# Total GULP energy -89238.390185 kJ/mol
# GULP energy per Si atom -5577.399387 kJ/mol
# Density = 2.298311 g / cm^3
# Si number density = 23.035542 Si / 1000 Ang^3
#
#
#
# Elastic Constant Matrix: (Units=GPa)
#
#
# Indices 1 2 3 4 5 6 
#
# 1 97.3260 51.5783 10.0163 4.5067 21.7120 36.6556
# 2 51.5783 138.2068 42.1123 12.1182 24.0642 32.8648
# 3 10.0163 42.1123 74.0178 -0.0485 24.3875 15.6944
# 4 4.5067 12.1182 -0.0485 28.8446 4.0034 8.7632
# 5 21.7120 24.0642 24.3875 4.0034 44.7884 10.7276
# 6 36.6556 32.8648 15.6944 8.7632 10.7276 41.9953
#
#
#
# Elastic Compliance Matrix: (Units=1/GPa)
#
#
# Indices 1 2 3 4 5 6 
#
# 1 0.018545 -0.004408 0.005049 0.004056 -0.006421 -0.013830
# 2 -0.004408 0.011387 -0.005318 -0.003369 -0.000230 -0.002314
# 3 0.005049 -0.005318 0.020367 0.004754 -0.009572 -0.006404
# 4 0.004056 -0.003369 0.004754 0.038981 -0.003876 -0.009824
# 5 -0.006421 -0.000230 -0.009572 -0.003876 0.030555 0.002365
# 6 -0.013830 -0.002314 -0.006404 -0.009824 0.002365 0.041534
#
#
# Mechanical properties :
#
#
# Convention : Reuss Voigt Hill
#
# Bulk Modulus (GPa) = 24.42298 57.44046 40.93172
# Shear Modulus (GPa) = 27.11933 36.84859 31.98396
#
# Velocity S-wave (km/s) = 3.43488 4.00389 3.73025
# Velocity P-wave (km/s) = 5.13386 6.80915 6.02997
#
# Compressibility (1/GPa) = 0.04094505
#
# Stress axis : x y z
#
# Youngs Moduli (GPa) = 53.92407 87.82127 49.09865
#
# Poissons Ratio (x) = 0.38714 -0.24791
# Poissons Ratio (y) = 0.23771 0.26109
# Poissons Ratio (z) = -0.27227 0.46700
#
# Static dielectric constant tensor:
#      x y z
#    x 1.924660 0.054730 0.018130 
#    y 0.054730 2.037670 -0.000820 
#    z 0.018130 -0.000820 1.897620 
# 
# From -- ./inp_files/47971.got.cif
#   From: 2010.05.17/outbox.cif.g08.bks.cpg/sg2_24_cif.got.tgz:47971.got - 2010.06.03 11:33:40.
