data_PCOD9039421
_publ_section_title
;
Structure prediction by ZEFSAII (Michael W. Deem and Ramdas Pophale) SiO2 
 PCOD9039421
Probable space group: P -1
;
_chemical_formula_sum "Si O2"
_cell_formula_units_Z 16
_cell_length_a 7.323978
_cell_length_b 20.111931
_cell_length_c 5.152778
_cell_angle_alpha 90.329971
_cell_angle_beta 69.743519
_cell_angle_gamma 64.930606
_cell_volume 634.513639
_symmetry_space_group_name_H-M "P -1"
_symmetry_group_IT_number 2
_symmetry_cell_setting 'triclinic'
loop_
_space_group_symop_operation_xyz
x,y,z
-x,-y,-z
loop_
_atom_site_type_symbol
_atom_site_label
_atom_site_fract_x
_atom_site_fract_y
_atom_site_fract_z
Si Si1 0.629824 0.172583 0.755579
Si Si2 0.830053 0.619598 0.681671
Si Si3 0.150169 0.644855 0.907312
Si Si4 0.229380 0.252828 0.594328
Si Si5 0.186542 0.786763 0.838621
Si Si6 0.175833 0.508235 0.103566
Si Si7 0.220792 0.116373 0.605155
Si Si8 0.365650 0.976113 0.267888
O O1 0.383305 0.216579 0.765980
O O2 0.765052 0.178134 0.440523
O O3 0.693104 0.087683 0.804878
O O4 0.672308 0.211532 0.982990
O O5 0.697611 0.690496 0.571539
O O6 0.699120 0.576333 0.855439
O O7 0.951673 0.644279 0.838314
O O8 0.023702 0.693373 0.220376
O O9 0.228096 0.702119 0.750649
O O10 0.029650 0.559959 0.409237
O O11 0.281200 0.556787 0.916075
O O12 0.229926 0.183308 0.437797
O O13 0.945675 0.841837 0.077632
O O14 0.000000 0.500000 0.000000
O O15 0.464733 0.069431 0.590100
O O16 0.181777 0.053713 0.473361
O O17 0.500000 0.000000 0.000000
#
# Coordination Sequence:
#
# PCOD9039421 Si02
#       8
#     2   2   2   2   2   2   2   2
#     4  11  27  42  61  91 127 165 205 255 311 370
#     4   9  16  29  61  86 119 151 206 257 298 349
#     4   9  19  34  60  87 121 160 206 252 304 362
#     4   9  20  36  59  87 115 162 207 255 300 365
#     4  11  26  42  61  92 130 164 203 251 314 369
#     4   8  15  29  50  95 117 149 197 262 299 348
#     4   9  22  40  62  91 117 162 206 254 311 369
#     4  10  23  42  68  87 120 161 208 259 308 368
#
# _framework density 25.216163999999999
#
# number of rings (size 3 to 8) (size 9 to 14) (size 15 to 20)
#    0.000    2.500    0.000    0.000   14.000    2.000 
#    0.000    0.000    0.000    1.500    0.000    0.000 
#    0.000    0.000    0.000    0.000    0.000    0.000 
#
# Total GULP energy -89208.892033 kJ/mol
# GULP energy per Si atom -5575.555752 kJ/mol
# Density = 2.515877 g / cm^3
# Si number density = 25.216164 Si / 1000 Ang^3
#
#
#
# Elastic Constant Matrix: (Units=GPa)
#
#
# Indices 1 2 3 4 5 6 
#
# 1 45.1399 17.9797 2.1551 -7.6045 -0.9719 19.1140
# 2 17.9797 212.0879 51.7366 -32.3381 9.2941 38.7989
# 3 2.1551 51.7366 76.2490 -5.4114 -2.0274 13.0458
# 4 -7.6045 -32.3381 -5.4114 35.7315 5.9341 1.2899
# 5 -0.9719 9.2941 -2.0274 5.9341 30.5205 -2.1289
# 6 19.1140 38.7989 13.0458 1.2899 -2.1289 35.5168
#
#
#
# Elastic Compliance Matrix: (Units=1/GPa)
#
#
# Indices 1 2 3 4 5 6 
#
# 1 0.031647 0.002477 0.001666 0.010505 -0.003138 -0.020919
# 2 0.002477 0.009043 -0.003896 0.009411 -0.005492 -0.010452
# 3 0.001666 -0.003896 0.016107 -0.001035 0.002345 -0.002379
# 4 0.010505 0.009411 -0.001035 0.041191 -0.011848 -0.017760
# 5 -0.003138 -0.005492 0.002345 -0.011848 0.037460 0.009503
# 6 -0.020919 -0.010452 -0.002379 -0.017760 0.009503 0.052920
#
#
# Mechanical properties :
#
#
# Convention : Reuss Voigt Hill
#
# Bulk Modulus (GPa) = 17.45440 53.02437 35.23938
# Shear Modulus (GPa) = 24.15799 37.79413 30.97606
#
# Velocity S-wave (km/s) = 3.09857 3.87564 3.50869
# Velocity P-wave (km/s) = 4.44280 6.41101 5.51541
#
# Compressibility (1/GPa) = 0.05729215
#
# Stress axis : x y z
#
# Youngs Moduli (GPa) = 31.59812 110.58299 62.08426
#
# Poissons Ratio (x) = -0.27390 -0.10345
# Poissons Ratio (y) = -0.07826 0.24187
# Poissons Ratio (z) = -0.05265 0.43081
#
# Static dielectric constant tensor:
#      x y z
#    x 2.088310 0.074660 -0.004420 
#    y 0.074660 2.165940 -0.043110 
#    z -0.004420 -0.043110 2.054910 
# 
# From -- ./inp_files/44545.got.cif
#   From: 2010.05.17/outbox.cif.g08.bks.cpg/sg2_23_cif.got.tgz:44545.got - 2010.06.03 11:33:40.
