data_PCOD9039287
_publ_section_title
;
Structure prediction by ZEFSAII (Michael W. Deem and Ramdas Pophale) SiO2 
 PCOD9039287
Probable space group: P -1
;
_chemical_formula_sum "Si O2"
_cell_formula_units_Z 16
_cell_length_a 8.839927
_cell_length_b 15.436651
_cell_length_c 9.402795
_cell_angle_alpha 79.193481
_cell_angle_beta 46.869857
_cell_angle_gamma 105.564443
_cell_volume 766.292282
_symmetry_space_group_name_H-M "P -1"
_symmetry_group_IT_number 2
_symmetry_cell_setting 'triclinic'
loop_
_space_group_symop_operation_xyz
x,y,z
-x,-y,-z
loop_
_atom_site_type_symbol
_atom_site_label
_atom_site_fract_x
_atom_site_fract_y
_atom_site_fract_z
Si Si1 0.889997 0.350542 0.731636
Si Si2 0.066919 0.931132 0.187753
Si Si3 0.658302 0.483726 0.789465
Si Si4 0.948588 0.140771 0.461567
Si Si5 0.462586 0.831088 0.193121
Si Si6 0.356448 0.046677 0.499193
Si Si7 0.134470 0.782847 0.977975
Si Si8 0.275638 0.277045 0.962430
O O1 0.121455 0.409008 0.456860
O O2 0.961673 0.323476 0.841022
O O3 0.785025 0.424690 0.788563
O O4 0.678878 0.237181 0.835452
O O5 0.007131 0.875888 0.398727
O O6 0.105492 0.862904 0.070526
O O7 0.842929 0.944581 0.285258
O O8 0.322197 0.046439 0.005549
O O9 0.467651 0.401191 0.819957
O O10 0.500000 0.500000 0.000000
O O11 0.189351 0.223168 0.190564
O O12 0.807911 0.030442 0.500474
O O13 0.753026 0.175320 0.574740
O O14 0.590285 0.772843 0.186570
O O15 0.500000 0.000000 0.500000
O O16 0.577304 0.158910 0.264748
O O17 0.971811 0.757838 0.950762
#
# Coordination Sequence:
#
# PCOD9039287 Si02
#       8
#     2   2   2   2   2   2   2   2
#     4  10  23  42  67  95 124 157 217 267 318 376
#     4  12  25  37  65  92 133 179 214 247 313 377
#     4  10  23  46  70  94 117 162 211 276 325 381
#     4  12  22  38  60  91 124 174 216 257 299 373
#     4  11  21  40  64  93 128 174 212 258 305 380
#     4  12  25  39  58  93 138 176 217 256 300 369
#     4  12  25  42  61 100 133 172 207 262 311 383
#     4  11  26  40  66  92 131 165 212 262 326 367
#
# _framework density 20.879764000000002
#
# number of rings (size 3 to 8) (size 9 to 14) (size 15 to 20)
#    0.000    0.750    5.000    2.250    5.250    1.500 
#    0.000    0.625    0.000    0.000    0.000    0.000 
#    0.000    0.000    0.000    0.000    0.000    0.000 
#
# Total GULP energy -89479.942629 kJ/mol
# GULP energy per Si atom -5592.496414 kJ/mol
# Density = 2.083224 g / cm^3
# Si number density = 20.879764 Si / 1000 Ang^3
#
#
#
# Elastic Constant Matrix: (Units=GPa)
#
#
# Indices 1 2 3 4 5 6 
#
# 1 50.8735 16.3492 37.6453 -10.1193 -11.0842 6.8224
# 2 16.3492 63.4180 43.1823 -1.1068 -6.6060 -2.5835
# 3 37.6453 43.1823 102.8630 2.4820 -22.0580 -12.2891
# 4 -10.1193 -1.1068 2.4820 28.5142 -7.5976 -7.3373
# 5 -11.0842 -6.6060 -22.0580 -7.5976 36.3484 7.0519
# 6 6.8224 -2.5835 -12.2891 -7.3373 7.0519 24.7132
#
#
#
# Elastic Compliance Matrix: (Units=1/GPa)
#
#
# Indices 1 2 3 4 5 6 
#
# 1 0.035963 0.000540 -0.013755 0.012209 0.008266 -0.015445
# 2 0.000540 0.022322 -0.010129 0.001037 -0.001286 -0.002178
# 3 -0.013755 -0.010129 0.021295 -0.003159 0.004047 0.011235
# 4 0.012209 0.001037 -0.003159 0.043772 0.010120 0.005275
# 5 0.008266 -0.001286 0.004047 0.010120 0.035850 -0.007629
# 6 -0.015445 -0.002178 0.011235 0.005275 -0.007629 0.053830
#
#
# Mechanical properties :
#
#
# Convention : Reuss Voigt Hill
#
# Bulk Modulus (GPa) = 30.40526 45.72312 38.06419
# Shear Modulus (GPa) = 18.47172 25.91366 22.19269
#
# Velocity S-wave (km/s) = 2.97757 3.52673 3.26372
# Velocity P-wave (km/s) = 5.13954 6.20722 5.69844
#
# Compressibility (1/GPa) = 0.03288905
#
# Stress axis : x y z
#
# Youngs Moduli (GPa) = 27.80673 44.79911 46.96043
#
# Poissons Ratio (x) = -0.02419 0.64596
# Poissons Ratio (y) = -0.01502 0.47569
# Poissons Ratio (z) = 0.38249 0.45379
#
# Static dielectric constant tensor:
#      x y z
#    x 1.779970 -0.017740 0.006810 
#    y -0.017740 1.753170 0.000720 
#    z 0.006810 0.000720 1.732880 
# 
# From -- ./inp_files/201268.got.cif
#   From: 2010.05.17/outbox.cif.g08.bks.cpg/sg2_101_cif.got.tgz:201268.got - 2010.06.03 11:33:40.
