data_PCOD9039210
_publ_section_title
;
Structure prediction by ZEFSAII (Michael W. Deem and Ramdas Pophale) SiO2 
 PCOD9039210
Probable space group: P -1
;
_chemical_formula_sum "Si O2"
_cell_formula_units_Z 13
_cell_length_a 9.310285
_cell_length_b 7.159548
_cell_length_c 13.685295
_cell_angle_alpha 101.683237
_cell_angle_beta 42.427909
_cell_angle_gamma 110.493563
_cell_volume 574.232833
_symmetry_space_group_name_H-M "P -1"
_symmetry_group_IT_number 2
_symmetry_cell_setting 'triclinic'
loop_
_space_group_symop_operation_xyz
x,y,z
-x,-y,-z
loop_
_atom_site_type_symbol
_atom_site_label
_atom_site_fract_x
_atom_site_fract_y
_atom_site_fract_z
Si Si1 0.998111 0.188054 0.958400
Si Si2 0.684249 0.399855 0.072204
Si Si3 0.832486 0.332577 0.426794
Si Si4 0.500000 0.500000 0.500000
Si Si5 0.317717 0.582326 0.284446
Si Si6 0.332906 0.825856 0.129649
Si Si7 0.114666 0.102712 0.669539
O O1 0.163561 0.387502 0.943170
O O2 0.078384 0.160258 0.805975
O O3 0.761132 0.232552 0.073227
O O4 0.000000 0.000000 0.000000
O O5 0.436214 0.409716 0.210751
O O6 0.725830 0.363671 0.934473
O O7 0.711667 0.412782 0.409823
O O8 0.683049 0.330151 0.598336
O O9 0.070822 0.485374 0.354648
O O10 0.859843 0.116861 0.370946
O O11 0.332956 0.270789 0.540649
O O12 0.433462 0.756699 0.167977
O O13 0.111892 0.888507 0.269113
O O14 0.500000 0.000000 0.000000
#
# Coordination Sequence:
#
# PCOD9039210 Si02
#       7
#     2   2   2   1   2   2   2
#     4  10  24  42  69 106 137 182 234 286 356 416
#     4  10  23  42  67 101 138 182 223 295 347 406
#     4  11  26  46  73 100 140 187 233 294 338 416
#     4  12  24  50  66 100 142 186 236 280 344 416
#     4  11  24  46  69 106 140 181 240 284 353 415
#     4  11  24  44  71 104 138 183 229 291 359 411
#     4  11  25  45  71 101 136 187 234 283 351 414
#
# _framework density 22.638902000000002
#
# number of rings (size 3 to 8) (size 9 to 14) (size 15 to 20)
#    0.000    1.231    1.538    2.769    6.462    3.077 
#    5.538    0.000    0.000    0.000    0.000    0.000 
#    0.000    0.000    0.000    0.000    0.000    0.000 
#
# Total GULP energy -72456.605743 kJ/mol
# GULP energy per Si atom -5573.585057 kJ/mol
# Density = 2.258737 g / cm^3
# Si number density = 22.638902 Si / 1000 Ang^3
#
#
#
# Elastic Constant Matrix: (Units=GPa)
#
#
# Indices 1 2 3 4 5 6 
#
# 1 45.6594 10.9886 22.2057 14.0983 -26.4047 -13.4782
# 2 10.9886 121.8941 17.0585 24.1127 -3.3538 -6.8628
# 3 22.2057 17.0585 60.8535 26.3196 -14.4484 -10.6819
# 4 14.0983 24.1127 26.3196 44.7494 -1.0006 -6.0975
# 5 -26.4047 -3.3538 -14.4484 -1.0006 45.4780 7.0411
# 6 -13.4782 -6.8628 -10.6819 -6.0975 7.0411 31.0383
#
#
#
# Elastic Compliance Matrix: (Units=1/GPa)
#
#
# Indices 1 2 3 4 5 6 
#
# 1 0.042156 -0.000305 -0.004863 -0.008405 0.021158 0.010114
# 2 -0.000305 0.009233 -0.000304 -0.004578 0.000172 0.000866
# 3 -0.004863 -0.000304 0.025391 -0.012723 0.004469 0.003046
# 4 -0.008405 -0.004578 -0.012723 0.034715 -0.008449 -0.000305
# 5 0.021158 0.000172 0.004469 -0.008449 0.035352 0.001084
# 6 0.010114 0.000866 0.003046 -0.000305 0.001084 0.037544
#
#
# Mechanical properties :
#
#
# Convention : Reuss Voigt Hill
#
# Bulk Modulus (GPa) = 15.18926 36.54586 25.86756
# Shear Modulus (GPa) = 23.01162 36.13007 29.57085
#
# Velocity S-wave (km/s) = 3.19166 3.99924 3.61805
# Velocity P-wave (km/s) = 4.50624 6.12399 5.37631
#
# Compressibility (1/GPa) = 0.06583600
#
# Stress axis : x y z
#
# Youngs Moduli (GPa) = 23.72122 108.30649 39.38344
#
# Poissons Ratio (x) = 0.03309 0.19153
# Poissons Ratio (y) = 0.00725 0.01196
# Poissons Ratio (z) = 0.11536 0.03289
#
# Static dielectric constant tensor:
#      x y z
#    x 1.879160 -0.004700 -0.022900 
#    y -0.004700 1.821910 -0.041940 
#    z -0.022900 -0.041940 1.873870 
# 
# From -- ./inp_files/464962.got.cif
#   From: 2010.05.17/outbox.cif.g08.bks.cpg/sg2_233_cif.got.tgz:464962.got - 2010.06.03 11:33:40.
