data_PCOD9039633
_publ_section_title
;
Structure prediction by ZEFSAII (Michael W. Deem and Ramdas Pophale) SiO2 
 PCOD9039633
Probable space group: P -1
;
_chemical_formula_sum "Si O2"
_cell_formula_units_Z 16
_cell_length_a 10.625547
_cell_length_b 9.546620
_cell_length_c 8.109936
_cell_angle_alpha 78.397003
_cell_angle_beta 106.455770
_cell_angle_gamma 105.996710
_cell_volume 751.621141
_symmetry_space_group_name_H-M "P -1"
_symmetry_group_IT_number 2
_symmetry_cell_setting 'triclinic'
loop_
_space_group_symop_operation_xyz
x,y,z
-x,-y,-z
loop_
_atom_site_type_symbol
_atom_site_label
_atom_site_fract_x
_atom_site_fract_y
_atom_site_fract_z
Si Si1 0.348046 0.904220 0.601068
Si Si2 0.432330 0.910194 0.155091
Si Si3 0.183876 0.439747 0.471807
Si Si4 0.272734 0.195109 0.383416
Si Si5 0.187011 0.763309 0.894178
Si Si6 0.435172 0.688318 0.448204
Si Si7 0.072569 0.456564 0.790395
Si Si8 0.948134 0.838836 0.944595
O O1 0.266778 0.818887 0.743994
O O2 0.350965 0.793263 0.481252
O O3 0.501375 0.975511 0.703647
O O4 0.282826 0.037147 0.493023
O O5 0.475181 0.761657 0.266463
O O6 0.278371 0.842876 0.061471
O O7 0.500000 0.000000 0.000000
O O8 0.190473 0.276806 0.457961
O O9 0.331088 0.534741 0.453080
O O10 0.153960 0.455731 0.650013
O O11 0.067483 0.499360 0.319643
O O12 0.426123 0.290691 0.407440
O O13 0.198321 0.179481 0.185072
O O14 0.149985 0.585863 0.911544
O O15 0.050747 0.818020 0.843827
O O16 0.050139 0.296180 0.900078
O O17 0.000000 0.000000 0.000000
#
# Coordination Sequence:
#
# PCOD9039633 Si02
#       8
#     2   2   2   2   2   2   2   2
#     4  10  23  42  69  98 128 178 221 272 318 392
#     4   9  20  36  65  97 128 163 215 264 321 379
#     4  11  24  44  70  94 128 179 222 273 319 394
#     4  11  25  42  65  97 136 167 223 266 327 390
#     4  11  22  44  69  94 129 176 220 266 334 389
#     4  11  22  43  69  94 131 176 225 264 328 388
#     4  11  25  47  66  96 131 172 228 265 332 394
#     4  12  29  42  66 100 134 170 212 281 337 391
#
# _framework density 21.287320999999999
#
# number of rings (size 3 to 8) (size 9 to 14) (size 15 to 20)
#    0.000    1.250    2.500    3.000    8.750    0.500 
#    0.000    0.625    0.000    0.000    0.000    0.000 
#    0.000    0.000    0.000    0.000    0.000    0.000 
#
# Total GULP energy -89283.416293 kJ/mol
# GULP energy per Si atom -5580.213518 kJ/mol
# Density = 2.123887 g / cm^3
# Si number density = 21.287321 Si / 1000 Ang^3
#
#
#
# Elastic Constant Matrix: (Units=GPa)
#
#
# Indices 1 2 3 4 5 6 
#
# 1 77.6775 41.2211 34.0117 -7.6846 11.4398 10.8635
# 2 41.2211 154.6888 39.6596 -9.7591 4.6502 -12.0978
# 3 34.0117 39.6596 77.1250 -0.9468 13.5469 0.7715
# 4 -7.6846 -9.7591 -0.9468 19.8876 3.1774 0.8167
# 5 11.4398 4.6502 13.5469 3.1774 36.9762 1.9194
# 6 10.8635 -12.0978 0.7715 0.8167 1.9194 37.5978
#
#
#
# Elastic Compliance Matrix: (Units=1/GPa)
#
#
# Indices 1 2 3 4 5 6 
#
# 1 0.019515 -0.003696 -0.005930 0.006293 -0.003595 -0.006659
# 2 -0.003696 0.008632 -0.002947 0.002394 0.000734 0.003816
# 3 -0.005930 -0.002947 0.017792 -0.002254 -0.004154 0.000661
# 4 0.006293 0.002394 -0.002254 0.054823 -0.006035 -0.001885
# 5 -0.003595 0.000734 -0.004154 -0.006035 0.030107 -0.000046
# 6 -0.006659 0.003816 0.000661 -0.001885 -0.000046 0.029779
#
#
# Mechanical properties :
#
#
# Convention : Reuss Voigt Hill
#
# Bulk Modulus (GPa) = 48.09165 59.91957 54.00561
# Shear Modulus (GPa) = 25.94368 31.86555 28.90461
#
# Velocity S-wave (km/s) = 3.49483 3.87321 3.68888
# Velocity P-wave (km/s) = 6.23906 6.94345 6.60066
#
# Compressibility (1/GPa) = 0.02079363
#
# Stress axis : x y z
#
# Youngs Moduli (GPa) = 51.24319 115.84319 56.20554
#
# Poissons Ratio (x) = 0.42811 0.33331
# Poissons Ratio (y) = 0.18937 0.16563
# Poissons Ratio (z) = 0.30388 0.34138
#
# Static dielectric constant tensor:
#      x y z
#    x 1.771740 0.025650 0.009090 
#    y 0.025650 1.785120 0.011110 
#    z 0.009090 0.011110 1.798490 
# 
# From -- ./inp_files/237883.got.cif
#   From: 2010.05.17/outbox.cif.g08.bks.cpg/sg2_119_cif.got.tgz:237883.got - 2010.06.03 11:33:40.
