data_PCOD9039635
_publ_section_title
;
Structure prediction by ZEFSAII (Michael W. Deem and Ramdas Pophale) SiO2 
 PCOD9039635
Probable space group: P -1
;
_chemical_formula_sum "Si O2"
_cell_formula_units_Z 16
_cell_length_a 7.791640
_cell_length_b 13.185410
_cell_length_c 7.644155
_cell_angle_alpha 50.789255
_cell_angle_beta 96.768709
_cell_angle_gamma 92.745731
_cell_volume 603.891264
_symmetry_space_group_name_H-M "P -1"
_symmetry_group_IT_number 2
_symmetry_cell_setting 'triclinic'
loop_
_space_group_symop_operation_xyz
x,y,z
-x,-y,-z
loop_
_atom_site_type_symbol
_atom_site_label
_atom_site_fract_x
_atom_site_fract_y
_atom_site_fract_z
Si Si1 0.370578 0.386082 0.559144
Si Si2 0.801299 0.304719 0.200861
Si Si3 0.139492 0.191420 0.230060
Si Si4 0.695284 0.234230 0.875944
Si Si5 0.672476 0.573597 0.896988
Si Si6 0.663398 0.045886 0.578109
Si Si7 0.049018 0.284493 0.732665
Si Si8 0.199156 0.031036 0.948090
O O1 0.500000 0.500000 0.500000
O O2 0.499417 0.264106 0.760382
O O3 0.331933 0.397038 0.339193
O O4 0.181808 0.401583 0.612028
O O5 0.689484 0.200670 0.405044
O O6 0.994136 0.243729 0.286897
O O7 0.728122 0.297957 0.999916
O O8 0.808373 0.455796 0.091581
O O9 0.297996 0.288749 0.158551
O O10 0.185661 0.039187 0.409433
O O11 0.070095 0.222325 0.994908
O O12 0.840683 0.286973 0.696970
O O13 0.730917 0.077313 0.060745
O O14 0.500000 0.500000 0.000000
O O15 0.500000 0.000000 0.500000
O O16 0.684741 0.996926 0.834041
O O17 0.161606 0.182716 0.733442
O O18 0.000000 0.000000 0.000000
#
# Coordination Sequence:
#
# PCOD9039635 Si02
#       8
#     2   2   2   2   2   2   2   2
#     4  12  25  42  65  94 131 177 223 270 335 397
#     4  11  24  45  66  97 135 177 224 276 335 409
#     4  10  23  44  67  96 131 177 218 275 335 401
#     4  10  23  42  69  98 131 173 220 276 338 394
#     4  12  26  44  65  97 136 171 225 279 333 401
#     4  11  24  40  71 100 137 177 223 277 342 397
#     4   9  22  45  67  95 134 167 219 277 328 403
#     4   9  21  43  67  99 134 171 219 277 335 403
#
# _framework density 26.494835999999999
#
# number of rings (size 3 to 8) (size 9 to 14) (size 15 to 20)
#    0.000    1.500    1.250    3.000    7.000    4.000 
#    2.250    0.000    0.000    0.000    0.000    0.000 
#    0.000    0.000    0.000    0.000    0.000    0.000 
#
# Total GULP energy -89421.655917 kJ/mol
# GULP energy per Si atom -5588.853495 kJ/mol
# Density = 2.643453 g / cm^3
# Si number density = 26.494836 Si / 1000 Ang^3
#
#
#
# Elastic Constant Matrix: (Units=GPa)
#
#
# Indices 1 2 3 4 5 6 
#
# 1 130.5751 -8.8196 17.5522 11.5997 -6.0148 21.2809
# 2 -8.8196 85.4106 22.8791 -6.4110 4.9116 11.2404
# 3 17.5522 22.8791 96.9944 8.7352 -5.4176 4.8911
# 4 11.5997 -6.4110 8.7352 38.6779 6.6421 10.4781
# 5 -6.0148 4.9116 -5.4176 6.6421 30.1735 -8.3662
# 6 21.2809 11.2404 4.8911 10.4781 -8.3662 38.6396
#
#
#
# Elastic Compliance Matrix: (Units=1/GPa)
#
#
# Indices 1 2 3 4 5 6 
#
# 1 0.008922 0.002068 -0.001809 -0.000476 -0.000221 -0.005205
# 2 0.002068 0.014979 -0.004412 0.006115 -0.006376 -0.007977
# 3 -0.001809 -0.004412 0.012176 -0.004463 0.004326 0.002886
# 4 -0.000476 0.006115 -0.004463 0.033724 -0.012889 -0.012887
# 5 -0.000221 -0.006376 0.004326 -0.012889 0.041613 0.013934
# 6 -0.005205 -0.007977 0.002886 -0.012887 0.013934 0.037214
#
#
# Mechanical properties :
#
#
# Convention : Reuss Voigt Hill
#
# Bulk Modulus (GPa) = 36.01018 41.80040 38.90529
# Shear Modulus (GPa) = 30.08599 40.25609 35.17104
#
# Velocity S-wave (km/s) = 3.37344 3.90217 3.64740
# Velocity P-wave (km/s) = 5.36603 6.00946 5.69684
#
# Compressibility (1/GPa) = 0.02776992
#
# Stress axis : x y z
#
# Youngs Moduli (GPa) = 112.08605 66.76033 82.12810
#
# Poissons Ratio (x) = -0.13805 0.14859
# Poissons Ratio (y) = -0.23178 0.36235
# Poissons Ratio (z) = 0.20279 0.29455
#
# Static dielectric constant tensor:
#      x y z
#    x 2.198330 0.001970 0.005000 
#    y 0.001970 2.258890 -0.167890 
#    z 0.005000 -0.167890 2.158110 
# 
# From -- ./inp_files/205384.got.cif
#   From: 2010.05.17/outbox.cif.g08.bks.cpg/sg2_103_cif.got.tgz:205384.got - 2010.06.03 11:33:40.
