data_PCOD9039128
_publ_section_title
;
Structure prediction by ZEFSAII (Michael W. Deem and Ramdas Pophale) SiO2 
 PCOD9039128
Probable space group: P -1
;
_chemical_formula_sum "Si O2"
_cell_formula_units_Z 14
_cell_length_a 11.483960
_cell_length_b 14.730950
_cell_length_c 21.205860
_cell_angle_alpha 18.564019
_cell_angle_beta 145.838830
_cell_angle_gamma 144.781113
_cell_volume 630.593872
_symmetry_space_group_name_H-M "P -1"
_symmetry_group_IT_number 2
_symmetry_cell_setting 'triclinic'
loop_
_space_group_symop_operation_xyz
x,y,z
-x,-y,-z
loop_
_atom_site_type_symbol
_atom_site_label
_atom_site_fract_x
_atom_site_fract_y
_atom_site_fract_z
Si Si1 0.721485 0.408626 0.672694
Si Si2 0.306590 0.271743 0.037830
Si Si3 0.991083 0.489984 0.844970
Si Si4 0.270805 0.039816 0.847986
Si Si5 0.129802 0.616072 0.386803
Si Si6 0.202779 0.688205 0.932332
Si Si7 0.328002 0.276033 0.894483
O O1 0.500000 0.500000 0.500000
O O2 0.848328 0.423113 0.653657
O O3 0.811889 0.590798 0.655756
O O4 0.693096 0.066611 0.903441
O O5 0.271089 0.927480 0.261921
O O6 0.500000 0.500000 0.000000
O O7 0.118983 0.380684 0.917703
O O8 0.313587 0.298681 0.948445
O O9 0.133776 0.696918 0.822680
O O10 0.891283 0.210156 0.025350
O O11 0.220495 0.354277 0.630898
O O12 0.241948 0.976793 0.801840
O O13 0.500000 0.000000 0.000000
O O14 0.884607 0.616592 0.293556
O O15 0.429915 0.581844 0.108835
O O16 0.000000 0.500000 0.000000
#
# Coordination Sequence:
#
# PCOD9039128 Si02
#       7
#     2   2   2   2   2   2   2
#     4  11  21  39  68 100 132 179 234 281 339 407
#     4  11  21  40  69 103 138 173 222 291 354 395
#     4  11  21  42  68  97 138 177 228 288 342 412
#     4  11  25  46  69  96 140 187 231 281 342 419
#     4  11  23  41  70 106 130 180 240 279 341 416
#     4  10  23  42  66  95 138 183 221 280 352 404
#     4  11  20  40  68  96 134 174 230 289 332 412
#
# _framework density 22.201294999999998
#
# number of rings (size 3 to 8) (size 9 to 14) (size 15 to 20)
#    0.000    1.143    4.286    3.429    0.000    0.571 
#    0.000   12.857    0.000    0.000    0.000    0.000 
#    0.000    0.000    0.000    0.000    0.000    0.000 
#
# Total GULP energy -78087.158297 kJ/mol
# GULP energy per Si atom -5577.654164 kJ/mol
# Density = 2.215076 g / cm^3
# Si number density = 22.201295 Si / 1000 Ang^3
#
#
#
# Elastic Constant Matrix: (Units=GPa)
#
#
# Indices 1 2 3 4 5 6 
#
# 1 121.3566 45.0251 19.3152 5.7207 7.8733 0.7597
# 2 45.0251 158.0390 64.1835 13.9887 11.1980 -10.8764
# 3 19.3152 64.1835 117.2586 12.3638 27.8563 8.5868
# 4 5.7207 13.9887 12.3638 24.9951 6.5609 -0.7190
# 5 7.8733 11.1980 27.8563 6.5609 27.4569 7.7214
# 6 0.7597 -10.8764 8.5868 -0.7190 7.7214 66.4454
#
#
#
# Elastic Compliance Matrix: (Units=1/GPa)
#
#
# Indices 1 2 3 4 5 6 
#
# 1 0.009309 -0.002698 0.000444 -0.000375 -0.001818 -0.000398
# 2 -0.002698 0.009364 -0.005062 -0.002635 0.002175 0.001937
# 3 0.000444 -0.005062 0.014276 -0.001250 -0.011878 -0.001312
# 4 -0.000375 -0.002635 -0.001250 0.044455 -0.008512 0.001205
# 5 -0.001818 0.002175 -0.011878 -0.008512 0.051305 -0.004142
# 6 -0.000398 0.001937 -0.001312 0.001205 -0.004142 0.016035
#
#
# Mechanical properties :
#
#
# Convention : Reuss Voigt Hill
#
# Bulk Modulus (GPa) = 54.59572 72.63354 63.61463
# Shear Modulus (GPa) = 30.21492 41.65484 35.93488
#
# Velocity S-wave (km/s) = 3.69311 4.33625 4.02754
# Velocity P-wave (km/s) = 6.54447 7.60642 7.09534
#
# Compressibility (1/GPa) = 0.01831646
#
# Stress axis : x y z
#
# Youngs Moduli (GPa) = 107.42867 106.78837 70.04962
#
# Poissons Ratio (x) = 0.28808 -0.03109
# Poissons Ratio (y) = 0.28981 0.35460
# Poissons Ratio (z) = -0.04767 0.54057
#
# Static dielectric constant tensor:
#      x y z
#    x 1.694930 -0.175620 0.164580 
#    y -0.175620 1.746350 0.270840 
#    z 0.164580 0.270840 1.721560 
# 
# From -- ./inp_files/154981.got.cif
#   From: 2010.05.17/outbox.cif.g08.bks.cpg/sg2_78_cif.got.tgz:154981.got - 2010.06.03 11:33:40.
