data_PCOD9039612
_publ_section_title
;
Structure prediction by ZEFSAII (Michael W. Deem and Ramdas Pophale) SiO2 
 PCOD9039612
Probable space group: P -1
;
_chemical_formula_sum "Si O2"
_cell_formula_units_Z 16
_cell_length_a 12.093942
_cell_length_b 8.278200
_cell_length_c 8.338815
_cell_angle_alpha 123.397562
_cell_angle_beta 95.148125
_cell_angle_gamma 100.013181
_cell_volume 668.687781
_symmetry_space_group_name_H-M "P -1"
_symmetry_group_IT_number 2
_symmetry_cell_setting 'triclinic'
loop_
_space_group_symop_operation_xyz
x,y,z
-x,-y,-z
loop_
_atom_site_type_symbol
_atom_site_label
_atom_site_fract_x
_atom_site_fract_y
_atom_site_fract_z
Si Si1 0.311285 0.445298 0.865320
Si Si2 0.173070 0.364648 0.503675
Si Si3 0.276854 0.093652 0.169321
Si Si4 0.741117 0.161742 0.285598
Si Si5 0.542827 0.607148 0.837764
Si Si6 0.053846 0.822884 0.459581
Si Si7 0.787387 0.272707 0.807928
Si Si8 0.571058 0.191697 0.516450
O O1 0.249201 0.316299 0.636534
O O2 0.420572 0.613609 0.897649
O O3 0.369087 0.363076 0.980408
O O4 0.216472 0.549317 0.976022
O O5 0.195672 0.234674 0.285663
O O6 0.218804 0.599038 0.601985
O O7 0.041598 0.315272 0.514446
O O8 0.398239 0.241977 0.211420
O O9 0.267204 0.939702 0.229352
O O10 0.243600 0.950206 0.934723
O O11 0.827090 0.098926 0.386745
O O12 0.610897 0.119441 0.313153
O O13 0.518885 0.380864 0.638230
O O14 0.091373 0.720369 0.252022
O O15 0.000000 0.000000 0.500000
O O16 0.695449 0.283743 0.666043
O O17 0.500000 0.000000 0.500000
#
# Coordination Sequence:
#
# PCOD9039612 Si02
#       8
#     2   2   2   2   2   2   2   2
#     4  10  24  44  67  99 138 179 229 271 344 408
#     4  12  25  47  69  98 140 184 227 284 338 404
#     4  12  25  42  69 101 138 174 231 278 335 407
#     4  11  26  47  67 103 141 177 224 288 340 399
#     4  10  24  42  68 104 135 183 225 276 342 407
#     4  11  25  46  73 100 132 180 234 282 343 405
#     4  10  23  45  63 102 135 175 232 278 341 408
#     4  10  23  42  69  95 140 185 223 276 342 406
#
# _framework density 23.927458999999999
#
# number of rings (size 3 to 8) (size 9 to 14) (size 15 to 20)
#    0.000    1.250    3.750    0.375    8.750    3.000 
#    0.000    0.000    0.000    0.000    0.000    0.000 
#    0.000    0.000    0.000    0.000    0.000    0.000 
#
# Total GULP energy -89474.398377 kJ/mol
# GULP energy per Si atom -5592.149899 kJ/mol
# Density = 2.387300 g / cm^3
# Si number density = 23.927459 Si / 1000 Ang^3
#
#
#
# Elastic Constant Matrix: (Units=GPa)
#
#
# Indices 1 2 3 4 5 6 
#
# 1 114.4650 24.8385 29.1218 -11.4748 -40.7524 13.2469
# 2 24.8385 81.8397 22.9176 -1.5783 -15.5627 15.1646
# 3 29.1218 22.9176 118.7937 -0.7183 -42.9321 -6.6947
# 4 -11.4748 -1.5783 -0.7183 29.4457 1.0936 -6.1060
# 5 -40.7524 -15.5627 -42.9321 1.0936 44.0311 -11.8932
# 6 13.2469 15.1646 -6.6947 -6.1060 -11.8932 43.7143
#
#
#
# Elastic Compliance Matrix: (Units=1/GPa)
#
#
# Indices 1 2 3 4 5 6 
#
# 1 0.014399 -0.002413 0.002637 0.005351 0.015402 0.001815
# 2 -0.002413 0.014488 -0.003058 -0.001292 -0.001508 -0.005354
# 3 0.002637 -0.003058 0.015569 0.002216 0.018654 0.008031
# 4 0.005351 -0.001292 0.002216 0.037075 0.007457 0.006374
# 5 0.015402 -0.001508 0.018654 0.007457 0.058683 0.015720
# 6 0.001815 -0.005354 0.008031 0.006374 0.015720 0.030580
#
#
# Mechanical properties :
#
#
# Convention : Reuss Voigt Hill
#
# Bulk Modulus (GPa) = 25.78136 52.09489 38.93812
# Shear Modulus (GPa) = 26.40023 39.31958 32.85991
#
# Velocity S-wave (km/s) = 3.32527 4.05814 3.70985
# Velocity P-wave (km/s) = 5.05385 6.61644 5.88722
#
# Compressibility (1/GPa) = 0.03878772
#
# Stress axis : x y z
#
# Youngs Moduli (GPa) = 69.44971 69.02262 64.22934
#
# Poissons Ratio (x) = 0.16653 -0.16935
# Poissons Ratio (y) = 0.16756 0.19642
# Poissons Ratio (z) = -0.18311 0.21108
#
# Static dielectric constant tensor:
#      x y z
#    x 1.904260 -0.014680 -0.013570 
#    y -0.014680 1.974720 -0.072240 
#    z -0.013570 -0.072240 2.007600 
# 
# From -- ./inp_files/217529.got.cif
#   From: 2010.05.17/outbox.cif.g08.bks.cpg/sg2_109_cif.got.tgz:217529.got - 2010.06.03 11:33:40.
