data_PCOD9039901
_publ_section_title
;
Structure prediction by ZEFSAII (Michael W. Deem and Ramdas Pophale) SiO2 
 PCOD9039901
Probable space group: P -1
;
_chemical_formula_sum "Si O2"
_cell_formula_units_Z 16
_cell_length_a 16.286554
_cell_length_b 8.687337
_cell_length_c 14.530219
_cell_angle_alpha 37.301842
_cell_angle_beta 41.623720
_cell_angle_gamma 36.134019
_cell_volume 702.174848
_symmetry_space_group_name_H-M "P -1"
_symmetry_group_IT_number 2
_symmetry_cell_setting 'triclinic'
loop_
_space_group_symop_operation_xyz
x,y,z
-x,-y,-z
loop_
_atom_site_type_symbol
_atom_site_label
_atom_site_fract_x
_atom_site_fract_y
_atom_site_fract_z
Si Si1 0.236092 0.306133 0.407629
Si Si2 0.463807 0.321896 0.845151
Si Si3 0.282337 0.859809 0.423117
Si Si4 0.514379 0.336124 0.163807
Si Si5 0.161962 0.497254 0.935814
Si Si6 0.987018 0.816494 0.255355
Si Si7 0.952293 0.619642 0.740091
Si Si8 0.234756 0.349589 0.745462
O O1 0.365543 0.349563 0.308306
O O2 0.156907 0.197331 0.595365
O O3 0.104526 0.619346 0.328664
O O4 0.298712 0.063690 0.387653
O O5 0.594560 0.266958 0.696675
O O6 0.448212 0.512060 0.857753
O O7 0.316559 0.460278 0.844845
O O8 0.500000 0.000000 0.000000
O O9 0.288534 0.579997 0.597110
O O10 0.125557 0.089645 0.397564
O O11 0.640277 0.989417 0.214446
O O12 0.500000 0.500000 0.000000
O O13 0.161933 0.378557 0.891469
O O14 0.047986 0.850708 0.873152
O O15 0.137332 0.318214 0.120901
O O16 0.051918 0.638411 0.190968
O O17 0.116564 0.481232 0.700555
#
# Coordination Sequence:
#
# PCOD9039901 Si02
#       8
#     2   2   2   2   2   2   2   2
#     4  10  23  46  69 106 142 184 230 287 353 405
#     4  12  26  48  72 103 138 185 230 287 363 413
#     4  11  24  46  74 100 146 188 228 292 344 427
#     4  12  29  45  73 104 144 181 237 294 347 426
#     4  12  24  44  72 100 146 187 235 290 350 417
#     4  10  23  42  72 102 141 186 231 290 347 415
#     4  11  25  43  71 103 145 184 242 289 346 412
#     4  12  27  45  70 109 141 187 236 288 352 413
#
# _framework density 22.786348
#
# number of rings (size 3 to 8) (size 9 to 14) (size 15 to 20)
#    0.000    0.750    2.500    4.125    7.000    2.500 
#    0.000    0.000    0.000    0.000    0.000    0.000 
#    0.000    0.000    0.000    0.000    0.000    0.000 
#
# Total GULP energy -89608.925675 kJ/mol
# GULP energy per Si atom -5600.557855 kJ/mol
# Density = 2.273449 g / cm^3
# Si number density = 22.786348 Si / 1000 Ang^3
#
#
#
# Elastic Constant Matrix: (Units=GPa)
#
#
# Indices 1 2 3 4 5 6 
#
# 1 80.9578 25.2726 7.7532 -13.9505 -3.5625 4.7615
# 2 25.2726 113.7636 22.0156 -22.5138 1.7660 3.9727
# 3 7.7532 22.0156 72.2467 -7.1906 4.3121 3.2449
# 4 -13.9505 -22.5138 -7.1906 40.3127 4.1752 -0.3793
# 5 -3.5625 1.7660 4.3121 4.1752 29.3609 10.2579
# 6 4.7615 3.9727 3.2449 -0.3793 10.2579 27.8122
#
#
#
# Elastic Compliance Matrix: (Units=1/GPa)
#
#
# Indices 1 2 3 4 5 6 
#
# 1 0.013943 -0.002314 -0.000494 0.003164 0.002453 -0.002861
# 2 -0.002314 0.010780 -0.002465 0.004894 -0.001133 -0.000371
# 3 -0.000494 -0.002465 0.014927 0.001329 -0.002116 -0.000506
# 4 0.003164 0.004894 0.001329 0.029345 -0.004512 0.000669
# 5 0.002453 -0.001133 -0.002116 -0.004512 0.040639 -0.015062
# 6 -0.002861 -0.000371 -0.000506 0.000669 -0.015062 0.042122
#
#
# Mechanical properties :
#
#
# Convention : Reuss Voigt Hill
#
# Bulk Modulus (GPa) = 34.36007 41.89454 38.12731
# Shear Modulus (GPa) = 29.06902 33.62560 31.34731
#
# Velocity S-wave (km/s) = 3.57560 3.84564 3.71307
# Velocity P-wave (km/s) = 5.67085 6.17611 5.92886
#
# Compressibility (1/GPa) = 0.02910355
#
# Stress axis : x y z
#
# Youngs Moduli (GPa) = 71.71986 92.76114 66.99229
#
# Poissons Ratio (x) = 0.21464 0.03311
# Poissons Ratio (y) = 0.16595 0.16516
# Poissons Ratio (z) = 0.03545 0.22869
#
# Static dielectric constant tensor:
#      x y z
#    x 1.844360 -0.040040 0.020070 
#    y -0.040040 1.814080 0.009060 
#    z 0.020070 0.009060 2.080420 
# 
# From -- ./inp_files/206318.got.cif
#   From: 2010.05.17/outbox.cif.g08.bks.cpg/sg2_104_cif.got.tgz:206318.got - 2010.06.03 11:33:40.
