data_PCOD9039516
_publ_section_title
;
Structure prediction by ZEFSAII (Michael W. Deem and Ramdas Pophale) SiO2 
 PCOD9039516
Probable space group: P -1
;
_chemical_formula_sum "Si O2"
_cell_formula_units_Z 16
_cell_length_a 23.636452
_cell_length_b 12.437218
_cell_length_c 5.622136
_cell_angle_alpha 107.582251
_cell_angle_beta 113.207519
_cell_angle_gamma 26.992620
_cell_volume 684.659019
_symmetry_space_group_name_H-M "P -1"
_symmetry_group_IT_number 2
_symmetry_cell_setting 'triclinic'
loop_
_space_group_symop_operation_xyz
x,y,z
-x,-y,-z
loop_
_atom_site_type_symbol
_atom_site_label
_atom_site_fract_x
_atom_site_fract_y
_atom_site_fract_z
Si Si1 0.455298 0.844917 0.301092
Si Si2 0.726455 0.453758 0.683234
Si Si3 0.025066 0.769183 0.481944
Si Si4 0.692461 0.117515 0.650277
Si Si5 0.215026 0.385231 0.183221
Si Si6 0.146728 0.807692 0.799048
Si Si7 0.503334 0.590130 0.866288
Si Si8 0.979569 0.654596 0.691278
O O1 0.570913 0.695048 0.565080
O O2 0.371099 0.880088 0.299955
O O3 0.355290 0.102455 0.238335
O O4 0.522352 0.680376 0.072624
O O5 0.768697 0.515486 0.824031
O O6 0.781970 0.324025 0.429387
O O7 0.778400 0.307062 0.904983
O O8 0.956506 0.791025 0.551448
O O9 0.156375 0.498196 0.425359
O O10 0.059831 0.833906 0.696232
O O11 0.941645 0.940244 0.227331
O O12 0.620481 0.352493 0.742503
O O13 0.636813 0.182167 0.339294
O O14 0.846309 0.865464 0.760591
O O15 0.109400 0.481332 0.931771
O O16 0.500000 0.500000 0.000000
O O17 0.000000 0.500000 0.500000
#
# Coordination Sequence:
#
# PCOD9039516 Si02
#       8
#     2   2   2   2   2   2   2   2
#     4  11  24  43  70 102 143 191 243 304 370 446
#     4  11  25  47  75 113 143 194 245 314 374 440
#     4  10  24  44  71 106 145 190 238 308 365 444
#     4  10  23  42  68  99 141 188 247 298 363 435
#     4  11  25  46  69 101 147 189 242 302 373 445
#     4  10  24  46  78 108 149 187 252 307 377 431
#     4   9  21  43  64  96 134 183 239 299 352 428
#     4  12  25  43  70 105 146 196 243 299 366 450
#
# _framework density 23.369295000000001
#
# number of rings (size 3 to 8) (size 9 to 14) (size 15 to 20)
#    0.000    1.500    1.250    1.875    3.500    9.500 
#    0.000    1.875    0.000    0.000    0.000    0.000 
#    0.000    0.000    0.000    0.000    0.000    0.000 
#
# Total GULP energy -89456.145360 kJ/mol
# GULP energy per Si atom -5591.009085 kJ/mol
# Density = 2.331611 g / cm^3
# Si number density = 23.369295 Si / 1000 Ang^3
#
#
#
# Elastic Constant Matrix: (Units=GPa)
#
#
# Indices 1 2 3 4 5 6 
#
# 1 104.3446 17.0302 24.9034 -3.3387 5.2461 -13.8581
# 2 17.0302 102.9804 39.0611 -17.3408 11.1278 -11.9282
# 3 24.9034 39.0611 107.1030 -21.9918 7.3675 -10.4630
# 4 -3.3387 -17.3408 -21.9918 32.6102 4.9562 6.2196
# 5 5.2461 11.1278 7.3675 4.9562 35.7914 -12.2735
# 6 -13.8581 -11.9282 -10.4630 6.2196 -12.2735 25.7861
#
#
#
# Elastic Compliance Matrix: (Units=1/GPa)
#
#
# Indices 1 2 3 4 5 6 
#
# 1 0.010864 -0.000799 -0.002199 -0.002096 0.001365 0.005732
# 2 -0.000799 0.012267 -0.002971 0.004676 -0.003268 0.001357
# 3 -0.002199 -0.002971 0.012517 0.007069 -0.002425 -0.000336
# 4 -0.002096 0.004676 0.007069 0.041947 -0.012597 -0.012209
# 5 0.001365 -0.003268 -0.002425 -0.012597 0.037569 0.019158
# 6 0.005732 0.001357 -0.000336 -0.012209 0.019158 0.054416
#
#
# Mechanical properties :
#
#
# Convention : Reuss Voigt Hill
#
# Bulk Modulus (GPa) = 42.17461 52.93526 47.55494
# Shear Modulus (GPa) = 26.39617 34.39977 30.39797
#
# Velocity S-wave (km/s) = 3.36448 3.84084 3.61053
# Velocity P-wave (km/s) = 5.76014 6.50924 6.14611
#
# Compressibility (1/GPa) = 0.02371095
#
# Stress axis : x y z
#
# Youngs Moduli (GPa) = 92.04292 81.51881 79.89117
#
# Poissons Ratio (x) = 0.06514 0.17569
# Poissons Ratio (y) = 0.07355 0.23733
# Poissons Ratio (z) = 0.20241 0.24217
#
# Static dielectric constant tensor:
#      x y z
#    x 1.905250 -0.051440 -0.002700 
#    y -0.051440 1.905600 0.022080 
#    z -0.002700 0.022080 1.950730 
# 
# From -- ./inp_files/123756.got.cif
#   From: 2010.05.17/outbox.cif.g08.bks.cpg/sg2_62_cif.got.tgz:123756.got - 2010.06.03 11:33:40.
