data_PCOD9039433
_publ_section_title
;
Structure prediction by ZEFSAII (Michael W. Deem and Ramdas Pophale) SiO2 
 PCOD9039433
Probable space group: P -1
;
_chemical_formula_sum "Si O2"
_cell_formula_units_Z 16
_cell_length_a 6.772857
_cell_length_b 24.082300
_cell_length_c 8.474499
_cell_angle_alpha 121.223488
_cell_angle_beta 100.251519
_cell_angle_gamma 42.616965
_cell_volume 749.282696
_symmetry_space_group_name_H-M "P -1"
_symmetry_group_IT_number 2
_symmetry_cell_setting 'triclinic'
loop_
_space_group_symop_operation_xyz
x,y,z
-x,-y,-z
loop_
_atom_site_type_symbol
_atom_site_label
_atom_site_fract_x
_atom_site_fract_y
_atom_site_fract_z
Si Si1 0.275679 0.793886 0.669026
Si Si2 0.719001 0.440432 0.291122
Si Si3 0.432213 0.044523 0.306873
Si Si4 0.401479 0.395340 0.057512
Si Si5 0.557068 0.085975 0.715110
Si Si6 0.174531 0.951173 0.785900
Si Si7 0.419379 0.262505 0.055183
Si Si8 0.305556 0.425693 0.715663
O O1 0.378111 0.835276 0.657766
O O2 0.311200 0.797861 0.865746
O O3 0.487546 0.680303 0.491347
O O4 0.925768 0.869234 0.670145
O O5 0.500000 0.500000 0.500000
O O6 0.649786 0.386273 0.134666
O O7 0.632589 0.519619 0.273761
O O8 0.091271 0.354554 0.234874
O O9 0.477638 0.075929 0.519198
O O10 0.628280 0.033702 0.189905
O O11 0.545037 0.944237 0.218858
O O12 0.462291 0.307499 0.996943
O O13 0.064166 0.496652 0.233483
O O14 0.377830 0.406320 0.882804
O O15 0.417062 0.191460 0.877114
O O16 0.923795 0.003744 0.687709
O O17 0.000000 0.000000 0.000000
#
# Coordination Sequence:
#
# PCOD9039433 Si02
#       8
#     2   2   2   2   2   2   2   2
#     4  11  24  41  63 101 130 172 218 269 326 395
#     4  11  23  41  66  96 134 177 218 266 328 390
#     4  10  25  43  70  93 132 176 215 270 334 384
#     4  10  23  42  68  93 133 178 211 278 324 384
#     4  10  23  46  65  98 130 171 221 271 322 398
#     4  11  23  45  66  97 134 171 213 273 329 387
#     4  11  24  42  66 100 131 169 225 267 330 385
#     4  10  23  43  63  97 135 169 223 268 324 390
#
# _framework density 21.353757999999999
#
# number of rings (size 3 to 8) (size 9 to 14) (size 15 to 20)
#    0.000    1.500    1.250    2.250    3.500    8.000 
#    2.250    0.000    0.000    0.000    0.000    0.000 
#    0.000    0.000    0.000    0.000    0.000    0.000 
#
# Total GULP energy -89445.252465 kJ/mol
# GULP energy per Si atom -5590.328279 kJ/mol
# Density = 2.130516 g / cm^3
# Si number density = 21.353758 Si / 1000 Ang^3
#
#
#
# Elastic Constant Matrix: (Units=GPa)
#
#
# Indices 1 2 3 4 5 6 
#
# 1 138.3406 59.7566 40.2317 -2.5613 5.8293 35.1373
# 2 59.7566 126.0279 44.8881 2.4162 7.0458 24.0651
# 3 40.2317 44.8881 71.1296 4.9158 15.3115 17.0556
# 4 -2.5613 2.4162 4.9158 35.0659 8.4555 15.4426
# 5 5.8293 7.0458 15.3115 8.4555 30.5732 -7.5520
# 6 35.1373 24.0651 17.0556 15.4426 -7.5520 38.7493
#
#
#
# Elastic Compliance Matrix: (Units=1/GPa)
#
#
# Indices 1 2 3 4 5 6 
#
# 1 0.013049 -0.002668 -0.001065 0.009840 -0.007804 -0.015150
# 2 -0.002668 0.011618 -0.004910 0.001405 -0.000933 -0.003377
# 3 -0.001065 -0.004910 0.023207 0.005459 -0.014568 -0.011214
# 4 0.009840 0.001405 0.005459 0.052432 -0.029006 -0.038747
# 5 -0.007804 -0.000933 -0.014568 -0.029006 0.058895 0.037105
# 6 -0.015150 -0.003377 -0.011214 -0.038747 0.037105 0.069251
#
#
# Mechanical properties :
#
#
# Convention : Reuss Voigt Hill
#
# Bulk Modulus (GPa) = 32.68989 69.47235 51.08112
# Shear Modulus (GPa) = 19.53622 33.58580 26.56101
#
# Velocity S-wave (km/s) = 3.02799 3.97019 3.53066
# Velocity P-wave (km/s) = 5.25042 7.32265 6.37135
#
# Compressibility (1/GPa) = 0.03059050
#
# Stress axis : x y z
#
# Youngs Moduli (GPa) = 76.63140 86.06968 43.08999
#
# Poissons Ratio (x) = 0.22960 0.04589
# Poissons Ratio (y) = 0.20442 0.21156
# Poissons Ratio (z) = 0.08161 0.42258
#
# Static dielectric constant tensor:
#      x y z
#    x 1.762420 -0.002100 0.001020 
#    y -0.002100 1.771100 0.006980 
#    z 0.001020 0.006980 1.789980 
# 
# From -- ./inp_files/53946.got.cif
#   From: 2010.05.17/outbox.cif.g08.bks.cpg/sg2_27_cif.got.tgz:53946.got - 2010.06.03 11:33:40.
