data_PCOD9039024
_publ_section_title
;
Structure prediction by ZEFSAII (Michael W. Deem and Ramdas Pophale) SiO2 
 PCOD9039024
Probable space group: P -1
;
_chemical_formula_sum "Si O2"
_cell_formula_units_Z 12
_cell_length_a 7.178930
_cell_length_b 12.561062
_cell_length_c 13.237644
_cell_angle_alpha 128.234886
_cell_angle_beta 46.215511
_cell_angle_gamma 94.089978
_cell_volume 526.025323
_symmetry_space_group_name_H-M "P -1"
_symmetry_group_IT_number 2
_symmetry_cell_setting 'triclinic'
loop_
_space_group_symop_operation_xyz
x,y,z
-x,-y,-z
loop_
_atom_site_type_symbol
_atom_site_label
_atom_site_fract_x
_atom_site_fract_y
_atom_site_fract_z
Si Si1 0.865604 0.544778 0.691645
Si Si2 0.789254 0.938311 0.573698
Si Si3 0.351430 0.485317 0.855453
Si Si4 0.794717 0.890955 0.241631
Si Si5 0.312542 0.951644 0.108578
Si Si6 0.923235 0.590358 0.255519
O O1 0.674293 0.467045 0.729690
O O2 0.593824 0.752659 0.921383
O O3 0.000000 0.500000 0.500000
O O4 0.090253 0.475108 0.667813
O O5 0.407755 0.080082 0.765340
O O6 0.103233 0.240118 0.618518
O O7 0.818839 0.924682 0.673626
O O8 0.000000 0.000000 0.500000
O O9 0.348392 0.378687 0.702930
O O10 0.056675 0.689190 0.056781
O O11 0.256700 0.458230 0.985219
O O12 0.500000 0.000000 0.500000
O O13 0.012078 0.955920 0.184053
O O14 0.500000 0.000000 0.000000
#
# Coordination Sequence:
#
# PCOD9039024 Si02
#       6
#     2   2   2   2   2   2
#     4  11  24  44  65  92 133 175 215 267 331 397
#     4  12  23  40  70  99 130 174 222 271 333 391
#     4  10  23  42  65  97 130 166 223 270 326 386
#     4  11  21  43  68  96 131 170 220 274 323 389
#     4  11  25  44  66  99 133 174 219 274 331 393
#     4  11  23  40  66  98 127 170 217 275 326 384
#
# _framework density 22.812588999999999
#
# number of rings (size 3 to 8) (size 9 to 14) (size 15 to 20)
#    0.000    1.000    3.333    3.500    0.000    6.667 
#    0.000    0.000    0.000    0.000    0.000    0.000 
#    0.000    0.000    0.000    0.000    0.000    0.000 
#
# Total GULP energy -67052.582834 kJ/mol
# GULP energy per Si atom -5587.715236 kJ/mol
# Density = 2.276067 g / cm^3
# Si number density = 22.812589 Si / 1000 Ang^3
#
#
#
# Elastic Constant Matrix: (Units=GPa)
#
#
# Indices 1 2 3 4 5 6 
#
# 1 109.8378 46.8877 29.5447 -0.6784 13.5435 11.8158
# 2 46.8877 121.8948 41.6016 1.5034 5.2532 14.0048
# 3 29.5447 41.6016 79.3541 -13.7478 19.0587 6.9362
# 4 -0.6784 1.5034 -13.7478 50.5801 -0.1282 -0.2501
# 5 13.5435 5.2532 19.0587 -0.1282 41.2944 2.2613
# 6 11.8158 14.0048 6.9362 -0.2501 2.2613 44.4411
#
#
#
# Elastic Compliance Matrix: (Units=1/GPa)
#
#
# Indices 1 2 3 4 5 6 
#
# 1 0.011565 -0.003563 -0.001754 -0.000230 -0.002445 -0.001555
# 2 -0.003563 0.011588 -0.005457 -0.001879 0.002316 -0.001981
# 3 -0.001754 -0.005457 0.018827 0.005235 -0.007384 -0.000347
# 4 -0.000230 -0.001879 0.005235 0.021242 -0.002039 0.000060
# 5 -0.002445 0.002316 -0.007384 -0.002039 0.028146 -0.000371
# 6 -0.001555 -0.001981 -0.000347 0.000060 -0.000371 0.023613
#
#
# Mechanical properties :
#
#
# Convention : Reuss Voigt Hill
#
# Bulk Modulus (GPa) = 48.94632 60.79497 54.87065
# Shear Modulus (GPa) = 34.88274 40.13329 37.50801
#
# Velocity S-wave (km/s) = 3.91461 4.19890 4.05925
# Velocity P-wave (km/s) = 6.47570 7.08628 6.78786
#
# Compressibility (1/GPa) = 0.02043054
#
# Stress axis : x y z
#
# Youngs Moduli (GPa) = 86.47146 86.29888 53.11633
#
# Poissons Ratio (x) = 0.30746 0.09319
# Poissons Ratio (y) = 0.30807 0.28985
# Poissons Ratio (z) = 0.15171 0.47093
#
# Static dielectric constant tensor:
#      x y z
#    x 1.887960 -0.062650 0.030880 
#    y -0.062650 1.877090 0.041510 
#    z 0.030880 0.041510 1.872410 
# 
# From -- ./inp_files/364920.got.cif
#   From: 2010.05.17/outbox.cif.g08.bks.cpg/sg2_183_cif.got.tgz:364920.got - 2010.06.03 11:33:40.
