data_PCOD9039736
_publ_section_title
;
Structure prediction by ZEFSAII (Michael W. Deem and Ramdas Pophale) SiO2 
 PCOD9039736
Probable space group: P -1
;
_chemical_formula_sum "Si O2"
_cell_formula_units_Z 14
_cell_length_a 8.550951
_cell_length_b 14.764081
_cell_length_c 7.002592
_cell_angle_alpha 49.134058
_cell_angle_beta 81.356120
_cell_angle_gamma 100.492491
_cell_volume 612.706849
_symmetry_space_group_name_H-M "P -1"
_symmetry_group_IT_number 2
_symmetry_cell_setting 'triclinic'
loop_
_space_group_symop_operation_xyz
x,y,z
-x,-y,-z
loop_
_atom_site_type_symbol
_atom_site_label
_atom_site_fract_x
_atom_site_fract_y
_atom_site_fract_z
Si Si1 0.305681 0.473300 0.627969
Si Si2 0.921995 0.078317 0.648384
Si Si3 0.738507 0.128512 0.925772
Si Si4 0.263190 0.130836 0.754726
Si Si5 0.994512 0.773633 0.947781
Si Si6 0.729290 0.332350 0.916309
Si Si7 0.448603 0.614063 0.767236
O O1 0.500000 0.500000 0.500000
O O2 0.233395 0.535475 0.386698
O O3 0.308395 0.546682 0.724745
O O4 0.198644 0.322469 0.879564
O O5 0.106108 0.118266 0.660983
O O6 0.952730 0.116681 0.372034
O O7 0.804122 0.150318 0.666292
O O8 0.815105 0.931674 0.939566
O O9 0.918755 0.166787 0.951728
O O10 0.652288 0.973761 0.178490
O O11 0.657091 0.216905 0.929076
O O12 0.397130 0.274148 0.519721
O O13 0.100406 0.680801 0.016984
O O14 0.608292 0.324527 0.126010
O O15 0.500000 0.500000 0.000000
#
# Coordination Sequence:
#
# PCOD9039736 Si02
#       7
#     2   2   2   2   2   2   2
#     4  12  26  42  66 101 131 177 216 273 330 393
#     4   9  19  41  65  99 124 177 215 272 328 372
#     4   8  21  41  66  94 131 168 224 266 324 378
#     4   9  21  42  66  98 136 167 220 279 316 392
#     4  10  23  42  70  94 129 174 225 264 331 391
#     4  10  25  44  63 101 131 176 220 269 332 384
#     4  12  25  43  65  98 137 172 216 269 338 389
#
# _framework density 22.849426999999999
#
# number of rings (size 3 to 8) (size 9 to 14) (size 15 to 20)
#    1.714    0.286    1.429    1.286    4.000    2.857 
#    2.571    1.429    0.000    0.000    0.000    0.000 
#    0.000    0.000    0.000    0.000    0.000    0.000 
#
# Total GULP energy -78040.546347 kJ/mol
# GULP energy per Si atom -5574.324739 kJ/mol
# Density = 2.279742 g / cm^3
# Si number density = 22.849427 Si / 1000 Ang^3
#
#
#
# Elastic Constant Matrix: (Units=GPa)
#
#
# Indices 1 2 3 4 5 6 
#
# 1 43.8935 5.3546 19.6126 1.8810 -0.0624 -10.5168
# 2 5.3546 63.6950 35.2156 -11.4421 -4.8566 -17.8758
# 3 19.6126 35.2156 132.6835 -7.4776 -12.6919 11.8106
# 4 1.8810 -11.4421 -7.4776 32.2092 7.0190 -4.7893
# 5 -0.0624 -4.8566 -12.6919 7.0190 21.7995 -2.5160
# 6 -10.5168 -17.8758 11.8106 -4.7893 -2.5160 37.0850
#
#
#
# Elastic Compliance Matrix: (Units=1/GPa)
#
#
# Indices 1 2 3 4 5 6 
#
# 1 0.028093 0.004783 -0.006629 0.000687 -0.001507 0.012370
# 2 0.004783 0.027407 -0.009105 0.010198 -0.000300 0.018764
# 3 -0.006629 -0.009105 0.012139 -0.002556 0.004672 -0.010148
# 4 0.000687 0.010198 -0.002556 0.037764 -0.010207 0.010109
# 5 -0.001507 -0.000300 0.004672 -0.010207 0.051824 0.000138
# 6 0.012370 0.018764 -0.010148 0.010109 0.000138 0.044065
#
#
# Mechanical properties :
#
#
# Convention : Reuss Voigt Hill
#
# Bulk Modulus (GPa) = 21.86352 40.07083 30.96717
# Shear Modulus (GPa) = 20.96972 30.22466 25.59719
#
# Velocity S-wave (km/s) = 3.03270 3.64094 3.35065
# Velocity P-wave (km/s) = 4.67465 5.93719 5.34334
#
# Compressibility (1/GPa) = 0.04573830
#
# Stress axis : x y z
#
# Youngs Moduli (GPa) = 35.59609 36.48692 82.37678
#
# Poissons Ratio (x) = -0.17453 0.54605
# Poissons Ratio (y) = -0.17027 0.75007
# Poissons Ratio (z) = 0.23595 0.33223
#
# Static dielectric constant tensor:
#      x y z
#    x 1.895070 -0.059430 0.017460 
#    y -0.059430 1.899660 -0.011050 
#    z 0.017460 -0.011050 1.805760 
# 
# From -- ./inp_files/209719.got.cif
#   From: 2010.05.17/outbox.cif.g08.bks.cpg/sg2_105_cif.got.tgz:209719.got - 2010.06.03 11:33:40.
