data_PCOD9039668
_publ_section_title
;
Structure prediction by ZEFSAII (Michael W. Deem and Ramdas Pophale) SiO2 
 PCOD9039668
Probable space group: P -1
;
_chemical_formula_sum "Si O2"
_cell_formula_units_Z 12
_cell_length_a 15.130115
_cell_length_b 10.056518
_cell_length_c 7.234316
_cell_angle_alpha 134.315017
_cell_angle_beta 71.249718
_cell_angle_gamma 139.211207
_cell_volume 461.046544
_symmetry_space_group_name_H-M "P -1"
_symmetry_group_IT_number 2
_symmetry_cell_setting 'triclinic'
loop_
_space_group_symop_operation_xyz
x,y,z
-x,-y,-z
loop_
_atom_site_type_symbol
_atom_site_label
_atom_site_fract_x
_atom_site_fract_y
_atom_site_fract_z
Si Si1 0.957997 0.441227 0.687723
Si Si2 0.731244 0.575825 0.117558
Si Si3 0.595295 0.249736 0.520411
Si Si4 0.389087 0.246750 0.665776
Si Si5 0.229396 0.598036 0.758631
Si Si6 0.976172 0.023401 0.827232
O O1 0.000000 0.500000 0.500000
O O2 0.089857 0.522356 0.774241
O O3 0.781042 0.099956 0.503721
O O4 0.991045 0.709398 0.969121
O O5 0.643028 0.614869 0.287479
O O6 0.707630 0.354257 0.037385
O O7 0.907230 0.898849 0.309471
O O8 0.711231 0.517783 0.853184
O O9 0.492786 0.253115 0.509970
O O10 0.653320 0.185396 0.275425
O O11 0.500000 0.000000 0.500000
O O12 0.500000 0.500000 0.000000
O O13 0.181476 0.314596 0.447333
O O14 0.000000 0.000000 0.000000
#
# Coordination Sequence:
#
# PCOD9039668 Si02
#       6
#     2   2   2   2   2   2
#     4  12  23  42  74 104 135 188 239 286 354 417
#     4  11  23  45  69 102 142 178 236 296 347 413
#     4  11  24  46  69  99 141 189 235 285 354 426
#     4  10  23  42  69  99 143 187 225 288 357 416
#     4  12  26  44  73 103 141 182 235 300 347 413
#     4  12  22  42  71 102 139 180 233 295 349 409
#
# _framework density 26.027736999999998
#
# number of rings (size 3 to 8) (size 9 to 14) (size 15 to 20)
#    0.000    0.667    5.000    2.500    2.333    2.000 
#    3.000    0.000    0.000    0.000    0.000    0.000 
#    0.000    0.000    0.000    0.000    0.000    0.000 
#
# Total GULP energy -66905.588581 kJ/mol
# GULP energy per Si atom -5575.465715 kJ/mol
# Density = 2.596850 g / cm^3
# Si number density = 26.027737 Si / 1000 Ang^3
#
#
#
# Elastic Constant Matrix: (Units=GPa)
#
#
# Indices 1 2 3 4 5 6 
#
# 1 216.4034 54.3532 38.7681 -4.1065 -9.5633 -11.3834
# 2 54.3532 90.8689 11.9275 -3.1184 3.2368 0.0149
# 3 38.7681 11.9275 94.0787 22.2516 -12.0805 -2.0138
# 4 -4.1065 -3.1184 22.2516 42.1805 -0.7945 3.6091
# 5 -9.5633 3.2368 -12.0805 -0.7945 33.8446 2.8386
# 6 -11.3834 0.0149 -2.0138 3.6091 2.8386 42.5967
#
#
#
# Elastic Compliance Matrix: (Units=1/GPa)
#
#
# Indices 1 2 3 4 5 6 
#
# 1 0.005988 -0.003283 -0.002212 0.001417 0.001141 0.001301
# 2 -0.003283 0.013218 -0.000931 0.001177 -0.002424 -0.000864
# 3 -0.002212 -0.000931 0.014021 -0.007638 0.004253 0.000436
# 4 0.001417 0.001177 -0.007638 0.028125 -0.001589 -0.002260
# 5 0.001141 -0.002424 0.004253 -0.001589 0.031705 -0.001471
# 6 0.001301 -0.000864 0.000436 -0.002260 -0.001471 0.024134
#
#
# Mechanical properties :
#
#
# Convention : Reuss Voigt Hill
#
# Bulk Modulus (GPa) = 49.08277 67.93875 58.51076
# Shear Modulus (GPa) = 36.54044 43.47783 40.00914
#
# Velocity S-wave (km/s) = 3.75094 4.09154 3.92493
# Velocity P-wave (km/s) = 6.13662 6.96276 6.56270
#
# Compressibility (1/GPa) = 0.02037375
#
# Stress axis : x y z
#
# Youngs Moduli (GPa) = 167.00984 75.65516 71.32207
#
# Poissons Ratio (x) = 0.24840 0.15777
# Poissons Ratio (y) = 0.54835 0.06639
# Poissons Ratio (z) = 0.36944 0.07043
#
# Static dielectric constant tensor:
#      x y z
#    x 2.193870 -0.005980 0.209620 
#    y -0.005980 2.347050 -0.136380 
#    z 0.209620 -0.136380 2.478920 
# 
# From -- ./inp_files/293436.got.cif
#   From: 2010.05.17/outbox.cif.g08.bks.cpg/sg2_147_cif.got.tgz:293436.got - 2010.06.03 11:33:40.
