data_PCOD9039884
_publ_section_title
;
Structure prediction by ZEFSAII (Michael W. Deem and Ramdas Pophale) SiO2 
 PCOD9039884
Probable space group: P -1
;
_chemical_formula_sum "Si O2"
_cell_formula_units_Z 14
_cell_length_a 19.687250
_cell_length_b 21.482558
_cell_length_c 5.033327
_cell_angle_alpha 115.729911
_cell_angle_beta 123.038365
_cell_angle_gamma 19.673491
_cell_volume 576.615624
_symmetry_space_group_name_H-M "P -1"
_symmetry_group_IT_number 2
_symmetry_cell_setting 'triclinic'
loop_
_space_group_symop_operation_xyz
x,y,z
-x,-y,-z
loop_
_atom_site_type_symbol
_atom_site_label
_atom_site_fract_x
_atom_site_fract_y
_atom_site_fract_z
Si Si1 0.328778 0.512743 0.151956
Si Si2 0.612630 0.048109 0.095899
Si Si3 0.828503 0.126608 0.120852
Si Si4 0.115462 0.216933 0.335668
Si Si5 0.777661 0.314725 0.262420
Si Si6 0.697760 0.131289 0.428771
Si Si7 0.133179 0.363563 0.778380
O O1 0.312655 0.558597 0.489585
O O2 0.583168 0.279348 0.261737
O O3 0.256602 0.628229 0.999616
O O4 0.142600 0.600899 0.909787
O O5 0.557995 0.172199 0.167700
O O6 0.782933 0.910610 0.450894
O O7 0.390369 0.184452 0.967589
O O8 0.736639 0.915275 0.859261
O O9 0.687996 0.309682 0.133335
O O10 0.703999 0.157865 0.789942
O O11 0.000000 0.000000 0.500000
O O12 0.000000 0.000000 0.000000
O O13 0.130708 0.282964 0.594877
O O14 0.045857 0.095537 0.499252
O O15 0.000000 0.500000 0.500000
O O16 0.000000 0.500000 0.000000
#
# Coordination Sequence:
#
# PCOD9039884 Si02
#       7
#     2   2   2   2   2   2   2
#     4  12  25  42  72 103 140 191 242 300 355 433
#     4  12  25  45  74 100 145 196 236 300 368 430
#     4  10  23  42  71  99 143 190 238 300 367 428
#     4  12  24  46  69 104 146 190 243 294 364 439
#     4  11  24  46  65 103 146 183 243 303 361 424
#     4  11  25  45  72 104 140 192 245 294 368 429
#     4  12  26  46  71 107 144 183 245 298 355 441
#
# _framework density 24.279608
#
# number of rings (size 3 to 8) (size 9 to 14) (size 15 to 20)
#    0.000    0.571    2.857    5.143    0.000    6.857 
#    0.000    0.000    0.000    0.000    0.000    0.000 
#    0.000    0.000    0.000    0.000    0.000    0.000 
#
# Total GULP energy -78306.440416 kJ/mol
# GULP energy per Si atom -5593.317173 kJ/mol
# Density = 2.422435 g / cm^3
# Si number density = 24.279608 Si / 1000 Ang^3
#
#
#
# Elastic Constant Matrix: (Units=GPa)
#
#
# Indices 1 2 3 4 5 6 
#
# 1 62.2898 20.0444 32.9106 -2.1238 14.2260 11.9945
# 2 20.0444 113.7476 44.7176 -11.5422 4.7339 -1.5844
# 3 32.9106 44.7176 133.5273 4.4827 2.5779 -9.9749
# 4 -2.1238 -11.5422 4.4827 51.6269 4.8288 -8.2569
# 5 14.2260 4.7339 2.5779 4.8288 76.2040 5.1481
# 6 11.9945 -1.5844 -9.9749 -8.2569 5.1481 47.3305
#
#
#
# Elastic Compliance Matrix: (Units=1/GPa)
#
#
# Indices 1 2 3 4 5 6 
#
# 1 0.021201 -0.001663 -0.005069 0.000274 -0.003289 -0.006091
# 2 -0.001663 0.010644 -0.003190 0.002732 -0.000459 0.000632
# 3 -0.005069 -0.003190 0.010063 -0.001383 0.000690 0.002982
# 4 0.000274 0.002732 -0.001383 0.020843 -0.001735 0.003555
# 5 -0.003289 -0.000459 0.000690 -0.001735 0.013909 -0.000852
# 6 -0.006091 0.000632 0.002982 0.003555 -0.000852 0.024034
#
#
# Mechanical properties :
#
#
# Convention : Reuss Voigt Hill
#
# Bulk Modulus (GPa) = 45.32662 56.10111 50.71386
# Shear Modulus (GPa) = 39.09513 49.15843 44.12678
#
# Velocity S-wave (km/s) = 4.01709 4.50453 4.26777
# Velocity P-wave (km/s) = 6.34233 7.08596 6.72443
#
# Compressibility (1/GPa) = 0.02206209
#
# Stress axis : x y z
#
# Youngs Moduli (GPa) = 47.16786 93.95129 99.37624
#
# Poissons Ratio (x) = 0.15627 0.50375
# Poissons Ratio (y) = 0.07846 0.31703
# Poissons Ratio (z) = 0.23910 0.29973
#
# Static dielectric constant tensor:
#      x y z
#    x 2.392820 0.091720 0.279380 
#    y 0.091720 1.918900 -0.145250 
#    z 0.279380 -0.145250 1.881730 
# 
# From -- ./inp_files/120476.got.cif
#   From: 2010.05.17/outbox.cif.g08.bks.cpg/sg2_61_cif.got.tgz:120476.got - 2010.06.03 11:33:40.
