data_PCOD9039091
_publ_section_title
;
Structure prediction by ZEFSAII (Michael W. Deem and Ramdas Pophale) SiO2 
 PCOD9039091
Probable space group: P -1
;
_chemical_formula_sum "Si O2"
_cell_formula_units_Z 16
_cell_length_a 25.823495
_cell_length_b 16.978072
_cell_length_c 15.277333
_cell_angle_alpha 152.711181
_cell_angle_beta 18.208899
_cell_angle_gamma 160.082385
_cell_volume 712.423361
_symmetry_space_group_name_H-M "P -1"
_symmetry_group_IT_number 2
_symmetry_cell_setting 'triclinic'
loop_
_space_group_symop_operation_xyz
x,y,z
-x,-y,-z
loop_
_atom_site_type_symbol
_atom_site_label
_atom_site_fract_x
_atom_site_fract_y
_atom_site_fract_z
Si Si1 0.431060 0.504951 0.883179
Si Si2 0.346285 0.658771 0.421255
Si Si3 0.015229 0.661310 0.843276
Si Si4 0.033053 0.646613 0.508957
Si Si5 0.254222 0.638879 0.749965
Si Si6 0.204230 0.275307 0.597039
Si Si7 0.301461 0.020101 0.579691
Si Si8 0.252656 0.219337 0.185945
O O1 0.557119 0.646105 0.730056
O O2 0.338512 0.247872 0.762891
O O3 0.617673 0.655421 0.808015
O O4 0.217134 0.462299 0.215106
O O5 0.187476 0.685106 0.655826
O O6 0.354275 0.693834 0.546264
O O7 0.257845 0.400008 0.300854
O O8 0.595626 0.819997 0.142582
O O9 0.883759 0.411721 0.762170
O O10 0.153417 0.845305 0.724425
O O11 0.865259 0.696208 0.169399
O O12 0.000000 0.500000 0.500000
O O13 0.186574 0.902278 0.554930
O O14 0.225105 0.457442 0.681942
O O15 0.447405 0.886137 0.729528
O O16 0.000000 0.500000 0.000000
O O17 0.999224 0.018250 0.638621
#
# Coordination Sequence:
#
# PCOD9039091 Si02
#       8
#     2   2   2   2   2   2   2   2
#     4  11  22  44  62  95 127 165 212 263 318 371
#     4  11  22  38  61  93 133 163 214 250 309 383
#     4  11  23  41  65  95 127 167 215 259 308 376
#     4  10  23  45  67  89 118 171 226 257 300 375
#     4  11  22  37  59  96 131 159 201 256 323 369
#     4  11  24  37  62  95 135 164 199 260 330 372
#     4  10  23  42  66  91 122 173 212 257 309 374
#     4  11  23  39  60  96 132 170 209 251 320 382
#
# _framework density 22.458555
#
# number of rings (size 3 to 8) (size 9 to 14) (size 15 to 20)
#    0.000    1.250    5.000    1.500    3.500    1.000 
#    0.000    5.000    0.000    0.000    0.000    0.000 
#    0.000    0.000    0.000    0.000    0.000    0.000 
#
# Total GULP energy -89217.139492 kJ/mol
# GULP energy per Si atom -5576.071218 kJ/mol
# Density = 2.240744 g / cm^3
# Si number density = 22.458555 Si / 1000 Ang^3
#
#
#
# Elastic Constant Matrix: (Units=GPa)
#
#
# Indices 1 2 3 4 5 6 
#
# 1 44.5726 36.5420 8.4551 -2.5035 11.5383 16.2651
# 2 36.5420 94.2333 31.1969 -1.8704 28.0564 18.5736
# 3 8.4551 31.1969 74.0437 -11.1529 15.1418 24.6418
# 4 -2.5035 -1.8704 -11.1529 29.0820 -2.0358 4.7427
# 5 11.5383 28.0564 15.1418 -2.0358 15.5967 6.6131
# 6 16.2651 18.5736 24.6418 4.7427 6.6131 31.3103
#
#
#
# Elastic Compliance Matrix: (Units=1/GPa)
#
#
# Indices 1 2 3 4 5 6 
#
# 1 0.041918 -0.013068 0.011504 0.010414 -0.007533 -0.023063
# 2 -0.013068 0.027776 -0.003536 -0.003633 -0.038052 0.001682
# 3 0.011504 -0.003536 0.027069 0.013866 -0.016532 -0.023791
# 4 0.010414 -0.003633 0.013866 0.043745 -0.000115 -0.020770
# 5 -0.007533 -0.038052 -0.016532 -0.000115 0.150938 0.007635
# 6 -0.023063 0.001682 -0.023791 -0.020770 0.007635 0.063179
#
#
# Mechanical properties :
#
#
# Convention : Reuss Voigt Hill
#
# Bulk Modulus (GPa) = 11.55238 40.58197 26.06718
# Shear Modulus (GPa) = 12.70073 24.30817 18.50445
#
# Velocity S-wave (km/s) = 2.38064 3.29349 2.87355
# Velocity P-wave (km/s) = 3.56534 5.70716 4.75833
#
# Compressibility (1/GPa) = 0.08656225
#
# Stress axis : x y z
#
# Youngs Moduli (GPa) = 23.85621 36.00236 36.94317
#
# Poissons Ratio (x) = 0.47049 -0.42499
# Poissons Ratio (y) = 0.31176 0.13063
# Poissons Ratio (z) = -0.27444 0.12730
#
# Static dielectric constant tensor:
#      x y z
#    x 1.856340 0.057090 -0.047540 
#    y 0.057090 1.986800 -0.020910 
#    z -0.047540 -0.020910 2.035450 
# 
# From -- ./inp_files/544289.got.cif
#   From: 2010.05.17/outbox.cif.g08.bks.cpg/sg2_273_cif.got.tgz:544289.got - 2010.06.03 11:33:40.
