data_PCOD9039007
_publ_section_title
;
Structure prediction by ZEFSAII (Michael W. Deem and Ramdas Pophale) SiO2 
 PCOD9039007
Probable space group: P -1
;
_chemical_formula_sum "Si O2"
_cell_formula_units_Z 14
_cell_length_a 8.112927
_cell_length_b 10.927338
_cell_length_c 14.568731
_cell_angle_alpha 74.720967
_cell_angle_beta 31.432317
_cell_angle_gamma 79.772562
_cell_volume 646.850937
_symmetry_space_group_name_H-M "P -1"
_symmetry_group_IT_number 2
_symmetry_cell_setting 'triclinic'
loop_
_space_group_symop_operation_xyz
x,y,z
-x,-y,-z
loop_
_atom_site_type_symbol
_atom_site_label
_atom_site_fract_x
_atom_site_fract_y
_atom_site_fract_z
Si Si1 0.230349 0.830129 0.112821
Si Si2 0.903342 0.689501 0.450559
Si Si3 0.853920 0.417387 0.455709
Si Si4 0.841820 0.924935 0.002871
Si Si5 0.725451 0.624405 0.901270
Si Si6 0.832221 0.299194 0.163837
Si Si7 0.806236 0.701001 0.180659
O O1 0.082951 0.808519 0.288420
O O2 0.959675 0.766765 0.184492
O O3 0.302566 0.973560 0.012966
O O4 0.523789 0.745876 0.978622
O O5 0.970872 0.565660 0.382822
O O6 0.525971 0.693089 0.637792
O O7 0.022399 0.656310 0.501148
O O8 0.472752 0.403719 0.641084
O O9 0.996932 0.360936 0.308756
O O10 0.092685 0.849443 0.841794
O O11 0.651780 0.805420 0.168317
O O12 0.000000 0.000000 0.000000
O O13 0.907782 0.622412 0.911798
O O14 0.500000 0.500000 0.000000
O O15 0.913852 0.337489 0.011598
#
# Coordination Sequence:
#
# PCOD9039007 Si02
#       7
#     2   2   2   2   2   2   2
#     4  11  21  42  68  90 131 164 211 261 315 368
#     4  11  24  39  65  94 125 174 206 266 312 374
#     4  11  24  41  59  93 135 160 219 254 316 378
#     4   8  20  42  68  92 124 164 214 259 314 374
#     4  12  25  40  63  99 127 168 212 259 313 384
#     4  10  23  42  65  96 123 167 214 251 328 363
#     4   9  21  41  65  91 123 166 204 265 309 373
#
# _framework density 21.643318000000001
#
# number of rings (size 3 to 8) (size 9 to 14) (size 15 to 20)
#    0.857    0.857    1.429    2.571    4.000    2.857 
#    0.000    0.714    0.000    0.000    0.000    0.000 
#    0.000    0.000    0.000    0.000    0.000    0.000 
#
# Total GULP energy -78115.467403 kJ/mol
# GULP energy per Si atom -5579.676243 kJ/mol
# Density = 2.159406 g / cm^3
# Si number density = 21.643318 Si / 1000 Ang^3
#
#
#
# Elastic Constant Matrix: (Units=GPa)
#
#
# Indices 1 2 3 4 5 6 
#
# 1 70.1432 11.6901 -0.1028 3.8109 3.3454 1.2546
# 2 11.6901 97.3054 29.1504 4.8190 -0.1624 -19.0293
# 3 -0.1028 29.1504 85.4664 9.3245 5.1257 -3.0262
# 4 3.8109 4.8190 9.3245 34.1672 -5.1773 3.3596
# 5 3.3454 -0.1624 5.1257 -5.1773 28.4589 0.7314
# 6 1.2546 -19.0293 -3.0262 3.3596 0.7314 28.8672
#
#
#
# Elastic Compliance Matrix: (Units=1/GPa)
#
#
# Indices 1 2 3 4 5 6 
#
# 1 0.014894 -0.002395 0.001098 -0.001781 -0.002239 -0.001847
# 2 -0.002395 0.013611 -0.004238 -0.001256 0.000669 0.008761
# 3 0.001098 -0.004238 0.013713 -0.003674 -0.003269 -0.000894
# 4 -0.001781 -0.001256 -0.003674 0.032181 0.006848 -0.005055
# 5 -0.002239 0.000669 -0.003269 0.006848 0.037280 -0.001546
# 6 -0.001847 0.008761 -0.000894 -0.005055 -0.001546 0.041031
#
#
# Mechanical properties :
#
#
# Convention : Reuss Voigt Hill
#
# Bulk Modulus (GPa) = 32.10565 37.15448 34.63007
# Shear Modulus (GPa) = 28.70892 32.44382 30.57637
#
# Velocity S-wave (km/s) = 3.64601 3.87592 3.76272
# Velocity P-wave (km/s) = 5.70882 6.10200 5.90868
#
# Compressibility (1/GPa) = 0.03114716
#
# Stress axis : x y z
#
# Youngs Moduli (GPa) = 67.14169 73.46987 72.92555
#
# Poissons Ratio (x) = 0.17596 -0.08007
# Poissons Ratio (y) = 0.16080 0.30907
# Poissons Ratio (z) = -0.07372 0.31137
#
# Static dielectric constant tensor:
#      x y z
#    x 1.795850 -0.016730 0.003430 
#    y -0.016730 1.809760 -0.008940 
#    z 0.003430 -0.008940 1.738890 
# 
# From -- ./inp_files/196363.got.cif
#   From: 2010.05.17/outbox.cif.g08.bks.cpg/sg2_99_cif.got.tgz:196363.got - 2010.06.03 11:33:40.
