data_PCOD9039142
_publ_section_title
;
Structure prediction by ZEFSAII (Michael W. Deem and Ramdas Pophale) SiO2 
 PCOD9039142
Probable space group: P -1
;
_chemical_formula_sum "Si O2"
_cell_formula_units_Z 14
_cell_length_a 6.667170
_cell_length_b 11.878711
_cell_length_c 16.176885
_cell_angle_alpha 35.082198
_cell_angle_beta 122.751707
_cell_angle_gamma 106.231749
_cell_volume 582.928714
_symmetry_space_group_name_H-M "P -1"
_symmetry_group_IT_number 2
_symmetry_cell_setting 'triclinic'
loop_
_space_group_symop_operation_xyz
x,y,z
-x,-y,-z
loop_
_atom_site_type_symbol
_atom_site_label
_atom_site_fract_x
_atom_site_fract_y
_atom_site_fract_z
Si Si1 0.706388 0.724153 0.967307
Si Si2 0.712478 0.323664 0.702892
Si Si3 0.080626 0.919605 0.252874
Si Si4 0.839570 0.022592 0.366534
Si Si5 0.363131 0.319433 0.415879
Si Si6 0.047060 0.347356 0.180133
Si Si7 0.481212 0.979847 0.910611
O O1 0.446707 0.815187 0.802172
O O2 0.872509 0.867804 0.890711
O O3 0.625777 0.771724 0.016443
O O4 0.844222 0.486586 0.117797
O O5 0.500000 0.500000 0.500000
O O6 0.932803 0.210432 0.755956
O O7 0.748368 0.442525 0.720870
O O8 0.595065 0.147784 0.801442
O O9 0.336746 0.779881 0.440029
O O10 0.814691 0.958441 0.213790
O O11 0.997656 0.133743 0.278808
O O12 0.777110 0.807361 0.482885
O O13 0.000000 0.000000 0.500000
O O14 0.304896 0.301414 0.317096
O O15 0.000000 0.500000 0.000000
O O16 0.500000 0.000000 0.000000
#
# Coordination Sequence:
#
# PCOD9039142 Si02
#       7
#     2   2   2   2   2   2   2
#     4  10  23  42  66  96 138 168 209 279 328 377
#     4   9  20  40  65  96 136 166 216 260 326 391
#     4   9  21  42  66  95 135 171 214 262 327 401
#     4   9  20  44  65  92 127 174 218 267 322 382
#     4   9  20  41  68  92 130 180 208 270 328 380
#     4  11  24  40  69  98 128 166 226 276 324 378
#     4  11  25  39  68 102 131 171 217 261 330 396
#
# _framework density 24.016658
#
# number of rings (size 3 to 8) (size 9 to 14) (size 15 to 20)
#    0.000    2.286    0.000    1.286    6.000    3.429 
#    2.571    2.143    6.286    0.000    0.000    0.000 
#    0.000    0.000    0.000    0.000    0.000    0.000 
#
# Total GULP energy -78157.655920 kJ/mol
# GULP energy per Si atom -5582.689709 kJ/mol
# Density = 2.396199 g / cm^3
# Si number density = 24.016658 Si / 1000 Ang^3
#
#
#
# Elastic Constant Matrix: (Units=GPa)
#
#
# Indices 1 2 3 4 5 6 
#
# 1 77.4582 33.1397 16.4852 0.0728 6.3562 -7.8289
# 2 33.1397 134.8371 26.0647 6.9913 10.8122 2.2261
# 3 16.4852 26.0647 90.7823 25.4741 1.1446 -0.5607
# 4 0.0728 6.9913 25.4741 36.7459 -1.3775 2.8247
# 5 6.3562 10.8122 1.1446 -1.3775 36.7350 2.0035
# 6 -7.8289 2.2261 -0.5607 2.8247 2.0035 32.9816
#
#
#
# Elastic Compliance Matrix: (Units=1/GPa)
#
#
# Indices 1 2 3 4 5 6 
#
# 1 0.015355 -0.003348 -0.002300 0.001845 -0.001737 0.003779
# 2 -0.003348 0.008778 -0.001784 -0.000400 -0.001894 -0.001268
# 3 -0.002300 -0.001784 0.014732 -0.009918 0.000055 0.000671
# 4 0.001845 -0.000400 -0.009918 0.034432 0.001549 -0.002747
# 5 -0.001737 -0.001894 0.000055 0.001549 0.028253 -0.002132
# 6 0.003779 -0.001268 0.000671 -0.002747 -0.002132 0.031679
#
#
# Mechanical properties :
#
#
# Convention : Reuss Voigt Hill
#
# Bulk Modulus (GPa) = 41.66452 50.49523 46.07988
# Shear Modulus (GPa) = 32.03271 36.45170 34.24220
#
# Velocity S-wave (km/s) = 3.65604 3.90008 3.78003
# Velocity P-wave (km/s) = 5.93364 6.43052 6.18707
#
# Compressibility (1/GPa) = 0.02400124
#
# Stress axis : x y z
#
# Youngs Moduli (GPa) = 65.12623 113.92539 67.88094
#
# Poissons Ratio (x) = 0.38144 0.15609
# Poissons Ratio (y) = 0.21805 0.12109
# Poissons Ratio (z) = 0.14976 0.20322
#
# Static dielectric constant tensor:
#      x y z
#    x 1.900570 -0.043460 -0.020330 
#    y -0.043460 2.029370 0.097510 
#    z -0.020330 0.097510 1.914590 
# 
# From -- ./inp_files/482558.got.cif
#   From: 2010.05.17/outbox.cif.g08.bks.cpg/sg2_242_cif.got.tgz:482558.got - 2010.06.03 11:33:40.
