data_PCOD9039322
_publ_section_title
;
Structure prediction by ZEFSAII (Michael W. Deem and Ramdas Pophale) SiO2 
 PCOD9039322
Probable space group: P -1
;
_chemical_formula_sum "Si O2"
_cell_formula_units_Z 16
_cell_length_a 5.673447
_cell_length_b 19.253566
_cell_length_c 22.831148
_cell_angle_alpha 18.403729
_cell_angle_beta 115.889292
_cell_angle_gamma 112.433809
_cell_volume 703.637086
_symmetry_space_group_name_H-M "P -1"
_symmetry_group_IT_number 2
_symmetry_cell_setting 'triclinic'
loop_
_space_group_symop_operation_xyz
x,y,z
-x,-y,-z
loop_
_atom_site_type_symbol
_atom_site_label
_atom_site_fract_x
_atom_site_fract_y
_atom_site_fract_z
Si Si1 0.806003 0.974730 0.408666
Si Si2 0.142220 0.200936 0.060295
Si Si3 0.724862 0.802389 0.663228
Si Si4 0.723520 0.811032 0.153623
Si Si5 0.979279 0.833122 0.055463
Si Si6 0.473742 0.410901 0.003786
Si Si7 0.275591 0.048985 0.711202
Si Si8 0.570223 0.514983 0.562854
O O1 0.025796 0.131592 0.326372
O O2 0.771630 0.823712 0.581839
O O3 0.843313 0.878551 0.424291
O O4 0.549735 0.151215 0.232065
O O5 0.438130 0.093128 0.156812
O O6 0.006749 0.236386 0.954148
O O7 0.204530 0.411145 0.937849
O O8 0.948513 0.068171 0.184940
O O9 0.652257 0.560780 0.865612
O O10 0.500000 0.000000 0.500000
O O11 0.718495 0.815137 0.079421
O O12 0.675446 0.569776 0.361857
O O13 0.500000 0.000000 0.000000
O O14 0.967149 0.913625 0.128752
O O15 0.186404 0.663776 0.249083
O O16 0.500000 0.500000 0.000000
O O17 0.351799 0.252346 0.594553
O O18 0.500000 0.500000 0.500000
#
# Coordination Sequence:
#
# PCOD9039322 Si02
#       8
#     2   2   2   2   2   2   2   2
#     4  10  24  44  66 102 140 184 229 295 346 418
#     4  11  27  46  70 100 136 186 227 285 352 414
#     4  11  22  40  71 102 137 181 237 285 350 415
#     4   9  21  40  67  96 132 174 227 281 340 412
#     4  10  23  42  67  97 136 178 232 285 341 422
#     4  11  22  44  71  99 140 187 233 285 354 417
#     4  11  27  47  69  99 144 176 231 291 351 407
#     4  11  25  41  68  98 135 182 227 286 351 410
#
# _framework density 22.738994999999999
#
# number of rings (size 3 to 8) (size 9 to 14) (size 15 to 20)
#    0.000    1.500    1.250    1.875   12.250    3.500 
#    2.250    0.000    0.000    0.000    0.000    0.000 
#    0.000    0.000    0.000    0.000    0.000    0.000 
#
# Total GULP energy -89168.841109 kJ/mol
# GULP energy per Si atom -5573.052569 kJ/mol
# Density = 2.268724 g / cm^3
# Si number density = 22.738995 Si / 1000 Ang^3
#
#
#
# Elastic Constant Matrix: (Units=GPa)
#
#
# Indices 1 2 3 4 5 6 
#
# 1 89.3197 43.2489 37.0510 8.1729 -31.5831 -8.8948
# 2 43.2489 220.2835 57.0525 23.6348 -38.3703 -20.4950
# 3 37.0510 57.0525 66.7405 7.0965 -35.6476 -3.3571
# 4 8.1729 23.6348 7.0965 30.2872 1.3820 -2.2742
# 5 -31.5831 -38.3703 -35.6476 1.3820 56.6938 -0.1543
# 6 -8.8948 -20.4950 -3.3571 -2.2742 -0.1543 28.1919
#
#
#
# Elastic Compliance Matrix: (Units=1/GPa)
#
#
# Indices 1 2 3 4 5 6 
#
# 1 0.016143 -0.000094 -0.005330 -0.002978 0.005662 0.004181
# 2 -0.000094 0.006783 -0.003938 -0.004135 0.002174 0.004111
# 3 -0.005330 -0.003938 0.027928 -0.002682 0.011987 -0.001370
# 4 -0.002978 -0.004135 -0.002682 0.037906 -0.007072 -0.001246
# 5 0.005662 0.002174 0.011987 -0.007072 0.029985 0.004388
# 6 0.004181 0.004111 -0.001370 -0.001246 0.004388 0.039539
#
#
# Mechanical properties :
#
#
# Convention : Reuss Voigt Hill
#
# Bulk Modulus (GPa) = 31.12516 72.33871 51.73193
# Shear Modulus (GPa) = 26.63540 38.96732 32.80136
#
# Velocity S-wave (km/s) = 3.42622 4.14415 3.80217
# Velocity P-wave (km/s) = 5.41938 7.40137 6.48652
#
# Compressibility (1/GPa) = 0.03212835
#
# Stress axis : x y z
#
# Youngs Moduli (GPa) = 61.94522 147.42858 35.80608
#
# Poissons Ratio (x) = 0.01389 0.19086
# Poissons Ratio (y) = 0.00583 0.14102
# Poissons Ratio (z) = 0.33019 0.58064
#
# Static dielectric constant tensor:
#      x y z
#    x 2.441420 0.003880 0.185860 
#    y 0.003880 1.940920 0.005900 
#    z 0.185860 0.005900 1.947580 
# 
# From -- ./inp_files/584037.got.cif
#   From: 2010.05.17/outbox.cif.g08.bks.cpg/sg2_293_cif.got.tgz:584037.got - 2010.06.03 11:33:40.
