data_PCOD9039798
_publ_section_title
;
Structure prediction by ZEFSAII (Michael W. Deem and Ramdas Pophale) SiO2 
 PCOD9039798
Probable space group: P -1
;
_chemical_formula_sum "Si O2"
_cell_formula_units_Z 16
_cell_length_a 9.224124
_cell_length_b 18.558971
_cell_length_c 11.980911
_cell_angle_alpha 56.675645
_cell_angle_beta 117.357803
_cell_angle_gamma 152.513507
_cell_volume 788.914237
_symmetry_space_group_name_H-M "P -1"
_symmetry_group_IT_number 2
_symmetry_cell_setting 'triclinic'
loop_
_space_group_symop_operation_xyz
x,y,z
-x,-y,-z
loop_
_atom_site_type_symbol
_atom_site_label
_atom_site_fract_x
_atom_site_fract_y
_atom_site_fract_z
Si Si1 0.375685 0.667850 0.491295
Si Si2 0.116319 0.245700 0.732616
Si Si3 0.489742 0.247024 0.769749
Si Si4 0.649874 0.661237 0.893630
Si Si5 0.817870 0.195897 0.452057
Si Si6 0.638654 0.609862 0.681530
Si Si7 0.263559 0.962095 0.005827
Si Si8 0.236746 0.630800 0.718181
O O1 0.541655 0.788854 0.343612
O O2 0.464736 0.609103 0.558934
O O3 0.428668 0.719514 0.592563
O O4 0.000000 0.500000 0.500000
O O5 0.270257 0.227895 0.748738
O O6 0.398060 0.421474 0.749036
O O7 0.983629 0.248353 0.585324
O O8 0.845011 0.106138 0.847368
O O9 0.862395 0.439097 0.745662
O O10 0.407885 0.123165 0.911906
O O11 0.725718 0.683898 0.770690
O O12 0.405444 0.630326 0.845604
O O13 0.500000 0.500000 0.000000
O O14 0.947759 0.814296 0.945358
O O15 0.752098 0.264679 0.337048
O O16 0.054681 0.271105 0.378980
O O17 0.500000 0.000000 0.500000
O O18 0.500000 0.000000 0.000000
#
# Coordination Sequence:
#
# PCOD9039798 Si02
#       8
#     2   2   2   2   2   2   2   2
#     4   9  19  35  68  98 129 171 228 277 331 402
#     4  12  24  46  70  98 143 183 231 277 350 418
#     4  11  22  43  67 102 137 181 231 277 353 411
#     4  11  24  47  70 100 140 180 236 282 344 412
#     4  12  27  43  70 108 142 177 231 292 352 405
#     4  11  22  44  72 100 133 183 226 285 343 409
#     4  12  29  44  70 100 139 187 232 287 341 416
#     4  10  23  42  71 102 136 180 230 287 347 410
#
# _framework density 20.281039
#
# number of rings (size 3 to 8) (size 9 to 14) (size 15 to 20)
#    0.000    1.000    3.750    3.000    8.750    0.000 
#    0.000    3.750    0.000    0.000    0.000    0.000 
#    0.000    0.000    0.000    0.000    0.000    0.000 
#
# Total GULP energy -89222.061501 kJ/mol
# GULP energy per Si atom -5576.378844 kJ/mol
# Density = 2.023488 g / cm^3
# Si number density = 20.281039 Si / 1000 Ang^3
#
#
#
# Elastic Constant Matrix: (Units=GPa)
#
#
# Indices 1 2 3 4 5 6 
#
# 1 149.2425 26.3803 39.8692 -7.1363 14.1753 28.1815
# 2 26.3803 70.6808 14.5613 -8.7619 8.4483 3.1801
# 3 39.8692 14.5613 82.5552 -11.1332 -1.9062 16.0835
# 4 -7.1363 -8.7619 -11.1332 36.6449 2.7808 0.7709
# 5 14.1753 8.4483 -1.9062 2.7808 43.7602 -1.1189
# 6 28.1815 3.1801 16.0835 0.7709 -1.1189 23.3418
#
#
#
# Elastic Compliance Matrix: (Units=1/GPa)
#
#
# Indices 1 2 3 4 5 6 
#
# 1 0.010061 -0.002268 -0.002347 0.001171 -0.003264 -0.010416
# 2 -0.002268 0.015953 -0.001658 0.003033 -0.002572 0.001483
# 3 -0.002347 -0.001658 0.015616 0.003955 0.001311 -0.007768
# 4 0.001171 0.003033 0.003955 0.029778 -0.002830 -0.005671
# 5 -0.003264 -0.002572 0.001311 -0.002830 0.024762 0.004669
# 6 -0.010416 0.001483 -0.007768 -0.005671 0.004669 0.060979
#
#
# Mechanical properties :
#
#
# Convention : Reuss Voigt Hill
#
# Bulk Modulus (GPa) = 34.38257 51.56666 42.97462
# Shear Modulus (GPa) = 27.87226 35.52723 31.69975
#
# Velocity S-wave (km/s) = 3.71118 4.18993 3.95780
# Velocity P-wave (km/s) = 5.94589 6.99204 6.49008
#
# Compressibility (1/GPa) = 0.02908450
#
# Stress axis : x y z
#
# Youngs Moduli (GPa) = 99.39037 62.68515 64.03643
#
# Poissons Ratio (x) = 0.14215 0.15031
# Poissons Ratio (y) = 0.22538 0.10617
# Poissons Ratio (z) = 0.23329 0.10393
#
# Static dielectric constant tensor:
#      x y z
#    x 1.680880 -0.032860 -0.018700 
#    y -0.032860 1.691800 0.040870 
#    z -0.018700 0.040870 1.788150 
# 
# From -- ./inp_files/218919.got.cif
#   From: 2010.05.17/outbox.cif.g08.bks.cpg/sg2_110_cif.got.tgz:218919.got - 2010.06.03 11:33:40.
