data_PCOD9039458
_publ_section_title
;
Structure prediction by ZEFSAII (Michael W. Deem and Ramdas Pophale) SiO2 
 PCOD9039458
Probable space group: P -1
;
_chemical_formula_sum "Si O2"
_cell_formula_units_Z 14
_cell_length_a 4.765192
_cell_length_b 12.354458
_cell_length_c 9.331418
_cell_angle_alpha 105.471908
_cell_angle_beta 93.570677
_cell_angle_gamma 76.399766
_cell_volume 514.599805
_symmetry_space_group_name_H-M "P -1"
_symmetry_group_IT_number 2
_symmetry_cell_setting 'triclinic'
loop_
_space_group_symop_operation_xyz
x,y,z
-x,-y,-z
loop_
_atom_site_type_symbol
_atom_site_label
_atom_site_fract_x
_atom_site_fract_y
_atom_site_fract_z
Si Si1 0.816177 0.442935 0.860210
Si Si2 0.469456 0.027468 0.752574
Si Si3 0.319510 0.685506 0.572635
Si Si4 0.736017 0.510582 0.317658
Si Si5 0.428620 0.180913 0.123780
Si Si6 0.082710 0.798447 0.074115
Si Si7 0.739717 0.108772 0.538619
O O1 0.492199 0.505730 0.821667
O O2 0.007449 0.442800 0.725019
O O3 0.000000 0.500000 0.000000
O O4 0.811799 0.314976 0.867030
O O5 0.607757 0.117568 0.697030
O O6 0.606030 0.940181 0.852263
O O7 0.473573 0.931123 0.594790
O O8 0.153210 0.097425 0.819932
O O9 0.554349 0.604135 0.452124
O O10 0.156926 0.604176 0.626584
O O11 0.463098 0.746870 0.723960
O O12 0.165353 0.784002 0.492772
O O13 0.127169 0.240846 0.065212
O O14 0.666178 0.165483 0.998120
O O15 0.000000 0.000000 0.500000
#
# Coordination Sequence:
#
# PCOD9039458 Si02
#       7
#     2   2   2   2   2   2   2
#     4  12  25  44  69  99 137 170 227 270 339 389
#     4  10  24  41  62 100 131 177 225 270 335 400
#     4  10  24  45  68  99 135 172 229 271 336 392
#     4  11  25  45  70 101 129 182 217 280 326 399
#     4  11  25  42  67  98 136 179 221 274 333 393
#     4  12  25  42  69  97 135 181 220 277 330 400
#     4  10  23  42  68  96 135 175 218 282 331 395
#
# _framework density 27.205608999999999
#
# number of rings (size 3 to 8) (size 9 to 14) (size 15 to 20)
#    0.000    1.143    0.000    4.714    8.000    3.429 
#    5.143    0.000    0.000    0.000    0.000    0.000 
#    0.000    0.000    0.000    0.000    0.000    0.000 
#
# Total GULP energy -78438.993831 kJ/mol
# GULP energy per Si atom -5602.785274 kJ/mol
# Density = 2.714369 g / cm^3
# Si number density = 27.205609 Si / 1000 Ang^3
#
#
#
# Elastic Constant Matrix: (Units=GPa)
#
#
# Indices 1 2 3 4 5 6 
#
# 1 116.0411 36.5618 23.4278 -33.4913 -21.9624 6.1298
# 2 36.5618 197.8694 54.1242 -55.5964 -16.5123 21.2630
# 3 23.4278 54.1242 154.5164 -21.6556 -14.1213 4.6142
# 4 -33.4913 -55.5964 -21.6556 68.7997 6.8637 2.3631
# 5 -21.9624 -16.5123 -14.1213 6.8637 44.3284 -2.0568
# 6 6.1298 21.2630 4.6142 2.3631 -2.0568 37.1388
#
#
#
# Elastic Compliance Matrix: (Units=1/GPa)
#
#
# Indices 1 2 3 4 5 6 
#
# 1 0.011065 0.000045 -0.000546 0.004866 0.004486 -0.001845
# 2 0.000045 0.007704 -0.001648 0.005757 0.001266 -0.004510
# 3 -0.000546 -0.001648 0.007332 0.000568 0.001371 0.000163
# 4 0.004866 0.005757 0.000568 0.021814 0.001104 -0.005497
# 5 0.004486 0.001266 0.001371 0.001104 0.025505 -0.000293
# 6 -0.001845 -0.004510 0.000163 -0.005497 -0.000293 0.030126
#
#
# Mechanical properties :
#
#
# Convention : Reuss Voigt Hill
#
# Bulk Modulus (GPa) = 45.86757 77.40608 61.63682
# Shear Modulus (GPa) = 43.43582 53.67425 48.55503
#
# Velocity S-wave (km/s) = 4.00005 4.44657 4.22921
# Velocity P-wave (km/s) = 6.18305 7.40787 6.82300
#
# Compressibility (1/GPa) = 0.02180190
#
# Stress axis : x y z
#
# Youngs Moduli (GPa) = 90.37703 129.79616 136.38963
#
# Poissons Ratio (x) = -0.00583 0.07451
# Poissons Ratio (y) = -0.00406 0.22480
# Poissons Ratio (z) = 0.04937 0.21393
#
# Static dielectric constant tensor:
#      x y z
#    x 2.148710 0.094220 0.151270 
#    y 0.094220 2.120550 0.066960 
#    z 0.151270 0.066960 2.268060 
# 
# From -- ./inp_files/131603.got.cif
#   From: 2010.05.17/outbox.cif.g08.bks.cpg/sg2_66_cif.got.tgz:131603.got - 2010.06.03 11:33:40.
