data_PCOD9039016
_publ_section_title
;
Structure prediction by ZEFSAII (Michael W. Deem and Ramdas Pophale) SiO2 
 PCOD9039016
Probable space group: P -1
;
_chemical_formula_sum "Si O2"
_cell_formula_units_Z 14
_cell_length_a 8.862144
_cell_length_b 9.446944
_cell_length_c 21.187056
_cell_angle_alpha 126.211576
_cell_angle_beta 32.867830
_cell_angle_gamma 138.442403
_cell_volume 635.069504
_symmetry_space_group_name_H-M "P -1"
_symmetry_group_IT_number 2
_symmetry_cell_setting 'triclinic'
loop_
_space_group_symop_operation_xyz
x,y,z
-x,-y,-z
loop_
_atom_site_type_symbol
_atom_site_label
_atom_site_fract_x
_atom_site_fract_y
_atom_site_fract_z
Si Si1 0.762887 0.236489 0.940072
Si Si2 0.575895 0.962154 0.818523
Si Si3 0.687521 0.936460 0.546302
Si Si4 0.785080 0.471038 0.468578
Si Si5 0.179718 0.353099 0.943989
Si Si6 0.405525 0.845959 0.269394
Si Si7 0.113553 0.283405 0.385863
O O1 0.089638 0.344751 0.899150
O O2 0.783227 0.169798 0.845280
O O3 0.664402 0.406406 0.022837
O O4 0.500000 0.000000 0.000000
O O5 0.178426 0.812552 0.938131
O O6 0.706343 0.810917 0.737018
O O7 0.630643 0.048916 0.751675
O O8 0.509141 0.703458 0.518857
O O9 0.434587 0.966772 0.684304
O O10 0.000000 0.000000 0.500000
O O11 0.810064 0.089946 0.483003
O O12 0.670927 0.548926 0.588687
O O13 0.065912 0.662158 0.376090
O O14 0.973623 0.376265 0.411612
O O15 0.399530 0.258486 0.846216
#
# Coordination Sequence:
#
# PCOD9039016 Si02
#       7
#     2   2   2   2   2   2   2
#     4   9  22  40  64  92 127 173 220 274 320 390
#     4  11  23  42  66  98 135 175 222 271 330 397
#     4  11  23  46  67  98 134 174 223 277 335 394
#     4  10  25  42  70  94 138 175 223 281 327 399
#     4  10  23  42  65  96 134 174 222 269 334 394
#     4  11  25  41  64 102 133 175 221 271 334 399
#     4  10  23  44  65 103 129 175 229 268 339 393
#
# _framework density 22.044832
#
# number of rings (size 3 to 8) (size 9 to 14) (size 15 to 20)
#    0.000    1.714    1.429    0.857    8.000    6.286 
#    0.000    0.000    0.000    0.000    0.000    0.000 
#    0.000    0.000    0.000    0.000    0.000    0.000 
#
# Total GULP energy -78185.147484 kJ/mol
# GULP energy per Si atom -5584.653392 kJ/mol
# Density = 2.199466 g / cm^3
# Si number density = 22.044832 Si / 1000 Ang^3
#
#
#
# Elastic Constant Matrix: (Units=GPa)
#
#
# Indices 1 2 3 4 5 6 
#
# 1 59.2387 38.7690 33.3483 2.6627 11.5636 -4.6437
# 2 38.7690 105.4408 47.8259 30.2501 6.4633 2.2944
# 3 33.3483 47.8259 102.8732 28.6741 5.9435 5.5545
# 4 2.6627 30.2501 28.6741 48.1927 -11.2794 14.4352
# 5 11.5636 6.4633 5.9435 -11.2794 27.8456 10.5439
# 6 -4.6437 2.2944 5.5545 14.4352 10.5439 44.6537
#
#
#
# Elastic Compliance Matrix: (Units=1/GPa)
#
#
# Indices 1 2 3 4 5 6 
#
# 1 0.027326 -0.007944 -0.005898 0.003479 -0.008696 0.004912
# 2 -0.007944 0.016929 -0.001856 -0.011749 -0.006454 0.003857
# 3 -0.005898 -0.001856 0.015237 -0.009181 -0.004724 0.001670
# 4 0.003479 -0.011749 -0.009181 0.046217 0.029456 -0.019788
# 5 -0.008696 -0.006454 -0.004724 0.029456 0.063214 -0.024434
# 6 0.004912 0.003857 0.001670 -0.019788 -0.024434 0.034666
#
#
# Mechanical properties :
#
#
# Convention : Reuss Voigt Hill
#
# Bulk Modulus (GPa) = 35.59068 56.38211 45.98640
# Shear Modulus (GPa) = 20.46252 33.97900 27.22076
#
# Velocity S-wave (km/s) = 3.04998 3.93027 3.51777
# Velocity P-wave (km/s) = 5.34630 6.79910 6.11599
#
# Compressibility (1/GPa) = 0.02809724
#
# Stress axis : x y z
#
# Youngs Moduli (GPa) = 36.59474 59.07001 65.62976
#
# Poissons Ratio (x) = 0.46928 0.38706
# Poissons Ratio (y) = 0.29073 0.12178
# Poissons Ratio (z) = 0.21582 0.10961
#
# Static dielectric constant tensor:
#      x y z
#    x 1.801280 0.020120 0.002830 
#    y 0.020120 1.866450 0.041450 
#    z 0.002830 0.041450 1.853080 
# 
# From -- ./inp_files/552499.got.cif
#   From: 2010.05.17/outbox.cif.g08.bks.cpg/sg2_277_cif.got.tgz:552499.got - 2010.06.03 11:33:40.
