data_PCOD9039171
_publ_section_title
;
Structure prediction by ZEFSAII (Michael W. Deem and Ramdas Pophale) SiO2 
 PCOD9039171
Probable space group: P -1
;
_chemical_formula_sum "Si O2"
_cell_formula_units_Z 14
_cell_length_a 4.986824
_cell_length_b 24.057564
_cell_length_c 5.128800
_cell_angle_alpha 102.153678
_cell_angle_beta 105.814331
_cell_angle_gamma 64.586859
_cell_volume 531.622115
_symmetry_space_group_name_H-M "P -1"
_symmetry_group_IT_number 2
_symmetry_cell_setting 'triclinic'
loop_
_space_group_symop_operation_xyz
x,y,z
-x,-y,-z
loop_
_atom_site_type_symbol
_atom_site_label
_atom_site_fract_x
_atom_site_fract_y
_atom_site_fract_z
Si Si1 0.108198 0.956634 0.734975
Si Si2 0.241678 0.570235 0.168789
Si Si3 0.816526 0.337684 0.093906
Si Si4 0.809783 0.873648 0.783969
Si Si5 0.670697 0.760639 0.684676
Si Si6 0.312396 0.783915 0.123343
Si Si7 0.743136 0.551739 0.674729
O O1 0.469524 0.919725 0.799776
O O2 0.952669 0.907645 0.663136
O O3 0.000000 0.000000 0.500000
O O4 0.000000 0.000000 0.000000
O O5 0.583920 0.560227 0.355159
O O6 0.204327 0.517727 0.287407
O O7 0.119344 0.643735 0.160310
O O8 0.049626 0.560465 0.851700
O O9 0.529515 0.396515 0.180737
O O10 0.122703 0.312384 0.318697
O O11 0.749848 0.276655 0.024193
O O12 0.797984 0.808356 0.637859
O O13 0.039958 0.849421 0.063768
O O14 0.395010 0.772597 0.433213
O O15 0.566852 0.781249 0.974481
#
# Coordination Sequence:
#
# PCOD9039171 Si02
#       7
#     2   2   2   2   2   2   2
#     4  12  28  48  80 118 154 200 251 310 377 454
#     4  10  23  42  66  98 141 190 247 317 394 476
#     4  11  25  38  71  98 144 186 252 314 388 458
#     4  11  26  52  79 110 161 200 254 314 382 458
#     4  11  27  47  75 107 147 200 253 315 381 456
#     4  11  27  47  75 107 147 200 253 315 381 456
#     4  10  23  42  66  98 141 190 247 317 394 476
#
# _framework density 26.334492000000001
#
# number of rings (size 3 to 8) (size 9 to 14) (size 15 to 20)
#    0.000    1.143    1.429    2.143   10.000    5.714 
#    0.000    4.286    0.000    0.000    0.000    0.000 
#    0.000    0.000    0.000    0.000    0.000    0.000 
#
# Total GULP energy -78021.952121 kJ/mol
# GULP energy per Si atom -5572.996580 kJ/mol
# Density = 2.627455 g / cm^3
# Si number density = 26.334492 Si / 1000 Ang^3
#
#
#
# Elastic Constant Matrix: (Units=GPa)
#
#
# Indices 1 2 3 4 5 6 
#
# 1 114.6438 66.1088 70.6927 -15.3397 4.3983 -9.1475
# 2 66.1088 176.7824 82.6900 -62.4710 -16.5616 -1.6278
# 3 70.6927 82.6900 131.5246 -31.8009 7.8635 -33.8723
# 4 -15.3397 -62.4710 -31.8009 46.8198 -3.0294 2.1895
# 5 4.3983 -16.5616 7.8635 -3.0294 29.5308 1.5822
# 6 -9.1475 -1.6278 -33.8723 2.1895 1.5822 52.3087
#
#
#
# Elastic Compliance Matrix: (Units=1/GPa)
#
#
# Indices 1 2 3 4 5 6 
#
# 1 0.014913 -0.005497 -0.006298 -0.006946 -0.004274 -0.001221
# 2 -0.005497 0.020226 -0.007149 0.021705 0.016634 -0.006373
# 3 -0.006298 -0.007149 0.018923 0.000165 -0.008693 0.011186
# 4 -0.006946 0.021705 0.000165 0.049489 0.018404 -0.003061
# 5 -0.004274 0.016634 -0.008693 0.018404 0.048465 -0.008095
# 6 -0.001221 -0.006373 0.011186 -0.003061 -0.008095 0.026322
#
#
# Mechanical properties :
#
#
# Convention : Reuss Voigt Hill
#
# Bulk Modulus (GPa) = 61.82946 95.77040 78.79993
# Shear Modulus (GPa) = 22.56130 39.29583 30.92856
#
# Velocity S-wave (km/s) = 2.93015 3.86707 3.43074
# Velocity P-wave (km/s) = 5.91415 7.50898 6.75877
#
# Compressibility (1/GPa) = 0.01617352
#
# Stress axis : x y z
#
# Youngs Moduli (GPa) = 67.05429 49.44108 52.84444
#
# Poissons Ratio (x) = 0.27179 0.33281
# Poissons Ratio (y) = 0.36861 0.37781
# Poissons Ratio (z) = 0.42231 0.35348
#
# Static dielectric constant tensor:
#      x y z
#    x 2.216360 -0.044270 0.078390 
#    y -0.044270 1.999510 0.050360 
#    z 0.078390 0.050360 2.189980 
# 
# From -- ./inp_files/12477.got.cif
#   From: 2010.05.17/outbox.cif.g08.bks.cpg/sg2_7_cif.got.tgz:12477.got - 2010.06.03 11:33:40.
