data_PCOD9039017
_publ_section_title
;
Structure prediction by ZEFSAII (Michael W. Deem and Ramdas Pophale) SiO2 
 PCOD9039017
Probable space group: P -1
;
_chemical_formula_sum "Si O2"
_cell_formula_units_Z 16
_cell_length_a 13.566433
_cell_length_b 13.888360
_cell_length_c 13.852189
_cell_angle_alpha 34.076495
_cell_angle_beta 148.752688
_cell_angle_gamma 138.187608
_cell_volume 752.338141
_symmetry_space_group_name_H-M "P -1"
_symmetry_group_IT_number 2
_symmetry_cell_setting 'triclinic'
loop_
_space_group_symop_operation_xyz
x,y,z
-x,-y,-z
loop_
_atom_site_type_symbol
_atom_site_label
_atom_site_fract_x
_atom_site_fract_y
_atom_site_fract_z
Si Si1 0.630135 0.291737 0.247312
Si Si2 0.131060 0.034429 0.280969
Si Si3 0.215770 0.812265 0.182143
Si Si4 0.001458 0.565457 0.658930
Si Si5 0.353969 0.330778 0.815070
Si Si6 0.909998 0.082565 0.448752
Si Si7 0.471913 0.019807 0.072784
Si Si8 0.491771 0.304184 0.334570
O O1 0.561074 0.340246 0.253599
O O2 0.789376 0.431896 0.214911
O O3 0.747704 0.126806 0.495185
O O4 0.447980 0.263339 0.046561
O O5 0.284040 0.200410 0.252687
O O6 0.060162 0.024777 0.340425
O O7 0.938902 0.053094 0.045463
O O8 0.096085 0.621019 0.232510
O O9 0.347788 0.865815 0.155064
O O10 0.359729 0.807045 0.396328
O O11 0.861699 0.623456 0.408983
O O12 0.021768 0.716426 0.632494
O O13 0.483295 0.510084 0.747306
O O14 0.368131 0.187395 0.865950
O O15 0.681872 0.059954 0.261491
O O16 0.000000 0.000000 0.500000
O O17 0.500000 0.000000 0.000000
#
# Coordination Sequence:
#
# PCOD9039017 Si02
#       8
#     2   2   2   2   2   2   2   2
#     4  11  22  41  66  96 135 180 216 265 332 380
#     4  11  22  39  64  92 137 169 219 270 319 387
#     4  11  24  43  63  98 136 167 222 272 318 389
#     4  10  23  42  65  96 136 172 216 274 317 387
#     4  11  22  41  65  94 134 169 222 268 322 387
#     4  11  22  43  67  94 126 171 218 264 333 390
#     4  12  23  44  69  94 129 174 218 269 334 388
#     4  11  24  40  65  99 135 176 217 273 324 378
#
# _framework density 21.267032
#
# number of rings (size 3 to 8) (size 9 to 14) (size 15 to 20)
#    0.000    1.000    3.750    4.500    0.000    3.500 
#    2.250    3.125    0.000    0.000    0.000    0.000 
#    0.000    0.000    0.000    0.000    0.000    0.000 
#
# Total GULP energy -89392.460336 kJ/mol
# GULP energy per Si atom -5587.028771 kJ/mol
# Density = 2.121863 g / cm^3
# Si number density = 21.267032 Si / 1000 Ang^3
#
#
#
# Elastic Constant Matrix: (Units=GPa)
#
#
# Indices 1 2 3 4 5 6 
#
# 1 104.1205 43.0186 16.9572 -11.2380 1.5231 3.4257
# 2 43.0186 97.3229 28.4149 -0.5782 2.5336 27.8833
# 3 16.9572 28.4149 126.2494 19.2508 3.9933 4.1624
# 4 -11.2380 -0.5782 19.2508 42.6386 5.1229 1.0440
# 5 1.5231 2.5336 3.9933 5.1229 20.5186 5.0919
# 6 3.4257 27.8833 4.1624 1.0440 5.0919 27.4171
#
#
#
# Elastic Compliance Matrix: (Units=1/GPa)
#
#
# Indices 1 2 3 4 5 6 
#
# 1 0.012931 -0.007117 -0.000843 0.003830 -0.002373 0.006045
# 2 -0.007117 0.019734 -0.002922 -0.000239 0.003530 -0.019383
# 3 -0.000843 -0.002922 0.009326 -0.004428 -0.000776 0.001974
# 4 0.003830 -0.000239 -0.004428 0.027204 -0.006328 0.000576
# 5 -0.002373 0.003530 -0.000776 -0.006328 0.053397 -0.012851
# 6 0.006045 -0.019383 0.001974 0.000576 -0.012851 0.057496
#
#
# Mechanical properties :
#
#
# Convention : Reuss Voigt Hill
#
# Bulk Modulus (GPa) = 49.43805 56.05270 52.74537
# Shear Modulus (GPa) = 23.96980 34.06833 29.01907
#
# Velocity S-wave (km/s) = 3.36085 4.00676 3.69793
# Velocity P-wave (km/s) = 6.19332 6.91515 6.56417
#
# Compressibility (1/GPa) = 0.02022734
#
# Stress axis : x y z
#
# Youngs Moduli (GPa) = 77.33188 50.67359 107.22350
#
# Poissons Ratio (x) = 0.36065 0.09041
# Poissons Ratio (y) = 0.55039 0.31329
# Poissons Ratio (z) = 0.06521 0.14806
#
# Static dielectric constant tensor:
#      x y z
#    x 1.729160 0.000820 0.004510 
#    y 0.000820 1.798900 -0.004690 
#    z 0.004510 -0.004690 1.850090 
# 
# From -- ./inp_files/534171.got.cif
#   From: 2010.05.17/outbox.cif.g08.bks.cpg/sg2_268_cif.got.tgz:534171.got - 2010.06.03 11:33:40.
