data_PCOD9039450
_publ_section_title
;
Structure prediction by ZEFSAII (Michael W. Deem and Ramdas Pophale) SiO2 
 PCOD9039450
Probable space group: P -1
;
_chemical_formula_sum "Si O2"
_cell_formula_units_Z 14
_cell_length_a 4.865830
_cell_length_b 18.981886
_cell_length_c 9.006619
_cell_angle_alpha 137.897109
_cell_angle_beta 117.301665
_cell_angle_gamma 62.456475
_cell_volume 485.090087
_symmetry_space_group_name_H-M "P -1"
_symmetry_group_IT_number 2
_symmetry_cell_setting 'triclinic'
loop_
_space_group_symop_operation_xyz
x,y,z
-x,-y,-z
loop_
_atom_site_type_symbol
_atom_site_label
_atom_site_fract_x
_atom_site_fract_y
_atom_site_fract_z
Si Si1 0.022869 0.771963 0.687490
Si Si2 0.554337 0.371808 0.203021
Si Si3 0.226052 0.110580 0.910266
Si Si4 0.689474 0.342416 0.697679
Si Si5 0.173962 0.036204 0.280238
Si Si6 0.891113 0.482628 0.229924
Si Si7 0.599079 0.197349 0.712338
O O1 0.319452 0.704528 0.748741
O O2 0.061886 0.696433 0.431437
O O3 0.970811 0.887060 0.770392
O O4 0.784912 0.810109 0.827769
O O5 0.826003 0.413320 0.246375
O O6 0.263882 0.471888 0.305935
O O7 0.440720 0.293508 0.931642
O O8 0.568335 0.070313 0.864734
O O9 0.606487 0.893261 0.472904
O O10 0.104856 0.003796 0.766761
O O11 0.351620 0.404664 0.648295
O O12 0.630839 0.243046 0.627031
O O13 0.802074 0.424723 0.967997
O O14 0.953103 0.160825 0.806258
#
# Coordination Sequence:
#
# PCOD9039450 Si02
#       7
#     2   2   2   2   2   2   2
#     4  11  25  42  66  97 132 170 214 266 323 378
#     4  10  24  43  66  96 133 169 210 264 321 380
#     4  11  26  44  65  94 132 170 214 268 322 376
#     4  10  23  43  70  98 129 168 215 265 319 383
#     4  12  24  43  67  95 128 171 219 266 315 378
#     4  10  23  45  68  96 130 169 213 261 318 385
#     4  10  23  42  68  96 128 171 218 263 317 381
#
# _framework density 28.860619
#
# number of rings (size 3 to 8) (size 9 to 14) (size 15 to 20)
#    0.000    1.429    0.000    3.429    0.000   20.000 
#    0.000    0.000    0.000    0.000    0.000    0.000 
#    0.000    0.000    0.000    0.000    0.000    0.000 
#
# Total GULP energy -78569.529841 kJ/mol
# GULP energy per Si atom -5612.109274 kJ/mol
# Density = 2.879493 g / cm^3
# Si number density = 28.860619 Si / 1000 Ang^3
#
#
#
# Elastic Constant Matrix: (Units=GPa)
#
#
# Indices 1 2 3 4 5 6 
#
# 1 95.3168 26.7877 23.0252 -7.1934 0.9051 -3.7685
# 2 26.7877 212.2551 35.1001 1.8593 -6.1590 -7.5445
# 3 23.0252 35.1001 163.4279 -3.2318 9.5222 -0.0570
# 4 -7.1934 1.8593 -3.2318 55.0508 -1.3371 -2.4242
# 5 0.9051 -6.1590 9.5222 -1.3371 37.9823 1.6581
# 6 -3.7685 -7.5445 -0.0570 -2.4242 1.6581 54.6328
#
#
#
# Elastic Compliance Matrix: (Units=1/GPa)
#
#
# Indices 1 2 3 4 5 6 
#
# 1 0.011280 -0.001202 -0.001295 0.001466 -0.000117 0.000679
# 2 -0.001202 0.005081 -0.000990 -0.000336 0.001064 0.000571
# 3 -0.001295 -0.000990 0.006622 0.000203 -0.001776 -0.000156
# 4 0.001466 -0.000336 0.000203 0.018429 0.000471 0.000858
# 5 -0.000117 0.001064 -0.001776 0.000471 0.026994 -0.000661
# 6 0.000679 0.000571 -0.000156 0.000858 -0.000661 0.018488
#
#
# Mechanical properties :
#
#
# Convention : Reuss Voigt Hill
#
# Bulk Modulus (GPa) = 62.46667 71.20290 66.83478
# Shear Modulus (GPa) = 50.40119 55.27230 52.83675
#
# Velocity S-wave (km/s) = 4.18349 4.38099 4.28338
# Velocity P-wave (km/s) = 6.71019 7.09335 6.90443
#
# Compressibility (1/GPa) = 0.01600854
#
# Stress axis : x y z
#
# Youngs Moduli (GPa) = 88.64881 196.81826 151.02276
#
# Poissons Ratio (x) = 0.23649 0.19560
# Poissons Ratio (y) = 0.10652 0.14957
# Poissons Ratio (z) = 0.11482 0.19493
#
# Static dielectric constant tensor:
#      x y z
#    x 2.301630 0.017700 0.142910 
#    y 0.017700 2.144010 -0.004750 
#    z 0.142910 -0.004750 2.288900 
# 
# From -- ./inp_files/142667.got.cif
#   From: 2010.05.17/outbox.cif.g08.bks.cpg/sg2_72_cif.got.tgz:142667.got - 2010.06.03 11:33:40.
