data_PCOD9039054
_publ_section_title
;
Structure prediction by ZEFSAII (Michael W. Deem and Ramdas Pophale) SiO2 
 PCOD9039054
Probable space group: P -1
;
_chemical_formula_sum "Si O2"
_cell_formula_units_Z 16
_cell_length_a 16.361151
_cell_length_b 10.749653
_cell_length_c 5.023529
_cell_angle_alpha 112.803881
_cell_angle_beta 72.041726
_cell_angle_gamma 131.097185
_cell_volume 611.949168
_symmetry_space_group_name_H-M "P -1"
_symmetry_group_IT_number 2
_symmetry_cell_setting 'triclinic'
loop_
_space_group_symop_operation_xyz
x,y,z
-x,-y,-z
loop_
_atom_site_type_symbol
_atom_site_label
_atom_site_fract_x
_atom_site_fract_y
_atom_site_fract_z
Si Si1 0.002111 0.848027 0.617358
Si Si2 0.700740 0.838347 0.926735
Si Si3 0.699075 0.537096 0.451366
Si Si4 0.823139 0.786026 0.123346
Si Si5 0.502723 0.783783 0.333331
Si Si6 0.777576 0.327788 0.299999
Si Si7 0.643054 0.138438 0.762140
Si Si8 0.089977 0.784459 0.000424
O O1 0.006467 0.761764 0.280507
O O2 0.083333 0.053996 0.662580
O O3 0.049967 0.801869 0.771313
O O4 0.892918 0.804996 0.814793
O O5 0.703808 0.700062 0.654653
O O6 0.791543 0.032497 0.903473
O O7 0.744330 0.831678 0.164018
O O8 0.581972 0.780060 0.053222
O O9 0.747446 0.594677 0.152112
O O10 0.579537 0.381229 0.540660
O O11 0.771336 0.482592 0.446311
O O12 0.432398 0.815158 0.241740
O O13 0.576919 0.940841 0.593043
O O14 0.746642 0.240316 0.547347
O O15 0.682282 0.199662 0.073530
O O16 0.884676 0.349659 0.129510
#
# Coordination Sequence:
#
# PCOD9039054 Si02
#       8
#     2   2   2   2   2   2   2   2
#     4  10  23  43  73  95 132 167 233 274 335 394
#     4  11  23  43  66  98 139 174 227 271 331 406
#     4  11  25  42  63  99 141 178 214 281 339 393
#     4  10  24  41  66  99 131 178 214 284 339 393
#     4  10  23  42  66 100 135 183 224 273 322 399
#     4  11  24  44  71  96 138 175 225 276 331 392
#     4  10  23  44  66  98 136 181 226 268 323 394
#     4  11  22  43  72 102 120 177 228 281 319 405
#
# _framework density 26.145962000000001
#
# number of rings (size 3 to 8) (size 9 to 14) (size 15 to 20)
#    0.000    1.500    2.500    1.125    7.000    6.500 
#    4.500    1.250    0.000    0.000    0.000    0.000 
#    0.000    0.000    0.000    0.000    0.000    0.000 
#
# Total GULP energy -89541.828557 kJ/mol
# GULP energy per Si atom -5596.364285 kJ/mol
# Density = 2.608645 g / cm^3
# Si number density = 26.145962 Si / 1000 Ang^3
#
#
#
# Elastic Constant Matrix: (Units=GPa)
#
#
# Indices 1 2 3 4 5 6 
#
# 1 90.2519 7.7528 37.6151 0.3623 -33.0957 -5.0153
# 2 7.7528 106.3325 34.5924 -11.0213 -17.1568 -13.3895
# 3 37.6151 34.5924 110.7094 -10.1709 -17.5114 -6.9745
# 4 0.3623 -11.0213 -10.1709 48.9181 6.7358 -9.0437
# 5 -33.0957 -17.1568 -17.5114 6.7358 51.2889 -4.5661
# 6 -5.0153 -13.3895 -6.9745 -9.0437 -4.5661 16.0665
#
#
#
# Elastic Compliance Matrix: (Units=1/GPa)
#
#
# Indices 1 2 3 4 5 6 
#
# 1 0.017507 0.003251 -0.004540 -0.000213 0.011700 0.009409
# 2 0.003251 0.013540 -0.002959 0.004355 0.006406 0.015286
# 3 -0.004540 -0.002959 0.011886 0.002309 0.000066 0.002595
# 4 -0.000213 0.004355 0.002309 0.025347 0.000468 0.018966
# 5 0.011700 0.006406 0.000066 0.000468 0.030756 0.018024
# 6 0.009409 0.015286 0.002595 0.018966 0.018024 0.094843
#
#
# Mechanical properties :
#
#
# Convention : Reuss Voigt Hill
#
# Bulk Modulus (GPa) = 29.03862 51.91269 40.47565
# Shear Modulus (GPa) = 23.38043 38.41027 30.89535
#
# Velocity S-wave (km/s) = 2.99361 3.83700 3.44124
# Velocity P-wave (km/s) = 4.80410 6.28715 5.59498
#
# Compressibility (1/GPa) = 0.03443690
#
# Stress axis : x y z
#
# Youngs Moduli (GPa) = 57.11900 73.85570 84.13284
#
# Poissons Ratio (x) = -0.24012 0.38199
# Poissons Ratio (y) = -0.18570 0.24894
# Poissons Ratio (z) = 0.25934 0.21853
#
# Static dielectric constant tensor:
#      x y z
#    x 2.035790 0.014480 0.059200 
#    y 0.014480 2.073480 0.022280 
#    z 0.059200 0.022280 2.109890 
# 
# From -- ./inp_files/109817.got.cif
#   From: 2010.05.17/outbox.cif.g08.bks.cpg/sg2_55_cif.got.tgz:109817.got - 2010.06.03 11:33:40.
