data_PCOD9039096
_publ_section_title
;
Structure prediction by ZEFSAII (Michael W. Deem and Ramdas Pophale) SiO2 
 PCOD9039096
Probable space group: P -1
;
_chemical_formula_sum "Si O2"
_cell_formula_units_Z 16
_cell_length_a 28.188139
_cell_length_b 19.174898
_cell_length_c 15.672874
_cell_angle_alpha 160.274661
_cell_angle_beta 159.757823
_cell_angle_gamma 18.409791
_cell_volume 818.172888
_symmetry_space_group_name_H-M "P -1"
_symmetry_group_IT_number 2
_symmetry_cell_setting 'triclinic'
loop_
_space_group_symop_operation_xyz
x,y,z
-x,-y,-z
loop_
_atom_site_type_symbol
_atom_site_label
_atom_site_fract_x
_atom_site_fract_y
_atom_site_fract_z
Si Si1 0.236003 0.213890 0.356398
Si Si2 0.119145 0.697088 0.140043
Si Si3 0.799850 0.662356 0.756306
Si Si4 0.478896 0.694424 0.259322
Si Si5 0.848112 0.124874 0.773161
Si Si6 0.223821 0.695627 0.952963
Si Si7 0.684701 0.863259 0.119245
Si Si8 0.141949 0.133293 0.745626
O O1 0.255930 0.212325 0.286143
O O2 0.230032 0.451128 0.655359
O O3 0.377068 0.965627 0.355766
O O4 0.062734 0.243017 0.111124
O O5 0.189931 0.699906 0.170240
O O6 0.114443 0.913284 0.434221
O O7 0.227827 0.430995 0.061535
O O8 0.658868 0.625874 0.509443
O O9 0.974053 0.393481 0.732219
O O10 0.823027 0.823278 0.049544
O O11 0.500000 0.500000 0.000000
O O12 0.371510 0.691914 0.151849
O O13 0.778929 0.955916 0.441558
O O14 0.774929 0.274770 0.909457
O O15 0.046877 0.935796 0.899741
O O16 0.712852 0.917445 0.132344
O O17 0.500000 0.000000 0.000000
#
# Coordination Sequence:
#
# PCOD9039096 Si02
#       8
#     2   2   2   2   2   2   2   2
#     4  12  22  42  66  96 128 172 211 255 320 382
#     4  11  21  43  69  90 126 170 211 259 320 377
#     4  11  23  44  65  96 133 165 213 263 311 382
#     4  12  25  41  65  95 133 169 209 266 315 370
#     4  10  23  42  66  92 128 161 212 265 314 382
#     4  11  23  41  64  98 125 166 209 256 323 376
#     4  11  24  44  65  90 125 169 216 265 315 369
#     4  10  24  45  65  94 129 169 214 260 317 376
#
# _framework density 19.555769000000002
#
# number of rings (size 3 to 8) (size 9 to 14) (size 15 to 20)
#    0.000    1.000    5.000    1.875    1.750    4.000 
#    4.500    0.000    0.000    0.000    0.000    0.000 
#    0.000    0.000    0.000    0.000    0.000    0.000 
#
# Total GULP energy -89462.564996 kJ/mol
# GULP energy per Si atom -5591.410312 kJ/mol
# Density = 1.951126 g / cm^3
# Si number density = 19.555769 Si / 1000 Ang^3
#
#
#
# Elastic Constant Matrix: (Units=GPa)
#
#
# Indices 1 2 3 4 5 6 
#
# 1 106.4222 22.8178 72.3483 15.2286 0.2464 -21.6015
# 2 22.8178 35.7669 17.0300 11.7658 5.6374 -15.1974
# 3 72.3483 17.0300 104.7538 11.1701 3.3178 -0.5355
# 4 15.2286 11.7658 11.1701 27.1700 -7.0740 16.8231
# 5 0.2464 5.6374 3.3178 -7.0740 36.6680 -7.7416
# 6 -21.6015 -15.1974 -0.5355 16.8231 -7.7416 23.7975
#
#
#
# Elastic Compliance Matrix: (Units=1/GPa)
#
#
# Indices 1 2 3 4 5 6 
#
# 1 0.005947 -0.028372 -0.003283 0.032789 0.003597 -0.034804
# 2 -0.028372 -0.000098 0.014643 0.045206 -0.004860 -0.059025
# 3 -0.003283 0.014643 0.012281 -0.024643 -0.003235 0.023016
# 4 0.032789 0.045206 -0.024643 -0.047388 0.005639 0.093412
# 5 0.003597 -0.004860 -0.003235 0.005639 0.030658 0.006075
# 6 -0.034804 -0.059025 0.023016 0.093412 0.006075 -0.090805
#
#
# Mechanical properties :
#
#
# Convention : Reuss Voigt Hill
#
# Bulk Modulus (GPa) = -62.91656 52.37059 -5.27299
# Shear Modulus (GPa) = -82.40073 26.51022 -27.94526
#
# Velocity S-wave (km/s) = -6.49829 3.68587 -3.78432
# Velocity P-wave (km/s) = 9.40991 6.70466 4.66872
#
# Compressibility (1/GPa) = -0.01589407
#
# Stress axis : x y z
#
# Youngs Moduli (GPa) = 168.15628 -10237.70533 81.42728
#
# Poissons Ratio (x) = -290.46214 0.26732
# Poissons Ratio (y) = 4.77090 -1.19231
# Poissons Ratio (z) = 0.55204 149.90711
#
# Static dielectric constant tensor:
#      x y z
#    x 1.689050 -0.005370 0.012430 
#    y -0.005370 1.669040 -0.013700 
#    z 0.012430 -0.013700 1.659560 
# 
# From -- ./inp_files/69335.got.cif
#   From: 2010.05.17/outbox.cif.g08.bks.cpg/sg2_35_cif.got.tgz:69335.got - 2010.06.03 11:33:40.
