data_PCOD9039775
_publ_section_title
;
Structure prediction by ZEFSAII (Michael W. Deem and Ramdas Pophale) SiO2 
 PCOD9039775
Probable space group: P -1
;
_chemical_formula_sum "Si O2"
_cell_formula_units_Z 12
_cell_length_a 13.841347
_cell_length_b 7.006941
_cell_length_c 15.255604
_cell_angle_alpha 59.837569
_cell_angle_beta 142.227035
_cell_angle_gamma 139.838750
_cell_volume 564.829719
_symmetry_space_group_name_H-M "P -1"
_symmetry_group_IT_number 2
_symmetry_cell_setting 'triclinic'
loop_
_space_group_symop_operation_xyz
x,y,z
-x,-y,-z
loop_
_atom_site_type_symbol
_atom_site_label
_atom_site_fract_x
_atom_site_fract_y
_atom_site_fract_z
Si Si1 0.700675 0.858038 0.566590
Si Si2 0.073711 0.113983 0.427633
Si Si3 0.350106 0.464198 0.799165
Si Si4 0.573423 0.232190 0.398282
Si Si5 0.655775 0.354075 0.057762
Si Si6 0.082871 0.917751 0.155508
O O1 0.500000 0.500000 0.500000
O O2 0.812928 0.971646 0.525645
O O3 0.617180 0.019038 0.490566
O O4 0.858388 0.925387 0.742216
O O5 0.257925 0.479210 0.482302
O O6 0.000000 0.000000 0.500000
O O7 0.846470 0.906894 0.260256
O O8 0.354089 0.617568 0.680724
O O9 0.325571 0.599981 0.834067
O O10 0.559254 0.506047 0.934047
O O11 0.317949 0.046488 0.266580
O O12 0.885006 0.561288 0.122156
O O13 0.500000 0.000000 0.000000
O O14 0.000000 0.000000 0.000000
#
# Coordination Sequence:
#
# PCOD9039775 Si02
#       6
#     2   2   2   2   2   2
#     4  12  26  45  72 105 142 186 243 296 357 423
#     4  10  23  42  71 100 138 177 235 291 354 415
#     4  10  23  44  67 104 138 184 234 295 351 427
#     4  11  25  45  73 105 141 185 241 295 360 421
#     4  11  25  43  70  99 144 185 237 289 360 419
#     4  12  25  48  72 101 145 191 235 293 358 427
#
# _framework density 21.245342000000001
#
# number of rings (size 3 to 8) (size 9 to 14) (size 15 to 20)
#    0.000    1.000    5.000    0.500    2.333    6.667 
#    0.000    1.667    0.000    0.000    0.000    0.000 
#    0.000    0.000    0.000    0.000    0.000    0.000 
#
# Total GULP energy -66870.454335 kJ/mol
# GULP energy per Si atom -5572.537861 kJ/mol
# Density = 2.119699 g / cm^3
# Si number density = 21.245342 Si / 1000 Ang^3
#
#
#
# Elastic Constant Matrix: (Units=GPa)
#
#
# Indices 1 2 3 4 5 6 
#
# 1 146.1605 58.5374 49.2715 9.2268 -6.3871 4.0721
# 2 58.5374 127.5231 60.6522 29.5483 -7.4233 3.6893
# 3 49.2715 60.6522 102.7155 14.5104 -9.8660 1.7930
# 4 9.2268 29.5483 14.5104 42.5804 5.4713 1.5491
# 5 -6.3871 -7.4233 -9.8660 5.4713 42.8241 5.9122
# 6 4.0721 3.6893 1.7930 1.5491 5.9122 32.5952
#
#
#
# Elastic Compliance Matrix: (Units=1/GPa)
#
#
# Indices 1 2 3 4 5 6 
#
# 1 0.008903 -0.003086 -0.002576 0.001096 0.000156 -0.000702
# 2 -0.003086 0.013575 -0.005355 -0.007113 0.001682 -0.000823
# 3 -0.002576 -0.005355 0.014477 -0.000931 0.002172 -0.000218
# 4 0.001096 -0.007113 -0.000931 0.029139 -0.005041 0.000249
# 5 0.000156 0.001682 0.002172 -0.005041 0.025461 -0.004708
# 6 -0.000702 -0.000823 -0.000218 0.000249 -0.004708 0.031714
#
#
# Mechanical properties :
#
#
# Convention : Reuss Voigt Hill
#
# Bulk Modulus (GPa) = 67.01694 79.25791 73.13742
# Shear Modulus (GPa) = 33.27176 37.46248 35.36712
#
# Velocity S-wave (km/s) = 3.96166 4.20375 4.08450
# Velocity P-wave (km/s) = 7.24838 7.80699 7.53287
#
# Compressibility (1/GPa) = 0.01492160
#
# Stress axis : x y z
#
# Youngs Moduli (GPa) = 112.31607 73.66454 69.07466
#
# Poissons Ratio (x) = 0.22735 0.17794
# Poissons Ratio (y) = 0.34664 0.36988
# Poissons Ratio (z) = 0.28933 0.39445
#
# Static dielectric constant tensor:
#      x y z
#    x 1.877930 0.059220 0.000820 
#    y 0.059220 1.776250 0.025930 
#    z 0.000820 0.025930 1.835840 
# 
# From -- ./inp_files/35167.got.cif
#   From: 2010.05.17/outbox.cif.g08.bks.cpg/sg2_18_cif.got.tgz:35167.got - 2010.06.03 11:33:40.
