data_PCOD9039835
_publ_section_title
;
Structure prediction by ZEFSAII (Michael W. Deem and Ramdas Pophale) SiO2 
 PCOD9039835
Probable space group: P -1
;
_chemical_formula_sum "Si O2"
_cell_formula_units_Z 16
_cell_length_a 8.259042
_cell_length_b 17.372249
_cell_length_c 5.786803
_cell_angle_alpha 81.285037
_cell_angle_beta 82.733031
_cell_angle_gamma 55.767891
_cell_volume 677.655904
_symmetry_space_group_name_H-M "P -1"
_symmetry_group_IT_number 2
_symmetry_cell_setting 'triclinic'
loop_
_space_group_symop_operation_xyz
x,y,z
-x,-y,-z
loop_
_atom_site_type_symbol
_atom_site_label
_atom_site_fract_x
_atom_site_fract_y
_atom_site_fract_z
Si Si1 0.618514 0.185815 0.761542
Si Si2 0.992705 0.154986 0.911778
Si Si3 0.330339 0.254624 0.163686
Si Si4 0.845450 0.422356 0.541110
Si Si5 0.898264 0.335444 0.065121
Si Si6 0.309170 0.104872 0.520651
Si Si7 0.857181 0.986364 0.682260
Si Si8 0.289286 0.372839 0.484089
O O1 0.820779 0.178695 0.754067
O O2 0.453399 0.283194 0.635474
O O3 0.663474 0.090599 0.683004
O O4 0.528595 0.187780 0.023006
O O5 0.192049 0.135386 0.769364
O O6 0.900348 0.242776 0.061177
O O7 0.056669 0.058770 0.066243
O O8 0.319220 0.189254 0.385377
O O9 0.340496 0.338692 0.226117
O O10 0.127335 0.301222 0.041410
O O11 0.827200 0.379988 0.317844
O O12 0.719795 0.534563 0.496117
O O13 0.071788 0.392658 0.532808
O O14 0.806741 0.393289 0.813624
O O15 0.169601 0.090592 0.388530
O O16 0.500000 0.000000 0.500000
O O17 0.000000 0.000000 0.500000
#
# Coordination Sequence:
#
# PCOD9039835 Si02
#       8
#     2   2   2   2   2   2   2   2
#     4  12  26  43  71 104 146 189 244 295 371 440
#     4  12  27  46  69 101 149 196 237 299 375 436
#     4  11  24  42  72 105 142 182 248 298 358 430
#     4  10  23  43  77 106 146 187 247 310 368 434
#     4  11  23  45  72 106 141 194 245 301 366 436
#     4  12  26  43  71 101 141 193 248 303 354 430
#     4  12  27  45  67 102 143 192 241 295 369 435
#     4  10  23  42  71 107 142 187 239 304 366 433
#
# _framework density 23.610803000000001
#
# number of rings (size 3 to 8) (size 9 to 14) (size 15 to 20)
#    0.000    0.750    3.750    3.375    7.000    2.500 
#    0.000    1.250    0.000    0.000    0.000    0.000 
#    0.000    0.000    0.000    0.000    0.000    0.000 
#
# Total GULP energy -89322.751534 kJ/mol
# GULP energy per Si atom -5582.671971 kJ/mol
# Density = 2.355706 g / cm^3
# Si number density = 23.610803 Si / 1000 Ang^3
#
#
#
# Elastic Constant Matrix: (Units=GPa)
#
#
# Indices 1 2 3 4 5 6 
#
# 1 34.3237 24.9733 22.8247 5.2770 6.6191 5.1758
# 2 24.9733 173.7613 66.6091 -3.4704 12.9729 18.3131
# 3 22.8247 66.6091 112.9990 -2.2096 1.0870 10.6300
# 4 5.2770 -3.4704 -2.2096 43.2632 2.5421 9.8577
# 5 6.6191 12.9729 1.0870 2.5421 32.8936 11.7240
# 6 5.1758 18.3131 10.6300 9.8577 11.7240 33.2916
#
#
#
# Elastic Compliance Matrix: (Units=1/GPa)
#
#
# Indices 1 2 3 4 5 6 
#
# 1 0.036898 -0.002792 -0.005974 -0.004977 -0.006232 0.001375
# 2 -0.002792 0.008086 -0.003912 0.001483 -0.001682 -0.002612
# 3 -0.005974 -0.003912 0.012591 0.001435 0.003092 -0.002454
# 4 -0.004977 0.001483 0.001435 0.025800 0.001460 -0.008654
# 5 -0.006232 -0.001682 0.003092 0.001460 0.036518 -0.012386
# 6 0.001375 -0.002612 -0.002454 -0.008654 -0.012386 0.038969
#
#
# Mechanical properties :
#
#
# Convention : Reuss Voigt Hill
#
# Bulk Modulus (GPa) = 31.03653 61.09980 46.06817
# Shear Modulus (GPa) = 25.64666 35.66813 30.65740
#
# Velocity S-wave (km/s) = 3.29937 3.89095 3.60731
# Velocity P-wave (km/s) = 5.26194 6.79118 6.07487
#
# Compressibility (1/GPa) = 0.03222009
#
# Stress axis : x y z
#
# Youngs Moduli (GPa) = 27.10181 123.66637 79.41995
#
# Poissons Ratio (x) = 0.34529 0.47445
# Poissons Ratio (y) = 0.07567 0.31067
# Poissons Ratio (z) = 0.16190 0.48375
#
# Static dielectric constant tensor:
#      x y z
#    x 2.039260 0.052000 0.429440 
#    y 0.052000 1.883230 0.196560 
#    z 0.429440 0.196560 3.087510 
# 
# From -- ./inp_files/47417.got.cif
#   From: 2010.05.17/outbox.cif.g08.bks.cpg/sg2_24_cif.got.tgz:47417.got - 2010.06.03 11:33:40.
