data_PCOD9039403
_publ_section_title
;
Structure prediction by ZEFSAII (Michael W. Deem and Ramdas Pophale) SiO2 
 PCOD9039403
Probable space group: P -1
;
_chemical_formula_sum "Si O2"
_cell_formula_units_Z 15
_cell_length_a 9.778804
_cell_length_b 5.215145
_cell_length_c 12.656836
_cell_angle_alpha 71.920835
_cell_angle_beta 63.080481
_cell_angle_gamma 83.558383
_cell_volume 546.810720
_symmetry_space_group_name_H-M "P -1"
_symmetry_group_IT_number 2
_symmetry_cell_setting 'triclinic'
loop_
_space_group_symop_operation_xyz
x,y,z
-x,-y,-z
loop_
_atom_site_type_symbol
_atom_site_label
_atom_site_fract_x
_atom_site_fract_y
_atom_site_fract_z
Si Si1 0.666819 0.484976 0.047616
Si Si2 0.583294 0.318092 0.637161
Si Si3 0.135429 0.314368 0.437499
Si Si4 0.000000 0.500000 0.000000
Si Si5 0.098103 0.845775 0.077893
Si Si6 0.892645 0.931917 0.319395
Si Si7 0.347351 0.228680 0.198516
Si Si8 0.290779 0.586276 0.641513
O O1 0.587003 0.580035 0.315658
O O2 0.495858 0.417937 0.155365
O O3 0.727067 0.206634 0.005147
O O4 0.658101 0.711922 0.931351
O O5 0.704080 0.555269 0.594534
O O6 0.618916 0.265562 0.507347
O O7 0.617132 0.064937 0.731365
O O8 0.098372 0.056303 0.557715
O O9 0.183871 0.294450 0.301494
O O10 0.000000 0.500000 0.500000
O O11 0.024774 0.553328 0.110797
O O12 0.188760 0.449409 0.935835
O O13 0.047900 0.946804 0.194867
O O14 0.000000 0.000000 0.000000
O O15 0.820350 0.643933 0.343104
O O16 0.782017 0.170913 0.299748
#
# Coordination Sequence:
#
# PCOD9039403 Si02
#       8
#     2   2   2   1   2   2   2   2
#     4   9  23  46  73 107 147 201 257 315 374 462
#     4  10  24  43  71 104 146 198 247 313 378 467
#     4  11  25  45  69 106 150 196 247 310 394 461
#     4   8  22  46  64 106 140 194 254 310 372 440
#     4  10  23  42  68 103 146 192 255 316 375 451
#     4  11  24  44  73 111 151 195 247 320 379 460
#     4  11  22  47  74 105 152 197 253 311 388 458
#     4  10  24  42  74 110 150 197 255 307 383 457
#
# _framework density 27.431795999999999
#
# number of rings (size 3 to 8) (size 9 to 14) (size 15 to 20)
#    0.800    1.067    1.333    0.800    5.600    3.200 
#    7.200    1.333    0.000    0.000    0.000    0.000 
#    0.000    0.000    0.000    0.000    0.000    0.000 
#
# Total GULP energy -83536.174991 kJ/mol
# GULP energy per Si atom -5569.078333 kJ/mol
# Density = 2.736936 g / cm^3
# Si number density = 27.431796 Si / 1000 Ang^3
#
#
#
# Elastic Constant Matrix: (Units=GPa)
#
#
# Indices 1 2 3 4 5 6 
#
# 1 105.5416 5.0438 32.0727 -0.5175 -16.7411 -5.0572
# 2 5.0438 94.0090 47.1409 5.5264 -8.2299 -26.7967
# 3 32.0727 47.1409 178.3930 8.5450 -21.9277 -6.7802
# 4 -0.5175 5.5264 8.5450 47.3790 -8.6255 -1.9759
# 5 -16.7411 -8.2299 -21.9277 -8.6255 49.7073 -0.0297
# 6 -5.0572 -26.7967 -6.7802 -1.9759 -0.0297 55.1920
#
#
#
# Elastic Compliance Matrix: (Units=1/GPa)
#
#
# Indices 1 2 3 4 5 6 
#
# 1 0.010513 0.000866 -0.001740 0.000939 0.003080 0.001206
# 2 0.000866 0.014376 -0.003552 -0.000567 0.001010 0.006603
# 3 -0.001740 -0.003552 0.007072 -0.000588 0.001843 -0.001035
# 4 0.000939 -0.000567 -0.000588 0.021999 0.003781 0.000528
# 5 0.003080 0.001010 0.001843 0.003781 0.022792 0.001147
# 6 0.001206 0.006603 -0.001035 0.000528 0.001147 0.021327
#
#
# Mechanical properties :
#
#
# Convention : Reuss Voigt Hill
#
# Bulk Modulus (GPa) = 43.27022 60.71760 51.99391
# Shear Modulus (GPa) = 43.61667 50.03474 46.82570
#
# Velocity S-wave (km/s) = 3.99181 4.27543 4.13605
# Velocity P-wave (km/s) = 6.08721 6.82308 6.46562
#
# Compressibility (1/GPa) = 0.02311059
#
# Stress axis : x y z
#
# Youngs Moduli (GPa) = 95.11903 69.55996 141.39386
#
# Poissons Ratio (x) = -0.06026 0.24596
# Poissons Ratio (y) = -0.08241 0.50228
# Poissons Ratio (z) = 0.16547 0.24710
#
# Static dielectric constant tensor:
#      x y z
#    x 2.133070 -0.022590 0.039910 
#    y -0.022590 2.348330 -0.067450 
#    z 0.039910 -0.067450 2.342590 
# 
# From -- ./inp_files/524969.got.cif
#   From: 2010.05.17/outbox.cif.g08.bks.cpg/sg2_263_cif.got.tgz:524969.got - 2010.06.03 11:33:40.
