data_PCOD9039348
_publ_section_title
;
Structure prediction by ZEFSAII (Michael W. Deem and Ramdas Pophale) SiO2 
 PCOD9039348
Probable space group: P -1
;
_chemical_formula_sum "Si O2"
_cell_formula_units_Z 16
_cell_length_a 8.810887
_cell_length_b 9.184788
_cell_length_c 11.310568
_cell_angle_alpha 105.695766
_cell_angle_beta 119.664152
_cell_angle_gamma 68.740993
_cell_volume 736.533080
_symmetry_space_group_name_H-M "P -1"
_symmetry_group_IT_number 2
_symmetry_cell_setting 'triclinic'
loop_
_space_group_symop_operation_xyz
x,y,z
-x,-y,-z
loop_
_atom_site_type_symbol
_atom_site_label
_atom_site_fract_x
_atom_site_fract_y
_atom_site_fract_z
Si Si1 0.840783 0.234442 0.550439
Si Si2 0.227896 0.564064 0.864423
Si Si3 0.444011 0.802964 0.935787
Si Si4 0.778529 0.552079 0.917157
Si Si5 0.583416 0.780842 0.232713
Si Si6 0.493698 0.182681 0.531306
Si Si7 0.177694 0.423313 0.330029
Si Si8 0.816744 0.989708 0.300778
O O1 0.651426 0.222356 0.525570
O O2 0.848705 0.411481 0.576662
O O3 0.865975 0.133339 0.417703
O O4 0.997487 0.142815 0.681450
O O5 0.337656 0.668883 0.866031
O O6 0.296548 0.387536 0.802690
O O7 0.013053 0.615415 0.772765
O O8 0.268799 0.555243 0.019664
O O9 0.646349 0.723600 0.943577
O O10 0.318461 0.943204 0.842976
O O11 0.455487 0.845978 0.086576
O O12 0.744588 0.546136 0.762810
O O13 0.000000 0.500000 0.000000
O O14 0.492717 0.764830 0.317318
O O15 0.709653 0.898344 0.324043
O O16 0.309869 0.284273 0.422424
O O17 0.500000 0.000000 0.500000
#
# Coordination Sequence:
#
# PCOD9039348 Si02
#       8
#     2   2   2   2   2   2   2   2
#     4  11  25  44  66  97 131 176 218 270 330 394
#     4  10  23  42  68 100 126 170 227 274 315 392
#     4  11  24  41  71  97 128 175 221 270 330 381
#     4   9  20  40  65  96 129 163 216 270 316 386
#     4  11  23  45  63  94 133 172 215 273 328 388
#     4  12  27  43  66  99 135 170 217 278 330 387
#     4  11  24  43  71  93 133 178 216 265 337 393
#     4  11  24  45  67  95 134 171 222 271 324 393
#
# _framework density 21.723396999999999
#
# number of rings (size 3 to 8) (size 9 to 14) (size 15 to 20)
#    0.000    1.250    2.500    3.000    7.000    0.500 
#    0.000    0.625    0.000    0.000    0.000    0.000 
#    0.000    0.000    0.000    0.000    0.000    0.000 
#
# Total GULP energy -89330.761412 kJ/mol
# GULP energy per Si atom -5583.172588 kJ/mol
# Density = 2.167395 g / cm^3
# Si number density = 21.723397 Si / 1000 Ang^3
#
#
#
# Elastic Constant Matrix: (Units=GPa)
#
#
# Indices 1 2 3 4 5 6 
#
# 1 54.2041 27.1746 10.0704 -6.2198 13.3625 -6.5782
# 2 27.1746 122.6806 54.1987 -24.4313 12.5334 0.3554
# 3 10.0704 54.1987 88.1547 -17.2921 4.7452 -12.6957
# 4 -6.2198 -24.4313 -17.2921 39.8367 -5.3125 12.2063
# 5 13.3625 12.5334 4.7452 -5.3125 31.7958 0.8851
# 6 -6.5782 0.3554 -12.6957 12.2063 0.8851 29.3196
#
#
#
# Elastic Compliance Matrix: (Units=1/GPa)
#
#
# Indices 1 2 3 4 5 6 
#
# 1 0.023709 -0.005696 0.001857 -0.002419 -0.008608 0.007459
# 2 -0.005696 0.014345 -0.007913 0.006719 -0.000744 -0.007653
# 3 0.001857 -0.007913 0.017232 0.000483 -0.000369 0.007784
# 4 -0.002419 0.006719 0.000483 0.034171 0.004417 -0.014775
# 5 -0.008608 -0.000744 -0.000369 0.004417 0.036294 -0.005016
# 6 0.007459 -0.007653 0.007784 -0.014775 -0.005016 0.045546
#
#
# Mechanical properties :
#
#
# Convention : Reuss Voigt Hill
#
# Bulk Modulus (GPa) = 31.46456 49.76965 40.61710
# Shear Modulus (GPa) = 24.34316 31.76345 28.05331
#
# Velocity S-wave (km/s) = 3.35116 3.82799 3.59749
# Velocity P-wave (km/s) = 5.43041 6.51908 5.99949
#
# Compressibility (1/GPa) = 0.03178179
#
# Stress axis : x y z
#
# Youngs Moduli (GPa) = 42.17796 69.71025 58.03082
#
# Poissons Ratio (x) = 0.39706 -0.10774
# Poissons Ratio (y) = 0.24024 0.45920
# Poissons Ratio (z) = -0.07831 0.55162
#
# Static dielectric constant tensor:
#      x y z
#    x 1.808610 -0.024750 0.003430 
#    y -0.024750 1.807780 0.027060 
#    z 0.003430 0.027060 1.830050 
# 
# From -- ./inp_files/245568.got.cif
#   From: 2010.05.17/outbox.cif.g08.bks.cpg/sg2_123_cif.got.tgz:245568.got - 2010.06.03 11:33:40.
