data_PCOD9039057
_publ_section_title
;
Structure prediction by ZEFSAII (Michael W. Deem and Ramdas Pophale) SiO2 
 PCOD9039057
Probable space group: P -1
;
_chemical_formula_sum "Si O2"
_cell_formula_units_Z 16
_cell_length_a 17.883219
_cell_length_b 4.915147
_cell_length_c 14.721603
_cell_angle_alpha 82.545457
_cell_angle_beta 30.601910
_cell_angle_gamma 73.825064
_cell_volume 616.435153
_symmetry_space_group_name_H-M "P -1"
_symmetry_group_IT_number 2
_symmetry_cell_setting 'triclinic'
loop_
_space_group_symop_operation_xyz
x,y,z
-x,-y,-z
loop_
_atom_site_type_symbol
_atom_site_label
_atom_site_fract_x
_atom_site_fract_y
_atom_site_fract_z
Si Si1 0.884291 0.630810 0.795407
Si Si2 0.644529 0.391289 0.145764
Si Si3 0.340926 0.801606 0.234795
Si Si4 0.524934 0.168746 0.101906
Si Si5 0.312940 0.733764 0.559229
Si Si6 0.118832 0.391858 0.707343
Si Si7 0.134242 0.737826 0.919235
Si Si8 0.995871 0.120374 0.599284
O O1 0.032008 0.411223 0.702771
O O2 0.907847 0.939100 0.756911
O O3 0.733412 0.597486 0.000841
O O4 0.903842 0.462423 0.687003
O O5 0.589073 0.224524 0.130011
O O6 0.490455 0.583059 0.352462
O O7 0.772471 0.201882 0.093443
O O8 0.378376 0.460682 0.224980
O O9 0.177946 0.999965 0.433879
O O10 0.467277 0.897495 0.155364
O O11 0.362954 0.844005 0.101895
O O12 0.202149 0.630056 0.612972
O O13 0.266347 0.626302 0.709426
O O14 0.248506 0.083394 0.607664
O O15 0.970798 0.452106 0.927944
O O16 0.000000 0.000000 0.000000
O O17 0.000000 0.000000 0.500000
#
# Coordination Sequence:
#
# PCOD9039057 Si02
#       8
#     2   2   2   2   2   2   2   2
#     4  11  26  43  66 100 142 181 238 291 354 410
#     4  11  25  43  71 108 148 186 241 299 354 431
#     4  10  23  43  67  96 137 184 227 291 351 420
#     4  10  23  42  66 100 141 178 226 290 361 407
#     4  11  23  42  72 104 139 185 234 290 360 425
#     4  10  23  43  69 101 138 187 232 292 348 426
#     4   9  21  47  72 103 147 190 236 292 361 426
#     4  12  25  43  71  96 135 188 242 286 352 429
#
# _framework density 25.955693
#
# number of rings (size 3 to 8) (size 9 to 14) (size 15 to 20)
#    0.000    1.500    0.000    3.375    5.250    5.000 
#    0.000   14.375    0.000    0.000    0.000    0.000 
#    0.000    0.000    0.000    0.000    0.000    0.000 
#
# Total GULP energy -89553.015351 kJ/mol
# GULP energy per Si atom -5597.063459 kJ/mol
# Density = 2.589662 g / cm^3
# Si number density = 25.955693 Si / 1000 Ang^3
#
#
#
# Elastic Constant Matrix: (Units=GPa)
#
#
# Indices 1 2 3 4 5 6 
#
# 1 137.5956 11.0678 56.5016 6.7607 -16.0690 1.1972
# 2 11.0678 85.9449 18.0458 7.2833 -3.1713 11.5248
# 3 56.5016 18.0458 162.3479 6.2273 6.4633 -3.3424
# 4 6.7607 7.2833 6.2273 30.8484 4.4126 -2.9117
# 5 -16.0690 -3.1713 6.4633 4.4126 27.1626 6.3729
# 6 1.1972 11.5248 -3.3424 -2.9117 6.3729 27.4287
#
#
#
# Elastic Compliance Matrix: (Units=1/GPa)
#
#
# Indices 1 2 3 4 5 6 
#
# 1 0.009895 0.000513 -0.003775 -0.002994 0.008073 -0.003301
# 2 0.000513 0.013507 -0.001859 -0.004317 0.004782 -0.007493
# 3 -0.003775 -0.001859 0.007926 0.000712 -0.005202 0.003196
# 4 -0.002994 -0.004317 0.000712 0.036196 -0.010262 0.008258
# 5 0.008073 0.004782 -0.005202 -0.010262 0.048666 -0.015392
# 6 -0.003301 -0.007493 0.003196 0.008258 -0.015392 0.044593
#
#
# Mechanical properties :
#
#
# Convention : Reuss Voigt Hill
#
# Bulk Modulus (GPa) = 47.42744 61.90208 54.66476
# Shear Modulus (GPa) = 28.08139 37.10614 32.59376
#
# Velocity S-wave (km/s) = 3.29279 3.78510 3.54750
# Velocity P-wave (km/s) = 5.72440 6.55771 6.15517
#
# Compressibility (1/GPa) = 0.02108484
#
# Stress axis : x y z
#
# Youngs Moduli (GPa) = 101.05755 74.03675 126.17131
#
# Poissons Ratio (x) = -0.03795 0.47634
# Poissons Ratio (y) = -0.05181 0.23453
# Poissons Ratio (z) = 0.38153 0.13762
#
# Static dielectric constant tensor:
#      x y z
#    x 2.166250 -0.002610 0.053780 
#    y -0.002610 2.057750 0.047500 
#    z 0.053780 0.047500 2.092710 
# 
# From -- ./inp_files/536336.got.cif
#   From: 2010.05.17/outbox.cif.g08.bks.cpg/sg2_269_cif.got.tgz:536336.got - 2010.06.03 11:33:40.
