data_PCOD9039825
_publ_section_title
;
Structure prediction by ZEFSAII (Michael W. Deem and Ramdas Pophale) SiO2 
 PCOD9039825
Probable space group: P -1
;
_chemical_formula_sum "Si O2"
_cell_formula_units_Z 14
_cell_length_a 13.001633
_cell_length_b 9.083327
_cell_length_c 7.765082
_cell_angle_alpha 125.688687
_cell_angle_beta 113.682378
_cell_angle_gamma 49.085030
_cell_volume 562.560481
_symmetry_space_group_name_H-M "P -1"
_symmetry_group_IT_number 2
_symmetry_cell_setting 'triclinic'
loop_
_space_group_symop_operation_xyz
x,y,z
-x,-y,-z
loop_
_atom_site_type_symbol
_atom_site_label
_atom_site_fract_x
_atom_site_fract_y
_atom_site_fract_z
Si Si1 0.237945 0.459628 0.410291
Si Si2 0.672423 0.566943 0.943719
Si Si3 0.664469 0.984961 0.229107
Si Si4 0.354786 0.959345 0.142740
Si Si5 0.058516 0.127521 0.537269
Si Si6 0.849915 0.125860 0.920240
Si Si7 0.498413 0.643014 0.339997
O O1 0.271380 0.462869 0.233283
O O2 0.341472 0.496270 0.607181
O O3 0.076838 0.637215 0.444260
O O4 0.288502 0.212154 0.322322
O O5 0.563133 0.501473 0.824307
O O6 0.789666 0.376546 0.011913
O O7 0.643701 0.796455 0.142292
O O8 0.577308 0.194552 0.437290
O O9 0.826066 0.880890 0.276098
O O10 0.612576 0.048319 0.042311
O O11 0.458399 0.795934 0.248792
O O12 0.240868 0.908511 0.038817
O O13 0.143065 0.988665 0.332863
O O14 0.000000 0.000000 0.500000
O O15 0.000000 0.000000 0.000000
#
# Coordination Sequence:
#
# PCOD9039825 Si02
#       7
#     2   2   2   2   2   2   2
#     4  11  24  41  75 104 145 191 246 295 364 439
#     4  10  23  42  71 105 135 196 242 291 359 431
#     4  11  24  45  79 102 145 192 246 292 369 433
#     4  10  24  42  71 109 140 191 245 301 356 435
#     4  12  23  44  74 107 139 199 233 296 378 414
#     4  11  23  42  66 105 155 177 240 307 353 429
#     4  11  23  51  71 105 153 188 239 311 355 429
#
# _framework density 24.886215
#
# number of rings (size 3 to 8) (size 9 to 14) (size 15 to 20)
#    0.000    1.143    4.286    1.714    2.000    5.143 
#    0.000    7.143    0.000    9.429    0.000    0.000 
#    0.000    0.000    0.000    0.000    0.000    0.000 
#
# Total GULP energy -78494.187379 kJ/mol
# GULP energy per Si atom -5606.727670 kJ/mol
# Density = 2.482957 g / cm^3
# Si number density = 24.886215 Si / 1000 Ang^3
#
#
#
# Elastic Constant Matrix: (Units=GPa)
#
#
# Indices 1 2 3 4 5 6 
#
# 1 113.0968 49.0826 25.7859 -1.7364 16.0592 -0.2204
# 2 49.0826 129.8379 30.4332 10.8543 24.4156 -1.6494
# 3 25.7859 30.4332 90.1100 15.4215 4.5684 -6.5667
# 4 -1.7364 10.8543 15.4215 44.1277 -8.0499 12.2056
# 5 16.0592 24.4156 4.5684 -8.0499 52.0850 -10.6091
# 6 -0.2204 -1.6494 -6.5667 12.2056 -10.6091 58.4749
#
#
#
# Elastic Compliance Matrix: (Units=1/GPa)
#
#
# Indices 1 2 3 4 5 6 
#
# 1 0.011175 -0.003599 -0.002358 0.002176 -0.001427 -0.001037
# 2 -0.003599 0.010497 -0.001833 -0.002809 -0.004101 -0.000081
# 3 -0.002358 -0.001833 0.013423 -0.005003 0.000149 0.002518
# 4 0.002176 -0.002809 -0.005003 0.027504 0.004192 -0.005613
# 5 -0.001427 -0.004101 0.000149 0.004192 0.022841 0.003165
# 6 -0.001037 -0.000081 0.002518 -0.005613 0.003165 0.019124
#
#
# Mechanical properties :
#
#
# Convention : Reuss Voigt Hill
#
# Bulk Modulus (GPa) = 51.23801 60.40533 55.82167
# Shear Modulus (GPa) = 39.47934 46.12039 42.79987
#
# Velocity S-wave (km/s) = 3.98728 4.30961 4.15157
# Velocity P-wave (km/s) = 6.46772 7.00635 6.74242
#
# Compressibility (1/GPa) = 0.01951676
#
# Stress axis : x y z
#
# Youngs Moduli (GPa) = 89.48226 95.26720 74.49667
#
# Poissons Ratio (x) = 0.34283 0.17568
# Poissons Ratio (y) = 0.32201 0.13653
# Poissons Ratio (z) = 0.21101 0.17459
#
# Static dielectric constant tensor:
#      x y z
#    x 1.977370 -0.056790 -0.008620 
#    y -0.056790 1.980720 -0.012540 
#    z -0.008620 -0.012540 2.030560 
# 
# From -- ./inp_files/296958.got.cif
#   From: 2010.05.17/outbox.cif.g08.bks.cpg/sg2_149_cif.got.tgz:296958.got - 2010.06.03 11:33:40.
