data_PCOD9039430
_publ_section_title
;
Structure prediction by ZEFSAII (Michael W. Deem and Ramdas Pophale) SiO2 
 PCOD9039430
Probable space group: P -1
;
_chemical_formula_sum "Si O2"
_cell_formula_units_Z 15
_cell_length_a 7.236751
_cell_length_b 6.032101
_cell_length_c 14.660284
_cell_angle_alpha 102.896179
_cell_angle_beta 80.619456
_cell_angle_gamma 62.616827
_cell_volume 527.189360
_symmetry_space_group_name_H-M "P -1"
_symmetry_group_IT_number 2
_symmetry_cell_setting 'triclinic'
loop_
_space_group_symop_operation_xyz
x,y,z
-x,-y,-z
loop_
_atom_site_type_symbol
_atom_site_label
_atom_site_fract_x
_atom_site_fract_y
_atom_site_fract_z
Si Si1 0.940800 0.910310 0.146912
Si Si2 0.140771 0.386851 0.299765
Si Si3 0.020970 0.636330 0.879200
Si Si4 0.587639 0.488240 0.851746
Si Si5 0.315649 0.891392 0.627408
Si Si6 0.500000 0.000000 0.000000
Si Si7 0.540209 0.169422 0.686470
Si Si8 0.770261 0.352478 0.543332
O O1 0.903708 0.658669 0.109681
O O2 0.194281 0.754696 0.143184
O O3 0.903869 0.144833 0.103077
O O4 0.785453 0.062653 0.259609
O O5 0.985204 0.405086 0.233617
O O6 0.318000 0.425024 0.232771
O O7 0.062154 0.595012 0.408780
O O8 0.280372 0.099832 0.304570
O O9 0.764430 0.814904 0.944187
O O10 0.456132 0.370954 0.798679
O O11 0.482681 0.734831 0.950566
O O12 0.558951 0.641605 0.568717
O O13 0.168132 0.827914 0.567461
O O14 0.367745 0.125948 0.640917
O O15 0.668917 0.232647 0.608522
#
# Coordination Sequence:
#
# PCOD9039430 Si02
#       8
#     2   2   2   2   2   1   2   2
#     4  10  21  36  56  82 120 142 181 230 295 319
#     4   8  16  32  51  78 107 138 182 228 268 322
#     4  10  20  37  58  86 114 144 181 231 282 340
#     4   9  18  34  56  81 108 139 180 231 276 335
#     4  10  21  34  53  79 107 149 189 232 272 326
#     4   8  18  34  60  88 106 140 186 226 270 340
#     4  10  17  33  55  76 105 145 190 228 266 336
#     4   9  19  34  54  76 106 145 202 224 263 326
#
# _framework density 28.452774999999999
#
# number of rings (size 3 to 8) (size 9 to 14) (size 15 to 20)
#    0.000    2.933    1.333    0.400    1.867    2.133 
#    0.000    6.667    0.000    4.000    0.000    0.000 
#    0.000    0.000    0.000    0.000    0.000    0.000 
#
# Total GULP energy -83538.121695 kJ/mol
# GULP energy per Si atom -5569.208113 kJ/mol
# Density = 2.838802 g / cm^3
# Si number density = 28.452775 Si / 1000 Ang^3
#
#
#
# Elastic Constant Matrix: (Units=GPa)
#
#
# Indices 1 2 3 4 5 6 
#
# 1 87.8363 48.4260 43.5039 11.8369 33.3853 14.6965
# 2 48.4260 173.1295 40.4474 33.3410 -0.3362 14.6664
# 3 43.5039 40.4474 119.8790 44.4461 18.4830 0.9094
# 4 11.8369 33.3410 44.4461 51.5845 5.1917 -11.8836
# 5 33.3853 -0.3362 18.4830 5.1917 51.0068 7.7918
# 6 14.6965 14.6664 0.9094 -11.8836 7.7918 49.4469
#
#
#
# Elastic Compliance Matrix: (Units=1/GPa)
#
#
# Indices 1 2 3 4 5 6 
#
# 1 0.021545 -0.005398 -0.005678 0.004269 -0.012248 -0.001742
# 2 -0.005398 0.008564 0.000633 -0.006001 0.004443 -0.003090
# 3 -0.005678 0.000633 0.014735 -0.012176 -0.000123 -0.001678
# 4 0.004269 -0.006001 -0.012176 0.035386 -0.003520 0.009794
# 5 -0.012248 0.004443 -0.000123 -0.003520 0.028514 -0.003014
# 6 -0.001742 -0.003090 -0.001678 0.009794 -0.003014 0.024518
#
#
# Mechanical properties :
#
#
# Convention : Reuss Voigt Hill
#
# Bulk Modulus (GPa) = 41.74337 71.73326 56.73832
# Shear Modulus (GPa) = 30.83858 46.97214 38.90536
#
# Velocity S-wave (km/s) = 3.29576 4.06751 3.70180
# Velocity P-wave (km/s) = 5.40238 6.87936 6.18511
#
# Compressibility (1/GPa) = 0.02395590
#
# Stress axis : x y z
#
# Youngs Moduli (GPa) = 46.41519 116.76703 67.86549
#
# Poissons Ratio (x) = 0.63031 0.38537
# Poissons Ratio (y) = 0.25055 -0.04293
# Poissons Ratio (z) = 0.26357 -0.07386
#
# Static dielectric constant tensor:
#      x y z
#    x 2.195550 0.092110 0.097990 
#    y 0.092110 2.160900 0.003190 
#    z 0.097990 0.003190 2.241630 
# 
# From -- ./inp_files/552176.got.cif
#   From: 2010.05.17/outbox.cif.g08.bks.cpg/sg2_277_cif.got.tgz:552176.got - 2010.06.03 11:33:40.
