data_PCOD9039812
_publ_section_title
;
Structure prediction by ZEFSAII (Michael W. Deem and Ramdas Pophale) SiO2 
 PCOD9039812
Probable space group: P -1
;
_chemical_formula_sum "Si O2"
_cell_formula_units_Z 14
_cell_length_a 5.492126
_cell_length_b 14.264228
_cell_length_c 11.962304
_cell_angle_alpha 55.126321
_cell_angle_beta 85.134757
_cell_angle_gamma 121.903385
_cell_volume 542.675599
_symmetry_space_group_name_H-M "P -1"
_symmetry_group_IT_number 2
_symmetry_cell_setting 'triclinic'
loop_
_space_group_symop_operation_xyz
x,y,z
-x,-y,-z
loop_
_atom_site_type_symbol
_atom_site_label
_atom_site_fract_x
_atom_site_fract_y
_atom_site_fract_z
Si Si1 0.381344 0.177229 0.130295
Si Si2 0.542470 0.019446 0.618238
Si Si3 0.622613 0.424136 0.105564
Si Si4 0.704612 0.862747 0.287890
Si Si5 0.179839 0.316976 0.510639
Si Si6 0.711213 0.181971 0.841828
Si Si7 0.655514 0.608009 0.166314
O O1 0.343697 0.236790 0.207940
O O2 0.589016 0.138920 0.205303
O O3 0.430112 0.305483 0.960409
O O4 0.115451 0.014771 0.178267
O O5 0.379196 0.068174 0.663116
O O6 0.944239 0.179594 0.518621
O O7 0.500000 0.000000 0.500000
O O8 0.644122 0.481624 0.188506
O O9 0.500000 0.500000 0.000000
O O10 0.000000 0.500000 0.000000
O O11 0.561083 0.697047 0.453286
O O12 0.580604 0.830553 0.187677
O O13 0.354866 0.490121 0.348102
O O14 0.948822 0.256746 0.670778
O O15 0.970522 0.274992 0.871302
O O16 0.500000 0.000000 0.000000
#
# Coordination Sequence:
#
# PCOD9039812 Si02
#       7
#     2   2   2   2   2   2   2
#     4  10  23  42  71 103 142 192 254 298 375 455
#     4  10  24  41  73  99 148 196 246 302 378 464
#     4  10  25  44  69 110 156 198 251 313 389 462
#     4  10  23  45  66 107 137 191 249 302 372 462
#     4  10  25  45  68 110 147 187 249 315 386 452
#     4  11  23  47  76 101 143 196 258 303 382 465
#     4  11  24  46  72 109 151 194 245 325 386 448
#
# _framework density 25.798100000000002
#
# number of rings (size 3 to 8) (size 9 to 14) (size 15 to 20)
#    0.000    1.714    1.429    0.429    8.000    4.571 
#   12.857    0.000    0.000    0.000    0.000    0.000 
#    0.000    0.000    0.000    0.000    0.000    0.000 
#
# Total GULP energy -77944.421467 kJ/mol
# GULP energy per Si atom -5567.458676 kJ/mol
# Density = 2.573938 g / cm^3
# Si number density = 25.798100 Si / 1000 Ang^3
#
#
#
# Elastic Constant Matrix: (Units=GPa)
#
#
# Indices 1 2 3 4 5 6 
#
# 1 63.3701 16.8222 18.3963 10.7370 16.3744 1.8184
# 2 16.8222 134.5381 52.7385 16.6176 3.0868 16.3535
# 3 18.3963 52.7385 134.9908 5.1936 22.8451 8.0912
# 4 10.7370 16.6176 5.1936 41.4728 1.0518 4.5415
# 5 16.3744 3.0868 22.8451 1.0518 36.5740 7.8660
# 6 1.8184 16.3535 8.0912 4.5415 7.8660 44.5673
#
#
#
# Elastic Compliance Matrix: (Units=1/GPa)
#
#
# Indices 1 2 3 4 5 6 
#
# 1 0.019218 -0.001734 -0.000461 -0.004212 -0.008447 0.001856
# 2 -0.001734 0.009790 -0.003819 -0.002735 0.003079 -0.003093
# 3 -0.000461 -0.003819 0.009888 0.000493 -0.005790 0.000597
# 4 -0.004212 -0.002735 0.000493 0.026404 0.001449 -0.001861
# 5 -0.008447 0.003079 -0.005790 0.001449 0.035771 -0.006195
# 6 0.001856 -0.003093 0.000597 -0.001861 -0.006195 0.024672
#
#
# Mechanical properties :
#
#
# Convention : Reuss Voigt Hill
#
# Bulk Modulus (GPa) = 37.21959 56.53478 46.87718
# Shear Modulus (GPa) = 34.07728 40.85229 37.46478
#
# Velocity S-wave (km/s) = 3.63839 3.98369 3.81495
# Velocity P-wave (km/s) = 5.66649 6.56670 6.13313
#
# Compressibility (1/GPa) = 0.02686758
#
# Stress axis : x y z
#
# Youngs Moduli (GPa) = 52.03579 102.14792 101.13400
#
# Poissons Ratio (x) = 0.17709 0.04665
# Poissons Ratio (y) = 0.09021 0.38622
# Poissons Ratio (z) = 0.02400 0.39009
#
# Static dielectric constant tensor:
#      x y z
#    x 2.718760 0.069310 -0.184130 
#    y 0.069310 2.090510 0.018310 
#    z -0.184130 0.018310 2.104170 
# 
# From -- ./inp_files/367514.got.cif
#   From: 2010.05.17/outbox.cif.g08.bks.cpg/sg2_184_cif.got.tgz:367514.got - 2010.06.03 11:33:40.
