data_PCOD9039231
_publ_section_title
;
Structure prediction by ZEFSAII (Michael W. Deem and Ramdas Pophale) SiO2 
 PCOD9039231
Probable space group: P -1
;
_chemical_formula_sum "Si O2"
_cell_formula_units_Z 14
_cell_length_a 8.400344
_cell_length_b 15.413139
_cell_length_c 14.854462
_cell_angle_alpha 151.021249
_cell_angle_beta 123.664490
_cell_angle_gamma 75.172410
_cell_volume 638.322231
_symmetry_space_group_name_H-M "P -1"
_symmetry_group_IT_number 2
_symmetry_cell_setting 'triclinic'
loop_
_space_group_symop_operation_xyz
x,y,z
-x,-y,-z
loop_
_atom_site_type_symbol
_atom_site_label
_atom_site_fract_x
_atom_site_fract_y
_atom_site_fract_z
Si Si1 0.380683 0.497276 0.368511
Si Si2 0.991127 0.453196 0.754637
Si Si3 0.804120 0.923504 0.795091
Si Si4 0.200682 0.877001 0.323066
Si Si5 0.307238 0.312050 0.985530
Si Si6 0.741735 0.734315 0.420512
Si Si7 0.426918 0.974614 0.663176
O O1 0.500000 0.500000 0.500000
O O2 0.156765 0.502286 0.320637
O O3 0.583995 0.711055 0.576954
O O4 0.308014 0.326256 0.108484
O O5 0.783685 0.254136 0.567955
O O6 0.141038 0.375626 0.687992
O O7 0.144061 0.673916 0.060166
O O8 0.875660 0.865695 0.672451
O O9 0.682087 0.045679 0.839325
O O10 0.000000 0.000000 0.000000
O O11 0.395006 0.941706 0.516550
O O12 0.953899 0.780956 0.209253
O O13 0.250592 0.091841 0.484752
O O14 0.383082 0.154744 0.840213
O O15 0.486735 0.542511 0.202730
#
# Coordination Sequence:
#
# PCOD9039231 Si02
#       7
#     2   2   2   2   2   2   2
#     4   9  21  41  67  93 134 178 224 277 334 393
#     4  10  23  42  69 101 134 180 226 271 339 400
#     4  10  25  43  65  97 137 167 228 287 320 398
#     4  11  24  46  70  95 146 176 218 279 329 408
#     4  10  23  42  67 103 138 171 225 278 328 407
#     4  11  25  44  67 107 132 178 227 268 342 394
#     4  11  23  46  68  99 135 186 219 271 347 389
#
# _framework density 21.932496
#
# number of rings (size 3 to 8) (size 9 to 14) (size 15 to 20)
#    0.000    1.714    1.429    1.714    6.000    2.286 
#    0.000    5.714    0.000    0.000    0.000    0.000 
#    0.000    0.000    0.000    0.000    0.000    0.000 
#
# Total GULP energy -78236.629594 kJ/mol
# GULP energy per Si atom -5588.330685 kJ/mol
# Density = 2.188258 g / cm^3
# Si number density = 21.932496 Si / 1000 Ang^3
#
#
#
# Elastic Constant Matrix: (Units=GPa)
#
#
# Indices 1 2 3 4 5 6 
#
# 1 145.6091 52.8905 48.7653 3.7991 -7.4756 -25.0036
# 2 52.8905 99.2593 39.7904 -14.8442 10.9674 -0.9655
# 3 48.7653 39.7904 84.3485 2.2651 13.7689 -14.5857
# 4 3.7991 -14.8442 2.2651 40.5317 -0.5994 9.7206
# 5 -7.4756 10.9674 13.7689 -0.5994 33.8076 8.9268
# 6 -25.0036 -0.9655 -14.5857 9.7206 8.9268 35.6089
#
#
#
# Elastic Compliance Matrix: (Units=1/GPa)
#
#
# Indices 1 2 3 4 5 6 
#
# 1 0.011643 -0.005991 -0.003198 -0.004733 0.003882 0.007022
# 2 -0.005991 0.017162 -0.005921 0.009088 -0.002180 -0.008101
# 3 -0.003198 -0.005921 0.019851 -0.005417 -0.009498 0.009585
# 4 -0.004733 0.009088 -0.005417 0.032336 0.002692 -0.014798
# 5 0.003882 -0.002180 -0.009498 0.002692 0.038100 -0.011510
# 6 0.007022 -0.008101 0.009585 -0.014798 -0.011510 0.043645
#
#
# Mechanical properties :
#
#
# Convention : Reuss Voigt Hill
#
# Bulk Modulus (GPa) = 54.24051 68.01214 61.12633
# Shear Modulus (GPa) = 25.11270 34.50769 29.81020
#
# Velocity S-wave (km/s) = 3.38746 3.97086 3.69070
# Velocity P-wave (km/s) = 6.33120 7.21808 6.78914
#
# Compressibility (1/GPa) = 0.01843640
#
# Stress axis : x y z
#
# Youngs Moduli (GPa) = 85.88551 58.26886 50.37537
#
# Poissons Ratio (x) = 0.34908 0.16109
# Poissons Ratio (y) = 0.51453 0.29829
# Poissons Ratio (z) = 0.27464 0.34503
#
# Static dielectric constant tensor:
#      x y z
#    x 1.818100 0.017500 0.025450 
#    y 0.017500 1.872640 -0.018130 
#    z 0.025450 -0.018130 1.848580 
# 
# From -- ./inp_files/315547.got.cif
#   From: 2010.05.17/outbox.cif.g08.bks.cpg/sg2_158_cif.got.tgz:315547.got - 2010.06.03 11:33:40.
