data_PCOD9039915
_publ_section_title
;
Structure prediction by ZEFSAII (Michael W. Deem and Ramdas Pophale) SiO2 
 PCOD9039915
Probable space group: P -1
;
_chemical_formula_sum "Si O2"
_cell_formula_units_Z 14
_cell_length_a 17.120883
_cell_length_b 12.431212
_cell_length_c 11.755162
_cell_angle_alpha 152.461199
_cell_angle_beta 30.214025
_cell_angle_gamma 145.491366
_cell_volume 563.863826
_symmetry_space_group_name_H-M "P -1"
_symmetry_group_IT_number 2
_symmetry_cell_setting 'triclinic'
loop_
_space_group_symop_operation_xyz
x,y,z
-x,-y,-z
loop_
_atom_site_type_symbol
_atom_site_label
_atom_site_fract_x
_atom_site_fract_y
_atom_site_fract_z
Si Si1 0.125120 0.838254 0.187094
Si Si2 0.360310 0.205418 0.389506
Si Si3 0.883057 0.517057 0.949202
Si Si4 0.600559 0.707761 0.148621
Si Si5 0.413581 0.802225 0.082549
Si Si6 0.936649 0.715130 0.841029
Si Si7 0.357500 0.961130 0.801696
O O1 0.273356 0.978740 0.208813
O O2 0.052200 0.609377 0.145753
O O3 0.208425 0.846795 0.965977
O O4 0.000000 0.000000 0.500000
O O5 0.228268 0.339004 0.712723
O O6 0.423802 0.079399 0.296062
O O7 0.501075 0.329467 0.243426
O O8 0.772474 0.322885 0.819464
O O9 0.981527 0.692393 0.896060
O O10 0.466902 0.782541 0.464067
O O11 0.677616 0.922380 0.163542
O O12 0.500000 0.500000 0.000000
O O13 0.746800 0.662323 0.996943
O O14 0.518289 0.824857 0.084330
O O15 0.000000 0.500000 0.500000
O O16 0.000000 0.000000 0.000000
#
# Coordination Sequence:
#
# PCOD9039915 Si02
#       7
#     2   2   2   2   2   2   2
#     4  10  24  42  66 104 145 189 244 320 395 468
#     4   9  19  35  61  99 134 176 234 300 374 455
#     4  11  23  40  71  94 140 193 246 306 389 454
#     4  11  26  48  79 107 151 209 269 320 387 469
#     4   9  18  36  65 101 136 175 236 309 372 450
#     4  12  32  51  79 114 160 208 267 330 396 472
#     4  10  23  42  72 106 149 191 257 322 386 464
#
# _framework density 24.828689000000001
#
# number of rings (size 3 to 8) (size 9 to 14) (size 15 to 20)
#    0.000    1.714    0.000    3.000   12.000    4.000 
#    0.000    0.000    0.000    0.000    0.000    0.000 
#    0.000    0.000    0.000    0.000    0.000    0.000 
#
# Total GULP energy -78097.662303 kJ/mol
# GULP energy per Si atom -5578.404450 kJ/mol
# Density = 2.477218 g / cm^3
# Si number density = 24.828689 Si / 1000 Ang^3
#
#
#
# Elastic Constant Matrix: (Units=GPa)
#
#
# Indices 1 2 3 4 5 6 
#
# 1 132.5802 44.7197 42.8497 -1.3245 -6.2524 -38.2646
# 2 44.7197 132.1553 54.5026 -4.6446 -1.5134 -23.4237
# 3 42.8497 54.5026 173.4156 -1.4236 -8.4755 -39.4206
# 4 -1.3245 -4.6446 -1.4236 28.7863 -6.5811 1.1086
# 5 -6.2524 -1.5134 -8.4755 -6.5811 45.2384 10.4689
# 6 -38.2646 -23.4237 -39.4206 1.1086 10.4689 58.2158
#
#
#
# Elastic Compliance Matrix: (Units=1/GPa)
#
#
# Indices 1 2 3 4 5 6 
#
# 1 0.010002 -0.002213 -0.000573 -0.000140 -0.000048 0.005307
# 2 -0.002213 0.009428 -0.002226 0.001174 -0.000442 0.000888
# 3 -0.000573 -0.002226 0.007471 -0.000074 0.000374 0.003721
# 4 -0.000140 0.001174 -0.000074 0.036250 0.005596 -0.001367
# 5 -0.000048 -0.000442 0.000374 0.005596 0.023980 -0.004375
# 6 0.005307 0.000888 0.003721 -0.001367 -0.004375 0.024356
#
#
# Mechanical properties :
#
#
# Convention : Reuss Voigt Hill
#
# Bulk Modulus (GPa) = 59.25407 80.25499 69.75453
# Shear Modulus (GPa) = 39.32762 46.18672 42.75717
#
# Velocity S-wave (km/s) = 3.98422 4.31770 4.15431
# Velocity P-wave (km/s) = 6.71433 7.56640 7.15306
#
# Compressibility (1/GPa) = 0.01687648
#
# Stress axis : x y z
#
# Youngs Moduli (GPa) = 99.97604 106.07265 133.84658
#
# Poissons Ratio (x) = 0.23476 0.07669
# Poissons Ratio (y) = 0.22127 0.29796
# Poissons Ratio (z) = 0.05729 0.23613
#
# Static dielectric constant tensor:
#      x y z
#    x 1.997000 0.031890 0.032170 
#    y 0.031890 2.305970 0.104950 
#    z 0.032170 0.104950 1.989030 
# 
# From -- ./inp_files/465167.got.cif
#   From: 2010.05.17/outbox.cif.g08.bks.cpg/sg2_233_cif.got.tgz:465167.got - 2010.06.03 11:33:40.
