data_PCOD9039126
_publ_section_title
;
Structure prediction by ZEFSAII (Michael W. Deem and Ramdas Pophale) SiO2 
 PCOD9039126
Probable space group: P -1
;
_chemical_formula_sum "Si O2"
_cell_formula_units_Z 16
_cell_length_a 17.798998
_cell_length_b 8.711271
_cell_length_c 17.756900
_cell_angle_alpha 148.913751
_cell_angle_beta 29.712943
_cell_angle_gamma 139.602746
_cell_volume 702.908563
_symmetry_space_group_name_H-M "P -1"
_symmetry_group_IT_number 2
_symmetry_cell_setting 'triclinic'
loop_
_space_group_symop_operation_xyz
x,y,z
-x,-y,-z
loop_
_atom_site_type_symbol
_atom_site_label
_atom_site_fract_x
_atom_site_fract_y
_atom_site_fract_z
Si Si1 0.440127 0.312787 0.200261
Si Si2 0.845890 0.595896 0.268673
Si Si3 0.070025 0.085076 0.826583
Si Si4 0.831802 0.594051 0.791645
Si Si5 0.629134 0.071332 0.227741
Si Si6 0.839866 0.961916 0.580976
Si Si7 0.390083 0.620046 0.212901
Si Si8 0.645514 0.834683 0.280159
O O1 0.286505 0.248171 0.353917
O O2 0.412031 0.470656 0.211550
O O3 0.578557 0.495209 0.198622
O O4 0.500000 0.000000 0.000000
O O5 0.886287 0.782939 0.237567
O O6 0.682287 0.414653 0.326352
O O7 0.859424 0.804165 0.417193
O O8 0.959727 0.324592 0.058914
O O9 0.214412 0.084956 0.754665
O O10 0.992662 0.752347 0.741650
O O11 0.781812 0.453235 0.695475
O O12 0.790600 0.303049 0.757040
O O13 0.732626 0.883753 0.004103
O O14 0.456879 0.959676 0.310264
O O15 0.674203 0.937138 0.212885
O O16 0.000000 0.000000 0.500000
O O17 0.500000 0.500000 0.000000
O O18 0.500000 0.000000 0.500000
#
# Coordination Sequence:
#
# PCOD9039126 Si02
#       8
#     2   2   2   2   2   2   2   2
#     4  11  25  43  69 101 137 182 227 281 346 405
#     4  10  24  44  66 102 137 177 234 282 350 402
#     4  10  25  44  70  97 135 190 226 283 344 419
#     4  10  23  42  66  95 134 183 222 275 351 401
#     4   9  20  41  68  94 127 177 222 276 337 411
#     4  12  28  42  66 103 142 175 230 293 340 408
#     4   9  19  40  69  98 133 175 230 272 333 418
#     4  11  24  41  65  94 129 173 233 276 340 402
#
# _framework density 22.762561999999999
#
# number of rings (size 3 to 8) (size 9 to 14) (size 15 to 20)
#    0.000    1.750    0.000    3.000    8.750    7.500 
#    0.000    1.875    0.000    0.000    0.000    0.000 
#    0.000    0.000    0.000    0.000    0.000    0.000 
#
# Total GULP energy -89346.881798 kJ/mol
# GULP energy per Si atom -5584.180112 kJ/mol
# Density = 2.271075 g / cm^3
# Si number density = 22.762562 Si / 1000 Ang^3
#
#
#
# Elastic Constant Matrix: (Units=GPa)
#
#
# Indices 1 2 3 4 5 6 
#
# 1 128.5875 67.3254 26.2560 -4.4257 11.2094 48.6937
# 2 67.3254 170.1467 32.5468 11.0692 16.3924 35.7090
# 3 26.2560 32.5468 63.7237 13.3231 12.3242 12.5352
# 4 -4.4257 11.0692 13.3231 32.7379 0.3568 3.3511
# 5 11.2094 16.3924 12.3242 0.3568 28.0741 0.1561
# 6 48.6937 35.7090 12.5352 3.3511 0.1561 49.4168
#
#
#
# Elastic Compliance Matrix: (Units=1/GPa)
#
#
# Indices 1 2 3 4 5 6 
#
# 1 0.014974 -0.002853 -0.002829 0.005436 -0.003072 -0.012335
# 2 -0.002853 0.008279 -0.001477 -0.002282 -0.003003 -0.002632
# 3 -0.002829 -0.001477 0.020863 -0.008208 -0.007057 -0.000858
# 4 0.005436 -0.002282 -0.008208 0.035783 0.002333 -0.004060
# 5 -0.003072 -0.003003 -0.007057 0.002333 0.041631 0.006697
# 6 -0.012335 -0.002632 -0.000858 -0.004060 0.006697 0.034764
#
#
# Mechanical properties :
#
#
# Convention : Reuss Voigt Hill
#
# Bulk Modulus (GPa) = 33.55994 68.30160 50.93077
# Shear Modulus (GPa) = 27.69414 37.80109 32.74762
#
# Velocity S-wave (km/s) = 3.49184 4.07955 3.79708
# Velocity P-wave (km/s) = 5.57070 7.22922 6.45346
#
# Compressibility (1/GPa) = 0.02979743
#
# Stress axis : x y z
#
# Youngs Moduli (GPa) = 66.78306 120.78840 47.93234
#
# Poissons Ratio (x) = 0.34461 0.13558
# Poissons Ratio (y) = 0.19053 0.07082
# Poissons Ratio (z) = 0.18891 0.17846
#
# Static dielectric constant tensor:
#      x y z
#    x 1.833550 0.008580 -0.031150 
#    y 0.008580 1.922070 -0.104190 
#    z -0.031150 -0.104190 1.915720 
# 
# From -- ./inp_files/390377.got.cif
#   From: 2010.05.17/outbox.cif.g08.bks.cpg/sg2_196_cif.got.tgz:390377.got - 2010.06.03 11:33:40.
