data_PCOD9039222
_publ_section_title
;
Structure prediction by ZEFSAII (Michael W. Deem and Ramdas Pophale) SiO2 
 PCOD9039222
Probable space group: P -1
;
_chemical_formula_sum "Si O2"
_cell_formula_units_Z 13
_cell_length_a 13.825300
_cell_length_b 14.600892
_cell_length_c 9.410089
_cell_angle_alpha 128.954697
_cell_angle_beta 131.159002
_cell_angle_gamma 19.686539
_cell_volume 481.470233
_symmetry_space_group_name_H-M "P -1"
_symmetry_group_IT_number 2
_symmetry_cell_setting 'triclinic'
loop_
_space_group_symop_operation_xyz
x,y,z
-x,-y,-z
loop_
_atom_site_type_symbol
_atom_site_label
_atom_site_fract_x
_atom_site_fract_y
_atom_site_fract_z
Si Si1 0.259439 0.954334 0.654395
Si Si2 0.203976 0.906396 0.822988
Si Si3 0.330039 0.387209 0.658029
Si Si4 0.500000 0.500000 0.500000
Si Si5 0.029167 0.103494 0.269523
Si Si6 0.661119 0.796184 0.772547
Si Si7 0.718075 0.668479 0.147977
O O1 0.033445 0.107790 0.716717
O O2 0.447202 0.679765 0.562998
O O3 0.479398 0.883226 0.808931
O O4 0.105910 0.092160 0.489781
O O5 0.370397 0.655052 0.677645
O O6 0.008470 0.005970 0.850326
O O7 0.460238 0.787474 0.982478
O O8 0.274046 0.358627 0.433322
O O9 0.182886 0.448036 0.710811
O O10 0.231416 0.603126 0.758362
O O11 0.681904 0.099821 0.738170
O O12 0.986093 0.580872 0.905521
O O13 0.442642 0.073246 0.764865
#
# Coordination Sequence:
#
# PCOD9039222 Si02
#       7
#     2   2   2   1   2   2   2
#     4   9  21  42  69  99 126 175 219 270 323 398
#     4  10  23  42  67 102 133 173 213 283 326 397
#     4  11  24  43  71  96 130 179 223 272 320 391
#     4   8  20  42  66  94 126 166 214 262 330 380
#     4  11  22  43  71  99 127 172 228 270 332 383
#     4  11  23  43  66  95 136 179 218 262 326 397
#     4  12  26  43  65 100 138 175 219 269 326 389
#
# _framework density 27.000630000000001
#
# number of rings (size 3 to 8) (size 9 to 14) (size 15 to 20)
#    0.923    0.615    0.000    6.000    0.000    4.923 
#    0.000    0.000    0.000    0.000    0.000    0.000 
#    0.000    0.000    0.000    0.000    0.000    0.000 
#
# Total GULP energy -72539.268927 kJ/mol
# GULP energy per Si atom -5579.943764 kJ/mol
# Density = 2.693918 g / cm^3
# Si number density = 27.000630 Si / 1000 Ang^3
#
#
#
# Elastic Constant Matrix: (Units=GPa)
#
#
# Indices 1 2 3 4 5 6 
#
# 1 187.5026 25.1388 18.9068 5.1782 31.2355 -2.2344
# 2 25.1388 80.6723 -4.4802 20.8879 7.6783 11.7770
# 3 18.9068 -4.4802 67.3215 -3.3900 25.0831 5.0429
# 4 5.1782 20.8879 -3.3900 32.8173 0.2674 11.7905
# 5 31.2355 7.6783 25.0831 0.2674 43.4846 -2.1551
# 6 -2.2344 11.7770 5.0429 11.7905 -2.1551 48.4066
#
#
#
# Elastic Compliance Matrix: (Units=1/GPa)
#
#
# Indices 1 2 3 4 5 6 
#
# 1 0.006265 -0.001650 -0.000467 -0.000173 -0.003908 0.000607
# 2 -0.001650 0.015938 0.002383 -0.008827 -0.003058 -0.002188
# 3 -0.000467 0.002383 0.019906 0.002037 -0.011763 -0.003695
# 4 -0.000173 -0.008827 0.002037 0.039056 -0.000108 -0.007590
# 5 -0.003908 -0.003058 -0.011763 -0.000108 0.033293 0.003298
# 6 0.000607 -0.002188 -0.003695 -0.007590 0.003298 0.023599
#
#
# Mechanical properties :
#
#
# Convention : Reuss Voigt Hill
#
# Bulk Modulus (GPa) = 23.45245 46.06970 34.76108
# Shear Modulus (GPa) = 32.95125 44.67041 38.81083
#
# Velocity S-wave (km/s) = 3.49720 4.07187 3.79543
# Velocity P-wave (km/s) = 5.00119 6.26150 5.66649
#
# Compressibility (1/GPa) = 0.04263947
#
# Stress axis : x y z
#
# Youngs Moduli (GPa) = 159.62642 62.74180 50.23615
#
# Poissons Ratio (x) = 0.10353 0.02348
# Poissons Ratio (y) = 0.26340 -0.11970
# Poissons Ratio (z) = 0.07461 -0.14950
#
# Static dielectric constant tensor:
#      x y z
#    x 2.239060 -0.027590 -0.043970 
#    y -0.027590 1.871140 -0.017490 
#    z -0.043970 -0.017490 2.115330 
# 
# From -- ./inp_files/455105.got.cif
#   From: 2010.05.17/outbox.cif.g08.bks.cpg/sg2_228_cif.got.tgz:455105.got - 2010.06.03 11:33:40.
