data_PCOD9039197
_publ_section_title
;
Structure prediction by ZEFSAII (Michael W. Deem and Ramdas Pophale) SiO2 
 PCOD9039197
Probable space group: P -1
;
_chemical_formula_sum "Si O2"
_cell_formula_units_Z 12
_cell_length_a 5.212016
_cell_length_b 15.346633
_cell_length_c 11.754671
_cell_angle_alpha 131.010149
_cell_angle_beta 121.784763
_cell_angle_gamma 89.303282
_cell_volume 515.172355
_symmetry_space_group_name_H-M "P -1"
_symmetry_group_IT_number 2
_symmetry_cell_setting 'triclinic'
loop_
_space_group_symop_operation_xyz
x,y,z
-x,-y,-z
loop_
_atom_site_type_symbol
_atom_site_label
_atom_site_fract_x
_atom_site_fract_y
_atom_site_fract_z
Si Si1 0.185002 0.845218 0.770271
Si Si2 0.264809 0.640286 0.054458
Si Si3 0.196193 0.420396 0.452870
Si Si4 0.411796 0.049803 0.638997
Si Si5 0.478982 0.478829 0.815141
Si Si6 0.327538 0.085287 0.237762
O O1 0.349464 0.805803 0.670761
O O2 0.080021 0.740877 0.761073
O O3 0.846809 0.855341 0.670202
O O4 0.500000 0.000000 0.000000
O O5 0.387926 0.788785 0.170278
O O6 0.536905 0.630127 0.194264
O O7 0.263917 0.546108 0.871060
O O8 0.897771 0.587189 0.990071
O O9 0.500000 0.500000 0.500000
O O10 0.367319 0.424016 0.616630
O O11 0.000000 0.500000 0.500000
O O12 0.500000 0.000000 0.500000
O O13 0.534594 0.994124 0.725120
O O14 0.000000 0.000000 0.500000
O O15 0.000000 0.000000 0.000000
#
# Coordination Sequence:
#
# PCOD9039197 Si02
#       6
#     2   2   2   2   2   2
#     4  10  23  44  68 101 140 186 231 286 366 423
#     4  10  23  45  66  96 133 184 231 286 343 425
#     4  12  26  43  69 107 142 183 237 299 350 429
#     4  12  26  42  69 108 141 179 242 303 355 428
#     4  10  23  42  69  92 134 185 230 279 351 416
#     4  10  23  42  67 100 138 189 223 284 364 431
#
# _framework density 23.293177
#
# number of rings (size 3 to 8) (size 9 to 14) (size 15 to 20)
#    0.000    1.333    0.000    4.000    4.667    8.000 
#    0.000    0.000    0.000    0.000    0.000    0.000 
#    0.000    0.000    0.000    0.000    0.000    0.000 
#
# Total GULP energy -67010.948456 kJ/mol
# GULP energy per Si atom -5584.245705 kJ/mol
# Density = 2.324016 g / cm^3
# Si number density = 23.293177 Si / 1000 Ang^3
#
#
#
# Elastic Constant Matrix: (Units=GPa)
#
#
# Indices 1 2 3 4 5 6 
#
# 1 194.4148 53.0652 18.0978 8.2379 17.0092 2.5945
# 2 53.0652 162.9353 52.9615 18.3193 14.6976 -1.2284
# 3 18.0978 52.9615 52.8025 -3.2808 -8.1048 1.3877
# 4 8.2379 18.3193 -3.2808 44.2518 5.7320 -2.5270
# 5 17.0092 14.6976 -8.1048 5.7320 34.2039 -3.9182
# 6 2.5945 -1.2284 1.3877 -2.5270 -3.9182 45.4232
#
#
#
# Elastic Compliance Matrix: (Units=1/GPa)
#
#
# Indices 1 2 3 4 5 6 
#
# 1 0.005848 -0.001254 -0.001160 -0.000345 -0.002653 -0.000581
# 2 -0.001254 0.011829 -0.012755 -0.004745 -0.006693 -0.000060
# 3 -0.001160 -0.012755 0.034546 0.006357 0.013197 0.000158
# 4 -0.000345 -0.004745 0.006357 0.025209 -0.000385 0.001066
# 5 -0.002653 -0.006693 0.013197 -0.000385 0.036937 0.002732
# 6 -0.000581 -0.000060 0.000158 0.001066 0.002732 0.022337
#
#
# Mechanical properties :
#
#
# Convention : Reuss Voigt Hill
#
# Bulk Modulus (GPa) = 45.69435 73.15573 59.42504
# Shear Modulus (GPa) = 28.67975 43.84434 36.26204
#
# Velocity S-wave (km/s) = 3.51273 4.34323 3.94987
# Velocity P-wave (km/s) = 6.00932 7.52504 6.80949
#
# Compressibility (1/GPa) = 0.02188455
#
# Stress axis : x y z
#
# Youngs Moduli (GPa) = 170.98773 84.54061 28.94672
#
# Poissons Ratio (x) = 0.10599 0.03359
# Poissons Ratio (y) = 0.21438 0.36922
# Poissons Ratio (z) = 0.19841 1.07833
#
# Static dielectric constant tensor:
#      x y z
#    x 2.497890 -0.074310 -0.990900 
#    y -0.074310 1.907690 0.201810 
#    z -0.990900 0.201810 3.665810 
# 
# From -- ./inp_files/365347.got.cif
#   From: 2010.05.17/outbox.cif.g08.bks.cpg/sg2_183_cif.got.tgz:365347.got - 2010.06.03 11:33:40.
