data_PCOD9039389
_publ_section_title
;
Structure prediction by ZEFSAII (Michael W. Deem and Ramdas Pophale) SiO2 
 PCOD9039389
Probable space group: P -1
;
_chemical_formula_sum "Si O2"
_cell_formula_units_Z 14
_cell_length_a 17.708390
_cell_length_b 9.148904
_cell_length_c 8.586436
_cell_angle_alpha 62.679138
_cell_angle_beta 30.540736
_cell_angle_gamma 76.239088
_cell_volume 588.619209
_symmetry_space_group_name_H-M "P -1"
_symmetry_group_IT_number 2
_symmetry_cell_setting 'triclinic'
loop_
_space_group_symop_operation_xyz
x,y,z
-x,-y,-z
loop_
_atom_site_type_symbol
_atom_site_label
_atom_site_fract_x
_atom_site_fract_y
_atom_site_fract_z
Si Si1 0.982753 0.674980 0.374042
Si Si2 0.817880 0.865911 0.412111
Si Si3 0.955229 0.772287 0.719046
Si Si4 0.442613 0.823506 0.540903
Si Si5 0.278357 0.904716 0.279027
Si Si6 0.759296 0.364800 0.273208
Si Si7 0.701208 0.896675 0.266898
O O1 0.000000 0.500000 0.500000
O O2 0.832113 0.687149 0.542980
O O3 0.982032 0.781828 0.480505
O O4 0.116340 0.717942 0.982307
O O5 0.732722 0.844433 0.409071
O O6 0.740636 0.955744 0.631202
O O7 0.000000 0.000000 0.000000
O O8 0.115881 0.825316 0.508211
O O9 0.852420 0.568083 0.037599
O O10 0.841245 0.876779 0.921942
O O11 0.367515 0.672416 0.622820
O O12 0.536919 0.777683 0.536692
O O13 0.317638 0.911547 0.780679
O O14 0.574089 0.985215 0.141147
O O15 0.306834 0.748314 0.401006
#
# Coordination Sequence:
#
# PCOD9039389 Si02
#       7
#     2   2   2   2   2   2   2
#     4  10  23  42  68 102 138 178 225 287 349 400
#     4  12  21  39  72 102 137 173 239 291 333 397
#     4  11  25  42  72  98 137 179 239 279 348 406
#     4  11  26  43  71  97 142 181 229 282 352 409
#     4  12  24  40  74 106 131 180 239 287 333 412
#     4  11  23  46  66 100 143 183 219 290 349 410
#     4  11  24  44  67 100 138 179 228 284 340 407
#
# _framework density 23.784476999999999
#
# number of rings (size 3 to 8) (size 9 to 14) (size 15 to 20)
#    0.000    0.857    4.286    1.714    6.000    2.857 
#    0.000    0.714    0.000    0.000    0.000    0.000 
#    0.000    0.000    0.000    0.000    0.000    0.000 
#
# Total GULP energy -78287.400646 kJ/mol
# GULP energy per Si atom -5591.957189 kJ/mol
# Density = 2.373034 g / cm^3
# Si number density = 23.784477 Si / 1000 Ang^3
#
#
#
# Elastic Constant Matrix: (Units=GPa)
#
#
# Indices 1 2 3 4 5 6 
#
# 1 202.2125 43.8497 26.2128 -2.1322 -10.5069 -4.5967
# 2 43.8497 99.5199 31.7512 4.4283 -4.4552 3.6796
# 3 26.2128 31.7512 90.0373 12.3575 3.0928 8.6717
# 4 -2.1322 4.4283 12.3575 39.8952 7.5286 3.6749
# 5 -10.5069 -4.4552 3.0928 7.5286 38.5536 1.7000
# 6 -4.5967 3.6796 8.6717 3.6749 1.7000 37.9958
#
#
#
# Elastic Compliance Matrix: (Units=1/GPa)
#
#
# Indices 1 2 3 4 5 6 
#
# 1 0.005646 -0.002143 -0.001106 0.000556 0.001226 0.001035
# 2 -0.002143 0.012245 -0.003603 -0.000536 0.001252 -0.000627
# 3 -0.001106 -0.003603 0.013440 -0.003401 -0.001023 -0.002478
# 4 0.000556 -0.000536 -0.003401 0.027273 -0.004896 -0.001523
# 5 0.001226 0.001252 -0.001023 -0.004896 0.027477 -0.000495
# 6 0.001035 -0.000627 -0.002478 -0.001523 -0.000495 0.027240
#
#
# Mechanical properties :
#
#
# Convention : Reuss Voigt Hill
#
# Bulk Modulus (GPa) = 56.73331 66.15523 61.44427
# Shear Modulus (GPa) = 37.62203 42.61933 40.12068
#
# Velocity S-wave (km/s) = 3.98149 4.23767 4.11158
# Velocity P-wave (km/s) = 6.71127 7.19852 6.95916
#
# Compressibility (1/GPa) = 0.01762633
#
# Stress axis : x y z
#
# Youngs Moduli (GPa) = 177.10158 81.66436 74.40618
#
# Poissons Ratio (x) = 0.17502 0.08230
# Poissons Ratio (y) = 0.37955 0.26811
# Poissons Ratio (z) = 0.19590 0.29426
#
# Static dielectric constant tensor:
#      x y z
#    x 1.947470 -0.020240 0.005470 
#    y -0.020240 1.931260 -0.052380 
#    z 0.005470 -0.052380 1.971410 
# 
# From -- ./inp_files/328529.got.cif
#   From: 2010.05.17/outbox.cif.g08.bks.cpg/sg2_165_cif.got.tgz:328529.got - 2010.06.03 11:33:40.
