data_PCOD9039200
_publ_section_title
;
Structure prediction by ZEFSAII (Michael W. Deem and Ramdas Pophale) SiO2 
 PCOD9039200
Probable space group: P -1
;
_chemical_formula_sum "Si O2"
_cell_formula_units_Z 12
_cell_length_a 5.074419
_cell_length_b 18.731006
_cell_length_c 5.091815
_cell_angle_alpha 69.986564
_cell_angle_beta 90.669060
_cell_angle_gamma 103.124623
_cell_volume 441.712560
_symmetry_space_group_name_H-M "P -1"
_symmetry_group_IT_number 2
_symmetry_cell_setting 'triclinic'
loop_
_space_group_symop_operation_xyz
x,y,z
-x,-y,-z
loop_
_atom_site_type_symbol
_atom_site_label
_atom_site_fract_x
_atom_site_fract_y
_atom_site_fract_z
Si Si1 0.926638 0.908482 0.047238
Si Si2 0.415238 0.908387 0.685513
Si Si3 0.193559 0.507916 0.242730
Si Si4 0.607581 0.792714 0.558567
Si Si5 0.155051 0.338826 0.458688
Si Si6 0.754611 0.323016 0.968219
O O1 0.656928 0.895501 0.888261
O O2 0.149977 0.889188 0.882776
O O3 0.867236 0.856404 0.373210
O O4 0.000000 0.000000 0.000000
O O5 0.411081 0.853063 0.502284
O O6 0.500000 0.000000 0.500000
O O7 0.000000 0.500000 0.500000
O O8 0.311280 0.431071 0.344623
O O9 0.354154 0.597542 0.133714
O O10 0.000000 0.500000 0.000000
O O11 0.504521 0.746216 0.885131
O O12 0.640107 0.717855 0.481435
O O13 0.960247 0.324713 0.216343
O O14 0.944186 0.320536 0.722148
#
# Coordination Sequence:
#
# PCOD9039200 Si02
#       6
#     2   2   2   2   2   2
#     4  12  28  49  76 106 144 192 250 304 375 447
#     4  12  28  49  76 106 144 192 250 304 375 447
#     4   8  16  37  64  93 134 188 237 294 357 433
#     4  12  28  39  72  98 146 188 244 307 368 440
#     4  10  23  42  67 100 143 188 243 300 366 434
#     4  10  23  42  67 100 143 188 243 300 366 434
#
# _framework density 27.166986000000001
#
# number of rings (size 3 to 8) (size 9 to 14) (size 15 to 20)
#    0.000    1.333    1.667    2.000    9.333    0.667 
#    0.000    0.000    0.000   12.000    0.000    0.000 
#    0.000    0.000    0.000    0.000    0.000    0.000 
#
# Total GULP energy -67100.173795 kJ/mol
# GULP energy per Si atom -5591.681150 kJ/mol
# Density = 2.710515 g / cm^3
# Si number density = 27.166986 Si / 1000 Ang^3
#
#
#
# Elastic Constant Matrix: (Units=GPa)
#
#
# Indices 1 2 3 4 5 6 
#
# 1 148.1074 41.5039 74.3914 13.8405 -12.6471 -28.7884
# 2 41.5039 247.4722 69.3001 -37.6719 -30.0712 -36.2996
# 3 74.3914 69.3001 190.7191 5.4630 -30.7508 -3.4054
# 4 13.8405 -37.6719 5.4630 70.0363 7.7105 -18.7495
# 5 -12.6471 -30.0712 -30.7508 7.7105 50.5449 25.2867
# 6 -28.7884 -36.2996 -3.4054 -18.7495 25.2867 35.5212
#
#
#
# Elastic Compliance Matrix: (Units=1/GPa)
#
#
# Indices 1 2 3 4 5 6 
#
# 1 0.016008 0.006641 -0.012149 0.015682 -0.023718 0.043757
# 2 0.006641 0.013024 -0.010839 0.021190 -0.023054 0.045249
# 3 -0.012149 -0.010839 0.018933 -0.023238 0.033036 -0.054891
# 4 0.015682 0.021190 -0.023238 0.059300 -0.059623 0.105881
# 5 -0.023718 -0.023054 0.033036 -0.059623 0.100784 -0.142832
# 6 0.043757 0.045249 -0.054891 0.105881 -0.142832 0.262160
#
#
# Mechanical properties :
#
#
# Convention : Reuss Voigt Hill
#
# Bulk Modulus (GPa) = 65.48705 106.29883 85.89294
# Shear Modulus (GPa) = 9.84268 57.96071 33.90170
#
# Velocity S-wave (km/s) = 1.90549 4.62399 3.53640
# Velocity P-wave (km/s) = 5.38506 8.22929 6.95414
#
# Compressibility (1/GPa) = 0.01527019
#
# Stress axis : x y z
#
# Youngs Moduli (GPa) = 62.47021 76.78249 52.81884
#
# Poissons Ratio (x) = -0.50991 0.64170
# Poissons Ratio (y) = -0.41486 0.57249
# Poissons Ratio (z) = 0.75895 0.83223
#
# Static dielectric constant tensor:
#      x y z
#    x 2.139950 0.034580 0.123130 
#    y 0.034580 2.197340 0.026560 
#    z 0.123130 0.026560 2.132580 
# 
# From -- ./inp_files/6097.got.cif
#   From: 2010.05.17/outbox.cif.g08.bks.cpg/sg2_4_cif.got.tgz:6097.got - 2010.06.03 11:33:40.
