data_PCOD9039887
_publ_section_title
;
Structure prediction by ZEFSAII (Michael W. Deem and Ramdas Pophale) SiO2 
 PCOD9039887
Probable space group: P -1
;
_chemical_formula_sum "Si O2"
_cell_formula_units_Z 16
_cell_length_a 16.699385
_cell_length_b 11.635089
_cell_length_c 9.096976
_cell_angle_alpha 39.178080
_cell_angle_beta 136.744057
_cell_angle_gamma 139.315377
_cell_volume 684.258509
_symmetry_space_group_name_H-M "P -1"
_symmetry_group_IT_number 2
_symmetry_cell_setting 'triclinic'
loop_
_space_group_symop_operation_xyz
x,y,z
-x,-y,-z
loop_
_atom_site_type_symbol
_atom_site_label
_atom_site_fract_x
_atom_site_fract_y
_atom_site_fract_z
Si Si1 0.617804 0.088986 0.685031
Si Si2 0.804971 0.125394 0.481112
Si Si3 0.824334 0.509463 0.001728
Si Si4 0.420131 0.272594 0.799040
Si Si5 0.639193 0.698677 0.642051
Si Si6 0.992740 0.884935 0.449194
Si Si7 0.903588 0.166397 0.878450
Si Si8 0.246954 0.483392 0.426020
O O1 0.758878 0.123569 0.776103
O O2 0.650097 0.316382 0.554624
O O3 0.500000 0.000000 0.500000
O O4 0.584768 0.925514 0.935111
O O5 0.770109 0.309403 0.226465
O O6 0.908278 0.183874 0.692004
O O7 0.869968 0.095413 0.447252
O O8 0.685477 0.910830 0.575421
O O9 0.979966 0.631148 0.100295
O O10 0.766546 0.663324 0.819227
O O11 0.776098 0.448165 0.832899
O O12 0.540917 0.486796 0.791940
O O13 0.419909 0.272181 0.621285
O O14 0.298640 0.313776 0.642620
O O15 0.894421 0.647116 0.564269
O O16 0.000000 0.000000 0.500000
O O17 0.934728 0.986994 0.154516
#
# Coordination Sequence:
#
# PCOD9039887 Si02
#       8
#     2   2   2   2   2   2   2   2
#     4  12  29  45  68 100 143 187 238 285 342 423
#     4  12  26  42  69 103 145 182 219 291 359 409
#     4  11  24  43  73 105 137 176 236 290 353 415
#     4  10  23  46  68  99 137 184 239 288 335 415
#     4  10  23  42  72 100 136 181 233 289 346 412
#     4  12  23  45  77 104 142 180 234 289 351 420
#     4  12  26  46  68 104 145 180 228 290 354 416
#     4  11  24  44  75 103 131 188 237 289 351 406
#
# _framework density 23.382977
#
# number of rings (size 3 to 8) (size 9 to 14) (size 15 to 20)
#    0.000    0.750    3.750    3.000    5.250    2.500 
#    0.000    3.750    0.000    0.000    0.000    0.000 
#    0.000    0.000    0.000    0.000    0.000    0.000 
#
# Total GULP energy -89516.357698 kJ/mol
# GULP energy per Si atom -5594.772356 kJ/mol
# Density = 2.332976 g / cm^3
# Si number density = 23.382977 Si / 1000 Ang^3
#
#
#
# Elastic Constant Matrix: (Units=GPa)
#
#
# Indices 1 2 3 4 5 6 
#
# 1 37.3815 -1.4829 -3.3313 1.7981 2.0669 10.4761
# 2 -1.4829 130.1970 22.3375 1.4442 5.0920 7.3448
# 3 -3.3313 22.3375 95.6880 -11.9879 1.7994 -17.3358
# 4 1.7981 1.4442 -11.9879 41.0139 4.0990 1.2659
# 5 2.0669 5.0920 1.7994 4.0990 17.9933 7.5999
# 6 10.4761 7.3448 -17.3358 1.2659 7.5999 33.3610
#
#
#
# Elastic Compliance Matrix: (Units=1/GPa)
#
#
# Indices 1 2 3 4 5 6 
#
# 1 0.029615 0.001128 -0.001339 -0.001524 0.001176 -0.010454
# 2 0.001128 0.008371 -0.002639 -0.000953 -0.000582 -0.003400
# 3 -0.001339 -0.002639 0.013266 0.004270 -0.005162 0.008909
# 4 -0.001524 -0.000953 0.004270 0.026370 -0.007518 0.003619
# 5 0.001176 -0.000582 -0.005162 -0.007518 0.065225 -0.017497
# 6 -0.010454 -0.003400 0.008909 0.003619 -0.017497 0.042485
#
#
# Mechanical properties :
#
#
# Convention : Reuss Voigt Hill
#
# Bulk Modulus (GPa) = 21.95367 33.14591 27.54979
# Shear Modulus (GPa) = 24.24626 34.85653 29.55139
#
# Velocity S-wave (km/s) = 3.22362 3.86512 3.55885
# Velocity P-wave (km/s) = 4.82335 5.84165 5.35675
#
# Compressibility (1/GPa) = 0.04555047
#
# Stress axis : x y z
#
# Youngs Moduli (GPa) = 33.76715 119.45334 75.37924
#
# Poissons Ratio (x) = -0.13471 0.10095
# Poissons Ratio (y) = -0.03808 0.19896
# Poissons Ratio (z) = 0.04522 0.31528
#
# Static dielectric constant tensor:
#      x y z
#    x 1.966710 0.026890 0.004080 
#    y 0.026890 1.878860 0.004480 
#    z 0.004080 0.004480 1.817440 
# 
# From -- ./inp_files/273651.got.cif
#   From: 2010.05.17/outbox.cif.g08.bks.cpg/sg2_137_cif.got.tgz:273651.got - 2010.06.03 11:33:40.
