data_PCOD9039315
_publ_section_title
;
Structure prediction by ZEFSAII (Michael W. Deem and Ramdas Pophale) SiO2 
 PCOD9039315
Probable space group: P -1
;
_chemical_formula_sum "Si O2"
_cell_formula_units_Z 14
_cell_length_a 7.360314
_cell_length_b 16.776944
_cell_length_c 7.490014
_cell_angle_alpha 137.141214
_cell_angle_beta 90.834115
_cell_angle_gamma 91.697723
_cell_volume 627.935129
_symmetry_space_group_name_H-M "P -1"
_symmetry_group_IT_number 2
_symmetry_cell_setting 'triclinic'
loop_
_space_group_symop_operation_xyz
x,y,z
-x,-y,-z
loop_
_atom_site_type_symbol
_atom_site_label
_atom_site_fract_x
_atom_site_fract_y
_atom_site_fract_z
Si Si1 0.053754 0.530452 0.755185
Si Si2 0.044645 0.852344 0.948008
Si Si3 0.069945 0.808915 0.266191
Si Si4 0.470047 0.525922 0.831563
Si Si5 0.750912 0.356291 0.537347
Si Si6 0.443270 0.773872 0.342972
Si Si7 0.194686 0.104995 0.295920
O O1 0.260515 0.500907 0.741561
O O2 0.000000 0.500000 0.500000
O O3 0.915429 0.449751 0.739777
O O4 0.040030 0.667893 0.018379
O O5 0.003473 0.865290 0.175899
O O6 0.165044 0.964610 0.061334
O O7 0.162402 0.739112 0.742534
O O8 0.862601 0.843889 0.812026
O O9 0.286583 0.837208 0.339936
O O10 0.958402 0.851726 0.501323
O O11 0.598195 0.437523 0.589313
O O12 0.500000 0.500000 0.000000
O O13 0.512585 0.666074 0.048378
O O14 0.667429 0.287373 0.593009
O O15 0.610702 0.850821 0.552932
#
# Coordination Sequence:
#
# PCOD9039315 Si02
#       7
#     2   2   2   2   2   2   2
#     4  11  23  40  65  99 136 168 216 265 330 395
#     4  11  25  45  70  96 130 176 230 270 329 390
#     4  11  23  46  67  99 134 171 218 279 327 394
#     4   9  22  37  61  94 125 171 209 256 327 394
#     4  11  22  41  64  97 135 170 213 271 320 399
#     4  10  23  42  67  97 132 172 221 266 335 392
#     4  11  25  48  67  95 131 178 225 277 327 384
#
# _framework density 22.295294999999999
#
# number of rings (size 3 to 8) (size 9 to 14) (size 15 to 20)
#    0.000    1.429    2.857    1.286    4.000    6.857 
#    5.143    0.000    0.000    0.000    0.000    0.000 
#    0.000    0.000    0.000    0.000    0.000    0.000 
#
# Total GULP energy -78306.289369 kJ/mol
# GULP energy per Si atom -5593.306384 kJ/mol
# Density = 2.224455 g / cm^3
# Si number density = 22.295295 Si / 1000 Ang^3
#
#
#
# Elastic Constant Matrix: (Units=GPa)
#
#
# Indices 1 2 3 4 5 6 
#
# 1 121.8429 33.5797 52.5817 10.3522 34.6867 -19.2711
# 2 33.5797 61.0234 21.9080 -9.3071 7.4147 -13.4407
# 3 52.5817 21.9080 78.2192 4.2729 13.2734 -12.7503
# 4 10.3522 -9.3071 4.2729 29.4248 -2.9486 16.3960
# 5 34.6867 7.4147 13.2734 -2.9486 35.1231 -4.7845
# 6 -19.2711 -13.4407 -12.7503 16.3960 -4.7845 22.1336
#
#
#
# Elastic Compliance Matrix: (Units=1/GPa)
#
#
# Indices 1 2 3 4 5 6 
#
# 1 0.027021 -0.007736 -0.004573 -0.033861 -0.021167 0.036702
# 2 -0.007736 0.022383 -0.003051 0.012445 0.004689 -0.003105
# 3 -0.004573 -0.003051 0.019254 -0.008608 -0.001292 0.011354
# 4 -0.033861 0.012445 -0.008608 0.111490 0.029379 -0.103122
# 5 -0.021167 0.004689 -0.001292 0.029379 0.047551 -0.027810
# 6 0.036702 -0.003105 0.011354 -0.103122 -0.027810 0.152170
#
#
# Mechanical properties :
#
#
# Convention : Reuss Voigt Hill
#
# Bulk Modulus (GPa) = 26.35849 53.02493 39.69171
# Shear Modulus (GPa) = 11.81378 27.53736 19.67557
#
# Velocity S-wave (km/s) = 2.30440 3.51824 2.97391
# Velocity P-wave (km/s) = 4.35069 6.35127 5.44367
#
# Compressibility (1/GPa) = 0.03793843
#
# Stress axis : x y z
#
# Youngs Moduli (GPa) = 37.00878 44.67579 51.93832
#
# Poissons Ratio (x) = 0.34559 0.23753
# Poissons Ratio (y) = 0.28629 0.15845
# Poissons Ratio (z) = 0.16925 0.13630
#
# Static dielectric constant tensor:
#      x y z
#    x 1.805050 -0.020720 -0.012970 
#    y -0.020720 1.868490 -0.049180 
#    z -0.012970 -0.049180 1.928980 
# 
# From -- ./inp_files/140903.got.cif
#   From: 2010.05.17/outbox.cif.g08.bks.cpg/sg2_71_cif.got.tgz:140903.got - 2010.06.03 11:33:40.
