data_PCOD9039538
_publ_section_title
;
Structure prediction by ZEFSAII (Michael W. Deem and Ramdas Pophale) SiO2 
 PCOD9039538
Probable space group: P -1
;
_chemical_formula_sum "Si O2"
_cell_formula_units_Z 16
_cell_length_a 9.399263
_cell_length_b 5.241872
_cell_length_c 28.928908
_cell_angle_alpha 112.943859
_cell_angle_beta 149.067215
_cell_angle_gamma 70.538073
_cell_volume 674.695180
_symmetry_space_group_name_H-M "P -1"
_symmetry_group_IT_number 2
_symmetry_cell_setting 'triclinic'
loop_
_space_group_symop_operation_xyz
x,y,z
-x,-y,-z
loop_
_atom_site_type_symbol
_atom_site_label
_atom_site_fract_x
_atom_site_fract_y
_atom_site_fract_z
Si Si1 0.367415 0.902258 0.504078
Si Si2 0.820194 0.113545 0.360095
Si Si3 0.132870 0.156241 0.091746
Si Si4 0.264733 0.961514 0.768476
Si Si5 0.556054 0.370236 0.738105
Si Si6 0.309393 0.757067 0.947567
Si Si7 0.163348 0.430837 0.353290
Si Si8 0.945553 0.386055 0.762422
O O1 0.225421 0.609903 0.428996
O O2 0.622005 0.825255 0.602533
O O3 0.500000 0.000000 0.500000
O O4 0.121712 0.100853 0.467384
O O5 0.661855 0.401215 0.326750
O O6 0.900373 0.007936 0.323265
O O7 0.609463 0.895713 0.308849
O O8 0.254796 0.471800 0.158642
O O9 0.898008 0.134483 0.063220
O O10 0.428757 0.007976 0.162589
O O11 0.000000 0.000000 0.000000
O O12 0.184832 0.173202 0.800431
O O13 0.153829 0.671113 0.737463
O O14 0.758119 0.299761 0.747080
O O15 0.105825 0.657778 0.843188
O O16 0.500000 0.500000 0.000000
O O17 0.500000 0.000000 0.000000
O O18 0.209746 0.563238 0.325555
#
# Coordination Sequence:
#
# PCOD9039538 Si02
#       8
#     2   2   2   2   2   2   2   2
#     4  11  21  39  68 105 137 175 239 294 347 408
#     4  11  22  44  67 100 133 181 228 290 334 414
#     4  10  23  42  69 101 133 176 233 285 335 405
#     4  11  23  41  70 100 135 181 240 283 344 410
#     4  10  26  43  67  96 144 181 227 282 360 408
#     4  11  27  48  70 101 143 186 228 290 351 413
#     4  11  23  39  69 103 138 182 232 292 348 412
#     4  11  25  43  70  98 140 190 230 283 359 424
#
# _framework density 23.714411999999999
#
# number of rings (size 3 to 8) (size 9 to 14) (size 15 to 20)
#    0.000    1.250    2.500    2.250    7.000    5.000 
#    0.000    5.000    0.000    0.000    0.000    0.000 
#    0.000    0.000    0.000    0.000    0.000    0.000 
#
# Total GULP energy -89278.332668 kJ/mol
# GULP energy per Si atom -5579.895792 kJ/mol
# Density = 2.366044 g / cm^3
# Si number density = 23.714412 Si / 1000 Ang^3
#
#
#
# Elastic Constant Matrix: (Units=GPa)
#
#
# Indices 1 2 3 4 5 6 
#
# 1 144.2689 47.7661 31.8000 8.5727 30.7008 -15.1782
# 2 47.7661 82.0041 16.0844 -0.9109 9.9589 4.3830
# 3 31.8000 16.0844 82.5516 -9.2489 21.2781 -4.9617
# 4 8.5727 -0.9109 -9.2489 25.9358 0.9541 6.8898
# 5 30.7008 9.9589 21.2781 0.9541 42.9863 3.8278
# 6 -15.1782 4.3830 -4.9617 6.8898 3.8278 47.5048
#
#
#
# Elastic Compliance Matrix: (Units=1/GPa)
#
#
# Indices 1 2 3 4 5 6 
#
# 1 0.011611 -0.005959 -0.002046 -0.005986 -0.006249 0.005418
# 2 -0.005959 0.015958 -0.001055 0.003182 0.001372 -0.004058
# 3 -0.002046 -0.001055 0.015418 0.006190 -0.006121 0.000649
# 4 -0.005986 0.003182 0.006190 0.044999 0.000197 -0.008102
# 5 -0.006249 0.001372 -0.006121 0.000197 0.030904 -0.005281
# 6 0.005418 -0.004058 0.000649 -0.008102 -0.005281 0.024824
#
#
# Mechanical properties :
#
#
# Convention : Reuss Voigt Hill
#
# Bulk Modulus (GPa) = 40.21416 55.56954 47.89185
# Shear Modulus (GPa) = 29.39046 37.49700 33.44373
#
# Velocity S-wave (km/s) = 3.52426 3.98073 3.75943
# Velocity P-wave (km/s) = 5.79267 6.67922 6.25168
#
# Compressibility (1/GPa) = 0.02486687
#
# Stress axis : x y z
#
# Youngs Moduli (GPa) = 86.12613 62.66397 64.86081
#
# Poissons Ratio (x) = 0.37342 0.13271
# Poissons Ratio (y) = 0.51323 0.06842
# Poissons Ratio (z) = 0.17622 0.06610
#
# Static dielectric constant tensor:
#      x y z
#    x 1.854650 0.006740 -0.028220 
#    y 0.006740 2.009030 -0.008180 
#    z -0.028220 -0.008180 2.045790 
# 
# From -- ./inp_files/622239.got.cif
#   From: 2010.05.17/outbox.cif.g08.bks.cpg/sg2_312_cif.got.tgz:622239.got - 2010.06.03 11:33:40.
