data_PCOD9039065
_publ_section_title
;
Structure prediction by ZEFSAII (Michael W. Deem and Ramdas Pophale) SiO2 
 PCOD9039065
Probable space group: P -1
;
_chemical_formula_sum "Si O2"
_cell_formula_units_Z 14
_cell_length_a 15.249139
_cell_length_b 8.068329
_cell_length_c 15.151781
_cell_angle_alpha 104.356300
_cell_angle_beta 28.842512
_cell_angle_gamma 123.188834
_cell_volume 616.509764
_symmetry_space_group_name_H-M "P -1"
_symmetry_group_IT_number 2
_symmetry_cell_setting 'triclinic'
loop_
_space_group_symop_operation_xyz
x,y,z
-x,-y,-z
loop_
_atom_site_type_symbol
_atom_site_label
_atom_site_fract_x
_atom_site_fract_y
_atom_site_fract_z
Si Si1 0.950375 0.803296 0.814097
Si Si2 0.761488 0.152808 0.042435
Si Si3 0.779373 0.286803 0.549599
Si Si4 0.556274 0.404874 0.252317
Si Si5 0.774088 0.143968 0.730976
Si Si6 0.039559 0.935478 0.299356
Si Si7 0.141116 0.202189 0.826330
O O1 0.113253 0.754290 0.629638
O O2 0.840979 0.825369 0.827023
O O3 0.138630 0.064099 0.730718
O O4 0.734064 0.600043 0.044392
O O5 0.655669 0.275199 0.158097
O O6 0.513828 0.863559 0.233733
O O7 0.965217 0.239172 0.949127
O O8 0.886410 0.180723 0.842140
O O9 0.754180 0.158961 0.645733
O O10 0.986823 0.572269 0.418909
O O11 0.263545 0.233134 0.458703
O O12 0.615041 0.553392 0.308604
O O13 0.852251 0.020530 0.693137
O O14 0.500000 0.000000 0.000000
O O15 0.000000 0.000000 0.000000
#
# Coordination Sequence:
#
# PCOD9039065 Si02
#       7
#     2   2   2   2   2   2   2
#     4  10  23  42  66 101 138 172 228 279 331 395
#     4  11  22  43  70  99 142 178 225 276 341 394
#     4  11  24  44  69 101 135 174 227 283 337 409
#     4  11  23  45  68 100 141 183 229 271 333 401
#     4  11  25  44  71  99 133 179 229 277 348 405
#     4  11  24  42  71  97 138 180 225 284 333 398
#     4   9  22  42  68 100 138 181 226 274 329 403
#
# _framework density 22.708480000000002
#
# number of rings (size 3 to 8) (size 9 to 14) (size 15 to 20)
#    0.000    1.429    2.857    1.286    6.000    2.857 
#    2.571    2.857    0.000    0.000    0.000    0.000 
#    0.000    0.000    0.000    0.000    0.000    0.000 
#
# Total GULP energy -78195.801069 kJ/mol
# GULP energy per Si atom -5585.414362 kJ/mol
# Density = 2.265679 g / cm^3
# Si number density = 22.708480 Si / 1000 Ang^3
#
#
#
# Elastic Constant Matrix: (Units=GPa)
#
#
# Indices 1 2 3 4 5 6 
#
# 1 79.4721 -23.8420 10.9482 -14.4479 2.2984 -8.7333
# 2 -23.8420 48.1561 9.4240 -2.2147 0.2167 -0.9052
# 3 10.9482 9.4240 90.7485 -3.4717 10.1155 2.0725
# 4 -14.4479 -2.2147 -3.4717 42.0368 -3.1171 1.4614
# 5 2.2984 0.2167 10.1155 -3.1171 40.9594 -2.3408
# 6 -8.7333 -0.9052 2.0725 1.4614 -2.3408 21.5006
#
#
#
# Elastic Compliance Matrix: (Units=1/GPa)
#
#
# Indices 1 2 3 4 5 6 
#
# 1 0.017964 0.009949 -0.003210 0.006214 0.000643 0.007673
# 2 0.009949 0.026781 -0.004041 0.004380 0.000938 0.005363
# 3 -0.003210 -0.004041 0.012214 -0.000428 -0.003016 -0.002950
# 4 0.006214 0.004380 -0.000428 0.026213 0.001795 0.001164
# 5 0.000643 0.000938 -0.003016 0.001795 0.025440 0.003239
# 6 0.007673 0.005363 -0.002950 0.001164 0.003239 0.050411
#
#
# Mechanical properties :
#
#
# Convention : Reuss Voigt Hill
#
# Bulk Modulus (GPa) = 16.03691 23.49302 19.76497
# Shear Modulus (GPa) = 28.66817 35.68913 32.17865
#
# Velocity S-wave (km/s) = 3.55694 3.96867 3.76843
# Velocity P-wave (km/s) = 4.89352 5.60075 5.25904
#
# Compressibility (1/GPa) = 0.06235613
#
# Stress axis : x y z
#
# Youngs Moduli (GPa) = 55.66552 37.34055 81.87651
#
# Poissons Ratio (x) = -0.37152 0.26280
# Poissons Ratio (y) = -0.55384 0.33085
# Poissons Ratio (z) = 0.17867 0.15089
#
# Static dielectric constant tensor:
#      x y z
#    x 1.853110 -0.012270 0.026580 
#    y -0.012270 1.877050 0.009540 
#    z 0.026580 0.009540 1.851620 
# 
# From -- ./inp_files/528711.got.cif
#   From: 2010.05.17/outbox.cif.g08.bks.cpg/sg2_265_cif.got.tgz:528711.got - 2010.06.03 11:33:40.
