data_PCOD9039216
_publ_section_title
;
Structure prediction by ZEFSAII (Michael W. Deem and Ramdas Pophale) SiO2 
 PCOD9039216
Probable space group: P -1
;
_chemical_formula_sum "Si O2"
_cell_formula_units_Z 12
_cell_length_a 5.357891
_cell_length_b 4.557083
_cell_length_c 19.024105
_cell_angle_alpha 98.138616
_cell_angle_beta 64.937930
_cell_angle_gamma 85.820360
_cell_volume 411.932057
_symmetry_space_group_name_H-M "P -1"
_symmetry_group_IT_number 2
_symmetry_cell_setting 'triclinic'
loop_
_space_group_symop_operation_xyz
x,y,z
-x,-y,-z
loop_
_atom_site_type_symbol
_atom_site_label
_atom_site_fract_x
_atom_site_fract_y
_atom_site_fract_z
Si Si1 0.537120 0.214923 0.805026
Si Si2 0.050227 0.630027 0.919768
Si Si3 0.484204 0.640368 0.333776
Si Si4 0.768845 0.302372 0.494700
Si Si5 0.683948 0.221962 0.929314
Si Si6 0.015794 0.236840 0.323094
O O1 0.442073 0.167668 0.734869
O O2 0.503388 0.105045 0.885830
O O3 0.369471 0.551677 0.852647
O O4 0.847067 0.037447 0.749649
O O5 0.913864 0.405464 0.877102
O O6 0.860606 0.950948 0.941908
O O7 0.000000 0.500000 0.000000
O O8 0.348993 0.823255 0.424261
O O9 0.252233 0.445966 0.322943
O O10 0.758359 0.432441 0.321651
O O11 0.500000 0.500000 0.500000
O O12 0.000000 0.500000 0.500000
O O13 0.901001 0.117976 0.405941
O O14 0.500000 0.500000 0.000000
#
# Coordination Sequence:
#
# PCOD9039216 Si02
#       6
#     2   2   2   2   2   2
#     4  12  28  39  72  98 148 190 246 315 372 456
#     4  12  28  49  76 107 146 196 255 312 383 457
#     4  10  23  42  67 101 143 191 246 307 374 444
#     4   8  16  37  64  93 136 188 241 300 366 442
#     4  12  28  49  76 107 146 196 255 312 383 457
#     4  10  23  42  67 101 143 191 246 307 374 444
#
# _framework density 29.131014
#
# number of rings (size 3 to 8) (size 9 to 14) (size 15 to 20)
#    0.000    1.333    1.667    2.000    9.333    0.667 
#    0.000    0.000    0.000   12.000    0.000    0.000 
#    0.000    0.000    0.000    0.000    0.000    0.000 
#
# Total GULP energy -66863.075288 kJ/mol
# GULP energy per Si atom -5571.922941 kJ/mol
# Density = 2.906471 g / cm^3
# Si number density = 29.131014 Si / 1000 Ang^3
#
#
#
# Elastic Constant Matrix: (Units=GPa)
#
#
# Indices 1 2 3 4 5 6 
#
# 1 153.7711 42.6743 -4.6954 -0.8576 8.6995 -10.8569
# 2 42.6743 156.5846 23.3312 13.2061 1.0637 -38.5817
# 3 -4.6954 23.3312 183.9005 17.8103 -19.0528 -11.7191
# 4 -0.8576 13.2061 17.8103 35.8623 -18.7250 23.0471
# 5 8.6995 1.0637 -19.0528 -18.7250 41.9409 5.0487
# 6 -10.8569 -38.5817 -11.7191 23.0471 5.0487 66.3016
#
#
#
# Elastic Compliance Matrix: (Units=1/GPa)
#
#
# Indices 1 2 3 4 5 6 
#
# 1 0.007138 -0.001877 0.000318 -0.000268 -0.001449 0.000336
# 2 -0.001877 0.011899 0.000094 -0.018421 -0.009752 0.013779
# 3 0.000318 0.000094 0.006097 -0.004729 0.000252 0.002809
# 4 -0.000268 -0.018421 -0.004729 0.089529 0.043891 -0.046062
# 5 -0.001449 -0.009752 0.000252 0.043891 0.047076 -0.024709
# 6 0.000336 0.013779 0.002809 -0.046062 -0.024709 0.041546
#
#
# Mechanical properties :
#
#
# Convention : Reuss Voigt Hill
#
# Bulk Modulus (GPa) = 45.03920 68.54183 56.79052
# Shear Modulus (GPa) = 23.40651 57.68403 40.54527
#
# Velocity S-wave (km/s) = 2.83767 4.45472 3.73476
# Velocity P-wave (km/s) = 5.12162 7.07385 6.17537
#
# Compressibility (1/GPa) = 0.02220288
#
# Stress axis : x y z
#
# Youngs Moduli (GPa) = 140.09333 84.04146 164.01609
#
# Poissons Ratio (x) = 0.15778 -0.05211
# Poissons Ratio (y) = 0.26301 -0.01544
# Poissons Ratio (z) = -0.04451 -0.00791
#
# Static dielectric constant tensor:
#      x y z
#    x 2.797700 0.123150 -0.044060 
#    y 0.123150 2.274400 -0.104710 
#    z -0.044060 -0.104710 2.255240 
# 
# From -- ./inp_files/545991.got.cif
#   From: 2010.05.17/outbox.cif.g08.bks.cpg/sg2_273_cif.got.tgz:545991.got - 2010.06.03 11:33:40.
