data_PCOD9039495
_publ_section_title
;
Structure prediction by ZEFSAII (Michael W. Deem and Ramdas Pophale) SiO2 
 PCOD9039495
Probable space group: P -1
;
_chemical_formula_sum "Si O2"
_cell_formula_units_Z 14
_cell_length_a 8.683828
_cell_length_b 11.645004
_cell_length_c 15.812376
_cell_angle_alpha 23.007773
_cell_angle_beta 95.702196
_cell_angle_gamma 101.595984
_cell_volume 596.702712
_symmetry_space_group_name_H-M "P -1"
_symmetry_group_IT_number 2
_symmetry_cell_setting 'triclinic'
loop_
_space_group_symop_operation_xyz
x,y,z
-x,-y,-z
loop_
_atom_site_type_symbol
_atom_site_label
_atom_site_fract_x
_atom_site_fract_y
_atom_site_fract_z
Si Si1 0.887576 0.091927 0.286520
Si Si2 0.662964 0.485937 0.774545
Si Si3 0.065705 0.786924 0.990545
Si Si4 0.609694 0.337285 0.063912
Si Si5 0.878603 0.230562 0.438161
Si Si6 0.598635 0.328475 0.455961
Si Si7 0.063779 0.366971 0.673690
O O1 0.775082 0.802965 0.527583
O O2 0.059947 0.068397 0.348502
O O3 0.908225 0.079457 0.193459
O O4 0.780961 0.334301 0.117199
O O5 0.500408 0.454791 0.735082
O O6 0.765920 0.243231 0.942613
O O7 0.628264 0.487712 0.870765
O O8 0.000661 0.005808 0.900162
O O9 0.943096 0.444280 0.216460
O O10 0.512989 0.973680 0.300496
O O11 0.500000 0.500000 0.000000
O O12 0.694935 0.204155 0.470225
O O13 0.972219 0.457417 0.365213
O O14 0.741450 0.524347 0.389575
O O15 0.000000 0.500000 0.500000
#
# Coordination Sequence:
#
# PCOD9039495 Si02
#       7
#     2   2   2   2   2   2   2
#     4   9  18  35  56  81 109 142 181 226 266 322
#     4   9  20  36  55  80 108 141 183 227 271 320
#     4  10  17  33  55  77 110 153 183 208 267 323
#     4  10  21  40  62  78 102 143 183 229 285 328
#     4   9  19  33  54  79 112 145 181 219 261 312
#     4   9  21  35  52  86 113 139 184 231 263 312
#     4  10  19  33  55  81 117 152 180 217 259 317
#
# _framework density 23.462271000000001
#
# number of rings (size 3 to 8) (size 9 to 14) (size 15 to 20)
#    0.857    1.714    1.429    0.429    0.000    5.143 
#    0.000    7.143    0.000    8.571    0.000    0.000 
#    0.000    0.000    0.000    0.000    0.000    0.000 
#
# Total GULP energy -77987.951893 kJ/mol
# GULP energy per Si atom -5570.567992 kJ/mol
# Density = 2.340887 g / cm^3
# Si number density = 23.462271 Si / 1000 Ang^3
#
#
#
# Elastic Constant Matrix: (Units=GPa)
#
#
# Indices 1 2 3 4 5 6 
#
# 1 71.7136 5.0724 32.9474 15.8242 5.7874 5.9111
# 2 5.0724 55.6506 33.9109 16.4860 -7.5734 -6.4466
# 3 32.9474 33.9109 167.1098 22.1763 1.0291 5.4125
# 4 15.8242 16.4860 22.1763 42.5300 -0.8905 4.4552
# 5 5.7874 -7.5734 1.0291 -0.8905 34.3569 8.8828
# 6 5.9111 -6.4466 5.4125 4.4552 8.8828 45.1168
#
#
#
# Elastic Compliance Matrix: (Units=1/GPa)
#
#
# Indices 1 2 3 4 5 6 
#
# 1 0.016529 0.001342 -0.002807 -0.005187 -0.002369 -0.000659
# 2 0.001342 0.023670 -0.004177 -0.007801 0.003958 0.003698
# 3 -0.002807 -0.004177 0.007577 -0.001200 -0.000466 -0.000928
# 4 -0.005187 -0.007801 -0.001200 0.029462 0.000823 -0.003362
# 5 -0.002369 0.003958 -0.000466 0.000823 0.031813 -0.005413
# 6 -0.000659 0.003698 -0.000928 -0.003362 -0.005413 0.024289
#
#
# Mechanical properties :
#
#
# Convention : Reuss Voigt Hill
#
# Bulk Modulus (GPa) = 27.40253 48.70392 38.05323
# Shear Modulus (GPa) = 31.89025 39.23695 35.56360
#
# Velocity S-wave (km/s) = 3.69075 4.09386 3.89752
# Velocity P-wave (km/s) = 5.46507 6.56885 6.04222
#
# Compressibility (1/GPa) = 0.03649298
#
# Stress axis : x y z
#
# Youngs Moduli (GPa) = 60.49954 42.24705 131.97400
#
# Poissons Ratio (x) = -0.05669 0.37044
# Poissons Ratio (y) = -0.08118 0.55122
# Poissons Ratio (z) = 0.16982 0.17646
#
# Static dielectric constant tensor:
#      x y z
#    x 1.936330 -0.003390 -0.040340 
#    y -0.003390 1.934110 -0.037350 
#    z -0.040340 -0.037350 1.900830 
# 
# From -- ./inp_files/73257.got.cif
#   From: 2010.05.17/outbox.cif.g08.bks.cpg/sg2_37_cif.got.tgz:73257.got - 2010.06.03 11:33:40.
