data_PCOD9039066
_publ_section_title
;
Structure prediction by ZEFSAII (Michael W. Deem and Ramdas Pophale) SiO2 
 PCOD9039066
Probable space group: P -1
;
_chemical_formula_sum "Si O2"
_cell_formula_units_Z 16
_cell_length_a 10.725831
_cell_length_b 11.822861
_cell_length_c 6.379226
_cell_angle_alpha 120.769499
_cell_angle_beta 72.148845
_cell_angle_gamma 110.962535
_cell_volume 641.334318
_symmetry_space_group_name_H-M "P -1"
_symmetry_group_IT_number 2
_symmetry_cell_setting 'triclinic'
loop_
_space_group_symop_operation_xyz
x,y,z
-x,-y,-z
loop_
_atom_site_type_symbol
_atom_site_label
_atom_site_fract_x
_atom_site_fract_y
_atom_site_fract_z
Si Si1 0.081791 0.247658 0.435506
Si Si2 0.807702 0.970816 0.065259
Si Si3 0.881221 0.391299 0.842670
Si Si4 0.727472 0.188545 0.073328
Si Si5 0.505118 0.105953 0.787605
Si Si6 0.240989 0.191340 0.685934
Si Si7 0.537876 0.297468 0.591021
Si Si8 0.728855 0.559041 0.780332
O O1 0.099805 0.121077 0.166707
O O2 0.130489 0.215160 0.607400
O O3 0.185026 0.380110 0.409589
O O4 0.941285 0.286905 0.573328
O O5 0.644611 0.912341 0.060733
O O6 0.808588 0.950155 0.297358
O O7 0.827345 0.110541 0.061080
O O8 0.803745 0.469311 0.799928
O O9 0.800110 0.308340 0.997443
O O10 0.000000 0.500000 0.000000
O O11 0.643786 0.242682 0.346351
O O12 0.615864 0.095876 0.890379
O O13 0.546223 0.249042 0.780299
O O14 0.500000 0.000000 0.500000
O O15 0.386478 0.222390 0.527969
O O16 0.271234 0.310008 0.956751
O O17 0.584178 0.460054 0.706656
#
# Coordination Sequence:
#
# PCOD9039066 Si02
#       8
#     2   2   2   2   2   2   2   2
#     4  11  24  43  70  91 137 185 221 288 329 388
#     4  10  24  40  67 101 133 175 222 270 347 405
#     4  12  25  47  71  95 136 182 238 282 324 394
#     4  12  25  42  69 104 134 182 226 272 343 403
#     4  11  22  41  67 101 139 174 219 277 336 410
#     4  10  23  42  66 101 139 173 217 283 342 406
#     4  11  23  39  69 103 137 174 218 283 343 408
#     4  11  23  45  67 101 129 178 237 275 343 398
#
# _framework density 24.947987000000001
#
# number of rings (size 3 to 8) (size 9 to 14) (size 15 to 20)
#    0.000    1.000    3.750    2.625    3.500    1.000 
#    0.000    0.625    0.000    0.000    0.000    0.000 
#    0.000    0.000    0.000    0.000    0.000    0.000 
#
# Total GULP energy -89572.197599 kJ/mol
# GULP energy per Si atom -5598.262350 kJ/mol
# Density = 2.489120 g / cm^3
# Si number density = 24.947987 Si / 1000 Ang^3
#
#
#
# Elastic Constant Matrix: (Units=GPa)
#
#
# Indices 1 2 3 4 5 6 
#
# 1 79.5834 29.3476 20.5634 -2.9425 -1.0899 -21.8438
# 2 29.3476 109.6409 19.6031 -26.7800 12.1271 -21.7743
# 3 20.5634 19.6031 85.4459 -1.6874 -7.8355 -5.7466
# 4 -2.9425 -26.7800 -1.6874 47.3180 -3.3802 3.5784
# 5 -1.0899 12.1271 -7.8355 -3.3802 45.2941 2.3751
# 6 -21.8438 -21.7743 -5.7466 3.5784 2.3751 39.7721
#
#
#
# Elastic Compliance Matrix: (Units=1/GPa)
#
#
# Indices 1 2 3 4 5 6 
#
# 1 0.016203 -0.002731 -0.002803 -0.001161 0.000178 0.007093
# 2 -0.002731 0.013305 -0.002270 0.006624 -0.003793 0.005087
# 3 -0.002803 -0.002270 0.013074 -0.000718 0.002801 -0.000996
# 4 -0.001161 0.006624 -0.000718 0.024726 -0.000115 0.000667
# 5 0.000178 -0.003793 0.002801 -0.000115 0.023730 -0.002981
# 6 0.007093 0.005087 -0.000996 0.000667 -0.002981 0.031798
#
#
# Mechanical properties :
#
#
# Convention : Reuss Voigt Hill
#
# Bulk Modulus (GPa) = 37.07060 45.96649 41.51854
# Shear Modulus (GPa) = 33.91321 40.15390 37.03355
#
# Velocity S-wave (km/s) = 3.69095 4.01622 3.85701
# Velocity P-wave (km/s) = 5.74939 6.32231 6.04264
#
# Compressibility (1/GPa) = 0.02697556
#
# Stress axis : x y z
#
# Youngs Moduli (GPa) = 61.71737 75.15864 76.48587
#
# Poissons Ratio (x) = 0.20523 0.21435
# Poissons Ratio (y) = 0.16853 0.17364
# Poissons Ratio (z) = 0.17296 0.17063
#
# Static dielectric constant tensor:
#      x y z
#    x 1.981180 0.049080 -0.020550 
#    y 0.049080 2.027620 0.049720 
#    z -0.020550 0.049720 1.963770 
# 
# From -- ./inp_files/71714.got.cif
#   From: 2010.05.17/outbox.cif.g08.bks.cpg/sg2_36_cif.got.tgz:71714.got - 2010.06.03 11:33:40.
