data_PCOD9039319
_publ_section_title
;
Structure prediction by ZEFSAII (Michael W. Deem and Ramdas Pophale) SiO2 
 PCOD9039319
Probable space group: P -1
;
_chemical_formula_sum "Si O2"
_cell_formula_units_Z 11
_cell_length_a 14.645064
_cell_length_b 11.680500
_cell_length_c 13.898810
_cell_angle_alpha 147.322397
_cell_angle_beta 158.843947
_cell_angle_gamma 27.421235
_cell_volume 393.786134
_symmetry_space_group_name_H-M "P -1"
_symmetry_group_IT_number 2
_symmetry_cell_setting 'triclinic'
loop_
_space_group_symop_operation_xyz
x,y,z
-x,-y,-z
loop_
_atom_site_type_symbol
_atom_site_label
_atom_site_fract_x
_atom_site_fract_y
_atom_site_fract_z
Si Si1 0.901650 0.197447 0.686054
Si Si2 0.363147 0.268439 0.128284
Si Si3 0.979710 0.022620 0.854906
Si Si4 0.883159 0.505272 0.161927
Si Si5 0.500000 0.000000 0.500000
Si Si6 0.335360 0.530645 0.750044
O O1 0.714891 0.134051 0.387495
O O2 0.752579 0.498267 0.746714
O O3 0.876475 0.133917 0.725700
O O4 0.240703 0.099714 0.925757
O O5 0.228445 0.384613 0.975306
O O6 0.705888 0.070898 0.683631
O O7 0.198463 0.731539 0.843315
O O8 0.097032 0.194516 0.141726
O O9 0.073395 0.608933 0.467996
O O10 0.604763 0.545642 0.978577
O O11 0.616279 0.736116 0.366735
#
# Coordination Sequence:
#
# PCOD9039319 Si02
#       6
#     2   2   2   2   1   2
#     4   9  18  32  60  90 124 168 208 251 310 372
#     4   9  17  35  59  90 128 168 204 249 309 376
#     4  10  23  43  67  96 130 169 217 269 321 379
#     4  10  23  42  67  97 134 171 211 259 318 383
#     4  10  24  46  70  92 126 170 216 272 332 380
#     4  11  24  43  67  98 129 167 215 269 321 383
#
# _framework density 27.933945000000001
#
# number of rings (size 3 to 8) (size 9 to 14) (size 15 to 20)
#    0.000    2.182    0.000    1.636    0.000   16.000 
#    0.000   10.909    0.000    0.000    0.000    0.000 
#    0.000    0.000    0.000    0.000    0.000    0.000 
#
# Total GULP energy -61489.885043 kJ/mol
# GULP energy per Si atom -5589.989549 kJ/mol
# Density = 2.787037 g / cm^3
# Si number density = 27.933945 Si / 1000 Ang^3
#
#
#
# Elastic Constant Matrix: (Units=GPa)
#
#
# Indices 1 2 3 4 5 6 
#
# 1 124.8424 11.4944 20.2638 -11.1570 -3.2554 15.9680
# 2 11.4944 111.8480 34.3686 35.5524 9.3559 -14.3131
# 3 20.2638 34.3686 5.7749 -71.7495 -71.3759 -14.5556
# 4 -11.1570 35.5524 -71.7495 8.5358 -33.3308 -12.9376
# 5 -3.2554 9.3559 -71.3759 -33.3308 35.8814 -4.5377
# 6 15.9680 -14.3131 -14.5556 -12.9376 -4.5377 61.0183
#
#
#
# Elastic Compliance Matrix: (Units=1/GPa)
#
#
# Indices 1 2 3 4 5 6 
#
# 1 0.008901 -0.001494 -0.001426 0.002160 0.000043 -0.002559
# 2 -0.001494 0.008456 0.002442 0.000138 0.003051 0.003213
# 3 -0.001426 0.002442 0.002427 -0.008735 -0.004133 -0.000635
# 4 0.002160 0.000138 -0.008735 0.009117 -0.008917 -0.001347
# 5 0.000043 0.003051 -0.004133 -0.008917 0.010396 -0.001399
# 6 -0.002559 0.003213 -0.000635 -0.001347 -0.001399 0.017271
#
#
# Mechanical properties :
#
#
# Convention : Reuss Voigt Hill
#
# Bulk Modulus (GPa) = 53.11476 41.63546 47.37511
# Shear Modulus (GPa) = 78.37045 32.84300 55.60672
#
# Velocity S-wave (km/s) = 5.30250 3.43262 4.46651
# Velocity P-wave (km/s) = 7.51960 5.53605 6.60274
#
# Compressibility (1/GPa) = 0.01882716
#
# Stress axis : x y z
#
# Youngs Moduli (GPa) = 112.35310 118.25868 412.05601
#
# Poissons Ratio (x) = 0.17668 0.58759
# Poissons Ratio (y) = 0.16786 -1.00619
# Poissons Ratio (z) = 0.16021 -0.28877
#
# Static dielectric constant tensor:
#      x y z
#    x 2.009930 -0.079250 0.031590 
#    y -0.079250 2.135770 0.054660 
#    z 0.031590 0.054660 2.060090 
# 
# From -- ./inp_files/303732.got.cif
#   From: 2010.05.17/outbox.cif.g08.bks.cpg/sg2_152_cif.got.tgz:303732.got - 2010.06.03 11:33:40.
