data_PCOD9039512
_publ_section_title
;
Structure prediction by ZEFSAII (Michael W. Deem and Ramdas Pophale) SiO2 
 PCOD9039512
Probable space group: P -1
;
_chemical_formula_sum "Si O2"
_cell_formula_units_Z 14
_cell_length_a 8.356738
_cell_length_b 17.956341
_cell_length_c 10.196152
_cell_angle_alpha 36.845501
_cell_angle_beta 44.359413
_cell_angle_gamma 47.449664
_cell_volume 621.380595
_symmetry_space_group_name_H-M "P -1"
_symmetry_group_IT_number 2
_symmetry_cell_setting 'triclinic'
loop_
_space_group_symop_operation_xyz
x,y,z
-x,-y,-z
loop_
_atom_site_type_symbol
_atom_site_label
_atom_site_fract_x
_atom_site_fract_y
_atom_site_fract_z
Si Si1 0.750145 0.400304 0.525694
Si Si2 0.646615 0.304299 0.008091
Si Si3 0.475340 0.787859 0.551684
Si Si4 0.146726 0.480791 0.305808
Si Si5 0.157222 0.819538 0.442193
Si Si6 0.615508 0.867979 0.699804
Si Si7 0.748131 0.010090 0.061836
O O1 0.500000 0.500000 0.500000
O O2 0.805491 0.292765 0.531411
O O3 0.948166 0.482166 0.309617
O O4 0.749877 0.329289 0.769261
O O5 0.703073 0.192139 0.245798
O O6 0.404018 0.266509 0.164031
O O7 0.698076 0.416855 0.908485
O O8 0.670923 0.654440 0.627798
O O9 0.322734 0.782673 0.520754
O O10 0.636568 0.889155 0.306751
O O11 0.000000 0.500000 0.500000
O O12 0.884042 0.857922 0.584888
O O13 0.218367 0.943599 0.167297
O O14 0.450643 0.881893 0.902824
O O15 0.500000 0.000000 0.500000
O O16 0.000000 0.000000 0.000000
#
# Coordination Sequence:
#
# PCOD9039512 Si02
#       7
#     2   2   2   2   2   2   2
#     4  11  24  46  72 102 141 188 236 290 357 422
#     4  11  23  44  71  98 138 182 235 288 347 417
#     4  12  26  45  69 107 140 186 238 290 357 418
#     4  10  23  42  68  99 138 183 230 291 355 415
#     4  12  26  45  71 106 147 183 238 295 351 424
#     4  12  24  45  74 106 138 193 237 286 358 417
#     4  12  24  46  74 102 145 190 235 291 354 421
#
# _framework density 22.530477000000001
#
# number of rings (size 3 to 8) (size 9 to 14) (size 15 to 20)
#    0.000    0.571    4.286    4.286    2.000    1.714 
#    5.143    2.857    0.000    0.000    0.000    0.000 
#    0.000    0.000    0.000    0.000    0.000    0.000 
#
# Total GULP energy -77957.582333 kJ/mol
# GULP energy per Si atom -5568.398738 kJ/mol
# Density = 2.247920 g / cm^3
# Si number density = 22.530477 Si / 1000 Ang^3
#
#
#
# Elastic Constant Matrix: (Units=GPa)
#
#
# Indices 1 2 3 4 5 6 
#
# 1 168.2583 60.4308 52.8303 0.9641 -23.7065 -4.4689
# 2 60.4308 104.7423 40.4978 10.7445 -22.1184 -14.9356
# 3 52.8303 40.4978 88.5445 4.6456 -31.9466 11.8410
# 4 0.9641 10.7445 4.6456 34.7198 20.9847 -6.9719
# 5 -23.7065 -22.1184 -31.9466 20.9847 49.2618 -1.8478
# 6 -4.4689 -14.9356 11.8410 -6.9719 -1.8478 37.9872
#
#
#
# Elastic Compliance Matrix: (Units=1/GPa)
#
#
# Indices 1 2 3 4 5 6 
#
# 1 0.008354 -0.003566 -0.004073 0.002383 -0.001191 0.001230
# 2 -0.003566 0.015757 -0.003049 -0.007265 0.006691 0.005718
# 3 -0.004073 -0.003049 0.024126 -0.015628 0.018556 -0.011164
# 4 0.002383 -0.007265 -0.015628 0.057160 -0.036186 0.011026
# 5 -0.001191 0.006691 0.018556 -0.036186 0.049897 -0.007508
# 6 0.001230 0.005718 -0.011164 0.011026 -0.007508 0.033856
#
#
# Mechanical properties :
#
#
# Convention : Reuss Voigt Hill
#
# Bulk Modulus (GPa) = 37.22691 74.34034 55.78363
# Shear Modulus (GPa) = 22.78134 38.24615 30.51375
#
# Velocity S-wave (km/s) = 3.18328 4.12458 3.68412
# Velocity P-wave (km/s) = 5.48360 7.46659 6.55056
#
# Compressibility (1/GPa) = 0.02686229
#
# Stress axis : x y z
#
# Youngs Moduli (GPa) = 119.70538 63.46490 41.44918
#
# Poissons Ratio (x) = 0.22630 0.16881
# Poissons Ratio (y) = 0.42683 0.12636
# Poissons Ratio (z) = 0.48753 0.19348
#
# Static dielectric constant tensor:
#      x y z
#    x 1.876930 0.124540 0.128540 
#    y 0.124540 1.767660 -0.220440 
#    z 0.128540 -0.220440 1.309230 
# 
# From -- ./inp_files/404426.got.cif
#   From: 2010.05.17/outbox.cif.g08.bks.cpg/sg2_203_cif.got.tgz:404426.got - 2010.06.03 11:33:40.
