data_PCOD9039583
_publ_section_title
;
Structure prediction by ZEFSAII (Michael W. Deem and Ramdas Pophale) SiO2 
 PCOD9039583
Probable space group: P -1
;
_chemical_formula_sum "Si O2"
_cell_formula_units_Z 16
_cell_length_a 12.628628
_cell_length_b 5.292259
_cell_length_c 11.869976
_cell_angle_alpha 116.380412
_cell_angle_beta 101.538090
_cell_angle_gamma 93.398469
_cell_volume 686.351838
_symmetry_space_group_name_H-M "P -1"
_symmetry_group_IT_number 2
_symmetry_cell_setting 'triclinic'
loop_
_space_group_symop_operation_xyz
x,y,z
-x,-y,-z
loop_
_atom_site_type_symbol
_atom_site_label
_atom_site_fract_x
_atom_site_fract_y
_atom_site_fract_z
Si Si1 0.931762 0.245226 0.059855
Si Si2 0.732012 0.384086 0.415043
Si Si3 0.544321 0.637749 0.361059
Si Si4 0.678874 0.212611 0.608535
Si Si5 0.104930 0.777946 0.210012
Si Si6 0.730788 0.022184 0.130459
Si Si7 0.605012 0.488854 0.097177
Si Si8 0.057291 0.217710 0.460713
O O1 0.835228 0.117687 0.095928
O O2 0.012499 0.516802 0.180032
O O3 0.889379 0.292365 0.934826
O O4 0.000000 0.000000 0.000000
O O5 0.602262 0.390524 0.377680
O O6 0.748434 0.331835 0.538078
O O7 0.755749 0.154704 0.285653
O O8 0.815258 0.670259 0.456947
O O9 0.414250 0.603816 0.339220
O O10 0.581080 0.642022 0.239791
O O11 0.606291 0.913108 0.495958
O O12 0.770577 0.198473 0.717160
O O13 0.062749 0.054857 0.309897
O O14 0.638680 0.187328 0.084418
O O15 0.698171 0.687204 0.083134
O O16 0.500000 0.500000 0.000000
O O17 0.000000 0.500000 0.500000
O O18 0.000000 0.000000 0.500000
#
# Coordination Sequence:
#
# PCOD9039583 Si02
#       8
#     2   2   2   2   2   2   2   2
#     4  11  29  49  74 105 152 205 252 312 373 460
#     4  11  23  43  70 108 146 190 247 307 379 443
#     4  10  23  42  69 106 145 190 242 304 380 441
#     4  11  22  44  73 103 149 188 240 313 373 449
#     4  11  27  49  71 112 146 196 258 305 383 454
#     4  11  26  46  76 101 150 193 250 310 370 439
#     4  11  25  47  71 108 144 197 251 306 369 450
#     4  12  27  44  75 109 146 192 247 314 377 444
#
# _framework density 23.311658000000001
#
# number of rings (size 3 to 8) (size 9 to 14) (size 15 to 20)
#    0.000    1.000    2.500    2.250   10.500    0.000 
#    0.000    0.000    0.000    0.000    0.000    0.000 
#    0.000    0.000    0.000    0.000    0.000    0.000 
#
# Total GULP energy -89410.408049 kJ/mol
# GULP energy per Si atom -5588.150503 kJ/mol
# Density = 2.325860 g / cm^3
# Si number density = 23.311658 Si / 1000 Ang^3
#
#
#
# Elastic Constant Matrix: (Units=GPa)
#
#
# Indices 1 2 3 4 5 6 
#
# 1 116.7358 15.3615 32.8845 -4.1035 -7.4189 -8.8294
# 2 15.3615 74.7635 12.2286 -3.6176 -0.8815 2.3845
# 3 32.8845 12.2286 62.1393 6.1492 10.0461 -15.3563
# 4 -4.1035 -3.6176 6.1492 25.6150 -1.5949 -6.8879
# 5 -7.4189 -0.8815 10.0461 -1.5949 40.0916 -3.0816
# 6 -8.8294 2.3845 -15.3563 -6.8879 -3.0816 36.0406
#
#
#
# Elastic Compliance Matrix: (Units=1/GPa)
#
#
# Indices 1 2 3 4 5 6 
#
# 1 0.010924 -0.001030 -0.006285 0.003643 0.003802 0.001088
# 2 -0.001030 0.014273 -0.003112 0.002098 0.000829 -0.002051
# 3 -0.006285 -0.003112 0.023410 -0.005609 -0.006783 0.006989
# 4 0.003643 0.002098 -0.005609 0.043433 0.004395 0.007040
# 5 0.003802 0.000829 -0.006783 0.004395 0.027631 0.001189
# 6 0.001088 -0.002051 0.006989 0.007040 0.001189 0.032574
#
#
# Mechanical properties :
#
#
# Convention : Reuss Voigt Hill
#
# Bulk Modulus (GPa) = 36.03183 41.62086 38.82634
# Shear Modulus (GPa) = 27.41985 33.22705 30.32345
#
# Velocity S-wave (km/s) = 3.43334 3.77946 3.61055
# Velocity P-wave (km/s) = 5.58634 6.07772 5.83720
#
# Compressibility (1/GPa) = 0.02775324
#
# Stress axis : x y z
#
# Youngs Moduli (GPa) = 91.53878 70.06285 42.71646
#
# Poissons Ratio (x) = 0.07218 0.26846
# Poissons Ratio (y) = 0.09431 0.13293
# Poissons Ratio (z) = 0.57530 0.21804
#
# Static dielectric constant tensor:
#      x y z
#    x 1.882060 -0.041170 -0.010980 
#    y -0.041170 1.890630 0.067450 
#    z -0.010980 0.067450 1.744660 
# 
# From -- ./inp_files/78592.got.cif
#   From: 2010.05.17/outbox.cif.g08.bks.cpg/sg2_40_cif.got.tgz:78592.got - 2010.06.03 11:33:40.
