data_PCOD9039394
_publ_section_title
;
Structure prediction by ZEFSAII (Michael W. Deem and Ramdas Pophale) SiO2 
 PCOD9039394
Probable space group: P -1
;
_chemical_formula_sum "Si O2"
_cell_formula_units_Z 14
_cell_length_a 14.480730
_cell_length_b 9.472460
_cell_length_c 7.655849
_cell_angle_alpha 65.061716
_cell_angle_beta 106.657894
_cell_angle_gamma 146.069977
_cell_volume 527.355248
_symmetry_space_group_name_H-M "P -1"
_symmetry_group_IT_number 2
_symmetry_cell_setting 'triclinic'
loop_
_space_group_symop_operation_xyz
x,y,z
-x,-y,-z
loop_
_atom_site_type_symbol
_atom_site_label
_atom_site_fract_x
_atom_site_fract_y
_atom_site_fract_z
Si Si1 0.794114 0.614414 0.580291
Si Si2 0.306863 0.256824 0.063093
Si Si3 0.786997 0.523318 0.017657
Si Si4 0.689324 0.800504 0.491048
Si Si5 0.088579 0.722284 0.076882
Si Si6 0.156097 0.601190 0.472010
Si Si7 0.590595 0.000769 0.307604
O O1 0.800980 0.809368 0.468824
O O2 0.885738 0.631420 0.477990
O O3 0.598596 0.304456 0.622978
O O4 0.841892 0.632545 0.793807
O O5 0.285703 0.169164 0.299464
O O6 0.215434 0.033388 0.984283
O O7 0.500000 0.500000 0.000000
O O8 0.248305 0.358677 0.974446
O O9 0.627848 0.199690 0.105864
O O10 0.930536 0.606757 0.137201
O O11 0.500000 0.500000 0.500000
O O12 0.699674 0.989355 0.325394
O O13 0.189317 0.728132 0.238647
O O14 0.000000 0.500000 0.000000
O O15 0.324345 0.838821 0.548027
O O16 0.000000 0.500000 0.500000
#
# Coordination Sequence:
#
# PCOD9039394 Si02
#       7
#     2   2   2   2   2   2   2
#     4  10  23  42  68 102 144 185 241 293 351 425
#     4  11  26  46  73 107 143 187 243 294 354 420
#     4  11  24  43  71 103 141 187 232 290 362 428
#     4   9  21  43  66 100 146 177 227 304 350 410
#     4  12  25  46  72 100 149 190 238 292 355 431
#     4  12  24  43  68 100 140 188 238 295 360 419
#     4  11  22  41  73 100 139 186 238 294 357 419
#
# _framework density 26.54757
#
# number of rings (size 3 to 8) (size 9 to 14) (size 15 to 20)
#    0.000    1.143    4.286    1.286    2.000    5.714 
#    0.000    0.714    0.000    0.000    0.000    0.000 
#    0.000    0.000    0.000    0.000    0.000    0.000 
#
# Total GULP energy -78335.212813 kJ/mol
# GULP energy per Si atom -5595.372344 kJ/mol
# Density = 2.648715 g / cm^3
# Si number density = 26.547570 Si / 1000 Ang^3
#
#
#
# Elastic Constant Matrix: (Units=GPa)
#
#
# Indices 1 2 3 4 5 6 
#
# 1 186.4983 52.2342 20.7489 -0.5236 -1.7546 -47.9716
# 2 52.2342 175.5513 38.8830 2.3676 -4.9626 -18.8679
# 3 20.7489 38.8830 80.4570 18.1987 8.6416 -11.0217
# 4 -0.5236 2.3676 18.1987 39.6841 -3.4897 6.5920
# 5 -1.7546 -4.9626 8.6416 -3.4897 33.4907 -1.0723
# 6 -47.9716 -18.8679 -11.0217 6.5920 -1.0723 65.8348
#
#
#
# Elastic Compliance Matrix: (Units=1/GPa)
#
#
# Indices 1 2 3 4 5 6 
#
# 1 0.007026 -0.001483 -0.000410 -0.000374 0.000365 0.004670
# 2 -0.001483 0.006968 -0.003456 0.001284 0.001988 0.000242
# 3 -0.000410 -0.003456 0.017068 -0.008519 -0.005751 0.002327
# 4 -0.000374 0.001284 -0.008519 0.030206 0.005380 -0.004268
# 5 0.000365 0.001988 -0.005751 0.005380 0.032213 -0.000141
# 6 0.004670 0.000242 0.002327 -0.004268 -0.000141 0.019476
#
#
# Mechanical properties :
#
#
# Convention : Reuss Voigt Hill
#
# Bulk Modulus (GPa) = 49.10399 74.02654 61.56526
# Shear Modulus (GPa) = 38.33071 49.84463 44.08767
#
# Velocity S-wave (km/s) = 3.80393 4.33778 4.07960
# Velocity P-wave (km/s) = 6.15060 7.28241 6.74030
#
# Compressibility (1/GPa) = 0.02036494
#
# Stress axis : x y z
#
# Youngs Moduli (GPa) = 142.32047 143.51756 58.58768
#
# Poissons Ratio (x) = 0.21277 0.02404
# Poissons Ratio (y) = 0.21099 0.20248
# Poissons Ratio (z) = 0.05841 0.49599
#
# Static dielectric constant tensor:
#      x y z
#    x 2.124380 0.011220 -0.120070 
#    y 0.011220 2.048840 -0.049110 
#    z -0.120070 -0.049110 2.257780 
# 
# From -- ./inp_files/294936.got.cif
#   From: 2010.05.17/outbox.cif.g08.bks.cpg/sg2_148_cif.got.tgz:294936.got - 2010.06.03 11:33:40.
