data_PCOD9039513
_publ_section_title
;
Structure prediction by ZEFSAII (Michael W. Deem and Ramdas Pophale) SiO2 
 PCOD9039513
Probable space group: P -1
;
_chemical_formula_sum "Si O2"
_cell_formula_units_Z 12
_cell_length_a 23.974490
_cell_length_b 5.234332
_cell_length_c 15.301436
_cell_angle_alpha 98.213046
_cell_angle_beta 162.605297
_cell_angle_gamma 87.768649
_cell_volume 536.500256
_symmetry_space_group_name_H-M "P -1"
_symmetry_group_IT_number 2
_symmetry_cell_setting 'triclinic'
loop_
_space_group_symop_operation_xyz
x,y,z
-x,-y,-z
loop_
_atom_site_type_symbol
_atom_site_label
_atom_site_fract_x
_atom_site_fract_y
_atom_site_fract_z
Si Si1 0.171395 0.822438 0.676532
Si Si2 0.638694 0.309960 0.216155
Si Si3 0.542770 0.744818 0.506013
Si Si4 0.222572 0.617140 0.378758
Si Si5 0.744328 0.608351 0.088146
Si Si6 0.777406 0.909474 0.703770
O O1 0.223320 0.703869 0.658528
O O2 0.212467 0.617316 0.797610
O O3 0.939321 0.777219 0.332489
O O4 0.284222 0.143355 0.883621
O O5 0.763631 0.361773 0.495728
O O6 0.500000 0.500000 0.000000
O O7 0.500000 0.000000 0.000000
O O8 0.500000 0.500000 0.500000
O O9 0.748078 0.880499 0.763055
O O10 0.500000 0.000000 0.500000
O O11 0.399824 0.582459 0.207834
O O12 0.322054 0.391595 0.496524
O O13 0.314305 0.885624 0.470807
O O14 0.000000 0.500000 0.000000
O O15 0.000000 0.000000 0.000000
#
# Coordination Sequence:
#
# PCOD9039513 Si02
#       6
#     2   2   2   2   2   2
#     4  10  23  44  66  95 134 180 231 284 341 421
#     4  12  26  40  67 107 138 176 237 294 346 423
#     4  12  26  43  69 104 139 180 234 293 346 423
#     4  10  23  44  66  99 138 190 224 283 360 422
#     4  10  23  43  70  93 131 187 228 280 350 412
#     4  10  23  42  68  99 139 183 229 282 363 418
#
# _framework density 22.367186
#
# number of rings (size 3 to 8) (size 9 to 14) (size 15 to 20)
#    0.000    1.333    0.000    4.000    7.000    5.333 
#    0.000    0.000    0.000    0.000    0.000    0.000 
#    0.000    0.000    0.000    0.000    0.000    0.000 
#
# Total GULP energy -66832.974177 kJ/mol
# GULP energy per Si atom -5569.414515 kJ/mol
# Density = 2.231628 g / cm^3
# Si number density = 22.367186 Si / 1000 Ang^3
#
#
#
# Elastic Constant Matrix: (Units=GPa)
#
#
# Indices 1 2 3 4 5 6 
#
# 1 189.7099 40.0775 44.3259 2.6847 -12.5574 -2.0618
# 2 40.0775 189.2860 20.4942 29.3545 -10.0379 1.2923
# 3 44.3259 20.4942 89.8873 7.7883 -21.0102 -5.0183
# 4 2.6847 29.3545 7.7883 23.2197 -0.6172 -9.9193
# 5 -12.5574 -10.0379 -21.0102 -0.6172 40.1415 3.0678
# 6 -2.0618 1.2923 -5.0183 -9.9193 3.0678 44.3851
#
#
#
# Elastic Compliance Matrix: (Units=1/GPa)
#
#
# Indices 1 2 3 4 5 6 
#
# 1 0.006210 -0.001332 -0.002897 0.002141 0.000090 0.000472
# 2 -0.001332 0.007214 0.000084 -0.010072 0.001476 -0.002615
# 3 -0.002897 0.000084 0.014467 -0.004425 0.006615 0.000053
# 4 0.002141 -0.010072 -0.004425 0.063020 -0.004287 0.014273
# 5 0.000090 0.001476 0.006615 -0.004287 0.028877 -0.002245
# 6 0.000472 -0.002615 0.000053 0.014273 -0.002245 0.025979
#
#
# Mechanical properties :
#
#
# Convention : Reuss Voigt Hill
#
# Bulk Modulus (GPa) = 51.01696 75.40870 63.21283
# Shear Modulus (GPa) = 31.13499 45.81497 38.47498
#
# Velocity S-wave (km/s) = 3.73499 4.53074 4.15197
# Velocity P-wave (km/s) = 6.43883 7.82031 7.16296
#
# Compressibility (1/GPa) = 0.01960132
#
# Stress axis : x y z
#
# Youngs Moduli (GPa) = 161.02537 138.61817 69.12313
#
# Poissons Ratio (x) = 0.18460 0.20024
# Poissons Ratio (y) = 0.21444 -0.00578
# Poissons Ratio (z) = 0.46647 -0.01159
#
# Static dielectric constant tensor:
#      x y z
#    x 1.816280 -0.010570 -0.007650 
#    y -0.010570 1.857160 -0.000110 
#    z -0.007650 -0.000110 1.726680 
# 
# From -- ./inp_files/542222.got.cif
#   From: 2010.05.17/outbox.cif.g08.bks.cpg/sg2_272_cif.got.tgz:542222.got - 2010.06.03 11:33:40.
