data_PCOD9039916
_publ_section_title
;
Structure prediction by ZEFSAII (Michael W. Deem and Ramdas Pophale) SiO2 
 PCOD9039916
Probable space group: P -1
;
_chemical_formula_sum "Si O2"
_cell_formula_units_Z 16
_cell_length_a 11.138993
_cell_length_b 9.340675
_cell_length_c 9.488255
_cell_angle_alpha 45.836978
_cell_angle_beta 109.124400
_cell_angle_gamma 110.409355
_cell_volume 658.447162
_symmetry_space_group_name_H-M "P -1"
_symmetry_group_IT_number 2
_symmetry_cell_setting 'triclinic'
loop_
_space_group_symop_operation_xyz
x,y,z
-x,-y,-z
loop_
_atom_site_type_symbol
_atom_site_label
_atom_site_fract_x
_atom_site_fract_y
_atom_site_fract_z
Si Si1 0.246600 0.649266 0.632262
Si Si2 0.130033 0.453584 0.012151
Si Si3 0.204935 0.060107 0.347211
Si Si4 0.507448 0.095467 0.783114
Si Si5 0.221061 0.080796 0.666874
Si Si6 0.240564 0.698313 0.130995
Si Si7 0.481393 0.259829 0.198401
Si Si8 0.885743 0.557037 0.509029
O O1 0.394348 0.742832 0.655573
O O2 0.230909 0.479836 0.624026
O O3 0.186685 0.839788 0.423300
O O4 0.178068 0.559855 0.811262
O O5 0.114519 0.212733 0.158515
O O6 0.240687 0.536648 0.115278
O O7 0.000000 0.500000 0.000000
O O8 0.189106 0.018446 0.536355
O O9 0.347039 0.181499 0.278051
O O10 0.374541 0.177897 0.650945
O O11 0.637843 0.256842 0.746261
O O12 0.513332 0.906690 0.809143
O O13 0.500000 0.000000 0.000000
O O14 0.124986 0.227490 0.577145
O O15 0.217736 0.896886 0.901526
O O16 0.128580 0.597076 0.260792
O O17 0.500000 0.500000 0.000000
O O18 0.000000 0.500000 0.500000
#
# Coordination Sequence:
#
# PCOD9039916 Si02
#       8
#     2   2   2   2   2   2   2   2
#     4  12  26  46  72 107 146 182 238 305 355 422
#     4  12  26  46  73 104 141 193 248 292 347 423
#     4  12  25  45  76 106 140 188 244 289 368 432
#     4  10  23  42  72 107 143 182 232 285 366 434
#     4  11  25  45  75 102 143 186 235 292 362 431
#     4  11  24  47  71 104 145 183 236 295 352 425
#     4  12  25  43  72 109 149 185 230 303 368 430
#     4  12  29  47  70 105 142 189 245 290 356 420
#
# _framework density 24.299593999999999
#
# number of rings (size 3 to 8) (size 9 to 14) (size 15 to 20)
#    0.000    0.500    5.000    2.625    5.250    3.500 
#    0.000    0.000    0.000    0.000    0.000    0.000 
#    0.000    0.000    0.000    0.000    0.000    0.000 
#
# Total GULP energy -89457.979624 kJ/mol
# GULP energy per Si atom -5591.123726 kJ/mol
# Density = 2.424429 g / cm^3
# Si number density = 24.299594 Si / 1000 Ang^3
#
#
#
# Elastic Constant Matrix: (Units=GPa)
#
#
# Indices 1 2 3 4 5 6 
#
# 1 82.1583 12.1414 17.9425 -7.8880 -1.1993 -16.5700
# 2 12.1414 104.5991 7.4239 4.2785 1.1410 -2.2607
# 3 17.9425 7.4239 99.0642 -17.8951 -19.6479 -14.7000
# 4 -7.8880 4.2785 -17.8951 42.0275 -10.7040 4.6327
# 5 -1.1993 1.1410 -19.6479 -10.7040 38.3965 3.7747
# 6 -16.5700 -2.2607 -14.7000 4.6327 3.7747 36.9076
#
#
#
# Elastic Compliance Matrix: (Units=1/GPa)
#
#
# Indices 1 2 3 4 5 6 
#
# 1 0.013931 -0.001455 -0.001414 0.001464 -0.000374 0.005457
# 2 -0.001455 0.009918 -0.001193 -0.002175 -0.001548 -0.000089
# 3 -0.001414 -0.001193 0.014109 0.007853 0.009106 0.002995
# 4 0.001464 -0.002175 0.007853 0.031107 0.012956 -0.001578
# 5 -0.000374 -0.001548 0.009106 0.012956 0.034526 -0.001793
# 6 0.005457 -0.000089 0.002995 -0.001578 -0.001793 0.031113
#
#
# Mechanical properties :
#
#
# Convention : Reuss Voigt Hill
#
# Bulk Modulus (GPa) = 33.51861 40.09303 36.80582
# Shear Modulus (GPa) = 32.72848 40.02057 36.37453
#
# Velocity S-wave (km/s) = 3.67396 4.06268 3.87320
# Velocity P-wave (km/s) = 5.64102 6.20826 5.93143
#
# Compressibility (1/GPa) = 0.02983418
#
# Stress axis : x y z
#
# Youngs Moduli (GPa) = 71.78223 100.82930 70.87761
#
# Poissons Ratio (x) = 0.14666 0.10023
# Poissons Ratio (y) = 0.10441 0.08456
# Poissons Ratio (z) = 0.10151 0.12029
#
# Static dielectric constant tensor:
#      x y z
#    x 2.140960 0.155140 0.032440 
#    y 0.155140 2.010010 -0.012510 
#    z 0.032440 -0.012510 1.914240 
# 
# From -- ./inp_files/242176.got.cif
#   From: 2010.05.17/outbox.cif.g08.bks.cpg/sg2_122_cif.got.tgz:242176.got - 2010.06.03 11:33:40.
