data_PCOD9039275
_publ_section_title
;
Structure prediction by ZEFSAII (Michael W. Deem and Ramdas Pophale) SiO2 
 PCOD9039275
Probable space group: P -1
;
_chemical_formula_sum "Si O2"
_cell_formula_units_Z 16
_cell_length_a 8.568251
_cell_length_b 7.774689
_cell_length_c 11.416014
_cell_angle_alpha 96.703106
_cell_angle_beta 66.834787
_cell_angle_gamma 111.368492
_cell_volume 650.790866
_symmetry_space_group_name_H-M "P -1"
_symmetry_group_IT_number 2
_symmetry_cell_setting 'triclinic'
loop_
_space_group_symop_operation_xyz
x,y,z
-x,-y,-z
loop_
_atom_site_type_symbol
_atom_site_label
_atom_site_fract_x
_atom_site_fract_y
_atom_site_fract_z
Si Si1 0.738412 0.546616 0.176124
Si Si2 0.977786 0.289602 0.711367
Si Si3 0.250591 0.542890 0.328444
Si Si4 0.706659 0.016056 0.933241
Si Si5 0.789151 0.644728 0.902352
Si Si6 0.215578 0.811486 0.822553
Si Si7 0.437465 0.165797 0.639884
Si Si8 0.662055 0.685259 0.516635
O O1 0.677391 0.333962 0.216513
O O2 0.638481 0.679562 0.266330
O O3 0.935317 0.620407 0.184078
O O4 0.747212 0.562227 0.036863
O O5 0.939521 0.434728 0.646147
O O6 0.140403 0.246629 0.598646
O O7 0.804753 0.122288 0.795176
O O8 0.306341 0.510960 0.177447
O O9 0.355899 0.735537 0.376545
O O10 0.284065 0.380445 0.380445
O O11 0.723712 0.816154 0.916801
O O12 0.500000 0.000000 0.000000
O O13 0.793235 0.118135 0.036894
O O14 0.008342 0.727213 0.832675
O O15 0.325644 0.980544 0.722511
O O16 0.411469 0.162805 0.506843
O O17 0.500000 0.500000 0.500000
#
# Coordination Sequence:
#
# PCOD9039275 Si02
#       8
#     2   2   2   2   2   2   2   2
#     4  11  22  39  66  97 131 179 221 274 337 417
#     4  11  21  42  67  99 133 176 225 278 338 407
#     4  11  23  41  66  97 132 176 226 287 335 391
#     4  12  26  40  65 103 144 180 221 276 341 417
#     4  12  23  41  64  97 140 178 224 276 342 407
#     4  12  22  42  65  95 137 179 222 268 343 411
#     4  10  23  42  67  94 133 178 225 277 343 400
#     4   9  21  43  71  93 127 180 231 280 339 396
#
# _framework density 24.585471999999999
#
# number of rings (size 3 to 8) (size 9 to 14) (size 15 to 20)
#    0.000    1.000    3.750    4.125    1.750    0.500 
#    0.000    2.500    0.000    6.750    0.000    0.000 
#    0.000    0.000    0.000    0.000    0.000    0.000 
#
# Total GULP energy -89284.126291 kJ/mol
# GULP energy per Si atom -5580.257893 kJ/mol
# Density = 2.452951 g / cm^3
# Si number density = 24.585472 Si / 1000 Ang^3
#
#
#
# Elastic Constant Matrix: (Units=GPa)
#
#
# Indices 1 2 3 4 5 6 
#
# 1 93.4999 11.9518 30.9379 1.0010 14.4640 3.3179
# 2 11.9518 78.2028 24.3830 -25.1236 -2.6370 -18.8774
# 3 30.9379 24.3830 125.4460 -37.4324 32.4439 3.4931
# 4 1.0010 -25.1236 -37.4324 43.5969 -5.4272 1.8641
# 5 14.4640 -2.6370 32.4439 -5.4272 51.1475 -1.7458
# 6 3.3179 -18.8774 3.4931 1.8641 -1.7458 39.2037
#
#
#
# Elastic Compliance Matrix: (Units=1/GPa)
#
#
# Indices 1 2 3 4 5 6 
#
# 1 0.012715 -0.003138 -0.003471 -0.005262 -0.002186 -0.002125
# 2 -0.003138 0.019357 -0.001243 0.010267 0.004084 0.009391
# 3 -0.003471 -0.001243 0.014153 0.010746 -0.007001 -0.002388
# 4 -0.005262 0.010267 0.010746 0.038006 -0.000678 0.002594
# 5 -0.002186 0.004084 -0.007001 -0.000678 0.024883 0.003915
# 6 -0.002125 0.009391 -0.002388 0.002594 0.003915 0.030473
#
#
# Mechanical properties :
#
#
# Convention : Reuss Voigt Hill
#
# Bulk Modulus (GPa) = 32.76436 47.96601 40.36519
# Shear Modulus (GPa) = 30.21784 42.11468 36.16626
#
# Velocity S-wave (km/s) = 3.50965 4.14332 3.83958
# Velocity P-wave (km/s) = 5.45703 6.51473 6.00919
#
# Compressibility (1/GPa) = 0.03052096
#
# Stress axis : x y z
#
# Youngs Moduli (GPa) = 78.64756 51.66031 70.65659
#
# Poissons Ratio (x) = 0.16211 0.24528
# Poissons Ratio (y) = 0.24680 0.08779
# Poissons Ratio (z) = 0.27302 0.06419
#
# Static dielectric constant tensor:
#      x y z
#    x 2.027630 -0.020200 -0.034870 
#    y -0.020200 1.998560 0.036820 
#    z -0.034870 0.036820 1.983810 
# 
# From -- ./inp_files/379137.got.cif
#   From: 2010.05.17/outbox.cif.g08.bks.cpg/sg2_190_cif.got.tgz:379137.got - 2010.06.03 11:33:40.
