data_PCOD9039339
_publ_section_title
;
Structure prediction by ZEFSAII (Michael W. Deem and Ramdas Pophale) SiO2 
 PCOD9039339
Probable space group: P -1
;
_chemical_formula_sum "Si O2"
_cell_formula_units_Z 14
_cell_length_a 6.574997
_cell_length_b 17.586735
_cell_length_c 11.147864
_cell_angle_alpha 134.543615
_cell_angle_beta 101.902412
_cell_angle_gamma 110.540929
_cell_volume 632.545656
_symmetry_space_group_name_H-M "P -1"
_symmetry_group_IT_number 2
_symmetry_cell_setting 'triclinic'
loop_
_space_group_symop_operation_xyz
x,y,z
-x,-y,-z
loop_
_atom_site_type_symbol
_atom_site_label
_atom_site_fract_x
_atom_site_fract_y
_atom_site_fract_z
Si Si1 0.990407 0.798074 0.972078
Si Si2 0.397012 0.581375 0.051823
Si Si3 0.758351 0.317278 0.642866
Si Si4 0.664843 0.835701 0.806165
Si Si5 0.189021 0.665265 0.756659
Si Si6 0.710555 0.828095 0.177278
Si Si7 0.613568 0.037186 0.416990
O O1 0.965180 0.664942 0.793388
O O2 0.772810 0.770472 0.818003
O O3 0.347695 0.938726 0.176775
O O4 0.920822 0.833501 0.126545
O O5 0.322547 0.618621 0.204017
O O6 0.642776 0.741646 0.194401
O O7 0.905063 0.538378 0.193913
O O8 0.500000 0.500000 0.000000
O O9 0.518246 0.234295 0.416255
O O10 0.765038 0.204885 0.588068
O O11 0.418357 0.794111 0.823974
O O12 0.000000 0.000000 0.000000
O O13 0.000000 0.500000 0.500000
O O14 0.406674 0.710497 0.937485
O O15 0.768042 0.976262 0.358403
O O16 0.500000 0.000000 0.500000
#
# Coordination Sequence:
#
# PCOD9039339 Si02
#       7
#     2   2   2   2   2   2   2
#     4  10  24  43  69 100 135 181 230 282 343 417
#     4  11  26  44  67 104 137 183 232 290 355 417
#     4  11  25  45  69 102 142 180 229 294 353 412
#     4  11  23  44  69 105 140 178 232 281 353 417
#     4  10  23  43  69  96 136 187 230 285 340 412
#     4  10  23  42  67  99 132 175 235 281 343 420
#     4  11  22  42  70  99 137 182 226 288 345 416
#
# _framework density 22.132791000000001
#
# number of rings (size 3 to 8) (size 9 to 14) (size 15 to 20)
#    0.000    1.429    2.857    0.857    2.000    9.143 
#    5.143    0.000    0.000    0.000    0.000    0.000 
#    0.000    0.000    0.000    0.000    0.000    0.000 
#
# Total GULP energy -77946.710210 kJ/mol
# GULP energy per Si atom -5567.622158 kJ/mol
# Density = 2.208242 g / cm^3
# Si number density = 22.132791 Si / 1000 Ang^3
#
#
#
# Elastic Constant Matrix: (Units=GPa)
#
#
# Indices 1 2 3 4 5 6 
#
# 1 147.1465 49.0243 66.5769 12.9817 -18.1263 -9.6211
# 2 49.0243 85.9671 42.2346 0.6844 9.0458 6.3927
# 3 66.5769 42.2346 135.4650 0.3047 9.1494 -0.2892
# 4 12.9817 0.6844 0.3047 26.9045 -8.2330 8.0008
# 5 -18.1263 9.0458 9.1494 -8.2330 50.2477 -5.2960
# 6 -9.6211 6.3927 -0.2892 8.0008 -5.2960 20.2468
#
#
#
# Elastic Compliance Matrix: (Units=1/GPa)
#
#
# Indices 1 2 3 4 5 6 
#
# 1 0.014182 -0.007350 -0.005134 -0.008570 0.007480 0.014329
# 2 -0.007350 0.018219 -0.001691 0.005047 -0.006153 -0.012873
# 3 -0.005134 -0.001691 0.010654 0.002412 -0.003473 -0.003615
# 4 -0.008570 0.005047 0.002412 0.048771 0.000953 -0.024655
# 5 0.007480 -0.006153 -0.003473 0.000953 0.025740 0.011804
# 6 0.014329 -0.012873 -0.003615 -0.024655 0.011804 0.073043
#
#
# Mechanical properties :
#
#
# Convention : Reuss Voigt Hill
#
# Bulk Modulus (GPa) = 68.00375 76.02779 72.01577
# Shear Modulus (GPa) = 22.33533 33.52932 27.93232
#
# Velocity S-wave (km/s) = 3.18016 3.89641 3.55637
# Velocity P-wave (km/s) = 6.65407 7.39378 7.03366
#
# Compressibility (1/GPa) = 0.01470507
#
# Stress axis : x y z
#
# Youngs Moduli (GPa) = 70.51271 54.88738 93.86254
#
# Poissons Ratio (x) = 0.40340 0.48187
# Poissons Ratio (y) = 0.51824 0.15876
# Poissons Ratio (z) = 0.36200 0.09284
#
# Static dielectric constant tensor:
#      x y z
#    x 1.693290 0.133820 0.072170 
#    y 0.133820 1.839520 -0.001080 
#    z 0.072170 -0.001080 1.820020 
# 
# From -- ./inp_files/93097.got.cif
#   From: 2010.05.17/outbox.cif.g08.bks.cpg/sg2_47_cif.got.tgz:93097.got - 2010.06.03 11:33:40.
