data_PCOD9039593
_publ_section_title
;
Structure prediction by ZEFSAII (Michael W. Deem and Ramdas Pophale) SiO2 
 PCOD9039593
Probable space group: P -1
;
_chemical_formula_sum "Si O2"
_cell_formula_units_Z 14
_cell_length_a 23.067820
_cell_length_b 13.865558
_cell_length_c 9.012903
_cell_angle_alpha 31.432918
_cell_angle_beta 151.050894
_cell_angle_gamma 152.486586
_cell_volume 604.988608
_symmetry_space_group_name_H-M "P -1"
_symmetry_group_IT_number 2
_symmetry_cell_setting 'triclinic'
loop_
_space_group_symop_operation_xyz
x,y,z
-x,-y,-z
loop_
_atom_site_type_symbol
_atom_site_label
_atom_site_fract_x
_atom_site_fract_y
_atom_site_fract_z
Si Si1 0.711553 0.829737 0.186662
Si Si2 0.605822 0.960007 0.491485
Si Si3 0.088963 0.349119 0.113942
Si Si4 0.173858 0.525129 0.775964
Si Si5 0.305430 0.816098 0.148569
Si Si6 0.548266 0.444762 0.531568
Si Si7 0.118055 0.603440 0.256302
O O1 0.838758 0.786967 0.519308
O O2 0.574696 0.603169 0.245019
O O3 0.663023 0.875211 0.861897
O O4 0.738841 0.011710 0.134908
O O5 0.464737 0.936799 0.280397
O O6 0.551297 0.801930 0.432767
O O7 0.727948 0.208109 0.385899
O O8 0.203873 0.604404 0.093435
O O9 0.059029 0.385999 0.830001
O O10 0.939130 0.253250 0.988350
O O11 0.105944 0.442516 0.569752
O O12 0.295995 0.494737 0.150829
O O13 0.270746 0.706569 0.380703
O O14 0.500000 0.500000 0.500000
O O15 0.000000 0.500000 0.000000
#
# Coordination Sequence:
#
# PCOD9039593 Si02
#       7
#     2   2   2   2   2   2   2
#     4  11  23  40  66  97 135 173 215 268 324 394
#     4  12  23  41  65 102 137 169 212 268 337 398
#     4  10  24  43  67  92 134 172 228 266 322 377
#     4  11  22  42  65  96 128 176 208 277 332 378
#     4  11  22  41  66  98 133 173 217 266 326 394
#     4  11  25  37  63  99 140 167 212 267 335 396
#     4  10  23  42  69  92 122 181 225 267 317 391
#
# _framework density 23.140930999999998
#
# number of rings (size 3 to 8) (size 9 to 14) (size 15 to 20)
#    0.000    1.143    4.286    2.571    4.000    1.714 
#    0.000    0.000    0.000    4.286    0.000    0.000 
#    0.000    0.000    0.000    0.000    0.000    0.000 
#
# Total GULP energy -77970.471344 kJ/mol
# GULP energy per Si atom -5569.319382 kJ/mol
# Density = 2.308826 g / cm^3
# Si number density = 23.140931 Si / 1000 Ang^3
#
#
#
# Elastic Constant Matrix: (Units=GPa)
#
#
# Indices 1 2 3 4 5 6 
#
# 1 150.2102 23.9080 33.7266 2.5455 -5.2556 4.9243
# 2 23.9080 67.5013 8.1335 11.7050 6.8570 -0.4247
# 3 33.7266 8.1335 92.0710 4.5116 -8.8656 -8.0554
# 4 2.5455 11.7050 4.5116 27.7568 -0.6417 -6.3109
# 5 -5.2556 6.8570 -8.8656 -0.6417 44.4704 -4.0316
# 6 4.9243 -0.4247 -8.0554 -6.3109 -4.0316 30.8309
#
#
#
# Elastic Compliance Matrix: (Units=1/GPa)
#
#
# Indices 1 2 3 4 5 6 
#
# 1 0.007753 -0.002561 -0.002735 0.000413 0.000606 -0.001824
# 2 -0.002561 0.017424 -0.000693 -0.007417 -0.003370 -0.001491
# 3 -0.002735 -0.000693 0.012549 -0.000540 0.002635 0.003940
# 4 0.000413 -0.007417 -0.000540 0.041180 0.002444 0.008440
# 5 0.000606 -0.003370 0.002635 0.002444 0.024018 0.004186
# 6 -0.001824 -0.001491 0.003940 0.008440 0.004186 0.036010
#
#
# Mechanical properties :
#
#
# Convention : Reuss Voigt Hill
#
# Bulk Modulus (GPa) = 38.83693 49.03543 43.93618
# Shear Modulus (GPa) = 31.34876 36.87925 34.11400
#
# Velocity S-wave (km/s) = 3.68460 3.99642 3.84368
# Velocity P-wave (km/s) = 5.90940 6.52159 6.22302
#
# Compressibility (1/GPa) = 0.02574869
#
# Stress axis : x y z
#
# Youngs Moduli (GPa) = 128.97964 57.39154 79.68631
#
# Poissons Ratio (x) = 0.14699 0.21796
# Poissons Ratio (y) = 0.33033 0.05518
# Poissons Ratio (z) = 0.35279 0.03974
#
# Static dielectric constant tensor:
#      x y z
#    x 2.192750 0.120190 -0.004760 
#    y 0.120190 2.076270 -0.007430 
#    z -0.004760 -0.007430 1.903760 
# 
# From -- ./inp_files/188896.got.cif
#   From: 2010.05.17/outbox.cif.g08.bks.cpg/sg2_95_cif.got.tgz:188896.got - 2010.06.03 11:33:40.
