data_PCOD9039696
_publ_section_title
;
Structure prediction by ZEFSAII (Michael W. Deem and Ramdas Pophale) SiO2 
 PCOD9039696
Probable space group: P -1
;
_chemical_formula_sum "Si O2"
_cell_formula_units_Z 16
_cell_length_a 8.766897
_cell_length_b 23.242920
_cell_length_c 11.516814
_cell_angle_alpha 38.923511
_cell_angle_beta 129.167799
_cell_angle_gamma 148.841717
_cell_volume 758.651650
_symmetry_space_group_name_H-M "P -1"
_symmetry_group_IT_number 2
_symmetry_cell_setting 'triclinic'
loop_
_space_group_symop_operation_xyz
x,y,z
-x,-y,-z
loop_
_atom_site_type_symbol
_atom_site_label
_atom_site_fract_x
_atom_site_fract_y
_atom_site_fract_z
Si Si1 0.740510 0.828998 0.300900
Si Si2 0.759147 0.675182 0.236894
Si Si3 0.653977 0.877824 0.556616
Si Si4 0.265808 0.372933 0.424498
Si Si5 0.592815 0.289956 0.916079
Si Si6 0.897808 0.415756 0.202724
Si Si7 0.404150 0.066043 0.306107
Si Si8 0.563960 0.117803 0.782298
O O1 0.715623 0.712812 0.504997
O O2 0.548559 0.772189 0.180641
O O3 0.610809 0.858795 0.279480
O O4 0.095817 0.961420 0.249521
O O5 0.535343 0.535038 0.277497
O O6 0.714959 0.646494 0.399328
O O7 0.655088 0.744069 0.069456
O O8 0.083206 0.754754 0.238565
O O9 0.438502 0.712084 0.711449
O O10 0.654378 0.904462 0.648240
O O11 0.515050 0.902290 0.360212
O O12 0.000000 0.000000 0.500000
O O13 0.981853 0.339009 0.337897
O O14 0.879344 0.456783 0.798779
O O15 0.640498 0.207108 0.125022
O O16 0.000000 0.500000 0.000000
O O17 0.500000 0.000000 0.500000
O O18 0.500000 0.000000 0.000000
#
# Coordination Sequence:
#
# PCOD9039696 Si02
#       8
#     2   2   2   2   2   2   2   2
#     4  11  24  41  62 103 138 171 227 285 338 404
#     4   9  19  38  66  91 126 166 222 270 329 396
#     4  12  26  46  65  98 140 180 226 279 350 410
#     4   9  19  38  64  96 122 166 220 281 321 388
#     4  10  23  42  70 102 129 172 239 286 329 400
#     4  11  21  42  75 100 131 181 235 281 340 410
#     4  12  25  41  68  97 137 182 228 285 338 403
#     4  12  26  42  66  93 137 183 219 270 351 412
#
# _framework density 21.090047999999999
#
# number of rings (size 3 to 8) (size 9 to 14) (size 15 to 20)
#    0.000    1.250    3.750    2.625    3.500    0.500 
#    0.000    0.000    0.000    1.500    0.000    0.000 
#    0.000    0.000    0.000    0.000    0.000    0.000 
#
# Total GULP energy -89139.142518 kJ/mol
# GULP energy per Si atom -5571.196407 kJ/mol
# Density = 2.104205 g / cm^3
# Si number density = 21.090048 Si / 1000 Ang^3
#
#
#
# Elastic Constant Matrix: (Units=GPa)
#
#
# Indices 1 2 3 4 5 6 
#
# 1 41.9947 18.7158 15.1210 -5.8510 13.6012 6.2413
# 2 18.7158 125.1358 22.7239 -7.6975 -10.3245 13.4405
# 3 15.1210 22.7239 111.4770 2.2380 7.6827 -5.0717
# 4 -5.8510 -7.6975 2.2380 15.1209 -4.2510 -8.0902
# 5 13.6012 -10.3245 7.6827 -4.2510 31.3806 -1.0408
# 6 6.2413 13.4405 -5.0717 -8.0902 -1.0408 35.8356
#
#
#
# Elastic Compliance Matrix: (Units=1/GPa)
#
#
# Indices 1 2 3 4 5 6 
#
# 1 0.032966 -0.004991 -0.002692 0.004497 -0.014784 -0.003665
# 2 -0.004991 0.010122 -0.002013 0.004239 0.006492 -0.002066
# 3 -0.002692 -0.002013 0.010056 -0.003219 -0.002332 0.001852
# 4 0.004497 0.004239 -0.003219 0.082504 0.011946 0.016144
# 5 -0.014784 0.006492 -0.002332 0.011946 0.042724 0.003748
# 6 -0.003665 -0.002066 0.001852 0.016144 0.003748 0.033334
#
#
# Mechanical properties :
#
#
# Convention : Reuss Voigt Hill
#
# Bulk Modulus (GPa) = 29.62918 43.52542 36.57730
# Shear Modulus (GPa) = 20.63159 31.27054 25.95107
#
# Velocity S-wave (km/s) = 3.13111 3.85478 3.51164
# Velocity P-wave (km/s) = 5.21068 6.36358 5.81577
#
# Compressibility (1/GPa) = 0.03375051
#
# Stress axis : x y z
#
# Youngs Moduli (GPa) = 30.33471 98.79865 99.44777
#
# Poissons Ratio (x) = 0.49311 0.26774
# Poissons Ratio (y) = 0.15140 0.20016
# Poissons Ratio (z) = 0.08167 0.19885
#
# Static dielectric constant tensor:
#      x y z
#    x 1.806790 0.069220 0.020870 
#    y 0.069220 1.914510 -0.023540 
#    z 0.020870 -0.023540 1.839760 
# 
# From -- ./inp_files/406623.got.cif
#   From: 2010.05.17/outbox.cif.g08.bks.cpg/sg2_204_cif.got.tgz:406623.got - 2010.06.03 11:33:40.
