data_PCOD9039893
_publ_section_title
;
Structure prediction by ZEFSAII (Michael W. Deem and Ramdas Pophale) SiO2 
 PCOD9039893
Probable space group: P -1
;
_chemical_formula_sum "Si O2"
_cell_formula_units_Z 14
_cell_length_a 14.069230
_cell_length_b 12.742345
_cell_length_c 7.891324
_cell_angle_alpha 130.156536
_cell_angle_beta 32.875639
_cell_angle_gamma 132.085571
_cell_volume 557.992712
_symmetry_space_group_name_H-M "P -1"
_symmetry_group_IT_number 2
_symmetry_cell_setting 'triclinic'
loop_
_space_group_symop_operation_xyz
x,y,z
-x,-y,-z
loop_
_atom_site_type_symbol
_atom_site_label
_atom_site_fract_x
_atom_site_fract_y
_atom_site_fract_z
Si Si1 0.528495 0.891345 0.703108
Si Si2 0.837746 0.564374 0.275295
Si Si3 0.550611 0.623813 0.248513
Si Si4 0.800802 0.458553 0.846043
Si Si5 0.169841 0.189952 0.224304
Si Si6 0.290790 0.919442 0.798748
Si Si7 0.160830 0.831984 0.561359
O O1 0.566432 0.738750 0.498873
O O2 0.345578 0.857663 0.825121
O O3 0.716366 0.001196 0.458629
O O4 0.500000 0.000000 0.000000
O O5 0.659827 0.467630 0.541536
O O6 0.876190 0.722893 0.459273
O O7 0.801463 0.539861 0.105694
O O8 0.000000 0.500000 0.000000
O O9 0.663856 0.513181 0.994522
O O10 0.635898 0.721348 0.060880
O O11 0.750404 0.286085 0.768987
O O12 0.000000 0.500000 0.500000
O O13 0.021886 0.182128 0.287105
O O14 0.189696 0.039533 0.099690
O O15 0.168411 0.808942 0.729091
O O16 0.500000 0.000000 0.500000
#
# Coordination Sequence:
#
# PCOD9039893 Si02
#       7
#     2   2   2   2   2   2   2
#     4  11  26  46  72 106 149 193 250 301 360 438
#     4  12  27  47  72 109 150 188 252 308 369 434
#     4  12  26  46  74 108 147 198 243 301 375 436
#     4  12  26  47  74 110 147 196 241 306 365 441
#     4  12  24  46  74 109 146 194 242 308 363 440
#     4  10  23  42  72 101 139 197 238 290 362 433
#     4  11  23  47  71 102 153 184 248 290 370 428
#
# _framework density 25.089932999999998
#
# number of rings (size 3 to 8) (size 9 to 14) (size 15 to 20)
#    0.000    0.571    5.714    2.143    6.000    2.286 
#    0.000    0.714    0.000    0.000    0.000    0.000 
#    0.000    0.000    0.000    0.000    0.000    0.000 
#
# Total GULP energy -78318.550495 kJ/mol
# GULP energy per Si atom -5594.182178 kJ/mol
# Density = 2.503283 g / cm^3
# Si number density = 25.089933 Si / 1000 Ang^3
#
#
#
# Elastic Constant Matrix: (Units=GPa)
#
#
# Indices 1 2 3 4 5 6 
#
# 1 105.2015 30.6889 47.6004 21.7777 -7.3837 21.4113
# 2 30.6889 97.2927 47.5607 22.9587 -20.4522 19.1178
# 3 47.6004 47.5607 151.0860 40.4055 -16.0657 11.4579
# 4 21.7777 22.9587 40.4055 53.8402 -0.5699 4.6055
# 5 -7.3837 -20.4522 -16.0657 -0.5699 50.7404 18.2311
# 6 21.4113 19.1178 11.4579 4.6055 18.2311 32.2567
#
#
#
# Elastic Compliance Matrix: (Units=1/GPa)
#
#
# Indices 1 2 3 4 5 6 
#
# 1 0.013710 0.001142 -0.002276 -0.003245 0.005966 -0.011877
# 2 0.001142 0.018366 -0.002027 -0.005122 0.013215 -0.017661
# 3 -0.002276 -0.002027 0.009772 -0.005411 0.002359 -0.001320
# 4 -0.003245 -0.005122 -0.005411 0.025448 -0.006542 0.007176
# 5 0.005966 0.013215 0.002359 -0.006542 0.038622 -0.033525
# 6 -0.011877 -0.017661 -0.001320 0.007176 -0.033525 0.067744
#
#
# Mechanical properties :
#
#
# Convention : Reuss Voigt Hill
#
# Bulk Modulus (GPa) = 28.14855 67.25334 47.70094
# Shear Modulus (GPa) = 26.06531 42.54948 34.30740
#
# Velocity S-wave (km/s) = 3.22666 4.12257 3.70182
# Velocity P-wave (km/s) = 5.01250 7.03732 6.10938
#
# Compressibility (1/GPa) = 0.03552581
#
# Stress axis : x y z
#
# Youngs Moduli (GPa) = 72.93894 54.44894 102.33532
#
# Poissons Ratio (x) = -0.06216 0.23290
# Poissons Ratio (y) = -0.08327 0.20741
# Poissons Ratio (z) = 0.16600 0.11036
#
# Static dielectric constant tensor:
#      x y z
#    x 2.164790 -0.050680 0.105930 
#    y -0.050680 2.061770 -0.067180 
#    z 0.105930 -0.067180 2.009320 
# 
# From -- ./inp_files/316003.got.cif
#   From: 2010.05.17/outbox.cif.g08.bks.cpg/sg2_159_cif.got.tgz:316003.got - 2010.06.03 11:33:40.
