data_PCOD9039897
_publ_section_title
;
Structure prediction by ZEFSAII (Michael W. Deem and Ramdas Pophale) SiO2 
 PCOD9039897
Probable space group: P -1
;
_chemical_formula_sum "Si O2"
_cell_formula_units_Z 16
_cell_length_a 20.925369
_cell_length_b 9.451192
_cell_length_c 13.848509
_cell_angle_alpha 68.606749
_cell_angle_beta 32.874193
_cell_angle_gamma 42.001166
_cell_volume 696.394606
_symmetry_space_group_name_H-M "P -1"
_symmetry_group_IT_number 2
_symmetry_cell_setting 'triclinic'
loop_
_space_group_symop_operation_xyz
x,y,z
-x,-y,-z
loop_
_atom_site_type_symbol
_atom_site_label
_atom_site_fract_x
_atom_site_fract_y
_atom_site_fract_z
Si Si1 0.332940 0.495611 0.451876
Si Si2 0.864962 0.713657 0.466577
Si Si3 0.614038 0.342856 0.291079
Si Si4 0.232956 0.791331 0.313828
Si Si5 0.472471 0.093777 0.246123
Si Si6 0.989239 0.331805 0.037986
Si Si7 0.832950 0.422816 0.998910
Si Si8 0.718716 0.918541 0.797000
O O1 0.441800 0.500002 0.382699
O O2 0.241195 0.680305 0.426816
O O3 0.510652 0.170023 0.264311
O O4 0.148911 0.602270 0.719138
O O5 0.789568 0.677956 0.489647
O O6 0.668129 0.942052 0.743080
O O7 0.086647 0.407167 0.321452
O O8 0.939764 0.781215 0.299912
O O9 0.500000 0.500000 0.500000
O O10 0.767948 0.322099 0.084440
O O11 0.757430 0.027188 0.196656
O O12 0.184974 0.019662 0.342748
O O13 0.500000 0.500000 0.000000
O O14 0.000000 0.000000 0.500000
O O15 0.629153 0.768959 0.141841
O O16 0.517055 0.130485 0.079379
O O17 0.875807 0.408876 0.060643
O O18 0.000000 0.500000 0.000000
#
# Coordination Sequence:
#
# PCOD9039897 Si02
#       8
#     2   2   2   2   2   2   2   2
#     4  12  28  46  77 108 151 205 251 322 398 469
#     4  10  23  42  72 101 145 194 250 323 378 467
#     4  12  29  49  73 106 153 193 258 319 388 468
#     4  12  28  48  76 110 160 205 262 325 395 476
#     4  11  23  45  71 105 145 192 256 308 391 462
#     4  12  28  48  76 108 148 196 258 317 398 474
#     4  11  26  43  73 105 145 194 251 319 385 468
#     4  10  23  43  67 107 142 195 258 312 393 450
#
# _framework density 22.975480000000001
#
# number of rings (size 3 to 8) (size 9 to 14) (size 15 to 20)
#    0.000    0.750    2.500    3.000    8.750    3.000 
#    0.000    0.000    0.000    0.000    0.000    0.000 
#    0.000    0.000    0.000    0.000    0.000    0.000 
#
# Total GULP energy -89383.935709 kJ/mol
# GULP energy per Si atom -5586.495982 kJ/mol
# Density = 2.292319 g / cm^3
# Si number density = 22.975480 Si / 1000 Ang^3
#
#
#
# Elastic Constant Matrix: (Units=GPa)
#
#
# Indices 1 2 3 4 5 6 
#
# 1 172.1729 55.9876 48.9134 -11.2230 1.5749 1.9277
# 2 55.9876 123.6565 36.9155 -19.9002 5.1057 3.7230
# 3 48.9134 36.9155 101.2099 -23.8609 15.5188 -5.6883
# 4 -11.2230 -19.9002 -23.8609 35.0848 2.9495 1.3168
# 5 1.5749 5.1057 15.5188 2.9495 32.5082 -2.8397
# 6 1.9277 3.7230 -5.6883 1.3168 -2.8397 46.0688
#
#
#
# Elastic Compliance Matrix: (Units=1/GPa)
#
#
# Indices 1 2 3 4 5 6 
#
# 1 0.007516 -0.002728 -0.003278 -0.001505 0.001735 -0.000349
# 2 -0.002728 0.010511 -0.001348 0.004329 -0.001365 -0.001110
# 3 -0.003278 -0.001348 0.015397 0.009252 -0.007696 0.001408
# 4 -0.001505 0.004329 0.009252 0.037510 -0.008492 -0.000740
# 5 0.001735 -0.001365 -0.007696 -0.008492 0.035469 0.001516
# 6 -0.000349 -0.001110 0.001408 -0.000740 0.001516 0.022099
#
#
# Mechanical properties :
#
#
# Convention : Reuss Voigt Hill
#
# Bulk Modulus (GPa) = 53.42960 75.63025 64.52993
# Shear Modulus (GPa) = 33.45618 39.74720 36.60169
#
# Velocity S-wave (km/s) = 3.82012 4.16382 3.99567
# Velocity P-wave (km/s) = 6.53936 7.49038 7.03097
#
# Compressibility (1/GPa) = 0.01871622
#
# Stress axis : x y z
#
# Youngs Moduli (GPa) = 133.04235 95.13996 64.94827
#
# Poissons Ratio (x) = 0.25953 0.21291
# Poissons Ratio (y) = 0.36293 0.08754
# Poissons Ratio (z) = 0.43613 0.12824
#
# Static dielectric constant tensor:
#      x y z
#    x 1.958510 -0.026140 -0.016400 
#    y -0.026140 1.869640 0.065240 
#    z -0.016400 0.065240 2.000660 
# 
# From -- ./inp_files/462102.got.cif
#   From: 2010.05.17/outbox.cif.g08.bks.cpg/sg2_232_cif.got.tgz:462102.got - 2010.06.03 11:33:40.
