data_PCOD9039499
_publ_section_title
;
Structure prediction by ZEFSAII (Michael W. Deem and Ramdas Pophale) SiO2 
 PCOD9039499
Probable space group: P -1
;
_chemical_formula_sum "Si O2"
_cell_formula_units_Z 14
_cell_length_a 16.434594
_cell_length_b 15.643613
_cell_length_c 8.685338
_cell_angle_alpha 137.615735
_cell_angle_beta 142.701087
_cell_angle_gamma 28.238493
_cell_volume 634.621622
_symmetry_space_group_name_H-M "P -1"
_symmetry_group_IT_number 2
_symmetry_cell_setting 'triclinic'
loop_
_space_group_symop_operation_xyz
x,y,z
-x,-y,-z
loop_
_atom_site_type_symbol
_atom_site_label
_atom_site_fract_x
_atom_site_fract_y
_atom_site_fract_z
Si Si1 0.866606 0.251561 0.989880
Si Si2 0.571045 0.219944 0.523355
Si Si3 0.791698 0.581498 0.265904
Si Si4 0.156150 0.927055 0.769332
Si Si5 0.546912 0.866850 0.527709
Si Si6 0.447638 0.902468 0.987195
Si Si7 0.700861 0.403586 0.259443
O O1 0.720868 0.231492 0.734578
O O2 0.798792 0.427048 0.039401
O O3 0.862676 0.291554 0.218981
O O4 0.053273 0.077777 0.948925
O O5 0.610257 0.110509 0.589719
O O6 0.572931 0.128696 0.258138
O O7 0.363444 0.426808 0.520352
O O8 0.681760 0.678416 0.390497
O O9 0.000000 0.500000 0.500000
O O10 0.668645 0.736683 0.156507
O O11 0.325249 0.891658 0.897040
O O12 0.240221 0.743199 0.726089
O O13 0.000000 0.000000 0.500000
O O14 0.500000 0.000000 0.500000
O O15 0.625713 0.906339 0.831766
O O16 0.500000 0.500000 0.000000
#
# Coordination Sequence:
#
# PCOD9039499 Si02
#       7
#     2   2   2   2   2   2   2
#     4  11  23  43  72 103 144 180 239 293 344 424
#     4  11  22  43  70 106 139 182 236 290 368 408
#     4  11  24  46  69 102 137 192 238 284 351 428
#     4  12  25  43  68 111 144 179 231 293 358 417
#     4  10  23  43  69  97 136 188 236 283 351 423
#     4  11  24  43  71  98 149 185 227 295 356 420
#     4  10  23  42  68  98 143 183 228 287 345 416
#
# _framework density 22.060390000000002
#
# number of rings (size 3 to 8) (size 9 to 14) (size 15 to 20)
#    0.000    1.143    2.857    3.429    8.000    1.143 
#    5.143    0.714    0.000    0.000    0.000    0.000 
#    0.000    0.000    0.000    0.000    0.000    0.000 
#
# Total GULP energy -78175.011840 kJ/mol
# GULP energy per Si atom -5583.929417 kJ/mol
# Density = 2.201018 g / cm^3
# Si number density = 22.060390 Si / 1000 Ang^3
#
#
#
# Elastic Constant Matrix: (Units=GPa)
#
#
# Indices 1 2 3 4 5 6 
#
# 1 114.6229 40.0041 20.7729 2.0275 -15.5667 -8.8763
# 2 40.0041 81.3203 37.5723 3.9975 -11.4060 5.6176
# 3 20.7729 37.5723 104.8111 14.0558 -20.0389 -5.5768
# 4 2.0275 3.9975 14.0558 43.2629 -8.4192 0.4570
# 5 -15.5667 -11.4060 -20.0389 -8.4192 32.6086 15.7234
# 6 -8.8763 5.6176 -5.5768 0.4570 15.7234 34.5586
#
#
#
# Elastic Compliance Matrix: (Units=1/GPa)
#
#
# Indices 1 2 3 4 5 6 
#
# 1 0.011105 -0.005483 0.000316 0.000311 0.002344 0.002724
# 2 -0.005483 0.018485 -0.005236 0.001195 0.004461 -0.007303
# 3 0.000316 -0.005236 0.012729 -0.002678 0.005116 0.000694
# 4 0.000311 0.001195 -0.002678 0.025376 0.007555 -0.004320
# 5 0.002344 0.004461 0.005116 0.007555 0.048872 -0.021633
# 6 0.002724 -0.007303 0.000694 -0.004320 -0.021633 0.040835
#
#
# Mechanical properties :
#
#
# Convention : Reuss Voigt Hill
#
# Bulk Modulus (GPa) = 46.48300 55.27255 50.87778
# Shear Modulus (GPa) = 26.97194 35.57967 31.27580
#
# Velocity S-wave (km/s) = 3.50042 4.02036 3.76937
# Velocity P-wave (km/s) = 6.11995 6.83086 6.48515
#
# Compressibility (1/GPa) = 0.02151324
#
# Stress axis : x y z
#
# Youngs Moduli (GPa) = 90.05357 54.09786 78.55822
#
# Poissons Ratio (x) = 0.29664 -0.02485
# Poissons Ratio (y) = 0.49380 0.41131
# Poissons Ratio (z) = -0.02848 0.28324
#
# Static dielectric constant tensor:
#      x y z
#    x 1.841210 -0.001330 0.004170 
#    y -0.001330 1.839360 0.007120 
#    z 0.004170 0.007120 1.849930 
# 
# From -- ./inp_files/316114.got.cif
#   From: 2010.05.17/outbox.cif.g08.bks.cpg/sg2_159_cif.got.tgz:316114.got - 2010.06.03 11:33:40.
