data_PCOD9039055
_publ_section_title
;
Structure prediction by ZEFSAII (Michael W. Deem and Ramdas Pophale) SiO2 
 PCOD9039055
Probable space group: P -1
;
_chemical_formula_sum "Si O2"
_cell_formula_units_Z 14
_cell_length_a 6.293431
_cell_length_b 12.212089
_cell_length_c 10.424205
_cell_angle_alpha 83.781373
_cell_angle_beta 132.767977
_cell_angle_gamma 102.720736
_cell_volume 572.754402
_symmetry_space_group_name_H-M "P -1"
_symmetry_group_IT_number 2
_symmetry_cell_setting 'triclinic'
loop_
_space_group_symop_operation_xyz
x,y,z
-x,-y,-z
loop_
_atom_site_type_symbol
_atom_site_label
_atom_site_fract_x
_atom_site_fract_y
_atom_site_fract_z
Si Si1 0.015539 0.649274 0.343876
Si Si2 0.196075 0.748907 0.868199
Si Si3 0.754187 0.871519 0.170673
Si Si4 0.644928 0.976953 0.360161
Si Si5 0.335912 0.598564 0.730186
Si Si6 0.984582 0.379425 0.946625
Si Si7 0.258966 0.092445 0.324841
O O1 0.895918 0.765401 0.284740
O O2 0.763979 0.536990 0.283713
O O3 0.258113 0.640863 0.553051
O O4 0.113881 0.635332 0.238964
O O5 0.155276 0.653539 0.755738
O O6 0.214340 0.699729 0.023803
O O7 0.926699 0.811824 0.756443
O O8 0.511042 0.831374 0.968039
O O9 0.571062 0.916155 0.204576
O O10 0.012408 0.976201 0.225069
O O11 0.576870 0.904868 0.471060
O O12 0.500142 0.083395 0.317227
O O13 0.000000 0.000000 0.500000
O O14 0.676825 0.635717 0.903552
O O15 0.000000 0.500000 0.000000
#
# Coordination Sequence:
#
# PCOD9039055 Si02
#       7
#     2   2   2   2   2   2   2
#     4  11  24  47  72 100 141 183 234 291 355 419
#     4  12  25  43  70 104 140 184 237 292 347 422
#     4  11  23  41  68  98 141 187 225 293 350 413
#     4   9  21  42  65  94 137 179 230 294 340 407
#     4  11  25  48  72 101 139 187 236 292 353 423
#     4  12  25  45  69 103 142 182 235 298 353 412
#     4  10  23  42  66 100 135 183 237 280 349 424
#
# _framework density 24.443283000000001
#
# number of rings (size 3 to 8) (size 9 to 14) (size 15 to 20)
#    0.000    1.143    2.857    2.571    2.000    6.857 
#    2.571    0.000    0.000    0.000    0.000    0.000 
#    0.000    0.000    0.000    0.000    0.000    0.000 
#
# Total GULP energy -78327.031559 kJ/mol
# GULP energy per Si atom -5594.787969 kJ/mol
# Density = 2.438765 g / cm^3
# Si number density = 24.443283 Si / 1000 Ang^3
#
#
#
# Elastic Constant Matrix: (Units=GPa)
#
#
# Indices 1 2 3 4 5 6 
#
# 1 127.8107 50.1338 49.0791 -12.8679 -14.5016 -30.2188
# 2 50.1338 96.6438 11.6852 -6.0277 5.2049 -24.5693
# 3 49.0791 11.6852 76.6969 -5.4422 -17.6985 3.8402
# 4 -12.8679 -6.0277 -5.4422 37.6589 6.5993 2.7780
# 5 -14.5016 5.2049 -17.6985 6.5993 48.7143 -7.5928
# 6 -30.2188 -24.5693 3.8402 2.7780 -7.5928 48.8041
#
#
#
# Elastic Compliance Matrix: (Units=1/GPa)
#
#
# Indices 1 2 3 4 5 6 
#
# 1 0.015683 -0.005000 -0.008845 0.002151 0.002981 0.008231
# 2 -0.005000 0.013953 0.000400 0.000745 -0.002392 0.003483
# 3 -0.008845 0.000400 0.019754 -0.000266 0.003561 -0.006261
# 4 0.002151 0.000745 -0.000266 0.027993 -0.003389 -0.000393
# 5 0.002981 -0.002392 0.003561 -0.003389 0.024094 0.004303
# 6 0.008231 0.003483 -0.006261 -0.000393 0.004303 0.028524
#
#
# Mechanical properties :
#
#
# Convention : Reuss Voigt Hill
#
# Bulk Modulus (GPa) = 44.44524 58.10531 51.27527
# Shear Modulus (GPa) = 30.41527 39.71899 35.06713
#
# Velocity S-wave (km/s) = 3.53132 4.03543 3.79176
# Velocity P-wave (km/s) = 5.90334 6.74804 6.33977
#
# Compressibility (1/GPa) = 0.02249960
#
# Stress axis : x y z
#
# Youngs Moduli (GPa) = 63.76500 71.66831 50.62258
#
# Poissons Ratio (x) = 0.35832 0.44778
# Poissons Ratio (y) = 0.31881 -0.02025
# Poissons Ratio (z) = 0.56403 -0.02867
#
# Static dielectric constant tensor:
#      x y z
#    x 1.993360 0.037600 0.005220 
#    y 0.037600 2.018670 0.003840 
#    z 0.005220 0.003840 1.940050 
# 
# From -- ./inp_files/56555.got.cif
#   From: 2010.05.17/outbox.cif.g08.bks.cpg/sg2_29_cif.got.tgz:56555.got - 2010.06.03 11:33:40.
