data_PCOD9039779
_publ_section_title
;
Structure prediction by ZEFSAII (Michael W. Deem and Ramdas Pophale) SiO2 
 PCOD9039779
Probable space group: P -1
;
_chemical_formula_sum "Si O2"
_cell_formula_units_Z 16
_cell_length_a 10.961002
_cell_length_b 9.198871
_cell_length_c 8.532400
_cell_angle_alpha 65.883500
_cell_angle_beta 104.775353
_cell_angle_gamma 74.186648
_cell_volume 686.613491
_symmetry_space_group_name_H-M "P -1"
_symmetry_group_IT_number 2
_symmetry_cell_setting 'triclinic'
loop_
_space_group_symop_operation_xyz
x,y,z
-x,-y,-z
loop_
_atom_site_type_symbol
_atom_site_label
_atom_site_fract_x
_atom_site_fract_y
_atom_site_fract_z
Si Si1 0.421505 0.889448 0.945533
Si Si2 0.496978 0.180439 0.359109
Si Si3 0.952348 0.783142 0.756296
Si Si4 0.075831 0.877599 0.220698
Si Si5 0.684523 0.616567 0.251477
Si Si6 0.143345 0.189176 0.650061
Si Si7 0.789898 0.578949 0.952153
Si Si8 0.638492 0.350744 0.539463
O O1 0.453229 0.852483 0.788755
O O2 0.256320 0.001238 0.839105
O O3 0.514505 0.710868 0.145386
O O4 0.500000 0.000000 0.000000
O O5 0.348629 0.351926 0.230175
O O6 0.595842 0.217643 0.492685
O O7 0.500000 0.000000 0.500000
O O8 0.906690 0.796726 0.552474
O O9 0.862895 0.701822 0.861919
O O10 0.927723 0.978553 0.713908
O O11 0.107364 0.628499 0.911681
O O12 0.230371 0.755604 0.263215
O O13 0.991151 0.769664 0.303911
O O14 0.000000 0.000000 0.000000
O O15 0.766747 0.696711 0.352853
O O16 0.710627 0.426779 0.401569
O O17 0.738934 0.627549 0.092355
O O18 0.500000 0.500000 0.500000
#
# Coordination Sequence:
#
# PCOD9039779 Si02
#       8
#     2   2   2   2   2   2   2   2
#     4   9  21  39  71 103 135 183 231 287 351 421
#     4  11  24  44  72 100 143 184 238 289 353 418
#     4  11  24  42  70 104 140 180 240 285 362 421
#     4  12  28  46  69 103 145 183 237 295 355 418
#     4  10  24  45  66 103 143 181 239 286 353 421
#     4  11  23  42  74  99 142 187 230 288 359 422
#     4  10  23  42  71 100 139 185 226 293 352 424
#     4  12  30  45  73 105 143 189 243 297 350 421
#
# _framework density 23.302775
#
# number of rings (size 3 to 8) (size 9 to 14) (size 15 to 20)
#    0.000    1.250    0.000    4.125    8.750    7.000 
#    0.000    0.000    0.000    0.000    0.000    0.000 
#    0.000    0.000    0.000    0.000    0.000    0.000 
#
# Total GULP energy -89298.162177 kJ/mol
# GULP energy per Si atom -5581.135136 kJ/mol
# Density = 2.324974 g / cm^3
# Si number density = 23.302775 Si / 1000 Ang^3
#
#
#
# Elastic Constant Matrix: (Units=GPa)
#
#
# Indices 1 2 3 4 5 6 
#
# 1 101.3223 27.5048 48.6506 -7.3357 21.6903 -10.8032
# 2 27.5048 47.3758 8.2367 -6.1229 6.7402 1.8810
# 3 48.6506 8.2367 114.2026 -9.5479 20.2240 -3.2616
# 4 -7.3357 -6.1229 -9.5479 32.8135 -12.3183 5.8434
# 5 21.6903 6.7402 20.2240 -12.3183 48.5375 -16.8922
# 6 -10.8032 1.8810 -3.2616 5.8434 -16.8922 34.5866
#
#
#
# Elastic Compliance Matrix: (Units=1/GPa)
#
#
# Indices 1 2 3 4 5 6 
#
# 1 0.015596 -0.008031 -0.005616 -0.001264 -0.002527 0.003758
# 2 -0.008031 0.026395 0.002009 0.004003 -0.001734 -0.005278
# 3 -0.005616 0.002009 0.011621 0.001815 -0.003042 -0.002560
# 4 -0.001264 0.004003 0.001815 0.034621 0.007048 -0.002848
# 5 -0.002527 -0.001734 -0.003042 0.007048 0.029244 0.012110
# 6 0.003758 -0.005278 -0.002560 -0.002848 0.012110 0.036528
#
#
# Mechanical properties :
#
#
# Convention : Reuss Voigt Hill
#
# Bulk Modulus (GPa) = 32.96423 47.96500 40.46462
# Shear Modulus (GPa) = 26.68189 35.08810 30.88500
#
# Velocity S-wave (km/s) = 3.38747 3.88461 3.64452
# Velocity P-wave (km/s) = 5.42924 6.38344 5.92558
#
# Compressibility (1/GPa) = 0.03033591
#
# Stress axis : x y z
#
# Youngs Moduli (GPa) = 64.11809 37.88599 86.05097
#
# Poissons Ratio (x) = 0.30427 0.48322
# Poissons Ratio (y) = 0.51495 -0.17285
# Poissons Ratio (z) = 0.36006 -0.07610
#
# Static dielectric constant tensor:
#      x y z
#    x 1.904320 -0.062450 0.074300 
#    y -0.062450 1.943050 -0.075790 
#    z 0.074300 -0.075790 1.875830 
# 
# From -- ./inp_files/243110.got.cif
#   From: 2010.05.17/outbox.cif.g08.bks.cpg/sg2_122_cif.got.tgz:243110.got - 2010.06.03 11:33:40.
