data_PCOD9039526
_publ_section_title
;
Structure prediction by ZEFSAII (Michael W. Deem and Ramdas Pophale) SiO2 
 PCOD9039526
Probable space group: P -1
;
_chemical_formula_sum "Si O2"
_cell_formula_units_Z 16
_cell_length_a 9.738977
_cell_length_b 13.690515
_cell_length_c 12.469510
_cell_angle_alpha 35.069501
_cell_angle_beta 46.017552
_cell_angle_gamma 68.184534
_cell_volume 604.541636
_symmetry_space_group_name_H-M "P -1"
_symmetry_group_IT_number 2
_symmetry_cell_setting 'triclinic'
loop_
_space_group_symop_operation_xyz
x,y,z
-x,-y,-z
loop_
_atom_site_type_symbol
_atom_site_label
_atom_site_fract_x
_atom_site_fract_y
_atom_site_fract_z
Si Si1 0.717171 0.491093 0.577525
Si Si2 0.207046 0.983101 0.615202
Si Si3 0.645734 0.212164 0.575038
Si Si4 0.901884 0.651989 0.771283
Si Si5 0.003620 0.732638 0.397763
Si Si6 0.456275 0.756674 0.638429
Si Si7 0.766387 0.830824 0.091716
Si Si8 0.717089 0.857965 0.802612
O O1 0.843864 0.369392 0.596303
O O2 0.760281 0.653628 0.319859
O O3 0.815408 0.611326 0.525609
O O4 0.469697 0.338167 0.869916
O O5 0.317953 0.117450 0.537686
O O6 0.316456 0.103604 0.339775
O O7 0.290388 0.826042 0.714315
O O8 0.945649 0.881206 0.855976
O O9 0.538793 0.210768 0.520391
O O10 0.484642 0.222462 0.740170
O O11 0.892584 0.382992 0.286985
O O12 0.684365 0.025297 0.730959
O O13 0.911530 0.805639 0.717321
O O14 0.930224 0.720439 0.571707
O O15 0.668374 0.469091 0.069374
O O16 0.137578 0.958662 0.092105
#
# Coordination Sequence:
#
# PCOD9039526 Si02
#       8
#     2   2   2   2   2   2   2   2
#     4  11  25  43  72 104 137 172 227 287 356 404
#     4  10  23  42  70 102 136 167 225 293 354 391
#     4  11  26  43  65  97 142 186 232 278 334 409
#     4  12  24  44  67  97 137 190 230 274 339 413
#     4  11  25  43  69 102 139 174 224 288 342 415
#     4  10  23  42  69 100 136 174 227 288 340 411
#     4  12  24  44  70 103 136 182 220 285 348 405
#     4  11  23  44  66  99 133 183 229 287 340 398
#
# _framework density 26.466332999999999
#
# number of rings (size 3 to 8) (size 9 to 14) (size 15 to 20)
#    0.000    1.000    2.500    3.375    5.250    3.500 
#    0.000    2.500    0.000    0.000    0.000    0.000 
#    0.000    0.000    0.000    0.000    0.000    0.000 
#
# Total GULP energy -89576.249501 kJ/mol
# GULP energy per Si atom -5598.515594 kJ/mol
# Density = 2.640609 g / cm^3
# Si number density = 26.466333 Si / 1000 Ang^3
#
#
#
# Elastic Constant Matrix: (Units=GPa)
#
#
# Indices 1 2 3 4 5 6 
#
# 1 74.0105 26.8108 23.0608 15.9957 2.4529 11.5753
# 2 26.8108 142.0501 54.0110 15.9043 6.7852 -8.4775
# 3 23.0608 54.0110 134.3110 7.5711 16.9543 -0.7361
# 4 15.9957 15.9043 7.5711 51.4346 -4.5295 -1.4815
# 5 2.4529 6.7852 16.9543 -4.5295 34.5030 6.2636
# 6 11.5753 -8.4775 -0.7361 -1.4815 6.2636 45.5280
#
#
#
# Elastic Compliance Matrix: (Units=1/GPa)
#
#
# Indices 1 2 3 4 5 6 
#
# 1 0.016563 -0.002287 -0.001768 -0.004283 0.000462 -0.004868
# 2 -0.002287 0.008970 -0.003017 -0.001618 -0.000740 0.002252
# 3 -0.001768 -0.003017 0.009496 -0.000258 -0.004089 0.000595
# 4 -0.004283 -0.001618 -0.000258 0.021642 0.003406 0.001019
# 5 0.000462 -0.000740 -0.004089 0.003406 0.032400 -0.004668
# 6 -0.004868 0.002252 0.000595 0.001019 -0.004668 0.024307
#
#
# Mechanical properties :
#
#
# Convention : Reuss Voigt Hill
#
# Bulk Modulus (GPa) = 47.88253 62.01519 54.94886
# Shear Modulus (GPa) = 37.17963 42.72571 39.95267
#
# Velocity S-wave (km/s) = 3.75212 4.02225 3.88953
# Velocity P-wave (km/s) = 6.07473 6.71222 6.40141
#
# Compressibility (1/GPa) = 0.02088444
#
# Stress axis : x y z
#
# Youngs Moduli (GPa) = 60.37678 111.48703 105.30436
#
# Poissons Ratio (x) = 0.25498 0.18614
# Poissons Ratio (y) = 0.13809 0.31774
# Poissons Ratio (z) = 0.10673 0.33639
#
# Static dielectric constant tensor:
#      x y z
#    x 2.067680 -0.020270 -0.020400 
#    y -0.020270 2.139020 -0.034960 
#    z -0.020400 -0.034960 2.024380 
# 
# From -- ./inp_files/522108.got.cif
#   From: 2010.05.17/outbox.cif.g08.bks.cpg/sg2_262_cif.got.tgz:522108.got - 2010.06.03 11:33:40.
