data_PCOD9039170
_publ_section_title
;
Structure prediction by ZEFSAII (Michael W. Deem and Ramdas Pophale) SiO2 
 PCOD9039170
Probable space group: P -1
;
_chemical_formula_sum "Si O2"
_cell_formula_units_Z 14
_cell_length_a 5.459915
_cell_length_b 13.981016
_cell_length_c 10.120417
_cell_angle_alpha 63.219818
_cell_angle_beta 59.026234
_cell_angle_gamma 67.179592
_cell_volume 578.930524
_symmetry_space_group_name_H-M "P -1"
_symmetry_group_IT_number 2
_symmetry_cell_setting 'triclinic'
loop_
_space_group_symop_operation_xyz
x,y,z
-x,-y,-z
loop_
_atom_site_type_symbol
_atom_site_label
_atom_site_fract_x
_atom_site_fract_y
_atom_site_fract_z
Si Si1 0.268799 0.040059 0.149550
Si Si2 0.419918 0.386755 0.132653
Si Si3 0.728029 0.098546 0.543890
Si Si4 0.710165 0.592024 0.530492
Si Si5 0.732471 0.165878 0.052355
Si Si6 0.876271 0.316969 0.381166
Si Si7 0.096168 0.197514 0.670141
O O1 0.252034 0.923967 0.291824
O O2 0.441353 0.114097 0.146875
O O3 0.966581 0.097786 0.131654
O O4 0.500000 0.000000 0.000000
O O5 0.378047 0.388953 0.301582
O O6 0.100826 0.364485 0.199692
O O7 0.500000 0.500000 0.000000
O O8 0.637417 0.286026 0.067354
O O9 0.794202 0.210432 0.401042
O O10 0.383807 0.105157 0.607734
O O11 0.000000 0.000000 0.500000
O O12 0.391078 0.584843 0.572356
O O13 0.765942 0.701136 0.373538
O O14 0.000000 0.500000 0.500000
O O15 0.896994 0.168095 0.863098
O O16 0.975852 0.259944 0.529854
#
# Coordination Sequence:
#
# PCOD9039170 Si02
#       7
#     2   2   2   2   2   2   2
#     4  12  26  46  74 108 153 200 252 303 377 439
#     4  11  26  47  72 105 147 192 247 310 384 439
#     4  11  24  40  67 100 141 192 241 299 366 437
#     4  10  23  46  71 103 137 185 252 301 377 444
#     4  12  27  46  72 112 152 197 251 315 365 452
#     4  10  24  45  70 100 140 188 246 305 367 454
#     4  10  23  42  66  98 141 186 242 297 366 441
#
# _framework density 24.18252
#
# number of rings (size 3 to 8) (size 9 to 14) (size 15 to 20)
#    0.000    1.143    1.429    3.000   12.000    3.429 
#    2.571    0.000    0.000    0.000    0.000    0.000 
#    0.000    0.000    0.000    0.000    0.000    0.000 
#
# Total GULP energy -77963.318601 kJ/mol
# GULP energy per Si atom -5568.808471 kJ/mol
# Density = 2.412748 g / cm^3
# Si number density = 24.182520 Si / 1000 Ang^3
#
#
#
# Elastic Constant Matrix: (Units=GPa)
#
#
# Indices 1 2 3 4 5 6 
#
# 1 103.2748 54.3353 37.8040 1.0563 -12.8897 -28.8971
# 2 54.3353 161.7100 44.9710 1.5048 -22.2118 -25.1320
# 3 37.8040 44.9710 133.7973 -19.2234 -27.5579 1.8239
# 4 1.0563 1.5048 -19.2234 50.6623 6.0390 -13.7173
# 5 -12.8897 -22.2118 -27.5579 6.0390 42.0371 5.0715
# 6 -28.8971 -25.1320 1.8239 -13.7173 5.0715 42.7065
#
#
#
# Elastic Compliance Matrix: (Units=1/GPa)
#
#
# Indices 1 2 3 4 5 6 
#
# 1 0.014753 -0.002708 -0.003299 0.000956 -0.000277 0.008869
# 2 -0.002708 0.008284 -0.001656 -0.000334 0.002177 0.002747
# 3 -0.003299 -0.001656 0.010400 0.002543 0.004979 -0.003425
# 4 0.000956 -0.000334 0.002543 0.023184 -0.002522 0.008088
# 5 -0.000277 0.002177 0.004979 -0.002522 0.028886 -0.003359
# 6 0.008869 0.002747 -0.003425 0.008088 -0.003359 0.034177
#
#
# Mechanical properties :
#
#
# Convention : Reuss Voigt Hill
#
# Bulk Modulus (GPa) = 55.21567 74.77806 64.99687
# Shear Modulus (GPa) = 35.44950 44.52598 39.98774
#
# Velocity S-wave (km/s) = 3.83288 4.29563 4.07084
# Velocity P-wave (km/s) = 6.51693 7.45605 7.00225
#
# Compressibility (1/GPa) = 0.01811080
#
# Stress axis : x y z
#
# Youngs Moduli (GPa) = 67.78494 120.72187 96.15075
#
# Poissons Ratio (x) = 0.32693 0.31718
# Poissons Ratio (y) = 0.18357 0.15922
# Poissons Ratio (z) = 0.22361 0.19991
#
# Static dielectric constant tensor:
#      x y z
#    x 2.523470 0.165460 -0.026140 
#    y 0.165460 1.980440 0.058200 
#    z -0.026140 0.058200 1.843870 
# 
# From -- ./inp_files/366772.got.cif
#   From: 2010.05.17/outbox.cif.g08.bks.cpg/sg2_184_cif.got.tgz:366772.got - 2010.06.03 11:33:40.
