data_PCOD9039243
_publ_section_title
;
Structure prediction by ZEFSAII (Michael W. Deem and Ramdas Pophale) SiO2 
 PCOD9039243
Probable space group: P -1
;
_chemical_formula_sum "Si O2"
_cell_formula_units_Z 14
_cell_length_a 5.586590
_cell_length_b 9.741696
_cell_length_c 23.067071
_cell_angle_alpha 143.743875
_cell_angle_beta 122.898439
_cell_angle_gamma 54.610319
_cell_volume 597.651058
_symmetry_space_group_name_H-M "P -1"
_symmetry_group_IT_number 2
_symmetry_cell_setting 'triclinic'
loop_
_space_group_symop_operation_xyz
x,y,z
-x,-y,-z
loop_
_atom_site_type_symbol
_atom_site_label
_atom_site_fract_x
_atom_site_fract_y
_atom_site_fract_z
Si Si1 0.784035 0.431853 0.892311
Si Si2 0.967869 0.668125 0.906694
Si Si3 0.473535 0.924595 0.072053
Si Si4 0.271692 0.354923 0.445073
Si Si5 0.323824 0.046162 0.554250
Si Si6 0.201758 0.537847 0.772871
Si Si7 0.022012 0.907787 0.777079
O O1 0.034710 0.446208 0.884459
O O2 0.508741 0.497506 0.833528
O O3 0.727508 0.677027 0.005069
O O4 0.805217 0.179264 0.838052
O O5 0.993927 0.552554 0.806435
O O6 0.662792 0.882740 0.931199
O O7 0.199661 0.812874 0.006674
O O8 0.650299 0.059522 0.183440
O O9 0.500000 0.500000 0.500000
O O10 0.467900 0.131937 0.432688
O O11 0.000000 0.500000 0.500000
O O12 0.111221 0.253457 0.337591
O O13 0.500000 0.000000 0.500000
O O14 0.257211 0.321204 0.660928
O O15 0.000000 0.000000 0.500000
O O16 0.070376 0.782708 0.803295
#
# Coordination Sequence:
#
# PCOD9039243 Si02
#       7
#     2   2   2   2   2   2   2
#     4  11  23  46  67 101 148 188 247 294 368 448
#     4  10  23  42  72  98 151 193 247 300 366 455
#     4  10  23  42  67 106 144 196 241 306 371 442
#     4  12  28  53  77 118 152 194 261 326 384 466
#     4  12  27  50  82 110 151 201 254 322 393 461
#     4  11  25  45  68 105 141 193 241 302 377 440
#     4  12  25  45  73 104 145 190 246 309 378 447
#
# _framework density 23.425039999999999
#
# number of rings (size 3 to 8) (size 9 to 14) (size 15 to 20)
#    0.000    0.857    2.857    3.429    6.000    4.000 
#    5.143    0.000    0.000    0.000    0.000    0.000 
#    0.000    0.000    0.000    0.000    0.000    0.000 
#
# Total GULP energy -78040.921007 kJ/mol
# GULP energy per Si atom -5574.351500 kJ/mol
# Density = 2.337172 g / cm^3
# Si number density = 23.425040 Si / 1000 Ang^3
#
#
#
# Elastic Constant Matrix: (Units=GPa)
#
#
# Indices 1 2 3 4 5 6 
#
# 1 88.3201 32.7505 52.2492 1.0336 -9.5204 1.1111
# 2 32.7505 163.9144 25.5871 12.5042 -6.1040 18.4031
# 3 52.2492 25.5871 148.1465 -6.4872 -3.6258 4.8508
# 4 1.0336 12.5042 -6.4872 43.8580 -11.4638 3.6565
# 5 -9.5204 -6.1040 -3.6258 -11.4638 41.1114 -10.2918
# 6 1.1111 18.4031 4.8508 3.6565 -10.2918 33.5304
#
#
#
# Elastic Compliance Matrix: (Units=1/GPa)
#
#
# Indices 1 2 3 4 5 6 
#
# 1 0.015587 -0.002515 -0.005050 0.000307 0.003539 0.002647
# 2 -0.002515 0.007212 -0.000344 -0.002003 -0.001087 -0.003940
# 3 -0.005050 -0.000344 0.008687 0.001515 -0.000324 -0.001165
# 4 0.000307 -0.002003 0.001515 0.025412 0.007060 0.000266
# 5 0.003539 -0.001087 -0.000324 0.007060 0.029097 0.008687
# 6 0.002647 -0.003940 -0.001165 0.000266 0.008687 0.034705
#
#
# Mechanical properties :
#
#
# Convention : Reuss Voigt Hill
#
# Bulk Modulus (GPa) = 63.82119 69.06162 66.44140
# Shear Modulus (GPa) = 35.27618 43.01955 39.14786
#
# Velocity S-wave (km/s) = 3.88483 4.29006 4.09246
# Velocity P-wave (km/s) = 6.88669 7.35428 7.12432
#
# Compressibility (1/GPa) = 0.01566878
#
# Stress axis : x y z
#
# Youngs Moduli (GPa) = 64.15669 138.66488 115.11572
#
# Poissons Ratio (x) = 0.34873 0.58128
# Poissons Ratio (y) = 0.16135 0.03959
# Poissons Ratio (z) = 0.32396 0.04769
#
# Static dielectric constant tensor:
#      x y z
#    x 2.203240 0.079090 -0.069290 
#    y 0.079090 1.946700 -0.050150 
#    z -0.069290 -0.050150 1.904260 
# 
# From -- ./inp_files/582684.got.cif
#   From: 2010.05.17/outbox.cif.g08.bks.cpg/sg2_292_cif.got.tgz:582684.got - 2010.06.03 11:33:40.
