data_PCOD9039580
_publ_section_title
;
Structure prediction by ZEFSAII (Michael W. Deem and Ramdas Pophale) SiO2 
 PCOD9039580
Probable space group: P -1
;
_chemical_formula_sum "Si O2"
_cell_formula_units_Z 16
_cell_length_a 9.310816
_cell_length_b 14.480116
_cell_length_c 14.003014
_cell_angle_alpha 38.062403
_cell_angle_beta 103.323877
_cell_angle_gamma 132.426322
_cell_volume 644.847962
_symmetry_space_group_name_H-M "P -1"
_symmetry_group_IT_number 2
_symmetry_cell_setting 'triclinic'
loop_
_space_group_symop_operation_xyz
x,y,z
-x,-y,-z
loop_
_atom_site_type_symbol
_atom_site_label
_atom_site_fract_x
_atom_site_fract_y
_atom_site_fract_z
Si Si1 0.128289 0.461068 0.689450
Si Si2 0.024315 0.886234 0.214354
Si Si3 0.443424 0.458091 0.783800
Si Si4 0.415207 0.011278 0.248506
Si Si5 0.802420 0.909786 0.312571
Si Si6 0.760643 0.236226 0.284091
Si Si7 0.903670 0.771000 0.725138
Si Si8 0.762654 0.204347 0.995516
O O1 0.281006 0.472590 0.773234
O O2 0.291404 0.746544 0.467795
O O3 0.848400 0.267377 0.848045
O O4 0.096669 0.341687 0.684568
O O5 0.185655 0.936484 0.281034
O O6 0.843254 0.847119 0.275739
O O7 0.229631 0.158293 0.966376
O O8 0.614033 0.524249 0.839339
O O9 0.622672 0.665942 0.555976
O O10 0.653640 0.229985 0.178847
O O11 0.531612 0.110057 0.079198
O O12 0.054228 0.161521 0.211346
O O13 0.703298 0.988908 0.200218
O O14 0.976234 0.510665 0.148567
O O15 0.902524 0.200780 0.301516
O O16 0.500000 0.000000 0.500000
O O17 0.000000 0.000000 0.500000
#
# Coordination Sequence:
#
# PCOD9039580 Si02
#       8
#     2   2   2   2   2   2   2   2
#     4  12  26  49  70 103 142 189 242 289 346 410
#     4  12  29  44  73 105 138 189 249 284 342 418
#     4  11  24  45  70 102 142 179 236 295 339 410
#     4  12  26  48  71 106 144 184 231 295 353 421
#     4  11  25  44  72 103 142 183 231 290 355 419
#     4  12  25  43  74 106 146 182 223 293 360 426
#     4  10  23  42  69 106 138 179 230 284 354 422
#     4  12  25  44  76 102 141 189 231 283 366 419
#
# _framework density 24.812051
#
# number of rings (size 3 to 8) (size 9 to 14) (size 15 to 20)
#    0.000    0.500    5.000    2.625    5.250    3.500 
#    0.000    0.000    0.000    0.000    0.000    0.000 
#    0.000    0.000    0.000    0.000    0.000    0.000 
#
# Total GULP energy -89537.716020 kJ/mol
# GULP energy per Si atom -5596.107251 kJ/mol
# Density = 2.475558 g / cm^3
# Si number density = 24.812051 Si / 1000 Ang^3
#
#
#
# Elastic Constant Matrix: (Units=GPa)
#
#
# Indices 1 2 3 4 5 6 
#
# 1 76.4489 -4.9885 5.0665 8.9861 4.7587 -3.2298
# 2 -4.9885 79.4845 2.4283 -10.0784 -5.2338 -13.1758
# 3 5.0665 2.4283 93.0365 -4.0787 -2.3774 -13.8816
# 4 8.9861 -10.0784 -4.0787 28.5449 -12.8876 -5.6307
# 5 4.7587 -5.2338 -2.3774 -12.8876 38.6657 2.1853
# 6 -3.2298 -13.1758 -13.8816 -5.6307 2.1853 42.1192
#
#
#
# Elastic Compliance Matrix: (Units=1/GPa)
#
#
# Indices 1 2 3 4 5 6 
#
# 1 0.014157 -0.000162 -0.001154 -0.006484 -0.003996 -0.000005
# 2 -0.000162 0.014940 0.001006 0.008754 0.004687 0.005920
# 3 -0.001154 0.001006 0.011705 0.004263 0.002162 0.004541
# 4 -0.006484 0.008754 0.004263 0.051111 0.018743 0.009506
# 5 -0.003996 0.004687 0.002162 0.018743 0.033219 0.002655
# 6 -0.000005 0.005920 0.004541 0.009506 0.002655 0.028223
#
#
# Mechanical properties :
#
#
# Convention : Reuss Voigt Hill
#
# Bulk Modulus (GPa) = 24.88744 28.22026 26.55385
# Shear Modulus (GPa) = 29.87386 38.29688 34.08537
#
# Velocity S-wave (km/s) = 3.47364 3.93298 3.71042
# Velocity P-wave (km/s) = 5.11277 5.65886 5.39273
#
# Compressibility (1/GPa) = 0.04018091
#
# Stress axis : x y z
#
# Youngs Moduli (GPa) = 70.63534 66.93448 85.43505
#
# Poissons Ratio (x) = 0.01087 0.09858
# Poissons Ratio (y) = 0.01147 -0.08592
# Poissons Ratio (z) = 0.08150 -0.06731
#
# Static dielectric constant tensor:
#      x y z
#    x 1.923140 0.029480 -0.024890 
#    y 0.029480 2.042510 -0.006720 
#    z -0.024890 -0.006720 1.983300 
# 
# From -- ./inp_files/206541.got.cif
#   From: 2010.05.17/outbox.cif.g08.bks.cpg/sg2_104_cif.got.tgz:206541.got - 2010.06.03 11:33:40.
