data_PCOD9039483
_publ_section_title
;
Structure prediction by ZEFSAII (Michael W. Deem and Ramdas Pophale) SiO2 
 PCOD9039483
Probable space group: P -1
;
_chemical_formula_sum "Si O2"
_cell_formula_units_Z 14
_cell_length_a 8.932837
_cell_length_b 14.889310
_cell_length_c 9.068965
_cell_angle_alpha 74.972616
_cell_angle_beta 146.341453
_cell_angle_gamma 119.143586
_cell_volume 556.676662
_symmetry_space_group_name_H-M "P -1"
_symmetry_group_IT_number 2
_symmetry_cell_setting 'triclinic'
loop_
_space_group_symop_operation_xyz
x,y,z
-x,-y,-z
loop_
_atom_site_type_symbol
_atom_site_label
_atom_site_fract_x
_atom_site_fract_y
_atom_site_fract_z
Si Si1 0.997077 0.481705 0.333376
Si Si2 0.003796 0.787399 0.763377
Si Si3 0.329684 0.832000 0.707614
Si Si4 0.055397 0.374418 0.977175
Si Si5 0.169465 0.945847 0.078354
Si Si6 0.465320 0.399793 0.711480
Si Si7 0.832913 0.757402 0.093411
O O1 0.175883 0.417952 0.483544
O O2 0.000000 0.500000 0.500000
O O3 0.136080 0.593290 0.306342
O O4 0.647858 0.409545 0.008799
O O5 0.252780 0.829715 0.817541
O O6 0.071714 0.716357 0.965316
O O7 0.667554 0.706821 0.448280
O O8 0.009215 0.881978 0.823559
O O9 0.494770 0.955534 0.733326
O O10 0.563750 0.787285 0.882383
O O11 0.270941 0.486836 0.190709
O O12 0.253899 0.346098 0.034938
O O13 0.118123 0.852872 0.189575
O O14 0.000000 0.000000 0.000000
O O15 0.994673 0.237440 0.616236
#
# Coordination Sequence:
#
# PCOD9039483 Si02
#       7
#     2   2   2   2   2   2   2
#     4  10  23  42  68  97 142 187 238 282 335 402
#     4  11  23  45  68 109 141 187 227 293 358 412
#     4  11  24  43  69 106 139 176 235 293 346 408
#     4   9  24  44  70  99 146 189 236 278 342 419
#     4   9  21  48  75 100 137 183 234 290 350 421
#     4  10  24  41  66  99 144 182 233 282 344 405
#     4  10  23  43  71 102 136 188 231 280 346 415
#
# _framework density 25.149252000000001
#
# number of rings (size 3 to 8) (size 9 to 14) (size 15 to 20)
#    0.857    1.143    0.000    1.714    4.000    1.714 
#    2.571   15.000    0.000    0.000    0.000    0.000 
#    0.000    0.000    0.000    0.000    0.000    0.000 
#
# Total GULP energy -78276.123070 kJ/mol
# GULP energy per Si atom -5591.151648 kJ/mol
# Density = 2.509201 g / cm^3
# Si number density = 25.149252 Si / 1000 Ang^3
#
#
#
# Elastic Constant Matrix: (Units=GPa)
#
#
# Indices 1 2 3 4 5 6 
#
# 1 142.6896 33.5689 72.7596 -0.1315 -28.7425 -8.6401
# 2 33.5689 65.5969 44.4241 5.0079 1.2907 7.1690
# 3 72.7596 44.4241 174.5249 -10.8551 -19.5345 -25.7534
# 4 -0.1315 5.0079 -10.8551 49.9321 -6.0772 -8.0510
# 5 -28.7425 1.2907 -19.5345 -6.0772 44.5374 0.5307
# 6 -8.6401 7.1690 -25.7534 -8.0510 0.5307 47.0588
#
#
#
# Elastic Compliance Matrix: (Units=1/GPa)
#
#
# Indices 1 2 3 4 5 6 
#
# 1 0.010464 -0.004020 -0.002440 0.000823 0.005896 0.001273
# 2 -0.004020 0.023499 -0.006800 -0.006150 -0.006990 -0.009013
# 3 -0.002440 -0.006800 0.010172 0.004434 0.003607 0.006873
# 4 0.000823 -0.006150 0.004434 0.023518 0.005774 0.007473
# 5 0.005896 -0.006990 0.003607 0.005774 0.028774 0.004785
# 6 0.001273 -0.009013 0.006873 0.007473 0.004785 0.027842
#
#
# Mechanical properties :
#
#
# Convention : Reuss Voigt Hill
#
# Bulk Modulus (GPa) = 56.77478 76.03517 66.40498
# Shear Modulus (GPa) = 31.91592 43.77626 37.84609
#
# Velocity S-wave (km/s) = 3.56625 4.17665 3.88346
# Velocity P-wave (km/s) = 6.29140 7.31836 6.82422
#
# Compressibility (1/GPa) = 0.01761345
#
# Stress axis : x y z
#
# Youngs Moduli (GPa) = 95.56789 42.55413 98.31128
#
# Poissons Ratio (x) = 0.17108 0.23989
# Poissons Ratio (y) = 0.38420 0.66856
# Poissons Ratio (z) = 0.23319 0.28939
#
# Static dielectric constant tensor:
#      x y z
#    x 2.027980 0.060700 0.003060 
#    y 0.060700 2.053840 0.048720 
#    z 0.003060 0.048720 2.001180 
# 
# From -- ./inp_files/202315.got.cif
#   From: 2010.05.17/outbox.cif.g08.bks.cpg/sg2_102_cif.got.tgz:202315.got - 2010.06.03 11:33:40.
