data_PCOD9039107
_publ_section_title
;
Structure prediction by ZEFSAII (Michael W. Deem and Ramdas Pophale) SiO2 
 PCOD9039107
Probable space group: P -1
;
_chemical_formula_sum "Si O2"
_cell_formula_units_Z 16
_cell_length_a 10.880103
_cell_length_b 9.372481
_cell_length_c 10.319030
_cell_angle_alpha 81.257883
_cell_angle_beta 40.367821
_cell_angle_gamma 67.094352
_cell_volume 609.097463
_symmetry_space_group_name_H-M "P -1"
_symmetry_group_IT_number 2
_symmetry_cell_setting 'triclinic'
loop_
_space_group_symop_operation_xyz
x,y,z
-x,-y,-z
loop_
_atom_site_type_symbol
_atom_site_label
_atom_site_fract_x
_atom_site_fract_y
_atom_site_fract_z
Si Si1 0.244875 0.397875 0.804644
Si Si2 0.162461 0.949759 0.603514
Si Si3 0.601621 0.589024 0.585994
Si Si4 0.791654 0.868982 0.993489
Si Si5 0.256519 0.341304 0.170142
Si Si6 0.597413 0.312102 0.749434
Si Si7 0.078578 0.300855 0.590434
Si Si8 0.745303 0.104470 0.187204
O O1 0.323938 0.464595 0.611244
O O2 0.401784 0.388748 0.795515
O O3 0.235529 0.227070 0.847895
O O4 0.000000 0.500000 0.000000
O O5 0.269802 0.860688 0.396510
O O6 0.312431 0.916016 0.614288
O O7 0.012327 0.865956 0.774410
O O8 0.047492 0.140403 0.654754
O O9 0.689807 0.442038 0.635951
O O10 0.723606 0.701104 0.490060
O O11 0.356561 0.705968 0.775526
O O12 0.738769 0.786973 0.924636
O O13 0.670433 0.044128 0.126864
O O14 0.157601 0.303167 0.381021
O O15 0.111283 0.530880 0.239967
O O16 0.498423 0.315677 0.968334
O O17 0.000000 0.000000 0.000000
#
# Coordination Sequence:
#
# PCOD9039107 Si02
#       8
#     2   2   2   2   2   2   2   2
#     4  11  22  36  65  96 133 174 218 264 328 402
#     4  11  23  43  67 101 134 174 219 278 334 397
#     4  12  24  41  67 100 138 183 217 268 338 395
#     4  10  23  42  66  93 135 175 215 273 326 394
#     4  10  25  49  67  96 130 176 230 278 330 395
#     4  11  24  40  67  97 135 175 222 271 332 400
#     4  11  26  45  71  95 131 175 228 282 330 390
#     4  10  24  38  65 101 141 168 217 271 329 403
#
# _framework density 26.268373
#
# number of rings (size 3 to 8) (size 9 to 14) (size 15 to 20)
#    0.000    1.250    1.250    4.125   10.500    2.500 
#    0.000    0.000    0.000    0.000    0.000    0.000 
#    0.000    0.000    0.000    0.000    0.000    0.000 
#
# Total GULP energy -89218.237115 kJ/mol
# GULP energy per Si atom -5576.139820 kJ/mol
# Density = 2.620858 g / cm^3
# Si number density = 26.268373 Si / 1000 Ang^3
#
#
#
# Elastic Constant Matrix: (Units=GPa)
#
#
# Indices 1 2 3 4 5 6 
#
# 1 29.5365 5.4121 10.7285 -4.7778 -0.8019 8.0974
# 2 5.4121 130.0865 32.7749 -0.9361 3.5247 10.8521
# 3 10.7285 32.7749 128.6919 4.4773 10.8622 10.3526
# 4 -4.7778 -0.9361 4.4773 43.5995 1.9191 2.4724
# 5 -0.8019 3.5247 10.8622 1.9191 35.0269 2.0598
# 6 8.0974 10.8521 10.3526 2.4724 2.0598 23.5216
#
#
#
# Elastic Compliance Matrix: (Units=1/GPa)
#
#
# Indices 1 2 3 4 5 6 
#
# 1 0.039301 0.000099 -0.002609 0.005227 0.002187 -0.013168
# 2 0.000099 0.008434 -0.001916 0.000571 -0.000099 -0.003133
# 3 -0.002609 -0.001916 0.008863 -0.001027 -0.002454 -0.001796
# 4 0.005227 0.000571 -0.001027 0.023887 -0.000689 -0.004061
# 5 0.002187 -0.000099 -0.002454 -0.000689 0.029534 -0.002141
# 6 -0.013168 -0.003133 -0.001796 -0.004061 -0.002141 0.049898
#
#
# Mechanical properties :
#
#
# Convention : Reuss Voigt Hill
#
# Bulk Modulus (GPa) = 20.94362 42.90510 31.92436
# Shear Modulus (GPa) = 27.07341 36.38957 31.73149
#
# Velocity S-wave (km/s) = 3.21385 3.72600 3.47936
# Velocity P-wave (km/s) = 4.66498 5.90589 5.32173
#
# Compressibility (1/GPa) = 0.04774724
#
# Stress axis : x y z
#
# Youngs Moduli (GPa) = 25.44487 118.56925 112.82651
#
# Poissons Ratio (x) = -0.01174 0.29433
# Poissons Ratio (y) = -0.00252 0.21613
# Poissons Ratio (z) = 0.06638 0.22713
#
# Static dielectric constant tensor:
#      x y z
#    x 2.134770 0.088870 -0.079700 
#    y 0.088870 2.189520 0.025380 
#    z -0.079700 0.025380 2.012800 
# 
# From -- ./inp_files/447305.got.cif
#   From: 2010.05.17/outbox.cif.g08.bks.cpg/sg2_224_cif.got.tgz:447305.got - 2010.06.03 11:33:40.
