data_PCOD9039006
_publ_section_title
;
Structure prediction by ZEFSAII (Michael W. Deem and Ramdas Pophale) SiO2 
 PCOD9039006
Probable space group: P -1
;
_chemical_formula_sum "Si O2"
_cell_formula_units_Z 14
_cell_length_a 9.450434
_cell_length_b 12.187892
_cell_length_c 12.040304
_cell_angle_alpha 120.606714
_cell_angle_beta 47.695492
_cell_angle_gamma 144.697115
_cell_volume 590.103537
_symmetry_space_group_name_H-M "P -1"
_symmetry_group_IT_number 2
_symmetry_cell_setting 'triclinic'
loop_
_space_group_symop_operation_xyz
x,y,z
-x,-y,-z
loop_
_atom_site_type_symbol
_atom_site_label
_atom_site_fract_x
_atom_site_fract_y
_atom_site_fract_z
Si Si1 0.679849 0.884032 0.064493
Si Si2 0.416707 0.757172 0.359177
Si Si3 0.935604 0.199261 0.354114
Si Si4 0.403950 0.648161 0.544654
Si Si5 0.723856 0.440419 0.068344
Si Si6 0.047773 0.720542 0.844590
Si Si7 0.702990 0.690624 0.590629
O O1 0.459995 0.730399 0.198585
O O2 0.528044 0.762797 0.968592
O O3 0.723613 0.058256 0.125899
O O4 0.000000 0.000000 0.000000
O O5 0.132259 0.695778 0.505109
O O6 0.469689 0.693172 0.402695
O O7 0.654749 0.986183 0.355167
O O8 0.098769 0.303141 0.205588
O O9 0.054779 0.173212 0.375817
O O10 0.214102 0.673717 0.696787
O O11 0.677721 0.774016 0.545370
O O12 0.268991 0.442022 0.531489
O O13 0.844180 0.594957 0.990741
O O14 0.578891 0.433934 0.247719
O O15 0.000000 0.500000 0.000000
#
# Coordination Sequence:
#
# PCOD9039006 Si02
#       7
#     2   2   2   2   2   2   2
#     4  11  26  44  72 107 139 176 239 286 338 425
#     4   9  20  40  63  93 127 175 223 277 348 390
#     4   9  20  38  65  94 127 171 232 285 323 409
#     4  10  23  42  65  95 135 178 226 286 338 405
#     4  12  26  45  71 102 144 187 223 283 360 411
#     4  10  23  46  69  99 138 183 230 283 350 402
#     4  11  24  41  63 102 136 171 238 279 335 414
#
# _framework density 23.724651000000001
#
# number of rings (size 3 to 8) (size 9 to 14) (size 15 to 20)
#    0.000    1.714    1.429    2.571    6.000    3.429 
#    0.000    0.000    0.000    0.000    0.000    0.000 
#    0.000    0.000    0.000    0.000    0.000    0.000 
#
# Total GULP energy -78088.966236 kJ/mol
# GULP energy per Si atom -5577.783303 kJ/mol
# Density = 2.367065 g / cm^3
# Si number density = 23.724651 Si / 1000 Ang^3
#
#
#
# Elastic Constant Matrix: (Units=GPa)
#
#
# Indices 1 2 3 4 5 6 
#
# 1 138.2781 19.7564 36.1288 4.2201 20.3636 12.5497
# 2 19.7564 90.2844 25.5149 7.7791 4.9781 5.2332
# 3 36.1288 25.5149 102.0116 16.5907 23.4550 -1.5304
# 4 4.2201 7.7791 16.5907 25.0299 -11.9324 9.5078
# 5 20.3636 4.9781 23.4550 -11.9324 41.9798 2.4643
# 6 12.5497 5.2332 -1.5304 9.5078 2.4643 30.4577
#
#
#
# Elastic Compliance Matrix: (Units=1/GPa)
#
#
# Indices 1 2 3 4 5 6 
#
# 1 0.008650 -0.000922 -0.002487 0.000753 -0.002273 -0.003582
# 2 -0.000922 0.012192 -0.002563 -0.001317 0.000144 -0.001444
# 3 -0.002487 -0.002563 0.019122 -0.023558 -0.016522 0.011116
# 4 0.000753 -0.001317 -0.023558 0.086604 0.039418 -0.031492
# 5 -0.002273 0.000144 -0.016522 0.039418 0.046279 -0.015968
# 6 -0.003582 -0.001444 0.011116 -0.031492 -0.015968 0.046237
#
#
# Mechanical properties :
#
#
# Convention : Reuss Voigt Hill
#
# Bulk Modulus (GPa) = 35.68978 54.81935 45.25456
# Shear Modulus (GPa) = 20.80150 36.10506 28.45328
#
# Velocity S-wave (km/s) = 2.96427 3.90531 3.46687
# Velocity P-wave (km/s) = 5.17609 6.59484 5.92806
#
# Compressibility (1/GPa) = 0.02801923
#
# Stress axis : x y z
#
# Youngs Moduli (GPa) = 115.60642 82.02400 52.29693
#
# Poissons Ratio (x) = 0.07563 0.13004
# Poissons Ratio (y) = 0.10660 0.13405
# Poissons Ratio (z) = 0.28746 0.21025
#
# Static dielectric constant tensor:
#      x y z
#    x 1.967570 0.051660 -0.021290 
#    y 0.051660 1.935980 0.023630 
#    z -0.021290 0.023630 1.970010 
# 
# From -- ./inp_files/187568.got.cif
#   From: 2010.05.17/outbox.cif.g08.bks.cpg/sg2_94_cif.got.tgz:187568.got - 2010.06.03 11:33:40.
