data_PCOD9039237
_publ_section_title
;
Structure prediction by ZEFSAII (Michael W. Deem and Ramdas Pophale) SiO2 
 PCOD9039237
Probable space group: P -1
;
_chemical_formula_sum "Si O2"
_cell_formula_units_Z 16
_cell_length_a 14.634402
_cell_length_b 5.499551
_cell_length_c 11.618163
_cell_angle_alpha 90.021056
_cell_angle_beta 49.212484
_cell_angle_gamma 73.414618
_cell_volume 655.637859
_symmetry_space_group_name_H-M "P -1"
_symmetry_group_IT_number 2
_symmetry_cell_setting 'triclinic'
loop_
_space_group_symop_operation_xyz
x,y,z
-x,-y,-z
loop_
_atom_site_type_symbol
_atom_site_label
_atom_site_fract_x
_atom_site_fract_y
_atom_site_fract_z
Si Si1 0.181750 0.092573 0.056265
Si Si2 0.460604 0.720077 0.437358
Si Si3 0.562377 0.886180 0.070688
Si Si4 0.291832 0.177983 0.737132
Si Si5 0.902894 0.558999 0.286620
Si Si6 0.849024 0.383021 0.571631
Si Si7 0.030691 0.837970 0.307782
Si Si8 0.567018 0.520402 0.763514
O O1 0.036801 0.310145 0.168738
O O2 0.157882 0.871962 0.151465
O O3 0.233616 0.046280 0.882584
O O4 0.284910 0.181479 0.038976
O O5 0.500000 0.500000 0.500000
O O6 0.597525 0.743691 0.292269
O O7 0.394162 0.620021 0.391826
O O8 0.365524 0.983083 0.574173
O O9 0.497254 0.164342 0.196601
O O10 0.523625 0.633148 0.119421
O O11 0.500000 0.000000 0.000000
O O12 0.183325 0.408482 0.755527
O O13 0.840663 0.558803 0.464721
O O14 0.953721 0.793894 0.261530
O O15 0.921899 0.386174 0.631987
O O16 0.700028 0.437722 0.724687
O O17 0.930784 0.093787 0.454247
#
# Coordination Sequence:
#
# PCOD9039237 Si02
#       8
#     2   2   2   2   2   2   2   2
#     4  11  25  44  65 101 146 193 239 300 365 444
#     4  11  24  42  72 100 141 189 243 312 360 430
#     4  12  28  47  74 109 147 193 243 303 377 445
#     4  11  24  44  67 105 144 187 249 298 370 433
#     4  11  24  40  71  98 144 189 241 299 363 437
#     4  10  23  42  67 104 135 184 248 300 366 431
#     4  10  23  42  67  97 142 188 240 303 360 438
#     4  12  26  45  77 105 144 189 240 310 368 439
#
# _framework density 24.403714000000001
#
# number of rings (size 3 to 8) (size 9 to 14) (size 15 to 20)
#    0.000    1.000    1.250    4.125    8.750    2.500 
#    0.000    0.000    0.000    0.000    0.000    0.000 
#    0.000    0.000    0.000    0.000    0.000    0.000 
#
# Total GULP energy -89346.191602 kJ/mol
# GULP energy per Si atom -5584.136975 kJ/mol
# Density = 2.434817 g / cm^3
# Si number density = 24.403714 Si / 1000 Ang^3
#
#
#
# Elastic Constant Matrix: (Units=GPa)
#
#
# Indices 1 2 3 4 5 6 
#
# 1 120.1537 23.6719 27.7720 0.8509 -12.9839 -18.4317
# 2 23.6719 62.1711 27.1589 -16.9281 -15.8349 -8.4886
# 3 27.7720 27.1589 90.0577 -12.8290 -18.2110 -2.8091
# 4 0.8509 -16.9281 -12.8290 36.1401 9.2184 4.4395
# 5 -12.9839 -15.8349 -18.2110 9.2184 35.8984 -3.6589
# 6 -18.4317 -8.4886 -2.8091 4.4395 -3.6589 40.5460
#
#
#
# Elastic Compliance Matrix: (Units=1/GPa)
#
#
# Indices 1 2 3 4 5 6 
#
# 1 0.010397 -0.002589 -0.002201 -0.003551 0.002891 0.004682
# 2 -0.002589 0.022552 -0.003727 0.007539 0.005486 0.002956
# 3 -0.002201 -0.003727 0.014029 0.002352 0.004001 -0.000705
# 4 -0.003551 0.007539 0.002352 0.034149 -0.005958 -0.004150
# 5 0.002891 0.005486 0.004001 -0.005958 0.035554 0.006601
# 6 0.004682 0.002956 -0.000705 -0.004150 0.006601 0.028412
#
#
# Mechanical properties :
#
#
# Convention : Reuss Voigt Hill
#
# Bulk Modulus (GPa) = 33.39503 47.73200 40.56351
# Shear Modulus (GPa) = 29.05147 35.43554 32.24351
#
# Velocity S-wave (km/s) = 3.45404 3.81472 3.63885
# Velocity P-wave (km/s) = 5.44254 6.24536 5.85772
#
# Compressibility (1/GPa) = 0.02994458
#
# Stress axis : x y z
#
# Youngs Moduli (GPa) = 96.18055 44.34174 71.28207
#
# Poissons Ratio (x) = 0.11478 0.15688
# Poissons Ratio (y) = 0.24898 0.26569
# Poissons Ratio (z) = 0.21167 0.16527
#
# Static dielectric constant tensor:
#      x y z
#    x 1.893090 0.010510 -0.020640 
#    y 0.010510 1.973960 -0.054120 
#    z -0.020640 -0.054120 2.004250 
# 
# From -- ./inp_files/441882.got.cif
#   From: 2010.05.17/outbox.cif.g08.bks.cpg/sg2_221_cif.got.tgz:441882.got - 2010.06.03 11:33:40.
