data_PCOD9039761
_publ_section_title
;
Structure prediction by ZEFSAII (Michael W. Deem and Ramdas Pophale) SiO2 
 PCOD9039761
Probable space group: P -1
;
_chemical_formula_sum "Si O2"
_cell_formula_units_Z 16
_cell_length_a 14.707378
_cell_length_b 9.305118
_cell_length_c 13.874651
_cell_angle_alpha 77.948814
_cell_angle_beta 139.271983
_cell_angle_gamma 132.578765
_cell_volume 706.491697
_symmetry_space_group_name_H-M "P -1"
_symmetry_group_IT_number 2
_symmetry_cell_setting 'triclinic'
loop_
_space_group_symop_operation_xyz
x,y,z
-x,-y,-z
loop_
_atom_site_type_symbol
_atom_site_label
_atom_site_fract_x
_atom_site_fract_y
_atom_site_fract_z
Si Si1 0.119119 0.660398 0.197744
Si Si2 0.749936 0.488644 0.429414
Si Si3 0.987428 0.241576 0.196166
Si Si4 0.880900 0.745087 0.904770
Si Si5 0.595289 0.046851 0.416830
Si Si6 0.140142 0.911162 0.539687
Si Si7 0.240154 0.241858 0.868448
Si Si8 0.469823 0.544698 0.179705
O O1 0.234641 0.800247 0.373795
O O2 0.938335 0.368683 0.108705
O O3 0.335066 0.785563 0.286175
O O4 0.016166 0.719002 0.060268
O O5 0.592641 0.208503 0.348318
O O6 0.595588 0.496481 0.277153
O O7 0.848985 0.602041 0.600246
O O8 0.968651 0.667968 0.504380
O O9 0.112151 0.267983 0.202260
O O10 0.785074 0.952439 0.103649
O O11 0.621056 0.518254 0.775714
O O12 0.000000 0.000000 0.000000
O O13 0.715741 0.051547 0.431550
O O14 0.969630 0.883013 0.352553
O O15 0.336258 0.164677 0.725412
O O16 0.500000 0.500000 0.000000
O O17 0.243370 0.341614 0.955249
#
# Coordination Sequence:
#
# PCOD9039761 Si02
#       8
#     2   2   2   2   2   2   2   2
#     4  10  23  45  66 100 142 177 226 285 344 413
#     4  11  23  44  67  98 138 178 227 278 340 412
#     4  11  24  43  66  98 137 181 226 280 346 405
#     4  12  24  41  69 103 138 175 230 284 339 411
#     4  10  23  42  70  98 135 184 223 280 351 401
#     4  12  24  45  70 100 137 177 236 283 331 412
#     4  12  24  43  70  99 135 182 226 283 339 398
#     4  12  24  42  68 103 133 180 227 282 342 401
#
# _framework density 22.647117000000001
#
# number of rings (size 3 to 8) (size 9 to 14) (size 15 to 20)
#    0.000    0.750    3.750    4.125    0.000    0.500 
#    0.000    0.000    0.000    6.000    0.000    0.000 
#    0.000    0.000    0.000    0.000    0.000    0.000 
#
# Total GULP energy -89492.010092 kJ/mol
# GULP energy per Si atom -5593.250631 kJ/mol
# Density = 2.259557 g / cm^3
# Si number density = 22.647117 Si / 1000 Ang^3
#
#
#
# Elastic Constant Matrix: (Units=GPa)
#
#
# Indices 1 2 3 4 5 6 
#
# 1 116.0799 37.1168 17.6345 -9.5143 2.0415 2.8927
# 2 37.1168 142.6923 28.9001 18.8841 -0.8782 3.1766
# 3 17.6345 28.9001 49.2550 2.0227 -16.3297 -7.6244
# 4 -9.5143 18.8841 2.0227 32.0494 5.5474 -2.9501
# 5 2.0415 -0.8782 -16.3297 5.5474 36.7087 1.5402
# 6 2.8927 3.1766 -7.6244 -2.9501 1.5402 31.9895
#
#
#
# Elastic Compliance Matrix: (Units=1/GPa)
#
#
# Indices 1 2 3 4 5 6 
#
# 1 0.010544 -0.002745 -0.003515 0.005408 -0.002996 -0.000876
# 2 -0.002745 0.009623 -0.005058 -0.006250 -0.000820 -0.002450
# 3 -0.003515 -0.005058 0.030167 -0.001629 0.013438 0.007213
# 4 0.005408 -0.006250 -0.001629 0.038152 -0.007092 0.003603
# 5 -0.002996 -0.000820 0.013438 -0.007092 0.034386 0.001246
# 6 -0.000876 -0.002450 0.007213 0.003603 0.001246 0.033574
#
#
# Mechanical properties :
#
#
# Convention : Reuss Voigt Hill
#
# Bulk Modulus (GPa) = 36.10396 52.81443 44.45920
# Shear Modulus (GPa) = 26.55118 35.10793 30.82955
#
# Velocity S-wave (km/s) = 3.42773 3.94155 3.69358
# Velocity P-wave (km/s) = 5.62515 6.63970 6.15337
#
# Compressibility (1/GPa) = 0.02769779
#
# Stress axis : x y z
#
# Youngs Moduli (GPa) = 94.83701 103.91621 33.14864
#
# Poissons Ratio (x) = 0.28530 0.11653
# Poissons Ratio (y) = 0.26037 0.16766
# Poissons Ratio (z) = 0.33338 0.52558
#
# Static dielectric constant tensor:
#      x y z
#    x 1.892450 0.020830 -0.053480 
#    y 0.020830 1.847420 -0.002870 
#    z -0.053480 -0.002870 1.854630 
# 
# From -- ./inp_files/529687.got.cif
#   From: 2010.05.17/outbox.cif.g08.bks.cpg/sg2_265_cif.got.tgz:529687.got - 2010.06.03 11:33:40.
