data_PCOD9039303
_publ_section_title
;
Structure prediction by ZEFSAII (Michael W. Deem and Ramdas Pophale) SiO2 
 PCOD9039303
Probable space group: P -1
;
_chemical_formula_sum "Si O2"
_cell_formula_units_Z 12
_cell_length_a 16.417283
_cell_length_b 9.375862
_cell_length_c 11.138032
_cell_angle_alpha 116.739803
_cell_angle_beta 22.971147
_cell_angle_gamma 118.846065
_cell_volume 585.984504
_symmetry_space_group_name_H-M "P -1"
_symmetry_group_IT_number 2
_symmetry_cell_setting 'triclinic'
loop_
_space_group_symop_operation_xyz
x,y,z
-x,-y,-z
loop_
_atom_site_type_symbol
_atom_site_label
_atom_site_fract_x
_atom_site_fract_y
_atom_site_fract_z
Si Si1 0.851559 0.417853 0.776336
Si Si2 0.579874 0.833226 0.805675
Si Si3 0.505259 0.853543 0.339820
Si Si4 0.405897 0.365266 0.672938
Si Si5 0.148658 0.172191 0.335707
Si Si6 0.230467 0.042489 0.646228
O O1 0.000000 0.500000 0.500000
O O2 0.992521 0.299824 0.597454
O O3 0.621290 0.305684 0.012939
O O4 0.798056 0.569071 0.979317
O O5 0.684655 0.784085 0.765680
O O6 0.751802 0.892949 0.489548
O O7 0.500000 0.000000 0.000000
O O8 0.461529 0.685211 0.412201
O O9 0.500000 0.000000 0.500000
O O10 0.347762 0.893705 0.464256
O O11 0.724823 0.846671 0.967589
O O12 0.500000 0.500000 0.500000
O O13 0.351153 0.199333 0.612357
O O14 0.000000 0.000000 0.500000
O O15 0.000000 0.000000 0.000000
#
# Coordination Sequence:
#
# PCOD9039303 Si02
#       6
#     2   2   2   2   2   2
#     4  12  26  46  70 102 142 186 226 290 354 401
#     4  12  25  44  70 105 141 177 241 283 337 426
#     4  10  23  42  67  96 132 183 230 271 346 414
#     4  11  24  46  67  96 142 177 227 288 347 397
#     4  12  25  43  73 102 140 186 231 282 351 420
#     4  11  25  44  71  99 137 181 232 286 341 420
#
# _framework density 20.478356999999999
#
# number of rings (size 3 to 8) (size 9 to 14) (size 15 to 20)
#    0.000    0.667    6.667    0.000    9.333    0.667 
#    3.000    1.667    0.000    0.000    0.000    0.000 
#    0.000    0.000    0.000    0.000    0.000    0.000 
#
# Total GULP energy -66874.918014 kJ/mol
# GULP energy per Si atom -5572.909834 kJ/mol
# Density = 2.043175 g / cm^3
# Si number density = 20.478357 Si / 1000 Ang^3
#
#
#
# Elastic Constant Matrix: (Units=GPa)
#
#
# Indices 1 2 3 4 5 6 
#
# 1 90.9686 30.8766 33.4076 0.9828 1.0317 -26.5053
# 2 30.8766 78.9791 14.5210 3.1638 -5.8249 -46.8972
# 3 33.4076 14.5210 100.5868 -0.6083 17.8587 -24.8829
# 4 0.9828 3.1638 -0.6083 51.8632 -9.3752 -0.9363
# 5 1.0317 -5.8249 17.8587 -9.3752 44.8948 1.6643
# 6 -26.5053 -46.8972 -24.8829 -0.9363 1.6643 35.8388
#
#
#
# Elastic Compliance Matrix: (Units=1/GPa)
#
#
# Indices 1 2 3 4 5 6 
#
# 1 0.014576 0.000592 -0.002588 -0.000096 0.000390 0.009737
# 2 0.000592 0.073356 0.016062 -0.002612 -0.001419 0.107577
# 3 -0.002588 0.016062 0.017340 -0.001279 -0.006185 0.031397
# 4 -0.000096 -0.002612 -0.001279 0.020174 0.004535 -0.004061
# 5 0.000390 -0.001419 -0.006185 0.004535 0.025746 -0.006940
# 6 0.009737 0.107577 0.031397 -0.004061 -0.006940 0.197890
#
#
# Mechanical properties :
#
#
# Convention : Reuss Voigt Hill
#
# Bulk Modulus (GPa) = 7.49606 47.57167 27.53387
# Shear Modulus (GPa) = 13.68300 39.30132 26.49216
#
# Velocity S-wave (km/s) = 2.58770 4.38558 3.60066
# Velocity P-wave (km/s) = 3.54918 6.99464 5.54625
#
# Compressibility (1/GPa) = 0.13340335
#
# Stress axis : x y z
#
# Youngs Moduli (GPa) = 68.60648 13.63223 57.67127
#
# Poissons Ratio (x) = -0.00807 0.14923
# Poissons Ratio (y) = -0.04060 -0.92631
# Poissons Ratio (z) = 0.17752 -0.21896
#
# Static dielectric constant tensor:
#      x y z
#    x 1.758460 0.059930 -0.007500 
#    y 0.059930 1.671350 0.014430 
#    z -0.007500 0.014430 1.670320 
# 
# From -- ./inp_files/148576.got.cif
#   From: 2010.05.17/outbox.cif.g08.bks.cpg/sg2_75_cif.got.tgz:148576.got - 2010.06.03 11:33:40.
