data_PCOD9039868
_publ_section_title
;
Structure prediction by ZEFSAII (Michael W. Deem and Ramdas Pophale) SiO2 
 PCOD9039868
Probable space group: P -1
;
_chemical_formula_sum "Si O2"
_cell_formula_units_Z 14
_cell_length_a 23.241243
_cell_length_b 8.528302
_cell_length_c 19.190969
_cell_angle_alpha 140.894688
_cell_angle_beta 166.001405
_cell_angle_gamma 39.752028
_cell_volume 577.222024
_symmetry_space_group_name_H-M "P -1"
_symmetry_group_IT_number 2
_symmetry_cell_setting 'triclinic'
loop_
_space_group_symop_operation_xyz
x,y,z
-x,-y,-z
loop_
_atom_site_type_symbol
_atom_site_label
_atom_site_fract_x
_atom_site_fract_y
_atom_site_fract_z
Si Si1 0.090490 0.848502 0.504193
Si Si2 0.599133 0.796611 0.006864
Si Si3 0.963700 0.851318 0.836726
Si Si4 0.294655 0.102411 0.053379
Si Si5 0.542874 0.601474 0.207216
Si Si6 0.454136 0.510315 0.297731
Si Si7 0.144402 0.227895 0.077215
O O1 0.332689 0.932942 0.771433
O O2 0.250353 0.612344 0.648396
O O3 0.854003 0.875826 0.294539
O O4 0.922577 0.846769 0.238168
O O5 0.646838 0.558487 0.033511
O O6 0.492257 0.661563 0.766045
O O7 0.184594 0.639287 0.017316
O O8 0.990330 0.031820 0.865225
O O9 0.706882 0.748004 0.502104
O O10 0.000000 0.000000 0.000000
O O11 0.461315 0.318306 0.304759
O O12 0.216918 0.134118 0.052925
O O13 0.418865 0.821074 0.089854
O O14 0.625397 0.722653 0.588614
O O15 0.000000 0.500000 0.000000
#
# Coordination Sequence:
#
# PCOD9039868 Si02
#       7
#     2   2   2   2   2   2   2
#     4  11  23  47  70 100 139 185 233 283 348 405
#     4  10  23  42  71  98 133 184 231 280 341 410
#     4  12  23  43  71  99 140 187 228 282 351 418
#     4  12  25  44  71 102 142 180 229 290 347 412
#     4  11  24  44  68 101 139 176 235 280 347 405
#     4  12  23  45  70  98 142 182 228 286 348 415
#     4  12  27  42  67 108 140 177 235 285 350 418
#
# _framework density 24.254100000000001
#
# number of rings (size 3 to 8) (size 9 to 14) (size 15 to 20)
#    0.000    0.571    2.857    5.143    4.000    1.143 
#    0.000    0.000    0.000    0.000    0.000    0.000 
#    0.000    0.000    0.000    0.000    0.000    0.000 
#
# Total GULP energy -78157.408989 kJ/mol
# GULP energy per Si atom -5582.672071 kJ/mol
# Density = 2.419890 g / cm^3
# Si number density = 24.254100 Si / 1000 Ang^3
#
#
#
# Elastic Constant Matrix: (Units=GPa)
#
#
# Indices 1 2 3 4 5 6 
#
# 1 140.1472 28.1749 27.3951 -10.4356 30.2163 -32.0116
# 2 28.1749 165.5006 38.9634 -5.8959 15.8805 6.1088
# 3 27.3951 38.9634 140.6456 8.7132 0.0246 -6.0845
# 4 -10.4356 -5.8959 8.7132 48.1238 2.3588 6.7836
# 5 30.2163 15.8805 0.0246 2.3588 32.2286 0.0073
# 6 -32.0116 6.1088 -6.0845 6.7836 0.0073 36.9987
#
#
#
# Elastic Compliance Matrix: (Units=1/GPa)
#
#
# Indices 1 2 3 4 5 6 
#
# 1 0.012761 -0.000918 -0.001905 0.002092 -0.011666 0.010498
# 2 -0.000918 0.007078 -0.001987 0.001524 -0.002737 -0.002568
# 3 -0.001905 -0.001987 0.008196 -0.002349 0.002931 0.000458
# 4 0.002092 0.001524 -0.002349 0.022474 -0.004355 -0.002948
# 5 -0.011666 -0.002737 0.002931 -0.004355 0.043633 -0.008370
# 6 0.010498 -0.002568 0.000458 -0.002948 -0.008370 0.037153
#
#
# Mechanical properties :
#
#
# Convention : Reuss Voigt Hill
#
# Bulk Modulus (GPa) = 54.29930 70.59559 62.44744
# Shear Modulus (GPa) = 34.00128 46.92088 40.46108
#
# Velocity S-wave (km/s) = 3.74823 4.40313 4.08881
# Velocity P-wave (km/s) = 6.41627 7.41754 6.93500
#
# Compressibility (1/GPa) = 0.01841644
#
# Stress axis : x y z
#
# Youngs Moduli (GPa) = 78.36315 141.28249 122.00462
#
# Poissons Ratio (x) = 0.12964 0.23240
# Poissons Ratio (y) = 0.07190 0.24244
# Poissons Ratio (z) = 0.14927 0.28075
#
# Static dielectric constant tensor:
#      x y z
#    x 1.930560 -0.023660 0.019090 
#    y -0.023660 2.001360 0.048460 
#    z 0.019090 0.048460 1.980260 
# 
# From -- ./inp_files/621462.got.cif
#   From: 2010.05.17/outbox.cif.g08.bks.cpg/sg2_311_cif.got.tgz:621462.got - 2010.06.03 11:33:40.
