data_PCOD9039531
_publ_section_title
;
Structure prediction by ZEFSAII (Michael W. Deem and Ramdas Pophale) SiO2 
 PCOD9039531
Probable space group: P -1
;
_chemical_formula_sum "Si O2"
_cell_formula_units_Z 12
_cell_length_a 10.064058
_cell_length_b 7.882678
_cell_length_c 7.094092
_cell_angle_alpha 123.888997
_cell_angle_beta 88.808491
_cell_angle_gamma 81.602149
_cell_volume 458.575997
_symmetry_space_group_name_H-M "P -1"
_symmetry_group_IT_number 2
_symmetry_cell_setting 'triclinic'
loop_
_space_group_symop_operation_xyz
x,y,z
-x,-y,-z
loop_
_atom_site_type_symbol
_atom_site_label
_atom_site_fract_x
_atom_site_fract_y
_atom_site_fract_z
Si Si1 0.161524 0.504603 0.829116
Si Si2 0.606483 0.308923 0.960579
Si Si3 0.893440 0.824166 0.101108
Si Si4 0.508054 0.928946 0.676238
Si Si5 0.788545 0.669745 0.649004
Si Si6 0.749121 0.227994 0.515955
O O1 0.293956 0.601425 0.848369
O O2 0.883118 0.596765 0.421739
O O3 0.043501 0.688348 0.015380
O O4 0.190968 0.317394 0.861806
O O5 0.706078 0.214936 0.727232
O O6 0.520332 0.138529 0.919056
O O7 0.500000 0.500000 0.000000
O O8 0.871935 0.049171 0.334742
O O9 0.841517 0.822945 0.887851
O O10 0.645886 0.775662 0.628669
O O11 0.377820 0.824419 0.632070
O O12 0.500000 0.000000 0.500000
O O13 0.773251 0.458427 0.624175
#
# Coordination Sequence:
#
# PCOD9039531 Si02
#       6
#     2   2   2   2   2   2
#     4  11  24  47  72 102 142 186 232 286 345 413
#     4  11  22  44  75 102 139 185 230 286 355 412
#     4  11  26  48  70 102 142 186 235 283 344 419
#     4  10  23  42  69 100 138 179 225 287 345 410
#     4  12  25  46  71 105 140 181 235 289 347 413
#     4  11  24  45  69 105 140 181 233 288 349 411
#
# _framework density 26.167964999999999
#
# number of rings (size 3 to 8) (size 9 to 14) (size 15 to 20)
#    0.000    1.000    1.667    6.000    2.333    2.000 
#    3.000    0.000    0.000    0.000    0.000    0.000 
#    0.000    0.000    0.000    0.000    0.000    0.000 
#
# Total GULP energy -67278.198702 kJ/mol
# GULP energy per Si atom -5606.516558 kJ/mol
# Density = 2.610841 g / cm^3
# Si number density = 26.167965 Si / 1000 Ang^3
#
#
#
# Elastic Constant Matrix: (Units=GPa)
#
#
# Indices 1 2 3 4 5 6 
#
# 1 58.7305 12.1004 5.8048 2.2919 8.4702 -3.6079
# 2 12.1004 89.5809 28.7098 12.0192 -6.0849 0.5193
# 3 5.8048 28.7098 137.4314 4.8483 -5.2873 -5.1919
# 4 2.2919 12.0192 4.8483 48.2853 -6.0807 -3.3330
# 5 8.4702 -6.0849 -5.2873 -6.0807 40.2099 4.0175
# 6 -3.6079 0.5193 -5.1919 -3.3330 4.0175 36.5129
#
#
#
# Elastic Compliance Matrix: (Units=1/GPa)
#
#
# Indices 1 2 3 4 5 6 
#
# 1 0.018433 -0.002640 -0.000298 -0.000616 -0.004642 0.002271
# 2 -0.002640 0.012795 -0.002442 -0.002662 0.001893 -0.001241
# 3 -0.000298 -0.002442 0.007863 -0.000017 0.000619 0.001054
# 4 -0.000616 -0.002662 -0.000017 0.021879 0.002868 0.001656
# 5 -0.004642 0.001893 0.000619 0.002868 0.026959 -0.003102
# 6 0.002271 -0.001241 0.001054 0.001656 -0.003102 0.028272
#
#
# Mechanical properties :
#
#
# Convention : Reuss Voigt Hill
#
# Bulk Modulus (GPa) = 35.29598 42.10809 38.70203
# Shear Modulus (GPa) = 36.65541 40.94348 38.79945
#
# Velocity S-wave (km/s) = 3.74675 3.95985 3.85477
# Velocity P-wave (km/s) = 5.67759 6.08552 5.88509
#
# Compressibility (1/GPa) = 0.02833184
#
# Stress axis : x y z
#
# Youngs Moduli (GPa) = 54.24954 78.15463 127.17404
#
# Poissons Ratio (x) = 0.20635 0.03791
# Poissons Ratio (y) = 0.14323 0.31051
# Poissons Ratio (z) = 0.01617 0.19082
#
# Static dielectric constant tensor:
#      x y z
#    x 2.037450 0.019450 -0.015000 
#    y 0.019450 2.027930 -0.026510 
#    z -0.015000 -0.026510 2.090950 
# 
# From -- ./inp_files/241465.got.cif
#   From: 2010.05.17/outbox.cif.g08.bks.cpg/sg2_121_cif.got.tgz:241465.got - 2010.06.03 11:33:40.
