data_PCOD9039455
_publ_section_title
;
Structure prediction by ZEFSAII (Michael W. Deem and Ramdas Pophale) SiO2 
 PCOD9039455
Probable space group: P -1
;
_chemical_formula_sum "Si O2"
_cell_formula_units_Z 16
_cell_length_a 4.938685
_cell_length_b 19.018149
_cell_length_c 9.207004
_cell_angle_alpha 121.042339
_cell_angle_beta 129.529558
_cell_angle_gamma 76.967956
_cell_volume 564.522335
_symmetry_space_group_name_H-M "P -1"
_symmetry_group_IT_number 2
_symmetry_cell_setting 'triclinic'
loop_
_space_group_symop_operation_xyz
x,y,z
-x,-y,-z
loop_
_atom_site_type_symbol
_atom_site_label
_atom_site_fract_x
_atom_site_fract_y
_atom_site_fract_z
Si Si1 0.637744 0.858778 0.367262
Si Si2 0.609431 0.615611 0.714340
Si Si3 0.172773 0.199744 0.033927
Si Si4 0.530291 0.953099 0.173066
Si Si5 0.699195 0.887217 0.758934
Si Si6 0.300716 0.555618 0.823021
Si Si7 0.396454 0.372340 0.623652
Si Si8 0.931682 0.697583 0.290285
O O1 0.661177 0.943167 0.371886
O O2 0.665795 0.875377 0.564304
O O3 0.898610 0.793128 0.350281
O O4 0.250051 0.811478 0.136487
O O5 0.682940 0.711768 0.888619
O O6 0.295235 0.571864 0.662569
O O7 0.602647 0.619884 0.542481
O O8 0.938981 0.565048 0.791900
O O9 0.338375 0.195896 0.247958
O O10 0.289009 0.117069 0.918137
O O11 0.566784 0.046716 0.225954
O O12 0.105729 0.924502 0.981293
O O13 0.418696 0.466523 0.787453
O O14 0.589953 0.632128 0.055901
O O15 0.086418 0.318021 0.556207
O O16 0.746075 0.329991 0.716588
#
# Coordination Sequence:
#
# PCOD9039455 Si02
#       8
#     2   2   2   2   2   2   2   2
#     4  11  24  41  66  95 135 174 224 275 338 402
#     4  12  25  43  70  99 135 178 227 280 343 403
#     4  11  24  41  65  96 133 175 219 282 333 404
#     4  10  23  42  68  96 134 170 222 275 338 400
#     4  10  23  43  66  99 130 174 219 277 335 407
#     4  12  24  46  68  97 137 177 224 283 342 405
#     4  12  26  43  69  99 133 179 228 281 340 409
#     4  12  25  43  66 100 135 176 228 278 339 404
#
# _framework density 28.342545999999999
#
# number of rings (size 3 to 8) (size 9 to 14) (size 15 to 20)
#    0.000    0.750    1.250    6.000    5.250    1.500 
#    0.000    0.000    0.000    0.000    0.000    0.000 
#    0.000    0.000    0.000    0.000    0.000    0.000 
#
# Total GULP energy -89761.657416 kJ/mol
# GULP energy per Si atom -5610.103588 kJ/mol
# Density = 2.827804 g / cm^3
# Si number density = 28.342546 Si / 1000 Ang^3
#
#
#
# Elastic Constant Matrix: (Units=GPa)
#
#
# Indices 1 2 3 4 5 6 
#
# 1 153.2372 63.1444 18.8405 -4.1776 -7.8762 -12.3703
# 2 63.1444 218.9000 30.3832 -7.4642 -8.0007 -14.3531
# 3 18.8405 30.3832 98.6809 -25.1485 -34.6668 -7.2596
# 4 -4.1776 -7.4642 -25.1485 48.9734 1.1050 -10.4082
# 5 -7.8762 -8.0007 -34.6668 1.1050 44.8548 -2.9839
# 6 -12.3703 -14.3531 -7.2596 -10.4082 -2.9839 68.7024
#
#
#
# Elastic Compliance Matrix: (Units=1/GPa)
#
#
# Indices 1 2 3 4 5 6 
#
# 1 0.007530 -0.002014 -0.000426 0.000307 0.000691 0.000967
# 2 -0.002014 0.005364 -0.001332 0.000101 -0.000388 0.000616
# 3 -0.000426 -0.001332 0.018134 0.009528 0.013707 0.003600
# 4 0.000307 0.000101 0.009528 0.026337 0.007145 0.005383
# 5 0.000691 -0.000388 0.013707 0.007145 0.033031 0.004009
# 6 0.000967 0.000616 0.003600 0.005383 0.004009 0.016228
#
#
# Mechanical properties :
#
#
# Convention : Reuss Voigt Hill
#
# Bulk Modulus (GPa) = 42.58277 77.28381 59.93329
# Shear Modulus (GPa) = 40.98551 56.40279 48.69415
#
# Velocity S-wave (km/s) = 3.80686 4.46583 4.14944
# Velocity P-wave (km/s) = 5.86343 7.34292 6.64448
#
# Compressibility (1/GPa) = 0.02348367
#
# Stress axis : x y z
#
# Youngs Moduli (GPa) = 132.80325 186.43535 55.14641
#
# Poissons Ratio (x) = 0.37547 0.02347
# Poissons Ratio (y) = 0.26746 0.07347
# Poissons Ratio (z) = 0.05653 0.24837
#
# Static dielectric constant tensor:
#      x y z
#    x 2.166710 0.033570 -0.049650 
#    y 0.033570 2.136250 -0.065160 
#    z -0.049650 -0.065160 2.374180 
# 
# From -- ./inp_files/44680.got.cif
#   From: 2010.05.17/outbox.cif.g08.bks.cpg/sg2_23_cif.got.tgz:44680.got - 2010.06.03 11:33:40.
