data_PCOD9039395
_publ_section_title
;
Structure prediction by ZEFSAII (Michael W. Deem and Ramdas Pophale) SiO2 
 PCOD9039395
Probable space group: P -1
;
_chemical_formula_sum "Si O2"
_cell_formula_units_Z 14
_cell_length_a 9.992185
_cell_length_b 9.538866
_cell_length_c 20.417428
_cell_angle_alpha 43.706833
_cell_angle_beta 155.420594
_cell_angle_gamma 136.190500
_cell_volume 545.160753
_symmetry_space_group_name_H-M "P -1"
_symmetry_group_IT_number 2
_symmetry_cell_setting 'triclinic'
loop_
_space_group_symop_operation_xyz
x,y,z
-x,-y,-z
loop_
_atom_site_type_symbol
_atom_site_label
_atom_site_fract_x
_atom_site_fract_y
_atom_site_fract_z
Si Si1 0.028872 0.678606 0.144407
Si Si2 0.217779 0.227861 0.505991
Si Si3 0.325971 0.881414 0.092393
Si Si4 0.078894 0.374678 0.737209
Si Si5 0.868488 0.936369 0.752329
Si Si6 0.954278 0.212992 0.256760
Si Si7 0.608977 0.493478 0.821970
O O1 0.415772 0.740542 0.314526
O O2 0.026196 0.823115 0.030733
O O3 0.861590 0.671217 0.143876
O O4 0.926989 0.445717 0.150392
O O5 0.057764 0.415784 0.395519
O O6 0.213350 0.243978 0.420201
O O7 0.000000 0.000000 0.500000
O O8 0.483363 0.680194 0.217279
O O9 0.613389 0.070301 0.178883
O O10 0.177457 0.932652 0.939718
O O11 0.395158 0.414011 0.817237
O O12 0.830762 0.169474 0.667564
O O13 0.593313 0.730922 0.718838
O O14 0.955241 0.898066 0.729684
O O15 0.000000 0.500000 0.000000
#
# Coordination Sequence:
#
# PCOD9039395 Si02
#       7
#     2   2   2   2   2   2   2
#     4  11  25  46  69 100 140 190 237 285 351 409
#     4  11  25  49  73  95 143 188 238 292 349 409
#     4  11  22  41  72 102 140 189 226 284 354 420
#     4  11  25  43  71 106 139 182 242 287 347 419
#     4  11  24  40  71 104 142 178 235 285 355 417
#     4  11  21  41  73  97 137 192 224 286 354 411
#     4  10  23  42  68 102 146 184 223 287 344 420
#
# _framework density 25.680498
#
# number of rings (size 3 to 8) (size 9 to 14) (size 15 to 20)
#    0.000    1.143    4.286    2.143    4.000    0.571 
#    0.000   14.286    0.000    0.000    0.000    0.000 
#    0.000    0.000    0.000    0.000    0.000    0.000 
#
# Total GULP energy -78371.201058 kJ/mol
# GULP energy per Si atom -5597.942933 kJ/mol
# Density = 2.562205 g / cm^3
# Si number density = 25.680498 Si / 1000 Ang^3
#
#
#
# Elastic Constant Matrix: (Units=GPa)
#
#
# Indices 1 2 3 4 5 6 
#
# 1 169.4255 43.8803 20.8725 -27.8002 19.8590 6.4641
# 2 43.8803 214.8946 23.2645 -21.4519 27.7503 -2.7431
# 3 20.8725 23.2645 51.6022 0.1346 10.2891 -4.5233
# 4 -27.8002 -21.4519 0.1346 21.8919 -3.4882 8.0918
# 5 19.8590 27.7503 10.2891 -3.4882 35.7679 4.9250
# 6 6.4641 -2.7431 -4.5233 8.0918 4.9250 60.6595
#
#
#
# Elastic Compliance Matrix: (Units=1/GPa)
#
#
# Indices 1 2 3 4 5 6 
#
# 1 0.008544 0.000022 -0.003241 0.011432 -0.002372 -0.002484
# 2 0.000022 0.005833 -0.002004 0.005334 -0.003396 -0.000324
# 3 -0.003241 -0.002004 0.022806 -0.008193 -0.004475 0.003412
# 4 0.011432 0.005334 -0.008193 0.069516 0.000148 -0.010873
# 5 -0.002372 -0.003396 -0.004475 0.000148 0.033623 -0.002984
# 6 -0.002484 -0.000324 0.003412 -0.010873 -0.002984 0.018683
#
#
# Mechanical properties :
#
#
# Convention : Reuss Voigt Hill
#
# Bulk Modulus (GPa) = 37.39921 67.99524 52.69723
# Shear Modulus (GPa) = 28.03292 46.85752 37.44522
#
# Velocity S-wave (km/s) = 3.30753 4.27621 3.82267
# Velocity P-wave (km/s) = 5.40196 7.13555 6.32840
#
# Compressibility (1/GPa) = 0.02673853
#
# Stress axis : x y z
#
# Youngs Moduli (GPa) = 117.03537 171.44338 43.84837
#
# Poissons Ratio (x) = -0.00375 0.14209
# Poissons Ratio (y) = -0.00256 0.08786
# Poissons Ratio (z) = 0.37926 0.34351
#
# Static dielectric constant tensor:
#      x y z
#    x 2.022670 0.030660 -0.022030 
#    y 0.030660 2.061490 -0.072490 
#    z -0.022030 -0.072490 2.036230 
# 
# From -- ./inp_files/587866.got.cif
#   From: 2010.05.17/outbox.cif.g08.bks.cpg/sg2_294_cif.got.tgz:587866.got - 2010.06.03 11:33:40.
