data_PCOD9039523
_publ_section_title
;
Structure prediction by ZEFSAII (Michael W. Deem and Ramdas Pophale) SiO2 
 PCOD9039523
Probable space group: P -1
;
_chemical_formula_sum "Si O2"
_cell_formula_units_Z 12
_cell_length_a 12.008760
_cell_length_b 10.721626
_cell_length_c 9.684669
_cell_angle_alpha 34.983796
_cell_angle_beta 68.708363
_cell_angle_gamma 48.899078
_cell_volume 492.288142
_symmetry_space_group_name_H-M "P -1"
_symmetry_group_IT_number 2
_symmetry_cell_setting 'triclinic'
loop_
_space_group_symop_operation_xyz
x,y,z
-x,-y,-z
loop_
_atom_site_type_symbol
_atom_site_label
_atom_site_fract_x
_atom_site_fract_y
_atom_site_fract_z
Si Si1 0.632052 0.159395 0.205606
Si Si2 0.365428 0.847713 0.233499
Si Si3 0.541433 0.877732 0.894618
Si Si4 0.921689 0.590354 0.730647
Si Si5 0.876819 0.345729 0.231950
Si Si6 0.888916 0.942856 0.047306
O O1 0.761661 0.926807 0.471286
O O2 0.747610 0.098655 0.083389
O O3 0.500000 0.500000 0.000000
O O4 0.536488 0.070597 0.264851
O O5 0.500000 0.500000 0.500000
O O6 0.407860 0.974404 0.980180
O O7 0.382122 0.979308 0.241518
O O8 0.204705 0.927340 0.176592
O O9 0.688592 0.528812 0.169763
O O10 0.060997 0.562029 0.764653
O O11 0.990204 0.404302 0.727709
O O12 0.884445 0.446807 0.986638
O O13 0.000000 0.000000 0.500000
O O14 0.000000 0.000000 0.000000
#
# Coordination Sequence:
#
# PCOD9039523 Si02
#       6
#     2   2   2   2   2   2
#     4  11  26  48  73 107 148 188 238 298 362 425
#     4  10  23  42  69 100 135 182 237 283 354 422
#     4  10  23  43  67  99 139 181 229 296 345 419
#     4  11  26  46  71 107 144 185 243 291 360 428
#     4  11  25  44  74 101 139 188 237 296 354 424
#     4  11  26  45  72 109 140 193 236 295 358 427
#
# _framework density 24.375969999999999
#
# number of rings (size 3 to 8) (size 9 to 14) (size 15 to 20)
#    0.000    1.333    1.667    1.500    9.333    3.333 
#    0.000    0.000    0.000    0.000    0.000    0.000 
#    0.000    0.000    0.000    0.000    0.000    0.000 
#
# Total GULP energy -67086.979756 kJ/mol
# GULP energy per Si atom -5590.581646 kJ/mol
# Density = 2.432049 g / cm^3
# Si number density = 24.375970 Si / 1000 Ang^3
#
#
#
# Elastic Constant Matrix: (Units=GPa)
#
#
# Indices 1 2 3 4 5 6 
#
# 1 143.1789 39.9778 17.3341 2.5284 26.8605 10.5200
# 2 39.9778 148.7077 39.4727 -17.1910 -4.4753 1.6102
# 3 17.3341 39.4727 96.8205 -18.8358 22.8292 1.5362
# 4 2.5284 -17.1910 -18.8358 39.6653 0.3975 8.6166
# 5 26.8605 -4.4753 22.8292 0.3975 35.5111 -8.0138
# 6 10.5200 1.6102 1.5362 8.6166 -8.0138 31.4614
#
#
#
# Elastic Compliance Matrix: (Units=1/GPa)
#
#
# Indices 1 2 3 4 5 6 
#
# 1 0.010274 -0.003642 0.002491 0.000445 -0.011273 -0.006364
# 2 -0.003642 0.009305 -0.004662 0.001438 0.007468 0.002478
# 3 0.002491 -0.004662 0.016944 0.007617 -0.015110 -0.007357
# 4 0.000445 0.001438 0.007617 0.031976 -0.007979 -0.011384
# 5 -0.011273 0.007468 -0.015110 -0.007979 0.051835 0.019514
# 6 -0.006364 0.002478 -0.007357 -0.011384 0.019514 0.042234
#
#
# Mechanical properties :
#
#
# Convention : Reuss Voigt Hill
#
# Bulk Modulus (GPa) = 40.16435 64.69741 52.43088
# Shear Modulus (GPa) = 27.39816 40.78907 34.09361
#
# Velocity S-wave (km/s) = 3.35622 4.09507 3.74392
# Velocity P-wave (km/s) = 5.61531 6.99704 6.34391
#
# Compressibility (1/GPa) = 0.02489770
#
# Stress axis : x y z
#
# Youngs Moduli (GPa) = 97.33126 107.46457 59.01670
#
# Poissons Ratio (x) = 0.39141 -0.14701
# Poissons Ratio (y) = 0.35450 0.27513
# Poissons Ratio (z) = -0.24245 0.50099
#
# Static dielectric constant tensor:
#      x y z
#    x 1.965980 -0.010890 -0.025400 
#    y -0.010890 2.021460 0.015450 
#    z -0.025400 0.015450 1.953860 
# 
# From -- ./inp_files/159880.got.cif
#   From: 2010.05.17/outbox.cif.g08.bks.cpg/sg2_80_cif.got.tgz:159880.got - 2010.06.03 11:33:40.
