data_PCOD9039446
_publ_section_title
;
Structure prediction by ZEFSAII (Michael W. Deem and Ramdas Pophale) SiO2 
 PCOD9039446
Probable space group: P -1
;
_chemical_formula_sum "Si O2"
_cell_formula_units_Z 16
_cell_length_a 21.431228
_cell_length_b 9.781368
_cell_length_c 5.222146
_cell_angle_alpha 76.055871
_cell_angle_beta 46.874456
_cell_angle_gamma 57.247882
_cell_volume 656.981659
_symmetry_space_group_name_H-M "P -1"
_symmetry_group_IT_number 2
_symmetry_cell_setting 'triclinic'
loop_
_space_group_symop_operation_xyz
x,y,z
-x,-y,-z
loop_
_atom_site_type_symbol
_atom_site_label
_atom_site_fract_x
_atom_site_fract_y
_atom_site_fract_z
Si Si1 0.089479 0.818822 0.252212
Si Si2 0.575183 0.807969 0.329124
Si Si3 0.758138 0.357804 0.712775
Si Si4 0.960946 0.692778 0.467754
Si Si5 0.570212 0.507691 0.513776
Si Si6 0.305846 0.314033 0.463152
Si Si7 0.282210 0.814366 0.473750
Si Si8 0.826663 0.817321 0.279773
O O1 0.134322 0.714484 0.433267
O O2 0.049193 0.731492 0.222181
O O3 0.182693 0.826940 0.873379
O O4 0.000000 0.000000 0.500000
O O5 0.528974 0.698985 0.607740
O O6 0.666001 0.756951 0.298587
O O7 0.500000 0.000000 0.500000
O O8 0.605194 0.775725 0.958980
O O9 0.729921 0.493148 0.512838
O O10 0.735963 0.217752 0.752479
O O11 0.674864 0.463205 0.109668
O O12 0.901025 0.753224 0.342394
O O13 0.000000 0.500000 0.500000
O O14 0.887100 0.800293 0.860056
O O15 0.500000 0.500000 0.500000
O O16 0.612665 0.352572 0.660400
O O17 0.218623 0.296196 0.594832
O O18 0.264707 0.992621 0.499207
#
# Coordination Sequence:
#
# PCOD9039446 Si02
#       8
#     2   2   2   2   2   2   2   2
#     4  11  23  42  67  95 138 177 225 281 332 404
#     4  11  24  45  71 102 132 180 228 274 347 405
#     4  10  23  42  68  95 132 182 221 272 346 403
#     4  12  27  45  67 103 134 180 234 281 334 398
#     4  10  24  44  68 102 136 173 224 283 337 407
#     4  11  24  46  67  96 137 180 223 279 336 407
#     4  11  24  42  67  98 135 179 224 275 348 403
#     4  12  27  43  68 101 138 178 231 280 339 394
#
# _framework density 24.353802000000002
#
# number of rings (size 3 to 8) (size 9 to 14) (size 15 to 20)
#    0.000    1.000    2.500    3.000    7.000    2.500 
#    0.000    0.000    0.000    0.000    0.000    0.000 
#    0.000    0.000    0.000    0.000    0.000    0.000 
#
# Total GULP energy -89458.906961 kJ/mol
# GULP energy per Si atom -5591.181685 kJ/mol
# Density = 2.429837 g / cm^3
# Si number density = 24.353802 Si / 1000 Ang^3
#
#
#
# Elastic Constant Matrix: (Units=GPa)
#
#
# Indices 1 2 3 4 5 6 
#
# 1 160.7956 33.9450 1.4415 4.1175 9.7488 -7.8086
# 2 33.9450 110.4597 11.3804 25.7649 -3.8712 3.3630
# 3 1.4415 11.3804 56.8375 -0.3903 11.4492 3.7087
# 4 4.1175 25.7649 -0.3903 27.1791 4.5393 4.3954
# 5 9.7488 -3.8712 11.4492 4.5393 35.4292 1.5337
# 6 -7.8086 3.3630 3.7087 4.3954 1.5337 39.9211
#
#
#
# Elastic Compliance Matrix: (Units=1/GPa)
#
#
# Indices 1 2 3 4 5 6 
#
# 1 0.006998 -0.002817 0.000873 0.001862 -0.002816 0.001428
# 2 -0.002817 0.013619 -0.003792 -0.013396 0.005208 -0.000071
# 3 0.000873 -0.003792 0.020034 0.005310 -0.007737 -0.001658
# 4 0.001862 -0.013396 0.005310 0.051673 -0.010127 -0.004301
# 5 -0.002816 0.005208 -0.007737 -0.010127 0.033386 -0.000438
# 6 0.001428 -0.000071 -0.001658 -0.004301 -0.000438 0.025979
#
#
# Mechanical properties :
#
#
# Convention : Reuss Voigt Hill
#
# Bulk Modulus (GPa) = 34.26954 46.84741 40.55847
# Shear Modulus (GPa) = 28.92048 39.26095 34.09072
#
# Velocity S-wave (km/s) = 3.44977 4.01946 3.74546
# Velocity P-wave (km/s) = 5.47448 6.38900 5.94934
#
# Compressibility (1/GPa) = 0.02918044
#
# Stress axis : x y z
#
# Youngs Moduli (GPa) = 142.88995 73.42760 49.91422
#
# Poissons Ratio (x) = 0.20686 -0.04360
# Poissons Ratio (y) = 0.40255 0.18927
# Poissons Ratio (z) = -0.12481 0.27843
#
# Static dielectric constant tensor:
#      x y z
#    x 1.821140 0.036560 -0.092960 
#    y 0.036560 1.949290 -0.010490 
#    z -0.092960 -0.010490 2.011420 
# 
# From -- ./inp_files/53945.got.cif
#   From: 2010.05.17/outbox.cif.g08.bks.cpg/sg2_27_cif.got.tgz:53945.got - 2010.06.03 11:33:40.
