data_PCOD9039890
_publ_section_title
;
Structure prediction by ZEFSAII (Michael W. Deem and Ramdas Pophale) SiO2 
 PCOD9039890
Probable space group: P -1
;
_chemical_formula_sum "Si O2"
_cell_formula_units_Z 16
_cell_length_a 15.022841
_cell_length_b 8.978557
_cell_length_c 21.274507
_cell_angle_alpha 44.452427
_cell_angle_beta 160.169843
_cell_angle_gamma 137.146238
_cell_volume 658.420887
_symmetry_space_group_name_H-M "P -1"
_symmetry_group_IT_number 2
_symmetry_cell_setting 'triclinic'
loop_
_space_group_symop_operation_xyz
x,y,z
-x,-y,-z
loop_
_atom_site_type_symbol
_atom_site_label
_atom_site_fract_x
_atom_site_fract_y
_atom_site_fract_z
Si Si1 0.240646 0.504115 0.706301
Si Si2 0.799057 0.743903 0.010662
Si Si3 0.323760 0.167367 0.958535
Si Si4 0.605193 0.003312 0.697817
Si Si5 0.442601 0.592912 0.616133
Si Si6 0.161171 0.652274 0.005170
Si Si7 0.902751 0.224423 0.362835
Si Si8 0.306260 0.325077 0.380622
O O1 0.197055 0.284264 0.784902
O O2 0.220708 0.712185 0.673291
O O3 0.000000 0.500000 0.500000
O O4 0.553981 0.547431 0.879331
O O5 0.736935 0.727026 0.048403
O O6 0.711945 0.937392 0.855267
O O7 0.125867 0.810475 0.202427
O O8 0.646158 0.197143 0.154274
O O9 0.199161 0.909267 0.963732
O O10 0.516720 0.805368 0.647524
O O11 0.343188 0.098211 0.500985
O O12 0.560425 0.414151 0.785927
O O13 0.588104 0.665129 0.624258
O O14 0.144281 0.443497 0.445507
O O15 0.000000 0.500000 0.000000
O O16 0.979729 0.614863 0.833433
O O17 0.000000 0.000000 0.500000
O O18 0.500000 0.500000 0.500000
#
# Coordination Sequence:
#
# PCOD9039890 Si02
#       8
#     2   2   2   2   2   2   2   2
#     4  11  26  46  73 102 144 190 244 293 356 427
#     4  10  23  42  72 100 142 176 245 282 358 415
#     4  11  24  46  74 102 143 193 235 293 363 423
#     4  11  25  42  75 103 139 190 234 301 348 425
#     4  11  24  45  69  99 146 180 239 287 357 428
#     4  10  23  43  67  98 143 180 226 289 361 413
#     4  11  23  44  72 103 136 189 236 295 354 422
#     4  11  27  41  69 104 139 184 234 289 360 417
#
# _framework density 24.300566
#
# number of rings (size 3 to 8) (size 9 to 14) (size 15 to 20)
#    0.000    1.250    1.250    4.125   14.000    0.000 
#    0.000    0.625    0.000    0.000    0.000    0.000 
#    0.000    0.000    0.000    0.000    0.000    0.000 
#
# Total GULP energy -89238.272690 kJ/mol
# GULP energy per Si atom -5577.392043 kJ/mol
# Density = 2.424526 g / cm^3
# Si number density = 24.300566 Si / 1000 Ang^3
#
#
#
# Elastic Constant Matrix: (Units=GPa)
#
#
# Indices 1 2 3 4 5 6 
#
# 1 35.2673 20.8929 27.4829 -5.5671 -9.0865 9.6253
# 2 20.8929 122.6445 72.0495 -0.7853 -2.8211 1.1972
# 3 27.4829 72.0495 178.7332 -5.0718 -29.3882 13.2775
# 4 -5.5671 -0.7853 -5.0718 55.5342 10.4952 4.3407
# 5 -9.0865 -2.8211 -29.3882 10.4952 40.3702 7.0387
# 6 9.6253 1.1972 13.2775 4.3407 7.0387 36.1474
#
#
#
# Elastic Compliance Matrix: (Units=1/GPa)
#
#
# Indices 1 2 3 4 5 6 
#
# 1 0.038456 -0.005406 -0.001391 0.002946 0.008515 -0.011562
# 2 -0.005406 0.011870 -0.005006 -0.000254 -0.004631 0.003817
# 3 -0.001391 -0.005006 0.009260 -0.000342 0.006893 -0.004166
# 4 0.002946 -0.000254 -0.000342 0.019234 -0.004231 -0.002136
# 5 0.008515 -0.004631 0.006893 -0.004231 0.034370 -0.010830
# 6 -0.011562 0.003817 -0.004166 -0.002136 -0.010830 0.034513
#
#
# Mechanical properties :
#
#
# Convention : Reuss Voigt Hill
#
# Bulk Modulus (GPa) = 27.79365 64.16616 45.97991
# Shear Modulus (GPa) = 27.27722 40.82500 34.05111
#
# Velocity S-wave (km/s) = 3.35400 4.10323 3.74739
# Velocity P-wave (km/s) = 5.14406 6.99365 6.13891
#
# Compressibility (1/GPa) = 0.03597944
#
# Stress axis : x y z
#
# Youngs Moduli (GPa) = 26.00354 84.24612 107.99087
#
# Poissons Ratio (x) = 0.45545 0.15026
# Poissons Ratio (y) = 0.14058 0.54059
# Poissons Ratio (z) = 0.03618 0.42173
#
# Static dielectric constant tensor:
#      x y z
#    x 1.983100 0.018980 0.059840 
#    y 0.018980 2.000610 0.073970 
#    z 0.059840 0.073970 2.083060 
# 
# From -- ./inp_files/597329.got.cif
#   From: 2010.05.17/outbox.cif.g08.bks.cpg/sg2_299_cif.got.tgz:597329.got - 2010.06.03 11:33:40.
