data_PCOD9039441
_publ_section_title
;
Structure prediction by ZEFSAII (Michael W. Deem and Ramdas Pophale) SiO2 
 PCOD9039441
Probable space group: P -1
;
_chemical_formula_sum "Si O2"
_cell_formula_units_Z 16
_cell_length_a 15.180805
_cell_length_b 8.892464
_cell_length_c 9.265014
_cell_angle_alpha 69.789133
_cell_angle_beta 109.742342
_cell_angle_gamma 138.900494
_cell_volume 765.460325
_symmetry_space_group_name_H-M "P -1"
_symmetry_group_IT_number 2
_symmetry_cell_setting 'triclinic'
loop_
_space_group_symop_operation_xyz
x,y,z
-x,-y,-z
loop_
_atom_site_type_symbol
_atom_site_label
_atom_site_fract_x
_atom_site_fract_y
_atom_site_fract_z
Si Si1 0.229497 0.843103 0.517098
Si Si2 0.034631 0.375143 0.990987
Si Si3 0.439328 0.054983 0.337107
Si Si4 0.956281 0.657778 0.340562
Si Si5 0.900582 0.905381 0.112867
Si Si6 0.600981 0.883562 0.196564
Si Si7 0.664194 0.257642 0.898683
Si Si8 0.607993 0.560803 0.147670
O O1 0.175888 0.594824 0.588812
O O2 0.089203 0.765437 0.461468
O O3 0.308709 0.967637 0.371773
O O4 0.331757 0.013962 0.643913
O O5 0.181012 0.498700 0.087342
O O6 0.033851 0.375719 0.814775
O O7 0.922912 0.118577 0.078116
O O8 0.000000 0.500000 0.000000
O O9 0.544031 0.324493 0.264792
O O10 0.500000 0.000000 0.500000
O O11 0.386253 0.894620 0.222145
O O12 0.946883 0.836824 0.280673
O O13 0.741510 0.679140 0.092342
O O14 0.000000 0.000000 0.000000
O O15 0.440499 0.724497 0.150282
O O16 0.634378 0.746308 0.205035
O O17 0.655657 0.104570 0.063392
O O18 0.500000 0.500000 0.000000
#
# Coordination Sequence:
#
# PCOD9039441 Si02
#       8
#     2   2   2   2   2   2   2   2
#     4  11  23  43  70  98 142 186 230 284 349 420
#     4  11  22  40  70 100 136 173 241 282 346 409
#     4  12  25  45  70 103 144 183 235 281 358 414
#     4  10  23  42  68  94 139 186 229 279 353 413
#     4  10  25  42  67 101 135 179 232 284 345 410
#     4  11  24  43  70 101 139 181 233 288 351 414
#     4  11  23  41  71 102 135 185 230 291 346 416
#     4  12  27  44  74 104 143 182 237 294 346 415
#
# _framework density 20.902455
#
# number of rings (size 3 to 8) (size 9 to 14) (size 15 to 20)
#    0.000    1.000    3.750    2.250    7.000    0.500 
#    2.250    0.625    0.000    0.000    0.000    0.000 
#    0.000    0.000    0.000    0.000    0.000    0.000 
#
# Total GULP energy -89311.462736 kJ/mol
# GULP energy per Si atom -5581.966421 kJ/mol
# Density = 2.085488 g / cm^3
# Si number density = 20.902455 Si / 1000 Ang^3
#
#
#
# Elastic Constant Matrix: (Units=GPa)
#
#
# Indices 1 2 3 4 5 6 
#
# 1 52.0984 22.1297 32.6655 -6.6363 -1.9737 12.2624
# 2 22.1297 98.7165 38.8668 -27.3579 -1.0486 16.3417
# 3 32.6655 38.8668 56.5247 -10.1258 13.2953 -0.9250
# 4 -6.6363 -27.3579 -10.1258 36.5701 -2.1017 -1.2287
# 5 -1.9737 -1.0486 13.2953 -2.1017 30.7169 -0.7327
# 6 12.2624 16.3417 -0.9250 -1.2287 -0.7327 40.8745
#
#
#
# Elastic Compliance Matrix: (Units=1/GPa)
#
#
# Indices 1 2 3 4 5 6 
#
# 1 0.041249 0.007596 -0.032466 0.004622 0.016904 -0.015704
# 2 0.007596 0.021350 -0.019466 0.012188 0.010221 -0.010705
# 3 -0.032466 -0.019466 0.055324 -0.006060 -0.026679 0.018114
# 4 0.004622 0.012188 -0.006060 0.035773 0.005659 -0.005220
# 5 0.016904 0.010221 -0.026679 0.005659 0.045716 -0.008772
# 6 -0.015704 -0.010705 0.018114 -0.005220 -0.008772 0.033552
#
#
# Mechanical properties :
#
#
# Convention : Reuss Voigt Hill
#
# Bulk Modulus (GPa) = 34.18582 43.85152 39.01867
# Shear Modulus (GPa) = 15.08808 29.21080 22.14944
#
# Velocity S-wave (km/s) = 2.68961 3.74235 3.25877
# Velocity P-wave (km/s) = 5.10253 6.30065 5.73297
#
# Compressibility (1/GPa) = 0.02925189
#
# Stress axis : x y z
#
# Youngs Moduli (GPa) = 24.24277 46.83876 18.07527
#
# Poissons Ratio (x) = -0.35577 0.58683
# Poissons Ratio (y) = -0.18414 0.35185
# Poissons Ratio (z) = 0.78706 0.91175
#
# Static dielectric constant tensor:
#      x y z
#    x 1.904100 -0.090870 -0.039610 
#    y -0.090870 1.843440 -0.005860 
#    z -0.039610 -0.005860 1.741600 
# 
# From -- ./inp_files/297962.got.cif
#   From: 2010.05.17/outbox.cif.g08.bks.cpg/sg2_149_cif.got.tgz:297962.got - 2010.06.03 11:33:40.
