data_PCOD9039818
_publ_section_title
;
Structure prediction by ZEFSAII (Michael W. Deem and Ramdas Pophale) SiO2 
 PCOD9039818
Probable space group: P -1
;
_chemical_formula_sum "Si O2"
_cell_formula_units_Z 15
_cell_length_a 9.725018
_cell_length_b 12.182824
_cell_length_c 8.330788
_cell_angle_alpha 118.277140
_cell_angle_beta 122.405173
_cell_angle_gamma 45.677024
_cell_volume 588.054368
_symmetry_space_group_name_H-M "P -1"
_symmetry_group_IT_number 2
_symmetry_cell_setting 'triclinic'
loop_
_space_group_symop_operation_xyz
x,y,z
-x,-y,-z
loop_
_atom_site_type_symbol
_atom_site_label
_atom_site_fract_x
_atom_site_fract_y
_atom_site_fract_z
Si Si1 0.531386 0.181567 0.724756
Si Si2 0.241421 0.526036 0.227894
Si Si3 0.000000 0.000000 0.000000
Si Si4 0.467887 0.963230 0.711642
Si Si5 0.136161 0.295774 0.043436
Si Si6 0.660676 0.391783 0.328811
Si Si7 0.144376 0.525737 0.710245
Si Si8 0.842173 0.046054 0.291064
O O1 0.545241 0.119290 0.510142
O O2 0.368460 0.366032 0.748874
O O3 0.436885 0.116005 0.732502
O O4 0.753790 0.109376 0.878924
O O5 0.229842 0.382849 0.101281
O O6 0.421637 0.500931 0.216384
O O7 0.304657 0.525111 0.449793
O O8 0.017488 0.685914 0.174044
O O9 0.050530 0.022911 0.860139
O O10 0.689986 0.851522 0.850997
O O11 0.310957 0.988324 0.763115
O O12 0.966155 0.408298 0.146835
O O13 0.821935 0.355171 0.268441
O O14 0.712551 0.232207 0.315931
O O15 0.000000 0.500000 0.500000
O O16 0.000000 0.000000 0.500000
#
# Coordination Sequence:
#
# PCOD9039818 Si02
#       8
#     2   2   1   2   2   2   2   2
#     4  11  27  47  75 110 152 201 256 313 378 462
#     4  10  23  42  71 104 141 185 247 302 366 459
#     4  12  30  50  78 116 148 202 268 308 380 460
#     4  11  24  49  75 105 153 201 249 314 389 447
#     4  11  23  43  72 111 144 192 246 310 373 458
#     4  11  25  45  71 105 146 195 244 307 383 443
#     4  12  25  43  72 108 152 191 243 315 382 443
#     4  12  28  49  77 108 153 202 253 317 378 453
#
# _framework density 25.507846000000001
#
# number of rings (size 3 to 8) (size 9 to 14) (size 15 to 20)
#    0.000    0.800    5.333    0.000    7.467    3.200 
#    0.000    0.000    0.000    0.000    0.000    0.000 
#    0.000    0.000    0.000    0.000    0.000    0.000 
#
# Total GULP energy -83862.100968 kJ/mol
# GULP energy per Si atom -5590.806731 kJ/mol
# Density = 2.544979 g / cm^3
# Si number density = 25.507846 Si / 1000 Ang^3
#
#
#
# Elastic Constant Matrix: (Units=GPa)
#
#
# Indices 1 2 3 4 5 6 
#
# 1 185.5397 22.6694 49.0294 -11.4064 -7.7820 -6.7541
# 2 22.6694 72.2674 27.6840 -26.0378 8.1122 -6.9129
# 3 49.0294 27.6840 133.0145 -30.0925 13.5078 -13.5971
# 4 -11.4064 -26.0378 -30.0925 38.1737 -10.2989 2.8963
# 5 -7.7820 8.1122 13.5078 -10.2989 44.9432 -14.2186
# 6 -6.7541 -6.9129 -13.5971 2.8963 -14.2186 34.2157
#
#
#
# Elastic Compliance Matrix: (Units=1/GPa)
#
#
# Indices 1 2 3 4 5 6 
#
# 1 0.006256 -0.001370 -0.002205 -0.000273 0.002261 0.001045
# 2 -0.001370 0.018999 -0.000498 0.011970 -0.000032 0.002343
# 3 -0.002205 -0.000498 0.010307 0.006647 -0.001057 0.002558
# 4 -0.000273 0.011970 0.006647 0.040957 0.006525 0.004250
# 5 0.002261 -0.000032 -0.001057 0.006525 0.027969 0.011090
# 6 0.001045 0.002343 0.002558 0.004250 0.011090 0.035171
#
#
# Mechanical properties :
#
#
# Convention : Reuss Voigt Hill
#
# Bulk Modulus (GPa) = 36.47665 65.50968 50.99317
# Shear Modulus (GPa) = 31.85838 42.89576 37.37707
#
# Velocity S-wave (km/s) = 3.53790 4.10527 3.83210
# Velocity P-wave (km/s) = 5.56958 6.94326 6.29401
#
# Compressibility (1/GPa) = 0.02741480
#
# Stress axis : x y z
#
# Youngs Moduli (GPa) = 159.84831 52.63515 97.01889
#
# Poissons Ratio (x) = 0.07210 0.21397
# Poissons Ratio (y) = 0.21895 0.04835
# Poissons Ratio (z) = 0.35253 0.02623
#
# Static dielectric constant tensor:
#      x y z
#    x 1.964670 0.009450 -0.004880 
#    y 0.009450 2.030790 0.021530 
#    z -0.004880 0.021530 2.055550 
# 
# From -- ./inp_files/189520.got.cif
#   From: 2010.05.17/outbox.cif.g08.bks.cpg/sg2_95_cif.got.tgz:189520.got - 2010.06.03 11:33:40.
