data_PCOD9039159
_publ_section_title
;
Structure prediction by ZEFSAII (Michael W. Deem and Ramdas Pophale) SiO2 
 PCOD9039159
Probable space group: P -1
;
_chemical_formula_sum "Si O2"
_cell_formula_units_Z 13
_cell_length_a 8.208840
_cell_length_b 6.734777
_cell_length_c 12.082489
_cell_angle_alpha 123.586486
_cell_angle_beta 72.845747
_cell_angle_gamma 102.406517
_cell_volume 530.582723
_symmetry_space_group_name_H-M "P -1"
_symmetry_group_IT_number 2
_symmetry_cell_setting 'triclinic'
loop_
_space_group_symop_operation_xyz
x,y,z
-x,-y,-z
loop_
_atom_site_type_symbol
_atom_site_label
_atom_site_fract_x
_atom_site_fract_y
_atom_site_fract_z
Si Si1 0.209438 0.354906 0.850329
Si Si2 0.500000 0.500000 0.000000
Si Si3 0.292891 0.329979 0.203849
Si Si4 0.643644 0.342784 0.513136
Si Si5 0.055213 0.486997 0.612796
Si Si6 0.894513 0.130930 0.968338
Si Si7 0.716710 0.877029 0.458800
O O1 0.294437 0.216170 0.693300
O O2 0.028627 0.215562 0.871994
O O3 0.322175 0.377781 0.944503
O O4 0.176693 0.622762 0.900261
O O5 0.425104 0.440895 0.122680
O O6 0.352510 0.413700 0.340658
O O7 0.100824 0.423469 0.259424
O O8 0.256630 0.046228 0.105563
O O9 0.766619 0.352380 0.384746
O O10 0.456110 0.236713 0.487163
O O11 0.713479 0.158619 0.533641
O O12 0.118655 0.233000 0.556792
O O13 0.000000 0.500000 0.500000
O O14 0.000000 0.000000 0.000000
#
# Coordination Sequence:
#
# PCOD9039159 Si02
#       7
#     2   1   2   2   2   2   2
#     4  11  25  43  71 101 138 183 230 282 345 414
#     4  12  24  46  64 108 140 178 234 276 352 406
#     4  11  23  45  66 100 143 175 229 283 338 414
#     4  10  23  44  68 100 134 179 227 288 343 402
#     4  10  23  42  66  98 132 178 229 276 340 406
#     4  11  23  44  68  97 138 185 229 278 340 415
#     4  11  22  43  70  99 137 177 229 287 343 404
#
# _framework density 24.501362
#
# number of rings (size 3 to 8) (size 9 to 14) (size 15 to 20)
#    0.000    1.231    3.077    2.308    2.154    3.077 
#    5.538    0.000    0.000    0.000    0.000    0.000 
#    0.000    0.000    0.000    0.000    0.000    0.000 
#
# Total GULP energy -72472.375205 kJ/mol
# GULP energy per Si atom -5574.798093 kJ/mol
# Density = 2.444560 g / cm^3
# Si number density = 24.501362 Si / 1000 Ang^3
#
#
#
# Elastic Constant Matrix: (Units=GPa)
#
#
# Indices 1 2 3 4 5 6 
#
# 1 56.6347 20.7154 9.7046 -9.1375 -3.6569 6.2009
# 2 20.7154 89.9537 31.6747 5.1985 -0.9479 19.8908
# 3 9.7046 31.6747 72.7342 -7.0032 -3.5087 12.8138
# 4 -9.1375 5.1985 -7.0032 31.9262 9.7307 -3.3504
# 5 -3.6569 -0.9479 -3.5087 9.7307 50.3333 -21.1780
# 6 6.2009 19.8908 12.8138 -3.3504 -21.1780 58.8813
#
#
#
# Elastic Compliance Matrix: (Units=1/GPa)
#
#
# Indices 1 2 3 4 5 6 
#
# 1 0.020626 -0.005191 0.000170 0.006754 0.000091 -0.000039
# 2 -0.005191 0.015635 -0.005959 -0.005408 -0.001212 -0.004182
# 3 0.000170 -0.005959 0.017040 0.004742 -0.000514 -0.001628
# 4 0.006754 -0.005408 0.004742 0.037149 -0.006525 -0.000150
# 5 0.000091 -0.001212 -0.000514 -0.006525 0.024905 0.009098
# 6 -0.000039 -0.004182 -0.001628 -0.000150 0.009098 0.022018
#
#
# Mechanical properties :
#
#
# Convention : Reuss Voigt Hill
#
# Bulk Modulus (GPa) = 31.90605 38.16801 35.03703
# Shear Modulus (GPa) = 29.44996 38.71001 34.07998
#
# Velocity S-wave (km/s) = 3.47071 3.97912 3.73358
# Velocity P-wave (km/s) = 5.39551 6.05995 5.73735
#
# Compressibility (1/GPa) = 0.03134202
#
# Stress axis : x y z
#
# Youngs Moduli (GPa) = 48.48172 63.95976 58.68694
#
# Poissons Ratio (x) = 0.33199 -0.00997
# Poissons Ratio (y) = 0.25165 0.34969
# Poissons Ratio (z) = -0.00824 0.38111
#
# Static dielectric constant tensor:
#      x y z
#    x 2.011780 0.003080 -0.016150 
#    y 0.003080 1.986870 0.030750 
#    z -0.016150 0.030750 1.937070 
# 
# From -- ./inp_files/60205.got.cif
#   From: 2010.05.17/outbox.cif.g08.bks.cpg/sg2_31_cif.got.tgz:60205.got - 2010.06.03 11:33:40.
