data_PCOD9039695
_publ_section_title
;
Structure prediction by ZEFSAII (Michael W. Deem and Ramdas Pophale) SiO2 
 PCOD9039695
Probable space group: P -1
;
_chemical_formula_sum "Si O2"
_cell_formula_units_Z 14
_cell_length_a 9.166585
_cell_length_b 25.619397
_cell_length_c 5.701516
_cell_angle_alpha 62.817276
_cell_angle_beta 122.971464
_cell_angle_gamma 149.817545
_cell_volume 564.454579
_symmetry_space_group_name_H-M "P -1"
_symmetry_group_IT_number 2
_symmetry_cell_setting 'triclinic'
loop_
_space_group_symop_operation_xyz
x,y,z
-x,-y,-z
loop_
_atom_site_type_symbol
_atom_site_label
_atom_site_fract_x
_atom_site_fract_y
_atom_site_fract_z
Si Si1 0.610580 0.058689 0.227487
Si Si2 0.746869 0.622092 0.976211
Si Si3 0.298526 0.097759 0.905292
Si Si4 0.771353 0.820498 0.630086
Si Si5 0.137201 0.381728 0.418315
Si Si6 0.547395 0.282390 0.002395
Si Si7 0.658571 0.386356 0.484105
O O1 0.974753 0.145901 0.353929
O O2 0.500000 0.000000 0.500000
O O3 0.496784 0.094289 0.051982
O O4 0.500000 0.000000 0.000000
O O5 0.898938 0.662868 0.767839
O O6 0.554114 0.627412 0.804839
O O7 0.500000 0.500000 0.000000
O O8 0.929401 0.666771 0.288084
O O9 0.203103 0.104660 0.567031
O O10 0.472590 0.199485 0.979432
O O11 0.000000 0.000000 0.000000
O O12 0.753901 0.800190 0.926949
O O13 0.431875 0.702748 0.505355
O O14 0.500000 0.500000 0.500000
O O15 0.898605 0.368905 0.216333
O O16 0.573776 0.351819 0.750323
O O17 0.000000 0.500000 0.500000
#
# Coordination Sequence:
#
# PCOD9039695 Si02
#       7
#     2   2   2   2   2   2   2
#     4  12  28  51  85 116 156 202 256 322 401 474
#     4  10  23  43  68 100 140 194 264 310 374 443
#     4  11  25  51  80 111 154 200 253 325 397 471
#     4  11  28  47  75 118 153 202 266 319 393 471
#     4  10  23  42  70 101 145 195 257 306 374 447
#     4  11  27  46  76 110 155 207 264 322 391 465
#     4  11  26  46  72 103 157 208 261 322 384 459
#
# _framework density 24.802700999999999
#
# number of rings (size 3 to 8) (size 9 to 14) (size 15 to 20)
#    0.000    1.143    1.429    2.571   16.000    1.714 
#    0.000    0.000    0.000    0.000    0.000    0.000 
#    0.000    0.000    0.000    0.000    0.000    0.000 
#
# Total GULP energy -78097.255663 kJ/mol
# GULP energy per Si atom -5578.375404 kJ/mol
# Density = 2.474625 g / cm^3
# Si number density = 24.802701 Si / 1000 Ang^3
#
#
#
# Elastic Constant Matrix: (Units=GPa)
#
#
# Indices 1 2 3 4 5 6 
#
# 1 123.4772 39.6267 47.2255 -26.6379 -6.9135 8.6978
# 2 39.6267 129.0274 33.2440 -19.8207 1.2518 0.6190
# 3 47.2255 33.2440 157.9837 -30.5385 1.2592 4.2369
# 4 -26.6379 -19.8207 -30.5385 30.5929 -7.5572 5.5491
# 5 -6.9135 1.2518 1.2592 -7.5572 51.6336 -3.8109
# 6 8.6978 0.6190 4.2369 5.5491 -3.8109 28.4358
#
#
#
# Elastic Compliance Matrix: (Units=1/GPa)
#
#
# Indices 1 2 3 4 5 6 
#
# 1 0.011629 -0.001845 -0.001190 0.009263 0.002633 -0.004794
# 2 -0.001845 0.009047 -0.000634 0.003685 0.000070 -0.000248
# 3 -0.001190 -0.000634 0.008301 0.007384 0.000570 -0.002224
# 4 0.009263 0.003685 0.007384 0.054967 0.008007 -0.013667
# 5 0.002633 0.000070 0.000570 0.008007 0.020902 0.000347
# 6 -0.004794 -0.000248 -0.002224 -0.013667 0.000347 0.039684
#
#
# Mechanical properties :
#
#
# Convention : Reuss Voigt Hill
#
# Bulk Modulus (GPa) = 46.21072 72.29785 59.25428
# Shear Modulus (GPa) = 31.43073 41.49195 36.46134
#
# Velocity S-wave (km/s) = 3.56368 4.09452 3.83829
# Velocity P-wave (km/s) = 5.96698 7.18094 6.60192
#
# Compressibility (1/GPa) = 0.02164000
#
# Stress axis : x y z
#
# Youngs Moduli (GPa) = 85.99094 110.53824 120.46336
#
# Poissons Ratio (x) = 0.20389 0.14335
# Poissons Ratio (y) = 0.15861 0.07637
# Poissons Ratio (z) = 0.10233 0.07008
#
# Static dielectric constant tensor:
#      x y z
#    x 2.484090 0.430280 -0.552560 
#    y 0.430280 2.518740 -0.208670 
#    z -0.552560 -0.208670 2.546360 
# 
# From -- ./inp_files/56355.got.cif
#   From: 2010.05.17/outbox.cif.g08.bks.cpg/sg2_29_cif.got.tgz:56355.got - 2010.06.03 11:33:40.
