data_PCOD9039133
_publ_section_title
;
Structure prediction by ZEFSAII (Michael W. Deem and Ramdas Pophale) SiO2 
 PCOD9039133
Probable space group: P -1
;
_chemical_formula_sum "Si O2"
_cell_formula_units_Z 14
_cell_length_a 9.140147
_cell_length_b 13.176494
_cell_length_c 9.112622
_cell_angle_alpha 49.407519
_cell_angle_beta 79.125522
_cell_angle_gamma 56.638896
_cell_volume 670.841739
_symmetry_space_group_name_H-M "P -1"
_symmetry_group_IT_number 2
_symmetry_cell_setting 'triclinic'
loop_
_space_group_symop_operation_xyz
x,y,z
-x,-y,-z
loop_
_atom_site_type_symbol
_atom_site_label
_atom_site_fract_x
_atom_site_fract_y
_atom_site_fract_z
Si Si1 0.841237 0.417457 0.497081
Si Si2 0.866302 0.177230 0.936435
Si Si3 0.168110 0.447245 0.914533
Si Si4 0.800068 0.849413 0.961991
Si Si5 0.551549 0.087930 0.525218
Si Si6 0.744404 0.735212 0.348516
Si Si7 0.547458 0.325874 0.095169
O O1 0.795650 0.305533 0.695129
O O2 0.842450 0.421056 0.317413
O O3 0.719416 0.601117 0.409747
O O4 0.046138 0.347315 0.573475
O O5 0.692889 0.238368 0.016365
O O6 0.007401 0.182975 0.009623
O O7 0.000000 0.000000 0.000000
O O8 0.169285 0.318681 0.930696
O O9 0.354827 0.364898 0.042991
O O10 0.000000 0.500000 0.000000
O O11 0.693749 0.970659 0.734415
O O12 0.699356 0.880057 0.108982
O O13 0.368290 0.205318 0.539185
O O14 0.613339 0.191425 0.336237
O O15 0.500000 0.000000 0.500000
O O16 0.500000 0.500000 0.000000
#
# Coordination Sequence:
#
# PCOD9039133 Si02
#       7
#     2   2   2   2   2   2   2
#     4   9  20  38  65  88 129 175 216 266 337 394
#     4  11  26  43  65  96 140 181 222 277 340 405
#     4  11  22  40  70  99 129 176 231 278 332 403
#     4  10  23  42  66  96 128 177 223 274 334 401
#     4  12  24  39  68  99 132 170 226 284 334 390
#     4   9  19  39  64  96 125 164 222 278 323 394
#     4  12  27  44  64  99 142 175 223 282 339 403
#
# _framework density 20.869306000000002
#
# number of rings (size 3 to 8) (size 9 to 14) (size 15 to 20)
#    0.000    1.429    1.429    3.857    4.000    4.571 
#    0.000    0.000    0.000    0.000    0.000    0.000 
#    0.000    0.000    0.000    0.000    0.000    0.000 
#
# Total GULP energy -78061.915601 kJ/mol
# GULP energy per Si atom -5575.851114 kJ/mol
# Density = 2.082181 g / cm^3
# Si number density = 20.869306 Si / 1000 Ang^3
#
#
#
# Elastic Constant Matrix: (Units=GPa)
#
#
# Indices 1 2 3 4 5 6 
#
# 1 70.0708 29.7968 7.7304 1.0655 -4.1382 -11.8102
# 2 29.7968 117.9206 40.9880 16.7670 -26.6011 -20.3439
# 3 7.7304 40.9880 178.0632 16.7942 -17.7879 -16.8852
# 4 1.0655 16.7670 16.7942 25.8569 -6.5915 -9.4544
# 5 -4.1382 -26.6011 -17.7879 -6.5915 35.0615 12.0523
# 6 -11.8102 -20.3439 -16.8852 -9.4544 12.0523 35.5692
#
#
#
# Elastic Compliance Matrix: (Units=1/GPa)
#
#
# Indices 1 2 3 4 5 6 
#
# 1 0.016765 -0.004475 0.000217 0.003214 -0.002337 0.004756
# 2 -0.004475 0.012591 -0.001428 -0.004768 0.006913 0.001428
# 3 0.000217 -0.001428 0.006414 -0.002475 0.001320 0.001195
# 4 0.003214 -0.004768 -0.002475 0.046915 0.001147 0.009246
# 5 -0.002337 0.006913 0.001320 0.001147 0.037309 -0.008532
# 6 0.004756 0.001428 0.001195 0.009246 -0.008532 0.036426
#
#
# Mechanical properties :
#
#
# Convention : Reuss Voigt Hill
#
# Bulk Modulus (GPa) = 40.98940 58.12055 49.55498
# Shear Modulus (GPa) = 28.42097 38.46680 33.44388
#
# Velocity S-wave (km/s) = 3.69434 4.29794 4.00752
# Velocity P-wave (km/s) = 6.15476 7.24844 6.72388
#
# Compressibility (1/GPa) = 0.02439655
#
# Stress axis : x y z
#
# Youngs Moduli (GPa) = 59.64758 79.41903 155.90966
#
# Poissons Ratio (x) = 0.35543 -0.03379
# Poissons Ratio (y) = 0.26694 0.22270
# Poissons Ratio (z) = -0.01293 0.11344
#
# Static dielectric constant tensor:
#      x y z
#    x 1.722150 -0.008300 -0.004340 
#    y -0.008300 1.813040 0.024000 
#    z -0.004340 0.024000 1.848270 
# 
# From -- ./inp_files/153731.got.cif
#   From: 2010.05.17/outbox.cif.g08.bks.cpg/sg2_77_cif.got.tgz:153731.got - 2010.06.03 11:33:40.
