data_PCOD9039749
_publ_section_title
;
Structure prediction by ZEFSAII (Michael W. Deem and Ramdas Pophale) SiO2 
 PCOD9039749
Probable space group: P -1
;
_chemical_formula_sum "Si O2"
_cell_formula_units_Z 14
_cell_length_a 6.436495
_cell_length_b 17.400196
_cell_length_c 9.159385
_cell_angle_alpha 119.006320
_cell_angle_beta 68.511135
_cell_angle_gamma 68.640282
_cell_volume 622.818290
_symmetry_space_group_name_H-M "P -1"
_symmetry_group_IT_number 2
_symmetry_cell_setting 'triclinic'
loop_
_space_group_symop_operation_xyz
x,y,z
-x,-y,-z
loop_
_atom_site_type_symbol
_atom_site_label
_atom_site_fract_x
_atom_site_fract_y
_atom_site_fract_z
Si Si1 0.397865 0.783404 0.731182
Si Si2 0.972383 0.350926 0.017986
Si Si3 0.351413 0.614540 0.423471
Si Si4 0.218584 0.023359 0.467763
Si Si5 0.121900 0.240025 0.574310
Si Si6 0.867416 0.625549 0.711093
Si Si7 0.848450 0.878840 0.117843
O O1 0.438979 0.686773 0.529724
O O2 0.569050 0.818709 0.642794
O O3 0.574408 0.723209 0.782890
O O4 0.046729 0.875915 0.944990
O O5 0.109025 0.304773 0.779933
O O6 0.966733 0.252358 0.988214
O O7 0.645304 0.478587 0.209116
O O8 0.159591 0.360425 0.094539
O O9 0.157165 0.668755 0.376025
O O10 0.123590 0.629371 0.609752
O O11 0.104269 0.143955 0.539635
O O12 0.242992 0.033626 0.645273
O O13 0.523900 0.923112 0.208431
O O14 0.000000 0.000000 0.500000
O O15 0.000000 0.500000 0.500000
#
# Coordination Sequence:
#
# PCOD9039749 Si02
#       7
#     2   2   2   2   2   2   2
#     4  11  23  42  64 101 141 176 219 273 338 403
#     4  11  21  42  66  98 136 181 229 267 322 395
#     4  11  22  41  63  99 145 178 217 271 336 401
#     4  10  24  47  70  98 125 170 231 285 335 394
#     4  10  26  43  65 102 138 177 220 277 345 395
#     4  11  21  37  65  97 135 185 232 267 314 398
#     4  10  23  42  70  97 128 174 232 275 326 395
#
# _framework density 22.478467999999999
#
# number of rings (size 3 to 8) (size 9 to 14) (size 15 to 20)
#    0.000    1.429    2.857    1.714    2.000    4.571 
#    5.143    1.429    0.000    0.000    0.000    0.000 
#    0.000    0.000    0.000    0.000    0.000    0.000 
#
# Total GULP energy -78222.440083 kJ/mol
# GULP energy per Si atom -5587.317149 kJ/mol
# Density = 2.242731 g / cm^3
# Si number density = 22.478468 Si / 1000 Ang^3
#
#
#
# Elastic Constant Matrix: (Units=GPa)
#
#
# Indices 1 2 3 4 5 6 
#
# 1 122.3291 40.8055 55.4024 -13.9169 -6.6100 11.8428
# 2 40.8055 63.2332 38.7835 -7.0230 5.2151 -11.5985
# 3 55.4024 38.7835 119.8342 -9.7171 -8.3436 -11.4764
# 4 -13.9169 -7.0230 -9.7171 24.5115 -4.1076 7.3077
# 5 -6.6100 5.2151 -8.3436 -4.1076 34.1597 -5.6066
# 6 11.8428 -11.5985 -11.4764 7.3077 -5.6066 25.8470
#
#
#
# Elastic Compliance Matrix: (Units=1/GPa)
#
#
# Indices 1 2 3 4 5 6 
#
# 1 0.016562 -0.009593 -0.005214 0.009845 0.001857 -0.016588
# 2 -0.009593 0.026826 -0.003503 -0.004462 -0.004868 0.015083
# 3 -0.005214 -0.003503 0.012834 -0.000463 0.003832 0.007477
# 4 0.009845 -0.004462 -0.000463 0.051854 0.005391 -0.020210
# 5 0.001857 -0.004868 0.003832 0.005391 0.032655 0.004225
# 6 -0.016588 0.015083 0.007477 -0.020210 0.004225 0.063009
#
#
# Mechanical properties :
#
#
# Convention : Reuss Voigt Hill
#
# Bulk Modulus (GPa) = 51.01137 63.93104 57.47121
# Shear Modulus (GPa) = 20.25169 28.26398 24.25784
#
# Velocity S-wave (km/s) = 3.00482 3.54980 3.28862
# Velocity P-wave (km/s) = 5.89757 6.73084 6.32793
#
# Compressibility (1/GPa) = 0.01960347
#
# Stress axis : x y z
#
# Youngs Moduli (GPa) = 60.37941 37.27717 77.91511
#
# Poissons Ratio (x) = 0.35758 0.40621
# Poissons Ratio (y) = 0.57919 0.27297
# Poissons Ratio (z) = 0.31479 0.13060
#
# Static dielectric constant tensor:
#      x y z
#    x 1.923330 -0.034800 -0.007020 
#    y -0.034800 1.838100 -0.002880 
#    z -0.007020 -0.002880 1.853270 
# 
# From -- ./inp_files/47527.got.cif
#   From: 2010.05.17/outbox.cif.g08.bks.cpg/sg2_24_cif.got.tgz:47527.got - 2010.06.03 11:33:40.
