data_PCOD9039343
_publ_section_title
;
Structure prediction by ZEFSAII (Michael W. Deem and Ramdas Pophale) SiO2 
 PCOD9039343
Probable space group: P -1
;
_chemical_formula_sum "Si O2"
_cell_formula_units_Z 14
_cell_length_a 6.343279
_cell_length_b 8.756757
_cell_length_c 11.978511
_cell_angle_alpha 83.884685
_cell_angle_beta 103.045127
_cell_angle_gamma 83.425150
_cell_volume 637.878433
_symmetry_space_group_name_H-M "P -1"
_symmetry_group_IT_number 2
_symmetry_cell_setting 'triclinic'
loop_
_space_group_symop_operation_xyz
x,y,z
-x,-y,-z
loop_
_atom_site_type_symbol
_atom_site_label
_atom_site_fract_x
_atom_site_fract_y
_atom_site_fract_z
Si Si1 0.226148 0.885722 0.555428
Si Si2 0.401620 0.924633 0.335813
Si Si3 0.878782 0.374144 0.274636
Si Si4 0.189457 0.166889 0.944232
Si Si5 0.879555 0.465964 0.872596
Si Si6 0.465752 0.332407 0.816969
Si Si7 0.005356 0.884083 0.844308
O O1 0.355412 0.854799 0.456609
O O2 0.153793 0.732054 0.614857
O O3 0.396083 0.974808 0.640131
O O4 0.000000 0.000000 0.500000
O O5 0.455506 0.789040 0.261795
O O6 0.173515 0.033003 0.270009
O O7 0.732694 0.539498 0.256022
O O8 0.099747 0.421521 0.239361
O O9 0.834817 0.257701 0.178307
O O10 0.401918 0.228954 0.919913
O O11 0.995806 0.294981 0.865755
O O12 0.146870 0.162107 0.070377
O O13 0.151611 0.004721 0.901487
O O14 0.636566 0.441632 0.869036
O O15 0.000000 0.500000 0.000000
#
# Coordination Sequence:
#
# PCOD9039343 Si02
#       7
#     2   2   2   2   2   2   2
#     4  11  25  45  73 100 126 173 227 285 336 384
#     4  11  25  44  72  97 134 171 228 280 327 400
#     4  11  25  41  68  96 133 176 217 277 335 389
#     4  10  23  42  67  99 136 180 216 273 328 398
#     4  11  23  43  62  98 142 175 219 271 323 406
#     4  11  26  43  66  98 137 181 215 269 343 393
#     4  11  21  44  69  99 136 171 230 271 325 401
#
# _framework density 21.947754
#
# number of rings (size 3 to 8) (size 9 to 14) (size 15 to 20)
#    0.000    1.143    4.286    0.857    2.000    4.571 
#    0.000    1.429    0.000    0.000    0.000    0.000 
#    0.000    0.000    0.000    0.000    0.000    0.000 
#
# Total GULP energy -78065.279901 kJ/mol
# GULP energy per Si atom -5576.091421 kJ/mol
# Density = 2.189780 g / cm^3
# Si number density = 21.947754 Si / 1000 Ang^3
#
#
#
# Elastic Constant Matrix: (Units=GPa)
#
#
# Indices 1 2 3 4 5 6 
#
# 1 82.1359 17.3617 35.5041 -9.7650 -16.7310 29.4416
# 2 17.3617 84.5877 33.2786 -10.3289 -22.3175 0.6751
# 3 35.5041 33.2786 88.0308 -23.9227 -25.7947 27.3005
# 4 -9.7650 -10.3289 -23.9227 27.6794 10.2257 -14.2564
# 5 -16.7310 -22.3175 -25.7947 10.2257 39.4732 -11.0693
# 6 29.4416 0.6751 27.3005 -14.2564 -11.0693 37.0514
#
#
#
# Elastic Compliance Matrix: (Units=1/GPa)
#
#
# Indices 1 2 3 4 5 6 
#
# 1 0.018882 -0.002683 -0.003033 -0.004872 0.001827 -0.014049
# 2 -0.002683 0.016364 -0.005127 0.002777 0.006460 0.008610
# 3 -0.003033 -0.005127 0.020902 0.009215 0.004873 -0.007896
# 4 -0.004872 0.002777 0.009215 0.053214 -0.003656 0.016414
# 5 0.001827 0.006460 0.004873 -0.003656 0.034981 0.003884
# 6 -0.014049 0.008610 -0.007896 0.016414 0.003884 0.051291
#
#
# Mechanical properties :
#
#
# Convention : Reuss Voigt Hill
#
# Bulk Modulus (GPa) = 29.01684 47.44925 38.23304
# Shear Modulus (GPa) = 21.85248 32.08147 26.96697
#
# Velocity S-wave (km/s) = 3.15883 3.82739 3.50907
# Velocity P-wave (km/s) = 5.15304 6.41857 5.82030
#
# Compressibility (1/GPa) = 0.03446275
#
# Stress axis : x y z
#
# Youngs Moduli (GPa) = 52.96098 61.10800 47.84275
#
# Poissons Ratio (x) = 0.16397 0.14509
# Poissons Ratio (y) = 0.14211 0.24528
# Poissons Ratio (z) = 0.16061 0.31329
#
# Static dielectric constant tensor:
#      x y z
#    x 1.875910 0.016030 -0.010100 
#    y 0.016030 1.848460 -0.029470 
#    z -0.010100 -0.029470 1.818050 
# 
# From -- ./inp_files/34075.got.cif
#   From: 2010.05.17/outbox.cif.g08.bks.cpg/sg2_18_cif.got.tgz:34075.got - 2010.06.03 11:33:40.
