data_PCOD9039318
_publ_section_title
;
Structure prediction by ZEFSAII (Michael W. Deem and Ramdas Pophale) SiO2 
 PCOD9039318
Probable space group: P -1
;
_chemical_formula_sum "Si O2"
_cell_formula_units_Z 16
_cell_length_a 15.071008
_cell_length_b 11.824715
_cell_length_c 15.058452
_cell_angle_alpha 119.922055
_cell_angle_beta 37.771468
_cell_angle_gamma 149.445789
_cell_volume 678.217895
_symmetry_space_group_name_H-M "P -1"
_symmetry_group_IT_number 2
_symmetry_cell_setting 'triclinic'
loop_
_space_group_symop_operation_xyz
x,y,z
-x,-y,-z
loop_
_atom_site_type_symbol
_atom_site_label
_atom_site_fract_x
_atom_site_fract_y
_atom_site_fract_z
Si Si1 0.423693 0.092348 0.748876
Si Si2 0.200381 0.372318 0.830464
Si Si3 0.257105 0.696654 0.634646
Si Si4 0.367145 0.470383 0.009311
Si Si5 0.304704 0.164696 0.721496
Si Si6 0.124480 0.783001 0.142374
Si Si7 0.737463 0.869328 0.708024
Si Si8 0.266272 0.688230 0.232062
O O1 0.367021 0.928486 0.661424
O O2 0.459708 0.255054 0.729215
O O3 0.668726 0.249189 0.690631
O O4 0.109091 0.859454 0.960039
O O5 0.321797 0.321896 0.730269
O O6 0.459964 0.669495 0.781319
O O7 0.102057 0.328546 0.792198
O O8 0.527671 0.805968 0.463487
O O9 0.020918 0.465620 0.807008
O O10 0.054438 0.524087 0.638081
O O11 0.596925 0.674224 0.825258
O O12 0.500000 0.500000 0.000000
O O13 0.294090 0.558029 0.134521
O O14 0.049019 0.152218 0.110327
O O15 0.155942 0.909873 0.248079
O O16 0.451349 0.023759 0.931636
O O17 0.000000 0.000000 0.500000
#
# Coordination Sequence:
#
# PCOD9039318 Si02
#       8
#     2   2   2   2   2   2   2   2
#     4  11  23  43  70  98 133 180 232 275 340 410
#     4  11  24  44  72 101 132 182 229 285 341 415
#     4  12  25  44  66 100 142 181 220 289 338 411
#     4  11  23  43  69  99 141 182 226 287 348 409
#     4  12  24  43  69  99 143 176 223 286 351 398
#     4  10  24  45  67  98 139 178 231 282 346 404
#     4  11  23  41  67  99 136 175 229 283 340 408
#     4  10  23  42  67  97 133 181 227 277 341 410
#
# _framework density 23.591241
#
# number of rings (size 3 to 8) (size 9 to 14) (size 15 to 20)
#    0.000    1.000    2.500    4.875    1.750    6.500 
#    0.000    0.000    0.000    0.000    0.000    0.000 
#    0.000    0.000    0.000    0.000    0.000    0.000 
#
# Total GULP energy -89618.157833 kJ/mol
# GULP energy per Si atom -5601.134865 kJ/mol
# Density = 2.353755 g / cm^3
# Si number density = 23.591241 Si / 1000 Ang^3
#
#
#
# Elastic Constant Matrix: (Units=GPa)
#
#
# Indices 1 2 3 4 5 6 
#
# 1 125.3464 57.6143 34.7286 -5.0550 -17.0986 21.8204
# 2 57.6143 86.0103 19.6312 -1.1009 0.2571 14.7916
# 3 34.7286 19.6312 89.2702 -8.1341 -19.4282 9.1567
# 4 -5.0550 -1.1009 -8.1341 34.7116 -2.9442 3.3117
# 5 -17.0986 0.2571 -19.4282 -2.9442 26.9072 0.4045
# 6 21.8204 14.7916 9.1567 3.3117 0.4045 36.3447
#
#
#
# Elastic Compliance Matrix: (Units=1/GPa)
#
#
# Indices 1 2 3 4 5 6 
#
# 1 0.014420 -0.008511 -0.000992 0.002860 0.008921 -0.005304
# 2 -0.008511 0.018098 -0.002284 -0.001690 -0.007394 -0.001444
# 3 -0.000992 -0.002284 0.015160 0.004528 0.010875 -0.002828
# 4 0.002860 -0.001690 0.004528 0.031454 0.008622 -0.005132
# 5 0.008921 -0.007394 0.010875 0.008622 0.051797 -0.006449
# 6 -0.005304 -0.001444 -0.002828 -0.005132 -0.006449 0.032538
#
#
# Mechanical properties :
#
#
# Convention : Reuss Voigt Hill
#
# Bulk Modulus (GPa) = 41.48701 58.28611 49.88656
# Shear Modulus (GPa) = 25.63117 32.16956 28.90036
#
# Velocity S-wave (km/s) = 3.29974 3.69673 3.50386
# Velocity P-wave (km/s) = 5.66936 6.55602 6.12875
#
# Compressibility (1/GPa) = 0.02410393
#
# Stress axis : x y z
#
# Youngs Moduli (GPa) = 69.34635 55.25557 65.96520
#
# Poissons Ratio (x) = 0.47028 0.06544
# Poissons Ratio (y) = 0.59021 0.15065
# Poissons Ratio (z) = 0.06879 0.12619
#
# Static dielectric constant tensor:
#      x y z
#    x 1.890800 0.024440 0.036520 
#    y 0.024440 1.878740 0.001020 
#    z 0.036520 0.001020 1.899480 
# 
# From -- ./inp_files/532606.got.cif
#   From: 2010.05.17/outbox.cif.g08.bks.cpg/sg2_267_cif.got.tgz:532606.got - 2010.06.03 11:33:40.
