data_PCOD9039976
_publ_section_title
;
Structure prediction by ZEFSAII (Michael W. Deem and Ramdas Pophale) SiO2 
 PCOD9039976
Probable space group: P -1
;
_chemical_formula_sum "Si O2"
_cell_formula_units_Z 14
_cell_length_a 14.463344
_cell_length_b 10.522030
_cell_length_c 7.703823
_cell_angle_alpha 124.186226
_cell_angle_beta 143.628387
_cell_angle_gamma 58.576161
_cell_volume 569.417513
_symmetry_space_group_name_H-M "P -1"
_symmetry_group_IT_number 2
_symmetry_cell_setting 'triclinic'
loop_
_space_group_symop_operation_xyz
x,y,z
-x,-y,-z
loop_
_atom_site_type_symbol
_atom_site_label
_atom_site_fract_x
_atom_site_fract_y
_atom_site_fract_z
Si Si1 0.209500 0.407219 0.245928
Si Si2 0.413025 0.228935 0.154199
Si Si3 0.892405 0.603966 0.279859
Si Si4 0.117727 0.808672 0.883515
Si Si5 0.023700 0.145476 0.913839
Si Si6 0.349527 0.627145 0.875066
Si Si7 0.312173 0.887877 0.755085
O O1 0.374789 0.326005 0.347497
O O2 0.125756 0.270173 0.092049
O O3 0.229980 0.540780 0.513041
O O4 0.882254 0.528830 0.017900
O O5 0.588397 0.196319 0.321437
O O6 0.290541 0.327397 0.907962
O O7 0.354912 0.061289 0.960807
O O8 0.000000 0.500000 0.500000
O O9 0.980188 0.754901 0.515632
O O10 0.268850 0.684319 0.977199
O O11 0.052122 0.809683 0.978501
O O12 0.134781 0.982371 0.988321
O O13 0.872866 0.117941 0.550390
O O14 0.373521 0.783490 0.931324
O O15 0.500000 0.500000 0.000000
#
# Coordination Sequence:
#
# PCOD9039976 Si02
#       7
#     2   2   2   2   2   2   2
#     4  10  25  47  73 106 144 197 245 293 381 436
#     4   9  23  45  75 104 140 196 243 295 369 437
#     4  10  23  42  73 106 147 180 239 305 360 438
#     4  11  26  43  72 109 147 186 248 306 360 440
#     4  11  24  47  77 108 140 197 250 304 363 437
#     4  12  30  46  68 110 152 196 240 309 372 434
#     4  11  23  46  74 100 149 193 245 302 365 438
#
# _framework density 24.586528999999999
#
# number of rings (size 3 to 8) (size 9 to 14) (size 15 to 20)
#    0.857    0.571    1.429    1.714    8.000    3.429 
#    2.571    1.429    0.000    0.000    0.000    0.000 
#    0.000    0.000    0.000    0.000    0.000    0.000 
#
# Total GULP energy -78306.650438 kJ/mol
# GULP energy per Si atom -5593.332174 kJ/mol
# Density = 2.453057 g / cm^3
# Si number density = 24.586529 Si / 1000 Ang^3
#
#
#
# Elastic Constant Matrix: (Units=GPa)
#
#
# Indices 1 2 3 4 5 6 
#
# 1 93.7542 52.2488 8.9187 -0.9467 -4.8111 -14.7048
# 2 52.2488 155.8144 19.8169 -7.9611 -7.6121 -4.1863
# 3 8.9187 19.8169 55.5590 -7.4828 -6.1807 1.3212
# 4 -0.9467 -7.9611 -7.4828 30.5976 -7.4059 0.4159
# 5 -4.8111 -7.6121 -6.1807 -7.4059 32.7475 5.3626
# 6 -14.7048 -4.1863 1.3212 0.4159 5.3626 52.3856
#
#
#
# Elastic Compliance Matrix: (Units=1/GPa)
#
#
# Indices 1 2 3 4 5 6 
#
# 1 0.013783 -0.004470 -0.000831 -0.000981 0.000028 0.003538
# 2 -0.004470 0.008299 -0.001797 0.001952 0.001492 -0.000714
# 3 -0.000831 -0.001797 0.020087 0.005587 0.004747 -0.001414
# 4 -0.000981 0.001952 0.005587 0.036964 0.009982 -0.001576
# 5 0.000028 0.001492 0.004747 0.009982 0.034633 -0.003617
# 6 0.003538 -0.000714 -0.001414 -0.001576 -0.003617 0.020444
#
#
# Mechanical properties :
#
#
# Convention : Reuss Voigt Hill
#
# Bulk Modulus (GPa) = 35.74850 51.89961 43.82406
# Shear Modulus (GPa) = 31.70001 38.08902 34.89451
#
# Velocity S-wave (km/s) = 3.59461 3.94024 3.77138
# Velocity P-wave (km/s) = 5.63913 6.46957 6.06857
#
# Compressibility (1/GPa) = 0.02797320
#
# Stress axis : x y z
#
# Youngs Moduli (GPa) = 72.55552 120.50199 49.78260
#
# Poissons Ratio (x) = 0.53860 0.04139
# Poissons Ratio (y) = 0.32430 0.08944
# Poissons Ratio (z) = 0.06032 0.21649
#
# Static dielectric constant tensor:
#      x y z
#    x 1.995000 -0.021540 0.004140 
#    y -0.021540 1.968980 -0.030040 
#    z 0.004140 -0.030040 1.971440 
# 
# From -- ./inp_files/308649.got.cif
#   From: 2010.05.17/outbox.cif.g08.bks.cpg/sg2_155_cif.got.tgz:308649.got - 2010.06.03 11:33:40.
