data_PCOD9039064
_publ_section_title
;
Structure prediction by ZEFSAII (Michael W. Deem and Ramdas Pophale) SiO2 
 PCOD9039064
Probable space group: P -1
;
_chemical_formula_sum "Si O2"
_cell_formula_units_Z 15
_cell_length_a 6.695431
_cell_length_b 27.627534
_cell_length_c 5.882161
_cell_angle_alpha 49.264806
_cell_angle_beta 111.083703
_cell_angle_gamma 131.790396
_cell_volume 609.252177
_symmetry_space_group_name_H-M "P -1"
_symmetry_group_IT_number 2
_symmetry_cell_setting 'triclinic'
loop_
_space_group_symop_operation_xyz
x,y,z
-x,-y,-z
loop_
_atom_site_type_symbol
_atom_site_label
_atom_site_fract_x
_atom_site_fract_y
_atom_site_fract_z
Si Si1 0.641318 0.677429 0.173979
Si Si2 0.303798 0.076754 0.248411
Si Si3 0.785004 0.489099 0.260048
Si Si4 0.057379 0.898477 0.257972
Si Si5 0.431914 0.199818 0.318280
Si Si6 0.802074 0.178706 0.829325
Si Si7 0.460055 0.440114 0.865563
Si Si8 0.500000 0.000000 0.500000
O O1 0.482940 0.599601 0.507713
O O2 0.637587 0.643021 0.032041
O O3 0.941523 0.745308 0.174513
O O4 0.482449 0.715582 0.996154
O O5 0.385943 0.140995 0.277695
O O6 0.231089 0.991834 0.537815
O O7 0.103522 0.071460 0.006714
O O8 0.590900 0.106801 0.143111
O O9 0.755752 0.559741 0.075417
O O10 0.000000 0.500000 0.500000
O O11 0.737751 0.478535 0.999187
O O12 0.844277 0.835502 0.552798
O O13 0.103698 0.853225 0.225561
O O14 0.330153 0.965569 0.288892
O O15 0.633940 0.204129 0.564059
O O16 0.500000 0.500000 0.500000
#
# Coordination Sequence:
#
# PCOD9039064 Si02
#       8
#     2   2   2   2   2   2   2   1
#     4  11  24  39  68  97 133 187 225 290 355 417
#     4  11  25  45  66  99 132 180 233 289 347 426
#     4  10  23  42  66 101 137 181 236 292 343 431
#     4  11  25  46  66 100 137 177 234 290 344 430
#     4  11  25  44  68 100 138 179 233 288 350 420
#     4  11  25  45  68  98 142 176 234 294 347 419
#     4   9  22  42  63  95 137 177 228 285 349 416
#     4  12  24  44  72  94 136 190 218 292 364 402
#
# _framework density 24.620348
#
# number of rings (size 3 to 8) (size 9 to 14) (size 15 to 20)
#    0.000    1.333    2.667    1.200    1.867    8.533 
#    0.000    0.000    0.000    0.000    0.000    0.000 
#    0.000    0.000    0.000    0.000    0.000    0.000 
#
# Total GULP energy -83716.216925 kJ/mol
# GULP energy per Si atom -5581.081128 kJ/mol
# Density = 2.456431 g / cm^3
# Si number density = 24.620348 Si / 1000 Ang^3
#
#
#
# Elastic Constant Matrix: (Units=GPa)
#
#
# Indices 1 2 3 4 5 6 
#
# 1 93.3934 67.1965 44.7816 11.9526 24.8477 -9.6013
# 2 67.1965 199.4893 52.0047 40.0215 19.2852 -17.9070
# 3 44.7816 52.0047 122.5451 22.9382 40.0275 11.4614
# 4 11.9526 40.0215 22.9382 50.4881 9.1384 14.1318
# 5 24.8477 19.2852 40.0275 9.1384 56.6693 10.2287
# 6 -9.6013 -17.9070 11.4614 14.1318 10.2287 54.7058
#
#
#
# Elastic Compliance Matrix: (Units=1/GPa)
#
#
# Indices 1 2 3 4 5 6 
#
# 1 0.016656 -0.004280 -0.003358 0.000952 -0.004124 0.002751
# 2 -0.004280 0.008324 -0.001253 -0.006113 0.000234 0.003771
# 3 -0.003358 -0.001253 0.012567 -0.002261 -0.006275 -0.001875
# 4 0.000952 -0.006113 -0.002261 0.027803 0.000329 -0.008604
# 5 -0.004124 0.000234 -0.006275 0.000329 0.024475 -0.003994
# 6 0.002751 0.003771 -0.001875 -0.008604 -0.003994 0.023359
#
#
# Mechanical properties :
#
#
# Convention : Reuss Voigt Hill
#
# Bulk Modulus (GPa) = 50.59945 82.59927 66.59936
# Shear Modulus (GPa) = 36.34915 49.13564 42.74239
#
# Velocity S-wave (km/s) = 3.84655 4.47221 4.17113
# Velocity P-wave (km/s) = 6.35015 7.76464 7.09274
#
# Compressibility (1/GPa) = 0.01976306
#
# Stress axis : x y z
#
# Youngs Moduli (GPa) = 60.04000 120.14071 79.57063
#
# Poissons Ratio (x) = 0.51422 0.26723
# Poissons Ratio (y) = 0.25698 0.09971
# Poissons Ratio (z) = 0.20164 0.15055
#
# Static dielectric constant tensor:
#      x y z
#    x 2.172660 -0.095310 -0.076930 
#    y -0.095310 2.035900 -0.100560 
#    z -0.076930 -0.100560 2.169770 
# 
# From -- ./inp_files/12851.got.cif
#   From: 2010.05.17/outbox.cif.g08.bks.cpg/sg2_7_cif.got.tgz:12851.got - 2010.06.03 11:33:40.
