data_PCOD9039676
_publ_section_title
;
Structure prediction by ZEFSAII (Michael W. Deem and Ramdas Pophale) SiO2 
 PCOD9039676
Probable space group: P -1
;
_chemical_formula_sum "Si O2"
_cell_formula_units_Z 16
_cell_length_a 8.420320
_cell_length_b 18.713835
_cell_length_c 11.703879
_cell_angle_alpha 148.429521
_cell_angle_beta 125.666244
_cell_angle_gamma 55.544761
_cell_volume 774.054026
_symmetry_space_group_name_H-M "P -1"
_symmetry_group_IT_number 2
_symmetry_cell_setting 'triclinic'
loop_
_space_group_symop_operation_xyz
x,y,z
-x,-y,-z
loop_
_atom_site_type_symbol
_atom_site_label
_atom_site_fract_x
_atom_site_fract_y
_atom_site_fract_z
Si Si1 0.270237 0.841347 0.858299
Si Si2 0.314111 0.600456 0.113052
Si Si3 0.192597 0.391755 0.403151
Si Si4 0.414344 0.166833 0.819942
Si Si5 0.182512 0.164506 0.279085
Si Si6 0.622774 0.404556 0.598572
Si Si7 0.877850 0.616345 0.892375
Si Si8 0.482554 0.840231 0.403240
O O1 0.344746 0.745555 0.651881
O O2 0.051329 0.814288 0.764038
O O3 0.424560 0.809199 0.984006
O O4 0.247089 0.005694 0.049715
O O5 0.317260 0.598542 0.248458
O O6 0.336693 0.751856 0.282881
O O7 0.500000 0.500000 0.000000
O O8 0.107964 0.561870 0.932242
O O9 0.224721 0.272724 0.349197
O O10 0.389102 0.461210 0.574262
O O11 0.159944 0.334941 0.186606
O O12 0.000000 0.500000 0.500000
O O13 0.480611 0.205223 0.774173
O O14 0.404842 0.003968 0.593832
O O15 0.206314 0.257827 0.888546
O O16 0.312149 0.182262 0.470038
O O17 0.748967 0.498366 0.707830
#
# Coordination Sequence:
#
# PCOD9039676 Si02
#       8
#     2   2   2   2   2   2   2   2
#     4  10  23  42  70 100 132 171 218 267 332 393
#     4  12  27  45  66  96 130 176 223 274 327 393
#     4  12  25  42  68  96 133 171 215 274 328 384
#     4  10  23  44  68  99 133 172 216 270 329 394
#     4  10  23  43  69 100 131 174 216 267 331 394
#     4  12  25  45  68  96 133 174 218 276 326 387
#     4  12  27  42  66  98 132 174 220 274 329 387
#     4  10  23  45  69  94 135 175 216 267 329 393
#
# _framework density 20.670390000000001
#
# number of rings (size 3 to 8) (size 9 to 14) (size 15 to 20)
#    0.000    1.000    2.500    3.000    7.000    2.000 
#    0.000    0.000    0.000    0.000    0.000    0.000 
#    0.000    0.000    0.000    0.000    0.000    0.000 
#
# Total GULP energy -89544.882041 kJ/mol
# GULP energy per Si atom -5596.555128 kJ/mol
# Density = 2.062334 g / cm^3
# Si number density = 20.670390 Si / 1000 Ang^3
#
#
#
# Elastic Constant Matrix: (Units=GPa)
#
#
# Indices 1 2 3 4 5 6 
#
# 1 82.5195 44.5376 24.8324 7.5455 13.0110 -16.7583
# 2 44.5376 95.2605 31.2692 -6.6647 -5.5708 3.4312
# 3 24.8324 31.2692 53.4227 -0.6458 2.2840 3.9122
# 4 7.5455 -6.6647 -0.6458 26.5586 -2.1627 -1.9861
# 5 13.0110 -5.5708 2.2840 -2.1627 36.5806 -12.4342
# 6 -16.7583 3.4312 3.9122 -1.9861 -12.4342 39.5832
#
#
#
# Elastic Compliance Matrix: (Units=1/GPa)
#
#
# Indices 1 2 3 4 5 6 
#
# 1 0.022924 -0.010454 -0.004959 -0.009209 -0.007125 0.008402
# 2 -0.010454 0.018308 -0.005806 0.007704 0.006277 -0.003081
# 3 -0.004959 -0.005806 0.024870 0.000013 -0.002295 -0.004775
# 4 -0.009209 0.007704 0.000013 0.042744 0.006887 -0.000260
# 5 -0.007125 0.006277 -0.002295 0.006887 0.033991 0.007690
# 6 0.008402 -0.003081 -0.004775 -0.000260 0.007690 0.031962
#
#
# Mechanical properties :
#
#
# Convention : Reuss Voigt Hill
#
# Bulk Modulus (GPa) = 42.25803 48.05345 45.15574
# Shear Modulus (GPa) = 22.20976 29.24871 25.72923
#
# Velocity S-wave (km/s) = 3.28147 3.76574 3.53191
# Velocity P-wave (km/s) = 5.90301 6.49659 6.20690
#
# Compressibility (1/GPa) = 0.02366414
#
# Stress axis : x y z
#
# Youngs Moduli (GPa) = 43.62155 54.62092 40.20845
#
# Poissons Ratio (x) = 0.57099 0.19940
# Poissons Ratio (y) = 0.45601 0.23347
# Poissons Ratio (z) = 0.21633 0.31715
#
# Static dielectric constant tensor:
#      x y z
#    x 1.713730 -0.010460 -0.004530 
#    y -0.010460 1.724880 0.002670 
#    z -0.004530 0.002670 1.748380 
# 
# From -- ./inp_files/403622.got.cif
#   From: 2010.05.17/outbox.cif.g08.bks.cpg/sg2_202_cif.got.tgz:403622.got - 2010.06.03 11:33:40.
