data_PCOD9039611
_publ_section_title
;
Structure prediction by ZEFSAII (Michael W. Deem and Ramdas Pophale) SiO2 
 PCOD9039611
Probable space group: P -1
;
_chemical_formula_sum "Si O2"
_cell_formula_units_Z 16
_cell_length_a 21.312384
_cell_length_b 12.257791
_cell_length_c 8.925544
_cell_angle_alpha 130.215079
_cell_angle_beta 31.560746
_cell_angle_gamma 141.506963
_cell_volume 758.003842
_symmetry_space_group_name_H-M "P -1"
_symmetry_group_IT_number 2
_symmetry_cell_setting 'triclinic'
loop_
_space_group_symop_operation_xyz
x,y,z
-x,-y,-z
loop_
_atom_site_type_symbol
_atom_site_label
_atom_site_fract_x
_atom_site_fract_y
_atom_site_fract_z
Si Si1 0.278449 0.692624 0.331750
Si Si2 0.637239 0.687053 0.829797
Si Si3 0.557303 0.960023 0.198986
Si Si4 0.198428 0.684434 0.152081
Si Si5 0.167961 0.203743 0.738351
Si Si6 0.863448 0.669525 0.538247
Si Si7 0.014204 0.342461 0.023388
Si Si8 0.997699 0.189339 0.324050
O O1 0.427921 0.852051 0.243515
O O2 0.272751 0.685344 0.156339
O O3 0.240406 0.512044 0.320079
O O4 0.145070 0.703866 0.663676
O O5 0.686159 0.679776 0.553927
O O6 0.771298 0.728917 0.698706
O O7 0.500000 0.500000 0.000000
O O8 0.607655 0.834545 0.026841
O O9 0.500000 0.000000 0.500000
O O10 0.688496 0.140880 0.017631
O O11 0.060783 0.692462 0.481229
O O12 0.134190 0.518552 0.027239
O O13 0.039026 0.200048 0.908834
O O14 0.147874 0.254669 0.988943
O O15 0.123822 0.007815 0.656741
O O16 0.944588 0.635172 0.214431
O O17 0.978011 0.808435 0.547615
#
# Coordination Sequence:
#
# PCOD9039611 Si02
#       8
#     2   2   2   2   2   2   2   2
#     4  12  23  42  67 101 137 179 226 274 343 405
#     4  11  24  47  66  92 136 183 220 275 338 410
#     4  12  28  46  68  98 140 183 227 280 338 412
#     4  12  24  44  69 102 139 177 227 287 340 405
#     4  10  23  42  69  95 140 171 224 284 339 399
#     4  11  24  40  72 100 134 173 233 278 340 400
#     4  11  23  40  72 103 133 178 227 286 336 404
#     4  11  22  42  67 105 131 175 227 292 343 392
#
# _framework density 21.108073000000001
#
# number of rings (size 3 to 8) (size 9 to 14) (size 15 to 20)
#    0.000    0.750    5.000    2.625    3.500    3.000 
#    0.000    0.625    0.000    0.000    0.000    0.000 
#    0.000    0.000    0.000    0.000    0.000    0.000 
#
# Total GULP energy -89471.391808 kJ/mol
# GULP energy per Si atom -5591.961988 kJ/mol
# Density = 2.106003 g / cm^3
# Si number density = 21.108073 Si / 1000 Ang^3
#
#
#
# Elastic Constant Matrix: (Units=GPa)
#
#
# Indices 1 2 3 4 5 6 
#
# 1 106.4729 22.4950 52.0567 11.6790 17.3486 1.0769
# 2 22.4950 68.4053 44.2195 -2.2580 13.3276 -13.6943
# 3 52.0567 44.2195 122.8099 5.3738 24.3559 -5.1962
# 4 11.6790 -2.2580 5.3738 35.6250 -3.9875 2.6469
# 5 17.3486 13.3276 24.3559 -3.9875 46.8588 1.4234
# 6 1.0769 -13.6943 -5.1962 2.6469 1.4234 36.5072
#
#
#
# Elastic Compliance Matrix: (Units=1/GPa)
#
#
# Indices 1 2 3 4 5 6 
#
# 1 0.012555 -0.001235 -0.004294 -0.003729 -0.002350 -0.001083
# 2 -0.001235 0.021063 -0.006404 0.001936 -0.002252 0.006974
# 3 -0.004294 -0.006404 0.013004 -0.001332 -0.003456 -0.000193
# 4 -0.003729 0.001936 -0.001332 0.030207 0.004145 -0.001705
# 5 -0.002350 -0.002252 -0.003456 0.004145 0.025077 -0.002546
# 6 -0.001083 0.006974 -0.000193 -0.001705 -0.002546 0.030235
#
#
# Mechanical properties :
#
#
# Convention : Reuss Voigt Hill
#
# Bulk Modulus (GPa) = 43.94215 59.47006 51.70610
# Shear Modulus (GPa) = 30.56378 35.72599 33.14488
#
# Velocity S-wave (km/s) = 3.80934 4.11850 3.96693
# Velocity P-wave (km/s) = 6.34122 7.13101 6.74768
#
# Compressibility (1/GPa) = 0.02275719
#
# Stress axis : x y z
#
# Youngs Moduli (GPa) = 79.64820 47.47627 76.90040
#
# Poissons Ratio (x) = 0.05864 0.33020
# Poissons Ratio (y) = 0.09838 0.49243
# Poissons Ratio (z) = 0.34199 0.30401
#
# Static dielectric constant tensor:
#      x y z
#    x 1.770260 -0.013760 0.024150 
#    y -0.013760 1.759420 -0.015290 
#    z 0.024150 -0.015290 1.782100 
# 
# From -- ./inp_files/239347.got.cif
#   From: 2010.05.17/outbox.cif.g08.bks.cpg/sg2_120_cif.got.tgz:239347.got - 2010.06.03 11:33:40.
