data_PCOD9039349
_publ_section_title
;
Structure prediction by ZEFSAII (Michael W. Deem and Ramdas Pophale) SiO2 
 PCOD9039349
Probable space group: P -1
;
_chemical_formula_sum "Si O2"
_cell_formula_units_Z 14
_cell_length_a 6.345184
_cell_length_b 7.583215
_cell_length_c 15.057499
_cell_angle_alpha 58.821069
_cell_angle_beta 111.479659
_cell_angle_gamma 96.528514
_cell_volume 574.189903
_symmetry_space_group_name_H-M "P -1"
_symmetry_group_IT_number 2
_symmetry_cell_setting 'triclinic'
loop_
_space_group_symop_operation_xyz
x,y,z
-x,-y,-z
loop_
_atom_site_type_symbol
_atom_site_label
_atom_site_fract_x
_atom_site_fract_y
_atom_site_fract_z
Si Si1 0.475630 0.457217 0.234563
Si Si2 0.022049 0.978874 0.854463
Si Si3 0.351765 0.208758 0.449236
Si Si4 0.325147 0.662084 0.879670
Si Si5 0.767010 0.262884 0.600700
Si Si6 0.059357 0.620131 0.595489
Si Si7 0.993751 0.314503 0.916268
O O1 0.375243 0.348984 0.330759
O O2 0.553424 0.308944 0.203044
O O3 0.280510 0.635490 0.132238
O O4 0.719611 0.506569 0.296761
O O5 0.243547 0.866651 0.868629
O O6 0.930644 0.803067 0.949994
O O7 0.858886 0.071483 0.726355
O O8 0.055750 0.161576 0.882932
O O9 0.497851 0.267888 0.542878
O O10 0.084510 0.195254 0.423726
O O11 0.500000 0.000000 0.500000
O O12 0.107693 0.528391 0.868462
O O13 0.500000 0.500000 0.000000
O O14 0.867288 0.460080 0.608803
O O15 0.873125 0.288587 0.512071
#
# Coordination Sequence:
#
# PCOD9039349 Si02
#       7
#     2   2   2   2   2   2   2
#     4  11  24  44  73  95 140 185 222 288 348 398
#     4  11  25  46  73 102 140 182 233 281 345 413
#     4  11  25  39  68 100 137 177 221 280 342 407
#     4  12  26  45  72 104 141 185 230 282 344 413
#     4  10  23  42  68 100 129 180 229 279 336 414
#     4  10  23  46  68  96 138 176 226 284 344 400
#     4  11  26  50  68 103 145 179 230 291 346 403
#
# _framework density 24.382175
#
# number of rings (size 3 to 8) (size 9 to 14) (size 15 to 20)
#    0.000    1.143    1.429    3.429    6.000    4.000 
#    5.143    0.000    0.000    0.000    0.000    0.000 
#    0.000    0.000    0.000    0.000    0.000    0.000 
#
# Total GULP energy -78183.011695 kJ/mol
# GULP energy per Si atom -5584.500835 kJ/mol
# Density = 2.432668 g / cm^3
# Si number density = 24.382175 Si / 1000 Ang^3
#
#
#
# Elastic Constant Matrix: (Units=GPa)
#
#
# Indices 1 2 3 4 5 6 
#
# 1 118.3312 41.6969 57.7084 -0.7206 15.2617 -29.1986
# 2 41.6969 83.1669 8.9524 4.6260 13.3927 -23.4186
# 3 57.7084 8.9524 168.5052 -7.2432 10.9685 -8.5426
# 4 -0.7206 4.6260 -7.2432 29.2125 -7.7239 -6.3467
# 5 15.2617 13.3927 10.9685 -7.7239 52.9311 3.4839
# 6 -29.1986 -23.4186 -8.5426 -6.3467 3.4839 44.6397
#
#
#
# Elastic Compliance Matrix: (Units=1/GPa)
#
#
# Indices 1 2 3 4 5 6 
#
# 1 0.013791 -0.004394 -0.003987 0.000787 -0.002335 0.006247
# 2 -0.004394 0.016543 0.001088 -0.002173 -0.003857 0.006005
# 3 -0.003987 0.001088 0.007306 0.001340 -0.000417 -0.000416
# 4 0.000787 -0.002173 0.001340 0.037283 0.005188 0.004527
# 5 -0.002335 -0.003857 -0.000417 0.005188 0.021687 -0.004585
# 6 0.006247 0.006005 -0.000416 0.004527 -0.004585 0.030559
#
#
# Mechanical properties :
#
#
# Convention : Reuss Voigt Hill
#
# Bulk Modulus (GPa) = 43.37802 65.19098 54.28450
# Shear Modulus (GPa) = 33.45851 42.79970 38.12911
#
# Velocity S-wave (km/s) = 3.70841 4.19426 3.95879
# Velocity P-wave (km/s) = 6.01381 7.08879 6.57331
#
# Compressibility (1/GPa) = 0.02305315
#
# Stress axis : x y z
#
# Youngs Moduli (GPa) = 72.51177 60.44996 136.87679
#
# Poissons Ratio (x) = 0.26562 0.54574
# Poissons Ratio (y) = 0.31861 -0.14892
# Poissons Ratio (z) = 0.28911 -0.06577
#
# Static dielectric constant tensor:
#      x y z
#    x 1.996220 -0.058200 0.058020 
#    y -0.058200 2.254210 0.031520 
#    z 0.058020 0.031520 1.987570 
# 
# From -- ./inp_files/461357.got.cif
#   From: 2010.05.17/outbox.cif.g08.bks.cpg/sg2_231_cif.got.tgz:461357.got - 2010.06.03 11:33:40.
