data_PCOD9039686
_publ_section_title
;
Structure prediction by ZEFSAII (Michael W. Deem and Ramdas Pophale) SiO2 
 PCOD9039686
Probable space group: P -1
;
_chemical_formula_sum "Si O2"
_cell_formula_units_Z 16
_cell_length_a 27.376691
_cell_length_b 11.574924
_cell_length_c 9.417216
_cell_angle_alpha 28.575869
_cell_angle_beta 138.732462
_cell_angle_gamma 151.511481
_cell_volume 678.162974
_symmetry_space_group_name_H-M "P -1"
_symmetry_group_IT_number 2
_symmetry_cell_setting 'triclinic'
loop_
_space_group_symop_operation_xyz
x,y,z
-x,-y,-z
loop_
_atom_site_type_symbol
_atom_site_label
_atom_site_fract_x
_atom_site_fract_y
_atom_site_fract_z
Si Si1 0.530465 0.840348 0.148198
Si Si2 0.904654 0.965705 0.706514
Si Si3 0.160138 0.003710 0.167216
Si Si4 0.215459 0.915264 0.808252
Si Si5 0.620320 0.794099 0.906197
Si Si6 0.991451 0.867503 0.779155
Si Si7 0.360648 0.618187 0.808516
Si Si8 0.244209 0.777509 0.731310
O O1 0.500000 0.500000 0.500000
O O2 0.652020 0.128820 0.121627
O O3 0.467734 0.760859 0.955053
O O4 0.500000 0.000000 0.000000
O O5 0.902359 0.108471 0.696777
O O6 0.998581 0.083890 0.688398
O O7 0.834003 0.932047 0.468071
O O8 0.851354 0.604399 0.033490
O O9 0.213460 0.862367 0.437404
O O10 0.262554 0.395928 0.941880
O O11 0.080141 0.878929 0.002988
O O12 0.257866 0.996995 0.653077
O O13 0.117840 0.517359 0.040588
O O14 0.305230 0.047116 0.966592
O O15 0.630319 0.084244 0.544787
O O16 0.500000 0.500000 0.000000
O O17 0.656220 0.633452 0.072466
O O18 0.000000 0.000000 0.500000
#
# Coordination Sequence:
#
# PCOD9039686 Si02
#       8
#     2   2   2   2   2   2   2   2
#     4  12  24  42  69 106 150 186 241 301 372 430
#     4  10  24  43  71 102 144 189 242 306 374 438
#     4  11  24  44  71 107 145 189 246 310 370 437
#     4  10  25  45  69 102 138 194 245 299 364 444
#     4  12  28  48  74 106 153 196 247 302 371 443
#     4  11  25  46  71 103 143 193 249 304 372 443
#     4  12  27  45  74 112 146 196 248 308 366 444
#     4  10  23  42  70 100 144 186 239 303 367 439
#
# _framework density 23.593147999999999
#
# number of rings (size 3 to 8) (size 9 to 14) (size 15 to 20)
#    0.000    1.000    1.250    3.750   10.500    6.000 
#    0.000    0.000    0.000    0.000    0.000    0.000 
#    0.000    0.000    0.000    0.000    0.000    0.000 
#
# Total GULP energy -89196.341534 kJ/mol
# GULP energy per Si atom -5574.771346 kJ/mol
# Density = 2.353945 g / cm^3
# Si number density = 23.593148 Si / 1000 Ang^3
#
#
#
# Elastic Constant Matrix: (Units=GPa)
#
#
# Indices 1 2 3 4 5 6 
#
# 1 73.3781 21.1390 17.6139 0.4534 4.4186 10.3036
# 2 21.1390 125.4244 49.2007 38.3560 -8.6054 7.8502
# 3 17.6139 49.2007 164.0606 19.4795 2.9502 1.3496
# 4 0.4534 38.3560 19.4795 56.2160 3.5775 5.8434
# 5 4.4186 -8.6054 2.9502 3.5775 33.4885 -3.1808
# 6 10.3036 7.8502 1.3496 5.8434 -3.1808 28.6208
#
#
#
# Elastic Compliance Matrix: (Units=1/GPa)
#
#
# Indices 1 2 3 4 5 6 
#
# 1 0.015799 -0.003129 -0.001024 0.003205 -0.003696 -0.005846
# 2 -0.003129 0.012135 -0.002473 -0.007688 0.004570 -0.000008
# 3 -0.001024 -0.002473 0.007049 -0.000765 -0.000967 0.000763
# 4 0.003205 -0.007688 -0.000765 0.024082 -0.005333 -0.004519
# 5 -0.003696 0.004570 -0.000967 -0.005333 0.032637 0.004839
# 6 -0.005846 -0.000008 0.000763 -0.004519 0.004839 0.038471
#
#
# Mechanical properties :
#
#
# Convention : Reuss Voigt Hill
#
# Bulk Modulus (GPa) = 46.01526 59.86337 52.93932
# Shear Modulus (GPa) = 33.18554 41.99236 37.58895
#
# Velocity S-wave (km/s) = 3.75450 4.22341 3.99584
# Velocity P-wave (km/s) = 6.19201 7.01507 6.61635
#
# Compressibility (1/GPa) = 0.02173192
#
# Stress axis : x y z
#
# Youngs Moduli (GPa) = 63.29557 82.40447 141.87016
#
# Poissons Ratio (x) = 0.25784 0.14525
# Poissons Ratio (y) = 0.19805 0.35080
# Poissons Ratio (z) = 0.06481 0.20376
#
# Static dielectric constant tensor:
#      x y z
#    x 2.035680 -0.077780 -0.022070 
#    y -0.077780 1.575000 -0.194940 
#    z -0.022070 -0.194940 1.789630 
# 
# From -- ./inp_files/357021.got.cif
#   From: 2010.05.17/outbox.cif.g08.bks.cpg/sg2_179_cif.got.tgz:357021.got - 2010.06.03 11:33:40.
