data_PCOD9039933
_publ_section_title
;
Structure prediction by ZEFSAII (Michael W. Deem and Ramdas Pophale) SiO2 
 PCOD9039933
Probable space group: P -1
;
_chemical_formula_sum "Si O2"
_cell_formula_units_Z 16
_cell_length_a 9.068626
_cell_length_b 13.081954
_cell_length_c 13.616737
_cell_angle_alpha 112.980894
_cell_angle_beta 128.715375
_cell_angle_gamma 34.977514
_cell_volume 695.140090
_symmetry_space_group_name_H-M "P -1"
_symmetry_group_IT_number 2
_symmetry_cell_setting 'triclinic'
loop_
_space_group_symop_operation_xyz
x,y,z
-x,-y,-z
loop_
_atom_site_type_symbol
_atom_site_label
_atom_site_fract_x
_atom_site_fract_y
_atom_site_fract_z
Si Si1 0.126922 0.798607 0.735626
Si Si2 0.434917 0.608692 0.605302
Si Si3 0.852707 0.567967 0.354291
Si Si4 0.422167 0.562310 0.104750
Si Si5 0.522973 0.956818 0.377937
Si Si6 0.957520 0.724608 0.130640
Si Si7 0.443386 0.219817 0.339462
Si Si8 0.566254 0.121594 0.144099
O O1 0.162592 0.716300 0.614526
O O2 0.427948 0.615780 0.849535
O O3 0.176624 0.902969 0.771059
O O4 0.843471 0.907123 0.731327
O O5 0.500000 0.500000 0.500000
O O6 0.350565 0.766263 0.579782
O O7 0.760727 0.448868 0.745929
O O8 0.597654 0.590976 0.231103
O O9 0.716518 0.756160 0.354552
O O10 0.000000 0.500000 0.500000
O O11 0.143359 0.399629 0.343310
O O12 0.084028 0.717128 0.076288
O O13 0.500000 0.500000 0.000000
O O14 0.500000 0.000000 0.500000
O O15 0.579627 0.043580 0.375795
O O16 0.761173 0.918292 0.166700
O O17 0.685440 0.764823 0.005882
O O18 0.362440 0.236801 0.199499
#
# Coordination Sequence:
#
# PCOD9039933 Si02
#       8
#     2   2   2   2   2   2   2   2
#     4  10  23  44  65  96 142 176 226 291 347 406
#     4  10  25  42  70 100 139 182 236 282 354 424
#     4  12  25  44  71 102 146 187 235 294 365 422
#     4  11  23  43  70 105 139 187 238 296 354 426
#     4  12  25  43  71 102 146 186 233 296 352 425
#     4  10  23  42  72  96 143 187 230 295 354 417
#     4  11  25  42  69 103 136 183 239 288 350 428
#     4  10  23  46  65 102 140 181 242 287 353 427
#
# _framework density 23.016942
#
# number of rings (size 3 to 8) (size 9 to 14) (size 15 to 20)
#    0.000    1.250    2.500    1.500    7.000    6.500 
#    2.250    3.750    0.000    0.000    0.000    0.000 
#    0.000    0.000    0.000    0.000    0.000    0.000 
#
# Total GULP energy -89183.339007 kJ/mol
# GULP energy per Si atom -5573.958688 kJ/mol
# Density = 2.296455 g / cm^3
# Si number density = 23.016942 Si / 1000 Ang^3
#
#
#
# Elastic Constant Matrix: (Units=GPa)
#
#
# Indices 1 2 3 4 5 6 
#
# 1 83.7810 31.8552 16.1617 14.4221 -10.1410 4.7996
# 2 31.8552 144.4417 30.7877 13.7020 -13.2041 4.9645
# 3 16.1617 30.7877 67.7703 21.4269 -4.9466 12.0012
# 4 14.4221 13.7020 21.4269 36.8452 -2.5257 1.7803
# 5 -10.1410 -13.2041 -4.9466 -2.5257 26.4424 -0.4235
# 6 4.7996 4.9645 12.0012 1.7803 -0.4235 44.3339
#
#
#
# Elastic Compliance Matrix: (Units=1/GPa)
#
#
# Indices 1 2 3 4 5 6 
#
# 1 0.014104 -0.002214 -0.000652 -0.004015 0.003784 -0.000905
# 2 -0.002214 0.008320 -0.002981 -0.000315 0.002720 0.000154
# 3 -0.000652 -0.002981 0.020397 -0.010201 0.001028 -0.004698
# 4 -0.004015 -0.000315 -0.010201 0.034655 -0.000266 0.001837
# 5 0.003784 0.002720 0.001028 -0.000266 0.040785 -0.000592
# 6 -0.000905 0.000154 -0.004698 0.001837 -0.000592 0.023829
#
#
# Mechanical properties :
#
#
# Convention : Reuss Voigt Hill
#
# Bulk Modulus (GPa) = 32.12438 50.40025 41.26232
# Shear Modulus (GPa) = 30.45807 36.00352 33.23080
#
# Velocity S-wave (km/s) = 3.64165 3.95931 3.80380
# Velocity P-wave (km/s) = 5.62755 6.54569 6.10391
#
# Compressibility (1/GPa) = 0.03112900
#
# Stress axis : x y z
#
# Youngs Moduli (GPa) = 70.89996 120.19112 49.02562
#
# Poissons Ratio (x) = 0.26607 0.03196
# Poissons Ratio (y) = 0.15695 0.14614
# Poissons Ratio (z) = 0.04622 0.35827
#
# Static dielectric constant tensor:
#      x y z
#    x 2.334690 -0.363250 0.127280 
#    y -0.363250 2.125740 -0.024470 
#    z 0.127280 -0.024470 2.009170 
# 
# From -- ./inp_files/500598.got.cif
#   From: 2010.05.17/outbox.cif.g08.bks.cpg/sg2_251_cif.got.tgz:500598.got - 2010.06.03 11:33:40.
