data_PCOD9039653
_publ_section_title
;
Structure prediction by ZEFSAII (Michael W. Deem and Ramdas Pophale) SiO2 
 PCOD9039653
Probable space group: P -1
;
_chemical_formula_sum "Si O2"
_cell_formula_units_Z 15
_cell_length_a 12.706387
_cell_length_b 9.294155
_cell_length_c 17.802208
_cell_angle_alpha 129.402951
_cell_angle_beta 29.152288
_cell_angle_gamma 138.817991
_cell_volume 672.675062
_symmetry_space_group_name_H-M "P -1"
_symmetry_group_IT_number 2
_symmetry_cell_setting 'triclinic'
loop_
_space_group_symop_operation_xyz
x,y,z
-x,-y,-z
loop_
_atom_site_type_symbol
_atom_site_label
_atom_site_fract_x
_atom_site_fract_y
_atom_site_fract_z
Si Si1 0.091136 0.236057 0.557102
Si Si2 0.500000 0.500000 0.500000
Si Si3 0.341560 0.806550 0.093788
Si Si4 0.431524 0.082748 0.457742
Si Si5 0.208927 0.074197 0.752000
Si Si6 0.575796 0.543287 0.146414
Si Si7 0.385049 0.253212 0.961755
Si Si8 0.974935 0.679570 0.530722
O O1 0.917539 0.208815 0.727535
O O2 0.373013 0.366496 0.455655
O O3 0.051197 0.362486 0.555758
O O4 0.000000 0.000000 0.500000
O O5 0.584468 0.324633 0.410377
O O6 0.300641 0.583559 0.009225
O O7 0.488715 0.841531 0.093263
O O8 0.500000 0.000000 0.000000
O O9 0.274646 0.094771 0.630213
O O10 0.611773 0.000864 0.346936
O O11 0.217565 0.911421 0.477647
O O12 0.279490 0.301446 0.822161
O O13 0.915825 0.894937 0.888584
O O14 0.291607 0.357347 0.286602
O O15 0.562930 0.703434 0.145108
O O16 0.500000 0.500000 0.000000
O O17 0.000000 0.500000 0.500000
#
# Coordination Sequence:
#
# PCOD9039653 Si02
#       8
#     2   1   2   2   2   2   2   2
#     4  12  27  50  74 107 147 199 246 301 378 449
#     4  12  28  44  74 106 154 188 254 300 370 442
#     4  11  26  46  71 100 143 189 243 304 370 448
#     4  11  25  43  72 108 147 197 245 317 362 435
#     4  11  24  44  70 107 144 189 251 305 370 440
#     4  11  23  45  69 105 143 186 239 307 367 442
#     4  10  23  42  69  98 143 190 239 297 370 437
#     4  12  23  46  77 106 145 194 253 303 376 435
#
# _framework density 22.299028
#
# number of rings (size 3 to 8) (size 9 to 14) (size 15 to 20)
#    0.000    0.800    2.667    4.400    7.467    0.000 
#    2.400    0.667    0.000    0.000    0.000    0.000 
#    0.000    0.000    0.000    0.000    0.000    0.000 
#
# Total GULP energy -83624.925656 kJ/mol
# GULP energy per Si atom -5574.995044 kJ/mol
# Density = 2.224827 g / cm^3
# Si number density = 22.299028 Si / 1000 Ang^3
#
#
#
# Elastic Constant Matrix: (Units=GPa)
#
#
# Indices 1 2 3 4 5 6 
#
# 1 105.0199 19.2134 -10.8630 0.2289 12.7803 3.7440
# 2 19.2134 89.4390 12.4661 12.6226 -7.3733 11.7524
# 3 -10.8630 12.4661 73.4227 -1.5267 13.1224 2.1631
# 4 0.2289 12.6226 -1.5267 36.7628 8.0911 3.4742
# 5 12.7803 -7.3733 13.1224 8.0911 22.1350 -5.6816
# 6 3.7440 11.7524 2.1631 3.4742 -5.6816 46.7448
#
#
#
# Elastic Compliance Matrix: (Units=1/GPa)
#
#
# Indices 1 2 3 4 5 6 
#
# 1 0.013035 -0.005363 0.005765 0.005590 -0.015350 -0.002244
# 2 -0.005363 0.015837 -0.006368 -0.008950 0.015229 -0.000741
# 3 0.005765 -0.006368 0.019472 0.007751 -0.020555 -0.002836
# 4 0.005590 -0.008950 0.007751 0.036534 -0.025274 -0.004343
# 5 -0.015350 0.015229 -0.020555 -0.025274 0.083191 0.010342
# 6 -0.002244 -0.000741 -0.002836 -0.004343 0.010342 0.023470
#
#
# Mechanical properties :
#
#
# Convention : Reuss Voigt Hill
#
# Bulk Modulus (GPa) = 27.46446 34.39052 30.92749
# Shear Modulus (GPa) = 23.19001 37.59951 30.39476
#
# Velocity S-wave (km/s) = 3.22833 4.11073 3.69596
# Velocity P-wave (km/s) = 5.12244 6.16334 5.66684
#
# Compressibility (1/GPa) = 0.03641069
#
# Stress axis : x y z
#
# Youngs Moduli (GPa) = 76.71481 63.14516 51.35500
#
# Poissons Ratio (x) = 0.33867 -0.29605
# Poissons Ratio (y) = 0.41145 0.32704
# Poissons Ratio (z) = -0.44225 0.40213
#
# Static dielectric constant tensor:
#      x y z
#    x 1.873810 -0.019450 -0.002250 
#    y -0.019450 1.843730 -0.003690 
#    z -0.002250 -0.003690 1.849010 
# 
# From -- ./inp_files/418999.got.cif
#   From: 2010.05.17/outbox.cif.g08.bks.cpg/sg2_210_cif.got.tgz:418999.got - 2010.06.03 11:33:40.
