data_PCOD9039053
_publ_section_title
;
Structure prediction by ZEFSAII (Michael W. Deem and Ramdas Pophale) SiO2 
 PCOD9039053
Probable space group: P -1
;
_chemical_formula_sum "Si O2"
_cell_formula_units_Z 14
_cell_length_a 9.646782
_cell_length_b 11.832978
_cell_length_c 9.774568
_cell_angle_alpha 53.600091
_cell_angle_beta 58.617665
_cell_angle_gamma 43.099202
_cell_volume 605.815409
_symmetry_space_group_name_H-M "P -1"
_symmetry_group_IT_number 2
_symmetry_cell_setting 'triclinic'
loop_
_space_group_symop_operation_xyz
x,y,z
-x,-y,-z
loop_
_atom_site_type_symbol
_atom_site_label
_atom_site_fract_x
_atom_site_fract_y
_atom_site_fract_z
Si Si1 0.334786 0.311586 0.689619
Si Si2 0.715878 0.517117 0.136373
Si Si3 0.025371 0.710974 0.596257
Si Si4 0.778605 0.945316 0.125242
Si Si5 0.655320 0.725787 0.768471
Si Si6 0.994982 0.972510 0.241394
Si Si7 0.560506 0.305607 0.338677
O O1 0.365210 0.326782 0.823782
O O2 0.164013 0.519272 0.589478
O O3 0.252904 0.201032 0.782451
O O4 0.527457 0.249763 0.541524
O O5 0.908902 0.344446 0.239954
O O6 0.553832 0.477570 0.228468
O O7 0.767928 0.563660 0.934722
O O8 0.076015 0.834859 0.421895
O O9 0.791245 0.792203 0.632470
O O10 0.939737 0.896316 0.198652
O O11 0.561005 0.120308 0.163081
O O12 0.856992 0.988074 0.922482
O O13 0.608345 0.670399 0.692891
O O14 0.780509 0.153164 0.270052
#
# Coordination Sequence:
#
# PCOD9039053 Si02
#       7
#     2   2   2   2   2   2   2
#     4  10  24  42  68  98 133 172 217 271 331 388
#     4  10  25  42  65 100 138 170 218 272 331 390
#     4  10  24  42  68  98 133 172 217 271 331 388
#     4  10  23  42  66 100 135 172 220 274 330 388
#     4  11  23  42  70  97 132 175 222 270 324 393
#     4  10  23  42  66 100 135 172 220 274 330 388
#     4  11  23  42  70  97 132 175 222 270 324 393
#
# _framework density 23.109349999999999
#
# number of rings (size 3 to 8) (size 9 to 14) (size 15 to 20)
#    0.857    0.857    0.000    3.000    4.000    5.714 
#    0.000    0.000    0.000    0.000    0.000    0.000 
#    0.000    0.000    0.000    0.000    0.000    0.000 
#
# Total GULP energy -78301.023930 kJ/mol
# GULP energy per Si atom -5592.930281 kJ/mol
# Density = 2.305675 g / cm^3
# Si number density = 23.109350 Si / 1000 Ang^3
#
#
#
# Elastic Constant Matrix: (Units=GPa)
#
#
# Indices 1 2 3 4 5 6 
#
# 1 18.0062 3.1692 59.9516 44.4271 25.1355 12.1251
# 2 3.1692 37.6819 20.1719 9.3613 4.2000 8.1206
# 3 59.9516 20.1719 60.1048 -21.2984 -35.3586 10.4765
# 4 44.4271 9.3613 -21.2984 12.3158 -21.0711 -2.4105
# 5 25.1355 4.2000 -35.3586 -21.0711 24.6240 2.6284
# 6 12.1251 8.1206 10.4765 -2.4105 2.6284 37.4701
#
#
#
# Elastic Compliance Matrix: (Units=1/GPa)
#
#
# Indices 1 2 3 4 5 6 
#
# 1 0.006007 -0.006027 0.005238 0.008453 0.009892 -0.002252
# 2 -0.006027 0.027734 -0.000909 0.001644 0.001933 -0.003836
# 3 0.005238 -0.000909 0.007577 -0.009859 -0.002312 -0.004089
# 4 0.008453 0.001644 -0.009859 0.015175 -0.010226 0.001358
# 5 0.009892 0.001933 -0.002312 -0.010226 0.018641 -0.004939
# 6 -0.002252 -0.003836 -0.004089 0.001358 -0.004939 0.029825
#
#
# Mechanical properties :
#
#
# Convention : Reuss Voigt Hill
#
# Bulk Modulus (GPa) = 26.36845 31.37538 28.87192
# Shear Modulus (GPa) = 41.32444 17.04865 29.18654
#
# Velocity S-wave (km/s) = 4.23331 2.71908 3.55769
# Velocity P-wave (km/s) = 5.94388 4.84399 5.42190
#
# Compressibility (1/GPa) = 0.03792411
#
# Stress axis : x y z
#
# Youngs Moduli (GPa) = 166.46896 36.05665 131.98349
#
# Poissons Ratio (x) = 0.21730 -0.69136
# Poissons Ratio (y) = 1.00325 0.11991
# Poissons Ratio (z) = -0.87200 0.03276
#
# Static dielectric constant tensor:
#      x y z
#    x 1.863650 -0.023950 0.032390 
#    y -0.023950 1.877850 -0.000280 
#    z 0.032390 -0.000280 1.828320 
# 
# From -- ./inp_files/184772.got.cif
#   From: 2010.05.17/outbox.cif.g08.bks.cpg/sg2_93_cif.got.tgz:184772.got - 2010.06.03 11:33:40.
