data_PCOD9039045
_publ_section_title
;
Structure prediction by ZEFSAII (Michael W. Deem and Ramdas Pophale) SiO2 
 PCOD9039045
Probable space group: P -1
;
_chemical_formula_sum "Si O2"
_cell_formula_units_Z 12
_cell_length_a 14.067351
_cell_length_b 21.484895
_cell_length_c 12.581764
_cell_angle_alpha 155.051093
_cell_angle_beta 30.470518
_cell_angle_gamma 160.974740
_cell_volume 522.569375
_symmetry_space_group_name_H-M "P -1"
_symmetry_group_IT_number 2
_symmetry_cell_setting 'triclinic'
loop_
_space_group_symop_operation_xyz
x,y,z
-x,-y,-z
loop_
_atom_site_type_symbol
_atom_site_label
_atom_site_fract_x
_atom_site_fract_y
_atom_site_fract_z
Si Si1 0.643183 0.669586 0.764831
Si Si2 0.609995 0.729445 0.282162
Si Si3 0.767902 0.068771 0.305168
Si Si4 0.721453 0.800981 0.647892
Si Si5 0.364253 0.756161 0.765006
Si Si6 0.178813 0.648812 0.452067
O O1 0.674941 0.735804 0.714500
O O2 0.353594 0.401193 0.648327
O O3 0.920495 0.738532 0.638885
O O4 0.670561 0.842147 0.061146
O O5 0.490493 0.722570 0.498754
O O6 0.490579 0.767278 0.363275
O O7 0.500000 0.500000 0.000000
O O8 0.957263 0.946284 0.289730
O O9 0.813661 0.172701 0.306249
O O10 0.500000 0.000000 0.500000
O O11 0.482639 0.768203 0.781026
O O12 0.016258 0.541077 0.747543
O O13 0.500000 0.000000 0.000000
O O14 0.000000 0.500000 0.500000
#
# Coordination Sequence:
#
# PCOD9039045 Si02
#       6
#     2   2   2   2   2   2
#     4  10  25  43  69  97 139 186 223 292 346 413
#     4  11  25  41  70 100 133 182 230 279 349 423
#     4  11  23  44  71 100 135 186 240 278 346 431
#     4  11  23  45  65  99 138 171 232 285 350 404
#     4  11  24  41  67  99 136 174 223 291 353 406
#     4  10  23  42  65  99 134 178 228 284 350 417
#
# _framework density 22.963457999999999
#
# number of rings (size 3 to 8) (size 9 to 14) (size 15 to 20)
#    0.000    1.333    1.667    2.500    9.333    2.667 
#    0.000    2.500    0.000    0.000    0.000    0.000 
#    0.000    0.000    0.000    0.000    0.000    0.000 
#
# Total GULP energy -67020.523316 kJ/mol
# GULP energy per Si atom -5585.043610 kJ/mol
# Density = 2.291119 g / cm^3
# Si number density = 22.963458 Si / 1000 Ang^3
#
#
#
# Elastic Constant Matrix: (Units=GPa)
#
#
# Indices 1 2 3 4 5 6 
#
# 1 150.8983 17.6501 14.6549 -9.5641 -24.7607 24.0384
# 2 17.6501 86.3328 36.3867 20.4536 8.8820 20.1316
# 3 14.6549 36.3867 106.7936 22.4058 -6.0899 6.7040
# 4 -9.5641 20.4536 22.4058 40.4276 -0.0518 2.3786
# 5 -24.7607 8.8820 -6.0899 -0.0518 35.3809 1.8456
# 6 24.0384 20.1316 6.7040 2.3786 1.8456 46.3346
#
#
#
# Elastic Compliance Matrix: (Units=1/GPa)
#
#
# Indices 1 2 3 4 5 6 
#
# 1 0.008988 -0.002259 -0.000621 0.003862 0.006968 -0.004067
# 2 -0.002259 0.017241 -0.004216 -0.006628 -0.006378 -0.005115
# 3 -0.000621 -0.004216 0.011985 -0.004685 0.002651 0.000555
# 4 0.003862 -0.006628 -0.004685 0.031616 0.003617 -0.000213
# 5 0.006968 -0.006378 0.002651 0.003617 0.035350 -0.002821
# 6 -0.004067 -0.005115 0.000555 -0.000213 -0.002821 0.025957
#
#
# Mechanical properties :
#
#
# Convention : Reuss Voigt Hill
#
# Bulk Modulus (GPa) = 41.63132 53.48978 47.56055
# Shear Modulus (GPa) = 32.60790 42.78415 37.69603
#
# Velocity S-wave (km/s) = 3.77236 4.32109 4.05602
# Velocity P-wave (km/s) = 6.09451 6.94549 6.53387
#
# Compressibility (1/GPa) = 0.02402037
#
# Stress axis : x y z
#
# Youngs Moduli (GPa) = 111.26541 58.00123 83.43714
#
# Poissons Ratio (x) = 0.13102 0.05183
# Poissons Ratio (y) = 0.25134 0.35181
# Poissons Ratio (z) = 0.06912 0.24456
#
# Static dielectric constant tensor:
#      x y z
#    x 1.912560 -0.010960 0.032460 
#    y -0.010960 1.886530 0.002700 
#    z 0.032460 0.002700 1.965330 
# 
# From -- ./inp_files/377623.got.cif
#   From: 2010.05.17/outbox.cif.g08.bks.cpg/sg2_189_cif.got.tgz:377623.got - 2010.06.03 11:33:40.
