data_PCOD9039255
_publ_section_title
;
Structure prediction by ZEFSAII (Michael W. Deem and Ramdas Pophale) SiO2 
 PCOD9039255
Probable space group: P -1
;
_chemical_formula_sum "Si O2"
_cell_formula_units_Z 14
_cell_length_a 24.832112
_cell_length_b 8.026934
_cell_length_c 25.262679
_cell_angle_alpha 139.454085
_cell_angle_beta 168.558811
_cell_angle_gamma 40.547202
_cell_volume 644.852435
_symmetry_space_group_name_H-M "P -1"
_symmetry_group_IT_number 2
_symmetry_cell_setting 'triclinic'
loop_
_space_group_symop_operation_xyz
x,y,z
-x,-y,-z
loop_
_atom_site_type_symbol
_atom_site_label
_atom_site_fract_x
_atom_site_fract_y
_atom_site_fract_z
Si Si1 0.405691 0.041043 0.160182
Si Si2 0.563562 0.224886 0.724718
Si Si3 0.381394 0.209615 0.057783
Si Si4 0.539799 0.603889 0.452809
Si Si5 0.026866 0.825750 0.432111
Si Si6 0.885212 0.770996 0.617706
Si Si7 0.975771 0.717327 0.983656
O O1 0.363822 0.087190 0.068782
O O2 0.469135 0.310781 0.311734
O O3 0.673295 0.846729 0.384221
O O4 0.135048 0.940426 0.898334
O O5 0.689528 0.480311 0.928507
O O6 0.461761 0.296747 0.584617
O O7 0.308465 0.184784 0.506687
O O8 0.788536 0.977762 0.882149
O O9 0.684025 0.172059 0.317206
O O10 0.194307 0.096029 0.807050
O O11 0.817169 0.621311 0.756241
O O12 0.282112 0.757716 0.271832
O O13 0.002316 0.528341 0.350792
O O14 0.000000 0.000000 0.500000
O O15 0.000000 0.500000 0.000000
#
# Coordination Sequence:
#
# PCOD9039255 Si02
#       7
#     2   2   2   2   2   2   2
#     4  11  23  42  64  95 127 164 212 256 309 369
#     4  10  24  43  65  92 124 168 215 255 311 378
#     4  10  23  42  67  92 128 169 205 253 311 375
#     4  11  25  42  64  89 127 168 209 262 314 366
#     4  11  23  43  67  96 127 164 206 251 308 377
#     4  11  23  41  66  94 124 163 207 258 309 372
#     4  12  25  41  62  94 126 164 212 269 315 357
#
# _framework density 21.710391999999999
#
# number of rings (size 3 to 8) (size 9 to 14) (size 15 to 20)
#    0.000    1.143    0.000    6.000    0.000   12.571 
#    0.000    4.286    0.000    0.000    0.000    0.000 
#    0.000    0.000    0.000    0.000    0.000    0.000 
#
# Total GULP energy -78471.009501 kJ/mol
# GULP energy per Si atom -5605.072107 kJ/mol
# Density = 2.166098 g / cm^3
# Si number density = 21.710392 Si / 1000 Ang^3
#
#
#
# Elastic Constant Matrix: (Units=GPa)
#
#
# Indices 1 2 3 4 5 6 
#
# 1 91.1950 44.2530 2.0022 10.2317 -21.4101 5.3281
# 2 44.2530 75.4080 -5.2256 -12.0313 -8.5661 1.2622
# 3 2.0022 -5.2256 78.4095 6.9299 -20.2812 18.7135
# 4 10.2317 -12.0313 6.9299 35.0904 10.9094 8.5847
# 5 -21.4101 -8.5661 -20.2812 10.9094 41.2990 5.0566
# 6 5.3281 1.2622 18.7135 8.5847 5.0566 37.9022
#
#
#
# Elastic Compliance Matrix: (Units=1/GPa)
#
#
# Indices 1 2 3 4 5 6 
#
# 1 0.024153 -0.014575 0.005337 -0.017497 0.017216 -0.003879
# 2 -0.014575 0.023308 -0.001070 0.014803 -0.007083 -0.000607
# 3 0.005337 -0.001070 0.019937 -0.008126 0.015808 -0.010826
# 4 -0.017497 0.014803 -0.008126 0.047682 -0.022361 -0.001838
# 5 0.017216 -0.007083 0.015808 -0.022361 0.046705 -0.011155
# 6 -0.003879 -0.000607 -0.010826 -0.001838 -0.011155 0.034199
#
#
# Mechanical properties :
#
#
# Convention : Reuss Voigt Hill
#
# Bulk Modulus (GPa) = 21.37627 36.34131 28.85879
# Shear Modulus (GPa) = 21.53384 36.45716 28.99550
#
# Velocity S-wave (km/s) = 3.15281 4.10231 3.65849
# Velocity P-wave (km/s) = 4.80844 6.26211 5.58279
#
# Compressibility (1/GPa) = 0.04678084
#
# Stress axis : x y z
#
# Youngs Moduli (GPa) = 41.40357 42.90412 50.15848
#
# Poissons Ratio (x) = 0.62533 -0.26770
# Poissons Ratio (y) = 0.60346 0.05367
# Poissons Ratio (z) = -0.22097 0.04591
#
# Static dielectric constant tensor:
#      x y z
#    x 1.765880 0.011360 -0.017410 
#    y 0.011360 1.807130 -0.001410 
#    z -0.017410 -0.001410 1.760000 
# 
# From -- ./inp_files/621117.got.cif
#   From: 2010.05.17/outbox.cif.g08.bks.cpg/sg2_311_cif.got.tgz:621117.got - 2010.06.03 11:33:40.
