data_PCOD9039035
_publ_section_title
;
Structure prediction by ZEFSAII (Michael W. Deem and Ramdas Pophale) SiO2 
 PCOD9039035
Probable space group: P -1
;
_chemical_formula_sum "Si O2"
_cell_formula_units_Z 16
_cell_length_a 8.245340
_cell_length_b 13.877312
_cell_length_c 11.351523
_cell_angle_alpha 139.851947
_cell_angle_beta 49.196448
_cell_angle_gamma 115.920538
_cell_volume 628.728773
_symmetry_space_group_name_H-M "P -1"
_symmetry_group_IT_number 2
_symmetry_cell_setting 'triclinic'
loop_
_space_group_symop_operation_xyz
x,y,z
-x,-y,-z
loop_
_atom_site_type_symbol
_atom_site_label
_atom_site_fract_x
_atom_site_fract_y
_atom_site_fract_z
Si Si1 0.759655 0.953999 0.557664
Si Si2 0.666948 0.448267 0.641774
Si Si3 0.345326 0.200103 0.002407
Si Si4 0.087320 0.710879 0.412739
Si Si5 0.784711 0.497963 0.026593
Si Si6 0.758471 0.459420 0.351850
Si Si7 0.124005 0.234440 0.905256
Si Si8 0.290319 0.120021 0.227374
O O1 0.782264 0.863947 0.340718
O O2 0.697398 0.858258 0.613089
O O3 0.568649 0.092687 0.774789
O O4 0.000000 0.000000 0.500000
O O5 0.761838 0.339496 0.597475
O O6 0.794828 0.417606 0.432452
O O7 0.666171 0.620859 0.838568
O O8 0.412920 0.446675 0.744749
O O9 0.187216 0.164705 0.937179
O O10 0.294934 0.187899 0.154275
O O11 0.204601 0.664092 0.191643
O O12 0.885944 0.605406 0.407964
O O13 0.970868 0.879058 0.643159
O O14 0.770999 0.611746 0.029128
O O15 0.000000 0.500000 0.000000
O O16 0.500000 0.500000 0.500000
O O17 0.869738 0.309409 0.091252
O O18 0.500000 0.000000 0.000000
#
# Coordination Sequence:
#
# PCOD9039035 Si02
#       8
#     2   2   2   2   2   2   2   2
#     4  11  27  44  71  98 133 188 233 284 342 413
#     4  12  22  40  69 106 134 181 228 276 356 404
#     4  11  23  44  72  96 139 181 232 281 339 413
#     4  11  21  39  63  95 137 173 225 276 337 404
#     4  11  24  38  64 102 143 176 217 289 341 414
#     4  11  23  36  64  97 137 174 218 283 334 404
#     4  11  24  46  65 102 139 180 234 280 348 401
#     4  10  23  42  65  97 135 185 229 279 335 404
#
# _framework density 25.448176
#
# number of rings (size 3 to 8) (size 9 to 14) (size 15 to 20)
#    0.000    1.000    3.750    4.125    5.250    0.000 
#    0.000    1.875    0.000    0.000    0.000    0.000 
#    0.000    0.000    0.000    0.000    0.000    0.000 
#
# Total GULP energy -89107.049771 kJ/mol
# GULP energy per Si atom -5569.190611 kJ/mol
# Density = 2.539025 g / cm^3
# Si number density = 25.448176 Si / 1000 Ang^3
#
#
#
# Elastic Constant Matrix: (Units=GPa)
#
#
# Indices 1 2 3 4 5 6 
#
# 1 87.4653 41.5910 42.3372 -3.9554 -3.5495 -29.4140
# 2 41.5910 86.7141 34.6326 -17.5887 2.3478 -34.5312
# 3 42.3372 34.6326 212.5764 -16.1172 -3.1543 -24.8169
# 4 -3.9554 -17.5887 -16.1172 27.3665 -10.8760 -3.5979
# 5 -3.5495 2.3478 -3.1543 -10.8760 50.2532 -4.9301
# 6 -29.4140 -34.5312 -24.8169 -3.5979 -4.9301 42.3814
#
#
#
# Elastic Compliance Matrix: (Units=1/GPa)
#
#
# Indices 1 2 3 4 5 6 
#
# 1 0.016999 -0.004507 -0.001732 0.000347 0.002102 0.007386
# 2 -0.004507 0.025792 0.000799 0.021169 0.005144 0.020750
# 3 -0.001732 0.000799 0.005687 0.004664 0.001536 0.003354
# 4 0.000347 0.021169 0.004664 0.062736 0.015590 0.027358
# 5 0.002102 0.005144 0.001536 0.015590 0.024328 0.010703
# 6 0.007386 0.020750 0.003354 0.027358 0.010703 0.051159
#
#
# Mechanical properties :
#
#
# Convention : Reuss Voigt Hill
#
# Bulk Modulus (GPa) = 26.59634 69.31970 47.95802
# Shear Modulus (GPa) = 23.79670 41.87989 32.83829
#
# Velocity S-wave (km/s) = 3.06127 4.06112 3.59611
# Velocity P-wave (km/s) = 4.79260 7.02061 6.01074
#
# Compressibility (1/GPa) = 0.03759917
#
# Stress axis : x y z
#
# Youngs Moduli (GPa) = 58.82584 38.77127 175.84605
#
# Poissons Ratio (x) = 0.17476 0.30449
# Poissons Ratio (y) = 0.26515 -0.14057
# Poissons Ratio (z) = 0.10186 -0.03099
#
# Static dielectric constant tensor:
#      x y z
#    x 2.036590 0.052440 0.021050 
#    y 0.052440 2.105960 0.016990 
#    z 0.021050 0.016990 1.963660 
# 
# From -- ./inp_files/399545.got.cif
#   From: 2010.05.17/outbox.cif.g08.bks.cpg/sg2_200_cif.got.tgz:399545.got - 2010.06.03 11:33:40.
