data_PCOD9039161
_publ_section_title
;
Structure prediction by ZEFSAII (Michael W. Deem and Ramdas Pophale) SiO2 
 PCOD9039161
Probable space group: P -1
;
_chemical_formula_sum "Si O2"
_cell_formula_units_Z 14
_cell_length_a 6.857961
_cell_length_b 9.154766
_cell_length_c 18.827082
_cell_angle_alpha 122.078751
_cell_angle_beta 143.664586
_cell_angle_gamma 71.156105
_cell_volume 580.347962
_symmetry_space_group_name_H-M "P -1"
_symmetry_group_IT_number 2
_symmetry_cell_setting 'triclinic'
loop_
_space_group_symop_operation_xyz
x,y,z
-x,-y,-z
loop_
_atom_site_type_symbol
_atom_site_label
_atom_site_fract_x
_atom_site_fract_y
_atom_site_fract_z
Si Si1 0.084337 0.772680 0.197276
Si Si2 0.872734 0.953544 0.603648
Si Si3 0.468504 0.661163 0.482372
Si Si4 0.149295 0.196756 0.120239
Si Si5 0.344764 0.495908 0.143207
Si Si6 0.462762 0.929534 0.674727
Si Si7 0.839774 0.495638 0.159491
O O1 0.390269 0.665299 0.251945
O O2 0.813545 0.604313 0.107095
O O3 0.983744 0.913152 0.257657
O O4 0.223128 0.905915 0.206685
O O5 0.802921 0.756561 0.563303
O O6 0.125537 0.981235 0.619324
O O7 0.500000 0.000000 0.500000
O O8 0.500000 0.500000 0.500000
O O9 0.393299 0.811198 0.553130
O O10 0.194219 0.597648 0.325020
O O11 0.307819 0.321684 0.134139
O O12 0.412796 0.183053 0.255714
O O13 0.876362 0.299686 0.099077
O O14 0.000000 0.000000 0.000000
O O15 0.609720 0.503274 0.161479
O O16 0.000000 0.500000 0.000000
#
# Coordination Sequence:
#
# PCOD9039161 Si02
#       7
#     2   2   2   2   2   2   2
#     4  10  23  42  66  98 134 173 225 265 332 385
#     4  11  24  40  63 101 138 180 216 265 330 396
#     4  11  24  42  66  99 141 176 219 265 340 397
#     4  11  26  46  68 100 131 174 229 279 340 389
#     4  11  26  45  72  97 131 179 224 278 334 395
#     4  11  25  41  70 101 139 177 221 276 331 396
#     4  11  24  45  69 100 134 175 225 275 330 403
#
# _framework density 24.123456999999998
#
# number of rings (size 3 to 8) (size 9 to 14) (size 15 to 20)
#    0.000    1.143    2.857    1.714    4.000    5.714 
#    0.000    0.000    0.000    0.000    0.000    0.000 
#    0.000    0.000    0.000    0.000    0.000    0.000 
#
# Total GULP energy -78002.923409 kJ/mol
# GULP energy per Si atom -5571.637386 kJ/mol
# Density = 2.406855 g / cm^3
# Si number density = 24.123457 Si / 1000 Ang^3
#
#
#
# Elastic Constant Matrix: (Units=GPa)
#
#
# Indices 1 2 3 4 5 6 
#
# 1 212.2034 48.8336 22.2881 6.9571 -2.7831 13.6320
# 2 48.8336 134.5544 20.4449 13.0777 5.2603 30.7228
# 3 22.2881 20.4449 43.0947 5.8634 -23.1651 -0.5626
# 4 6.9571 13.0777 5.8634 35.7612 2.0648 -4.4644
# 5 -2.7831 5.2603 -23.1651 2.0648 31.7572 1.0181
# 6 13.6320 30.7228 -0.5626 -4.4644 1.0181 47.1848
#
#
#
# Elastic Compliance Matrix: (Units=1/GPa)
#
#
# Indices 1 2 3 4 5 6 
#
# 1 0.005342 -0.001259 -0.002928 -0.000108 -0.001429 -0.000738
# 2 -0.001259 0.011505 -0.008803 -0.002973 -0.008009 -0.007341
# 3 -0.002928 -0.008803 0.050221 -0.005918 0.038034 0.005796
# 4 -0.000108 -0.002973 -0.005918 0.031008 -0.006009 0.004960
# 5 -0.001429 -0.008009 0.038034 -0.006009 0.060690 0.004203
# 6 -0.000738 -0.007341 0.005796 0.004960 0.004203 0.026634
#
#
# Mechanical properties :
#
#
# Convention : Reuss Voigt Hill
#
# Bulk Modulus (GPa) = 24.33884 63.66509 44.00196
# Shear Modulus (GPa) = 22.21468 42.82638 32.52053
#
# Velocity S-wave (km/s) = 3.03788 4.21800 3.67561
# Velocity P-wave (km/s) = 4.73457 7.08313 6.02440
#
# Compressibility (1/GPa) = 0.04108660
#
# Stress axis : x y z
#
# Youngs Moduli (GPa) = 187.19680 86.92220 19.91181
#
# Poissons Ratio (x) = 0.10943 0.05831
# Poissons Ratio (y) = 0.23566 0.17529
# Poissons Ratio (z) = 0.54820 0.76520
#
# Static dielectric constant tensor:
#      x y z
#    x 1.930830 -0.010460 -0.014590 
#    y -0.010460 1.943740 0.011010 
#    z -0.014590 0.011010 2.159280 
# 
# From -- ./inp_files/56305.got.cif
#   From: 2010.05.17/outbox.cif.g08.bks.cpg/sg2_29_cif.got.tgz:56305.got - 2010.06.03 11:33:40.
