data_PCOD9039131
_publ_section_title
;
Structure prediction by ZEFSAII (Michael W. Deem and Ramdas Pophale) SiO2 
 PCOD9039131
Probable space group: P -1
;
_chemical_formula_sum "Si O2"
_cell_formula_units_Z 13
_cell_length_a 15.487571
_cell_length_b 5.242718
_cell_length_c 7.582278
_cell_angle_alpha 85.162688
_cell_angle_beta 115.124632
_cell_angle_gamma 101.089813
_cell_volume 546.997327
_symmetry_space_group_name_H-M "P -1"
_symmetry_group_IT_number 2
_symmetry_cell_setting 'triclinic'
loop_
_space_group_symop_operation_xyz
x,y,z
-x,-y,-z
loop_
_atom_site_type_symbol
_atom_site_label
_atom_site_fract_x
_atom_site_fract_y
_atom_site_fract_z
Si Si1 0.210921 0.495145 0.379401
Si Si2 0.192166 0.695436 0.961460
Si Si3 0.612219 0.689518 0.572432
Si Si4 0.690684 0.738632 0.023463
Si Si5 0.992403 0.729827 0.613593
Si Si6 0.399510 0.791179 0.644320
Si Si7 0.500000 0.500000 0.000000
O O1 0.274921 0.280247 0.393278
O O2 0.283043 0.692690 0.555705
O O3 0.110124 0.355581 0.375599
O O4 0.199448 0.646204 0.179237
O O5 0.083934 0.731294 0.820035
O O6 0.230226 0.452430 0.913844
O O7 0.260779 0.963408 0.953679
O O8 0.623746 0.678374 0.793158
O O9 0.570326 0.412737 0.463739
O O10 0.575465 0.927457 0.435906
O O11 0.612018 0.666328 0.111278
O O12 0.000000 0.500000 0.500000
O O13 0.000000 0.000000 0.500000
O O14 0.458343 0.751067 0.870689
#
# Coordination Sequence:
#
# PCOD9039131 Si02
#       7
#     2   2   2   2   2   2   1
#     4   9  23  45  69  95 131 176 220 266 319 390
#     4  11  24  46  72  94 133 177 224 272 314 402
#     4   9  20  43  70  87 131 171 219 271 308 391
#     4  11  24  46  65 102 128 174 225 274 332 378
#     4  12  28  41  69 104 138 173 213 268 341 398
#     4  10  23  42  66  96 126 173 217 273 321 383
#     4  12  30  40  70  98 140 174 212 284 342 396
#
# _framework density 23.766114000000002
#
# number of rings (size 3 to 8) (size 9 to 14) (size 15 to 20)
#    0.923    0.615    1.538    1.385    6.462    4.923 
#    0.000    3.846    0.000    0.000    0.000    0.000 
#    0.000    0.000    0.000    0.000    0.000    0.000 
#
# Total GULP energy -72451.565606 kJ/mol
# GULP energy per Si atom -5573.197354 kJ/mol
# Density = 2.371202 g / cm^3
# Si number density = 23.766114 Si / 1000 Ang^3
#
#
#
# Elastic Constant Matrix: (Units=GPa)
#
#
# Indices 1 2 3 4 5 6 
#
# 1 93.1490 29.1355 20.9903 -8.0842 18.7583 31.0938
# 2 29.1355 156.7581 40.2906 -36.9568 1.3674 6.2504
# 3 20.9903 40.2906 136.5624 -26.0479 36.4536 -0.1416
# 4 -8.0842 -36.9568 -26.0479 43.3481 -5.2230 3.8198
# 5 18.7583 1.3674 36.4536 -5.2230 34.6395 3.0436
# 6 31.0938 6.2504 -0.1416 3.8198 3.0436 40.4214
#
#
#
# Elastic Compliance Matrix: (Units=1/GPa)
#
#
# Indices 1 2 3 4 5 6 
#
# 1 0.017422 -0.002453 0.000659 0.001610 -0.008689 -0.012518
# 2 -0.002453 0.008868 -0.002162 0.006352 0.004247 -0.000412
# 3 0.000659 -0.002162 0.011861 0.003900 -0.012202 0.000419
# 4 0.001610 0.006352 0.003900 0.031584 -0.000008 -0.005191
# 5 -0.008689 0.004247 -0.012202 -0.000008 0.046025 0.002520
# 6 -0.012518 -0.000412 0.000419 -0.005191 0.002520 0.034735
#
#
# Mechanical properties :
#
#
# Convention : Reuss Voigt Hill
#
# Bulk Modulus (GPa) = 33.06920 63.03359 48.05140
# Shear Modulus (GPa) = 29.67597 43.41867 36.54732
#
# Velocity S-wave (km/s) = 3.53748 4.27888 3.92572
# Velocity P-wave (km/s) = 5.53441 7.14085 6.38833
#
# Compressibility (1/GPa) = 0.03023962
#
# Stress axis : x y z
#
# Youngs Moduli (GPa) = 57.39723 112.76902 84.31227
#
# Poissons Ratio (x) = 0.27664 -0.05560
# Poissons Ratio (y) = 0.14080 0.18228
# Poissons Ratio (z) = -0.03785 0.24380
#
# Static dielectric constant tensor:
#      x y z
#    x 2.093930 0.023810 -0.047280 
#    y 0.023810 1.888110 0.011850 
#    z -0.047280 0.011850 2.003750 
# 
# From -- ./inp_files/286912.got.cif
#   From: 2010.05.17/outbox.cif.g08.bks.cpg/sg2_144_cif.got.tgz:286912.got - 2010.06.03 11:33:40.
