data_PCOD9039760
_publ_section_title
;
Structure prediction by ZEFSAII (Michael W. Deem and Ramdas Pophale) SiO2 
 PCOD9039760
Probable space group: P -1
;
_chemical_formula_sum "Si O2"
_cell_formula_units_Z 12
_cell_length_a 9.213940
_cell_length_b 7.407600
_cell_length_c 10.945488
_cell_angle_alpha 58.790472
_cell_angle_beta 59.432773
_cell_angle_gamma 84.947008
_cell_volume 534.315650
_symmetry_space_group_name_H-M "P -1"
_symmetry_group_IT_number 2
_symmetry_cell_setting 'triclinic'
loop_
_space_group_symop_operation_xyz
x,y,z
-x,-y,-z
loop_
_atom_site_type_symbol
_atom_site_label
_atom_site_fract_x
_atom_site_fract_y
_atom_site_fract_z
Si Si1 0.413792 0.350576 0.220724
Si Si2 0.443682 0.797057 0.305951
Si Si3 0.667054 0.246008 0.981217
Si Si4 0.385365 0.295747 0.514741
Si Si5 0.136731 0.009684 0.327608
Si Si6 0.006012 0.135654 0.824993
O O1 0.602115 0.323812 0.110029
O O2 0.352367 0.225902 0.414301
O O3 0.283204 0.229491 0.213890
O O4 0.400434 0.599005 0.138718
O O5 0.467461 0.552939 0.371254
O O6 0.497342 0.828462 0.415244
O O7 0.575080 0.988939 0.108577
O O8 0.250289 0.826669 0.355077
O O9 0.868866 0.279563 0.859558
O O10 0.202390 0.263063 0.672618
O O11 0.057402 0.990064 0.231912
O O12 0.000000 0.000000 0.500000
O O13 0.000000 0.000000 0.000000
#
# Coordination Sequence:
#
# PCOD9039760 Si02
#       6
#     2   2   2   2   2   2
#     4  10  23  42  70  98 133 178 221 273 338 400
#     4  10  24  43  68  98 133 181 220 270 333 405
#     4  10  23  43  66  99 133 172 220 277 330 392
#     4  11  23  44  70  99 134 177 225 270 337 400
#     4  11  24  42  68  98 134 175 225 271 332 396
#     4  12  25  44  69 100 136 174 226 282 329 390
#
# _framework density 22.458632000000001
#
# number of rings (size 3 to 8) (size 9 to 14) (size 15 to 20)
#    0.000    1.333    3.333    1.000    2.333   12.667 
#    0.000    0.833    0.000    0.000    0.000    0.000 
#    0.000    0.000    0.000    0.000    0.000    0.000 
#
# Total GULP energy -66908.722657 kJ/mol
# GULP energy per Si atom -5575.726888 kJ/mol
# Density = 2.240752 g / cm^3
# Si number density = 22.458632 Si / 1000 Ang^3
#
#
#
# Elastic Constant Matrix: (Units=GPa)
#
#
# Indices 1 2 3 4 5 6 
#
# 1 104.2126 29.2771 44.0893 13.0430 22.1454 8.3941
# 2 29.2771 66.0969 22.3591 -7.8486 1.6689 -14.7414
# 3 44.0893 22.3591 111.9778 17.3697 18.7987 -2.9118
# 4 13.0430 -7.8486 17.3697 42.4503 -7.2517 -12.3743
# 5 22.1454 1.6689 18.7987 -7.2517 43.9706 8.8012
# 6 8.3941 -14.7414 -2.9118 -12.3743 8.8012 26.4866
#
#
#
# Elastic Compliance Matrix: (Units=1/GPa)
#
#
# Indices 1 2 3 4 5 6 
#
# 1 0.018547 -0.012829 -0.001964 -0.013459 -0.006777 -0.017270
# 2 -0.012829 0.031138 -0.004443 0.020799 0.004799 0.029030
# 3 -0.001964 -0.004443 0.012391 -0.006701 -0.004842 -0.002010
# 4 -0.013459 0.020799 -0.006701 0.045615 0.009735 0.033181
# 5 -0.006777 0.004799 -0.004842 0.009735 0.029868 -0.001090
# 6 -0.017270 0.029030 -0.002010 0.033181 -0.001090 0.075029
#
#
# Mechanical properties :
#
#
# Convention : Reuss Voigt Hill
#
# Bulk Modulus (GPa) = 42.36904 52.63760 47.50332
# Shear Modulus (GPa) = 19.31036 35.01895 27.16466
#
# Velocity S-wave (km/s) = 2.93545 3.95304 3.48162
# Velocity P-wave (km/s) = 5.51321 6.65761 6.11225
#
# Compressibility (1/GPa) = 0.02360214
#
# Stress axis : x y z
#
# Youngs Moduli (GPa) = 53.91799 32.11497 80.70270
#
# Poissons Ratio (x) = 0.41201 0.15854
# Poissons Ratio (y) = 0.69173 0.35858
# Poissons Ratio (z) = 0.10592 0.14269
#
# Static dielectric constant tensor:
#      x y z
#    x 1.909130 0.087830 0.043180 
#    y 0.087830 1.947850 0.046050 
#    z 0.043180 0.046050 1.836580 
# 
# From -- ./inp_files/151330.got.cif
#   From: 2010.05.17/outbox.cif.g08.bks.cpg/sg2_76_cif.got.tgz:151330.got - 2010.06.03 11:33:40.
