data_PCOD9039507
_publ_section_title
;
Structure prediction by ZEFSAII (Michael W. Deem and Ramdas Pophale) SiO2 
 PCOD9039507
Probable space group: P -1
;
_chemical_formula_sum "Si O2"
_cell_formula_units_Z 16
_cell_length_a 11.335448
_cell_length_b 9.475647
_cell_length_c 15.978991
_cell_angle_alpha 154.969332
_cell_angle_beta 75.879675
_cell_angle_gamma 107.678945
_cell_volume 689.807613
_symmetry_space_group_name_H-M "P -1"
_symmetry_group_IT_number 2
_symmetry_cell_setting 'triclinic'
loop_
_space_group_symop_operation_xyz
x,y,z
-x,-y,-z
loop_
_atom_site_type_symbol
_atom_site_label
_atom_site_fract_x
_atom_site_fract_y
_atom_site_fract_z
Si Si1 0.056813 0.219449 0.026699
Si Si2 0.117000 0.823223 0.637925
Si Si3 0.674536 0.566869 0.837408
Si Si4 0.972588 0.846324 0.328511
Si Si5 0.552087 0.186025 0.792370
Si Si6 0.663940 0.552407 0.635992
Si Si7 0.589381 0.258489 0.283728
Si Si8 0.765130 0.939555 0.684100
O O1 0.186945 0.434494 0.155061
O O2 0.959708 0.445943 0.133716
O O3 0.098487 0.036300 0.838832
O O4 0.000000 0.000000 0.000000
O O5 0.252400 0.720347 0.557946
O O6 0.000000 0.500000 0.500000
O O7 0.112752 0.011320 0.648860
O O8 0.577196 0.249250 0.724451
O O9 0.674123 0.533789 0.721962
O O10 0.638053 0.931993 0.064020
O O11 0.099687 0.955023 0.314519
O O12 0.000000 0.000000 0.500000
O O13 0.470785 0.866221 0.682108
O O14 0.686940 0.217893 0.825039
O O15 0.500000 0.500000 0.000000
O O16 0.524254 0.634691 0.690012
O O17 0.748967 0.876869 0.750894
O O18 0.695416 0.593259 0.461833
#
# Coordination Sequence:
#
# PCOD9039507 Si02
#       8
#     2   2   2   2   2   2   2   2
#     4  12  27  46  73 101 135 184 236 288 353 418
#     4  12  25  46  72 101 140 179 230 290 352 413
#     4  11  22  41  70 101 137 179 232 283 343 408
#     4  12  26  46  72 103 139 181 234 288 345 417
#     4   9  19  38  64  91 130 174 223 275 327 402
#     4  11  22  41  70 101 138 180 225 282 338 412
#     4  10  23  42  68  99 135 188 226 273 351 405
#     4  11  22  43  68  95 140 178 226 278 345 411
#
# _framework density 23.194873999999999
#
# number of rings (size 3 to 8) (size 9 to 14) (size 15 to 20)
#    0.000    1.000    2.500    5.250    1.750    1.000 
#    0.000    2.500    8.250    0.000    0.000    0.000 
#    0.000    0.000    0.000    0.000    0.000    0.000 
#
# Total GULP energy -89118.318121 kJ/mol
# GULP energy per Si atom -5569.894883 kJ/mol
# Density = 2.314208 g / cm^3
# Si number density = 23.194874 Si / 1000 Ang^3
#
#
#
# Elastic Constant Matrix: (Units=GPa)
#
#
# Indices 1 2 3 4 5 6 
#
# 1 104.5464 14.2035 0.9859 9.5382 -15.6123 -31.5234
# 2 14.2035 159.1541 16.3431 -17.3519 4.4513 -36.4758
# 3 0.9859 16.3431 54.2783 -6.0496 -17.8163 -20.7045
# 4 9.5382 -17.3519 -6.0496 36.6746 3.9595 -4.4645
# 5 -15.6123 4.4513 -17.8163 3.9595 31.0635 8.4721
# 6 -31.5234 -36.4758 -20.7045 -4.4645 8.4721 41.7856
#
#
#
# Elastic Compliance Matrix: (Units=1/GPa)
#
#
# Indices 1 2 3 4 5 6 
#
# 1 0.014806 0.000638 0.007110 -0.001596 0.007959 0.013465
# 2 0.000638 0.009347 0.000350 0.006051 -0.004414 0.010355
# 3 0.007110 0.000350 0.030676 0.003887 0.015684 0.018104
# 4 -0.001596 0.006051 0.003887 0.033231 -0.006649 0.010903
# 5 0.007959 -0.004414 0.015684 -0.006649 0.046740 -0.000264
# 6 0.013465 0.010355 0.018104 0.010903 -0.000264 0.053318
#
#
# Mechanical properties :
#
#
# Convention : Reuss Voigt Hill
#
# Bulk Modulus (GPa) = 14.07986 42.33820 28.20903
# Shear Modulus (GPa) = 25.56276 41.00115 33.28196
#
# Velocity S-wave (km/s) = 3.32337 4.20894 3.79210
# Velocity P-wave (km/s) = 4.56178 6.47404 5.60013
#
# Compressibility (1/GPa) = 0.07102345
#
# Stress axis : x y z
#
# Youngs Moduli (GPa) = 67.54230 106.98927 32.59831
#
# Poissons Ratio (x) = -0.06826 -0.23176
# Poissons Ratio (y) = -0.04309 -0.01140
# Poissons Ratio (z) = -0.48020 -0.03742
#
# Static dielectric constant tensor:
#      x y z
#    x 1.897720 0.020810 0.157730 
#    y 0.020810 1.901170 0.071450 
#    z 0.157730 0.071450 2.104230 
# 
# From -- ./inp_files/516455.got.cif
#   From: 2010.05.17/outbox.cif.g08.bks.cpg/sg2_259_cif.got.tgz:516455.got - 2010.06.03 11:33:40.
