data_PCOD9039085
_publ_section_title
;
Structure prediction by ZEFSAII (Michael W. Deem and Ramdas Pophale) SiO2 
 PCOD9039085
Probable space group: P -1
;
_chemical_formula_sum "Si O2"
_cell_formula_units_Z 16
_cell_length_a 22.948192
_cell_length_b 10.622363
_cell_length_c 25.994788
_cell_angle_alpha 25.689724
_cell_angle_beta 15.559729
_cell_angle_gamma 25.046776
_cell_volume 696.744185
_symmetry_space_group_name_H-M "P -1"
_symmetry_group_IT_number 2
_symmetry_cell_setting 'triclinic'
loop_
_space_group_symop_operation_xyz
x,y,z
-x,-y,-z
loop_
_atom_site_type_symbol
_atom_site_label
_atom_site_fract_x
_atom_site_fract_y
_atom_site_fract_z
Si Si1 0.318585 0.432913 0.470400
Si Si2 0.371657 0.568227 0.029755
Si Si3 0.058078 0.101853 0.329626
Si Si4 0.192190 0.458869 0.396098
Si Si5 0.241663 0.833894 0.740737
Si Si6 0.075391 0.921062 0.744881
Si Si7 0.900086 0.628502 0.907071
Si Si8 0.628230 0.046143 0.789330
O O1 0.494917 0.297472 0.415753
O O2 0.433121 0.568414 0.279043
O O3 0.174234 0.796600 0.473837
O O4 0.186794 0.201447 0.654507
O O5 0.166486 0.884704 0.095374
O O6 0.281297 0.288695 0.195519
O O7 0.500000 0.500000 0.000000
O O8 0.559896 0.590142 0.820719
O O9 0.004153 0.355345 0.237362
O O10 0.109421 0.777766 0.379384
O O11 0.258488 0.097585 0.199217
O O12 0.191462 0.169829 0.536861
O O13 0.000000 0.500000 0.500000
O O14 0.214902 0.726501 0.745580
O O15 0.106279 0.696295 0.947019
O O16 0.032446 0.750556 0.793554
O O17 0.638226 0.862842 0.039184
#
# Coordination Sequence:
#
# PCOD9039085 Si02
#       8
#     2   2   2   2   2   2   2   2
#     4  10  23  42  66  89 125 169 214 270 309 381
#     4  12  22  39  67  98 132 168 201 265 334 380
#     4  12  22  39  64  98 126 162 208 271 328 376
#     4  12  23  39  65 100 132 163 207 267 328 382
#     4  10  24  46  62  89 122 178 222 249 319 373
#     4  12  23  44  65  94 135 170 211 265 315 386
#     4  11  23  40  64  87 134 167 209 264 311 380
#     4  11  21  39  63  96 125 166 202 265 331 377
#
# _framework density 22.963953
#
# number of rings (size 3 to 8) (size 9 to 14) (size 15 to 20)
#    0.000    0.750    5.000    3.375    0.000    0.500 
#    2.250    0.625    0.000    0.000    0.000    0.000 
#    0.000    0.000    0.000    0.000    0.000    0.000 
#
# Total GULP energy -89160.883382 kJ/mol
# GULP energy per Si atom -5572.555211 kJ/mol
# Density = 2.291169 g / cm^3
# Si number density = 22.963953 Si / 1000 Ang^3
#
#
#
# Elastic Constant Matrix: (Units=GPa)
#
#
# Indices 1 2 3 4 5 6 
#
# 1 158.8499 16.5964 42.8703 -23.9351 -15.5361 6.2914
# 2 16.5964 50.7337 23.9301 -15.6616 -4.1817 10.8346
# 3 42.8703 23.9301 111.6718 -17.6805 21.6454 5.4808
# 4 -23.9351 -15.6616 -17.6805 44.5008 4.4794 -3.4066
# 5 -15.5361 -4.1817 21.6454 4.4794 32.8579 -6.7058
# 6 6.2914 10.8346 5.4808 -3.4066 -6.7058 32.4760
#
#
#
# Elastic Compliance Matrix: (Units=1/GPa)
#
#
# Indices 1 2 3 4 5 6 
#
# 1 0.008372 0.000405 -0.004237 0.002342 0.006597 0.000566
# 2 0.000405 0.025709 -0.005334 0.006188 0.004889 -0.006097
# 3 -0.004237 -0.005334 0.014897 0.002928 -0.013378 -0.002369
# 4 0.002342 0.006188 0.002928 0.027398 -0.003965 -0.000957
# 5 0.006597 0.004889 -0.013378 -0.003965 0.045217 0.008269
# 6 0.000566 -0.006097 -0.002369 -0.000957 0.008269 0.034723
#
#
# Mechanical properties :
#
#
# Convention : Reuss Voigt Hill
#
# Bulk Modulus (GPa) = 32.62762 54.22766 43.42764
# Shear Modulus (GPa) = 27.04717 37.82417 32.43567
#
# Velocity S-wave (km/s) = 3.43565 4.06286 3.76235
# Velocity P-wave (km/s) = 5.47515 6.75830 6.15028
#
# Compressibility (1/GPa) = 0.03064888
#
# Stress axis : x y z
#
# Youngs Moduli (GPa) = 119.44718 38.89653 67.12695
#
# Poissons Ratio (x) = -0.01577 0.28439
# Poissons Ratio (y) = -0.04843 0.35803
# Poissons Ratio (z) = 0.50605 0.20746
#
# Static dielectric constant tensor:
#      x y z
#    x 1.869960 0.026930 0.036170 
#    y 0.026930 1.914040 0.020220 
#    z 0.036170 0.020220 1.984670 
# 
# From -- ./inp_files/613562.got.cif
#   From: 2010.05.17/outbox.cif.g08.bks.cpg/sg2_307_cif.got.tgz:613562.got - 2010.06.03 11:33:40.
