data_PCOD9039733
_publ_section_title
;
Structure prediction by ZEFSAII (Michael W. Deem and Ramdas Pophale) SiO2 
 PCOD9039733
Probable space group: P -1
;
_chemical_formula_sum "Si O2"
_cell_formula_units_Z 16
_cell_length_a 8.801573
_cell_length_b 8.161908
_cell_length_c 10.815846
_cell_angle_alpha 84.794472
_cell_angle_beta 99.928908
_cell_angle_gamma 109.866300
_cell_volume 719.367036
_symmetry_space_group_name_H-M "P -1"
_symmetry_group_IT_number 2
_symmetry_cell_setting 'triclinic'
loop_
_space_group_symop_operation_xyz
x,y,z
-x,-y,-z
loop_
_atom_site_type_symbol
_atom_site_label
_atom_site_fract_x
_atom_site_fract_y
_atom_site_fract_z
Si Si1 0.614384 0.590795 0.122224
Si Si2 0.560687 0.460805 0.646145
Si Si3 0.863827 0.074675 0.819981
Si Si4 0.219292 0.037563 0.927184
Si Si5 0.842257 0.204508 0.278267
Si Si6 0.959841 0.545956 0.132141
Si Si7 0.419279 0.076374 0.592666
Si Si8 0.818882 0.818831 0.615136
O O1 0.548404 0.519267 0.253161
O O2 0.643121 0.796747 0.118673
O O3 0.788276 0.581363 0.105034
O O4 0.500000 0.500000 0.000000
O O5 0.500000 0.500000 0.500000
O O6 0.547838 0.256189 0.653477
O O7 0.729365 0.623729 0.669624
O O8 0.042240 0.057716 0.875345
O O9 0.898463 0.279384 0.817441
O O10 0.802700 0.966594 0.696326
O O11 0.752465 0.980740 0.924401
O O12 0.199219 0.863266 0.863172
O O13 0.922074 0.407728 0.248657
O O14 0.989519 0.154462 0.366261
O O15 0.675652 0.095873 0.329958
O O16 0.000000 0.500000 0.000000
O O17 0.275074 0.150076 0.520653
O O18 0.500000 0.000000 0.500000
#
# Coordination Sequence:
#
# PCOD9039733 Si02
#       8
#     2   2   2   2   2   2   2   2
#     4  11  23  40  68  94 132 182 231 263 338 413
#     4  10  23  43  68  95 138 177 220 278 347 402
#     4   9  18  36  61  92 129 161 215 266 324 378
#     4   9  17  35  61  88 122 171 205 264 322 387
#     4  11  22  42  67  92 131 172 221 267 335 395
#     4  11  24  39  63 101 139 171 219 286 334 386
#     4  11  25  46  67  96 133 172 221 283 339 396
#     4  10  23  42  70  92 126 175 226 265 326 409
#
# _framework density 22.241776000000002
#
# number of rings (size 3 to 8) (size 9 to 14) (size 15 to 20)
#    0.000    1.750    2.500    1.125    7.000    1.000 
#    0.000    1.875    0.000    0.000    0.000    0.000 
#    0.000    0.000    0.000    0.000    0.000    0.000 
#
# Total GULP energy -89117.991330 kJ/mol
# GULP energy per Si atom -5569.874458 kJ/mol
# Density = 2.219115 g / cm^3
# Si number density = 22.241776 Si / 1000 Ang^3
#
#
#
# Elastic Constant Matrix: (Units=GPa)
#
#
# Indices 1 2 3 4 5 6 
#
# 1 53.2024 24.0211 19.9495 4.1430 -17.0752 16.5355
# 2 24.0211 141.9763 27.2089 -7.6827 -14.9951 19.2827
# 3 19.9495 27.2089 59.8372 1.2491 -8.9594 12.7580
# 4 4.1430 -7.6827 1.2491 40.5823 8.5763 -6.4379
# 5 -17.0752 -14.9951 -8.9594 8.5763 34.4823 -2.1956
# 6 16.5355 19.2827 12.7580 -6.4379 -2.1956 27.3055
#
#
#
# Elastic Compliance Matrix: (Units=1/GPa)
#
#
# Indices 1 2 3 4 5 6 
#
# 1 0.032011 -0.001134 -0.003836 -0.009478 0.015588 -0.017774
# 2 -0.001134 0.008470 -0.002356 0.000741 0.002080 -0.003852
# 3 -0.003836 -0.002356 0.020791 -0.002211 0.002644 -0.006036
# 4 -0.009478 0.000741 -0.002211 0.030260 -0.011679 0.012445
# 5 0.015588 0.002080 0.002644 -0.011679 0.040474 -0.011643
# 6 -0.017774 -0.003852 -0.006036 0.012445 -0.011643 0.054925
#
#
# Mechanical properties :
#
#
# Convention : Reuss Voigt Hill
#
# Bulk Modulus (GPa) = 21.44918 44.15278 32.80098
# Shear Modulus (GPa) = 23.02853 32.72979 27.87916
#
# Velocity S-wave (km/s) = 3.22121 3.84023 3.54426
# Velocity P-wave (km/s) = 4.84763 6.28948 5.61503
#
# Compressibility (1/GPa) = 0.04662182
#
# Stress axis : x y z
#
# Youngs Moduli (GPa) = 31.23887 118.06802 48.09737
#
# Poissons Ratio (x) = 0.13383 0.18448
# Poissons Ratio (y) = 0.03541 0.11332
# Poissons Ratio (z) = 0.11982 0.27818
#
# Static dielectric constant tensor:
#      x y z
#    x 1.851360 -0.043360 0.024750 
#    y -0.043360 1.908070 -0.017240 
#    z 0.024750 -0.017240 1.819920 
# 
# From -- ./inp_files/319297.got.cif
#   From: 2010.05.17/outbox.cif.g08.bks.cpg/sg2_160_cif.got.tgz:319297.got - 2010.06.03 11:33:40.
