data_PCOD9039195
_publ_section_title
;
Structure prediction by ZEFSAII (Michael W. Deem and Ramdas Pophale) SiO2 
 PCOD9039195
Probable space group: P -1
;
_chemical_formula_sum "Si O2"
_cell_formula_units_Z 14
_cell_length_a 15.253799
_cell_length_b 10.091349
_cell_length_c 7.937785
_cell_angle_alpha 55.208790
_cell_angle_beta 90.254831
_cell_angle_gamma 45.986118
_cell_volume 529.920331
_symmetry_space_group_name_H-M "P -1"
_symmetry_group_IT_number 2
_symmetry_cell_setting 'triclinic'
loop_
_space_group_symop_operation_xyz
x,y,z
-x,-y,-z
loop_
_atom_site_type_symbol
_atom_site_label
_atom_site_fract_x
_atom_site_fract_y
_atom_site_fract_z
Si Si1 0.507616 0.792354 0.116222
Si Si2 0.649982 0.072821 0.340386
Si Si3 0.749555 0.557206 0.766461
Si Si4 0.984912 0.397504 0.357834
Si Si5 0.571829 0.561030 0.616415
Si Si6 0.179318 0.645984 0.740288
Si Si7 0.070473 0.157168 0.901340
O O1 0.470105 0.734365 0.316161
O O2 0.703151 0.461963 0.318300
O O3 0.408966 0.882365 0.883703
O O4 0.500000 0.000000 0.000000
O O5 0.526157 0.337056 0.289388
O O6 0.702231 0.815697 0.597714
O O7 0.819095 0.912904 0.456499
O O8 0.627153 0.662164 0.562576
O O9 0.941319 0.248962 0.935905
O O10 0.726740 0.492810 0.982561
O O11 0.979605 0.339880 0.590746
O O12 0.861420 0.477244 0.199465
O O13 0.926924 0.671024 0.139416
O O14 0.749118 0.196278 0.868789
O O15 0.000000 0.000000 0.500000
#
# Coordination Sequence:
#
# PCOD9039195 Si02
#       7
#     2   2   2   2   2   2   2
#     4  12  25  44  74 103 143 185 235 288 352 409
#     4  11  25  46  67 108 142 187 227 292 355 409
#     4  11  21  42  71 101 142 179 238 287 347 409
#     4  10  25  47  69  97 148 183 228 290 356 414
#     4  12  22  43  72 105 140 182 239 290 336 420
#     4  12  25  45  74 106 134 184 242 289 343 423
#     4  10  23  42  67 100 137 189 228 286 349 409
#
# _framework density 26.419065
#
# number of rings (size 3 to 8) (size 9 to 14) (size 15 to 20)
#    0.000    0.857    2.857    4.286    4.000    2.857 
#    2.571    0.714    0.000    0.000    0.000    0.000 
#    0.000    0.000    0.000    0.000    0.000    0.000 
#
# Total GULP energy -78440.812179 kJ/mol
# GULP energy per Si atom -5602.915156 kJ/mol
# Density = 2.635893 g / cm^3
# Si number density = 26.419065 Si / 1000 Ang^3
#
#
#
# Elastic Constant Matrix: (Units=GPa)
#
#
# Indices 1 2 3 4 5 6 
#
# 1 75.1124 35.0059 9.5623 4.5448 13.1859 -18.3725
# 2 35.0059 121.3391 26.1800 -6.6167 17.5002 -16.5303
# 3 9.5623 26.1800 68.5288 13.0606 14.6582 5.8977
# 4 4.5448 -6.6167 13.0606 49.3609 -4.3084 3.1152
# 5 13.1859 17.5002 14.6582 -4.3084 36.2922 -7.7111
# 6 -18.3725 -16.5303 5.8977 3.1152 -7.7111 20.8221
#
#
#
# Elastic Compliance Matrix: (Units=1/GPa)
#
#
# Indices 1 2 3 4 5 6 
#
# 1 0.019019 -0.002965 -0.001837 -0.002757 -0.001956 0.014636
# 2 -0.002965 0.011363 -0.004916 0.002592 -0.000580 0.007194
# 3 -0.001837 -0.004916 0.021018 -0.005966 -0.009126 -0.013964
# 4 -0.002757 0.002592 -0.005966 0.022879 0.004808 -0.000327
# 5 -0.001956 -0.000580 -0.009126 0.004808 0.035529 0.012837
# 6 0.014636 0.007194 -0.013964 -0.000327 0.012837 0.075410
#
#
# Mechanical properties :
#
#
# Convention : Reuss Voigt Hill
#
# Bulk Modulus (GPa) = 31.28592 45.16407 38.22499
# Shear Modulus (GPa) = 23.22248 34.24384 28.73316
#
# Velocity S-wave (km/s) = 2.96802 3.60415 3.30144
# Velocity P-wave (km/s) = 4.85936 5.86961 5.38821
#
# Compressibility (1/GPa) = 0.03196326
#
# Stress axis : x y z
#
# Youngs Moduli (GPa) = 52.57811 88.00834 47.57859
#
# Poissons Ratio (x) = 0.26094 0.08740
# Poissons Ratio (y) = 0.15589 0.23391
# Poissons Ratio (z) = 0.09659 0.43267
#
# Static dielectric constant tensor:
#      x y z
#    x 2.231700 0.157320 0.016350 
#    y 0.157320 2.228920 0.019200 
#    z 0.016350 0.019200 2.003630 
# 
# From -- ./inp_files/331606.got.cif
#   From: 2010.05.17/outbox.cif.g08.bks.cpg/sg2_166_cif.got.tgz:331606.got - 2010.06.03 11:33:40.
