data_PCOD9039846
_publ_section_title
;
Structure prediction by ZEFSAII (Michael W. Deem and Ramdas Pophale) SiO2 
 PCOD9039846
Probable space group: P -1
;
_chemical_formula_sum "Si O2"
_cell_formula_units_Z 14
_cell_length_a 9.373761
_cell_length_b 17.664974
_cell_length_c 8.815036
_cell_angle_alpha 141.596832
_cell_angle_beta 122.516034
_cell_angle_gamma 44.012807
_cell_volume 628.861390
_symmetry_space_group_name_H-M "P -1"
_symmetry_group_IT_number 2
_symmetry_cell_setting 'triclinic'
loop_
_space_group_symop_operation_xyz
x,y,z
-x,-y,-z
loop_
_atom_site_type_symbol
_atom_site_label
_atom_site_fract_x
_atom_site_fract_y
_atom_site_fract_z
Si Si1 0.013908 0.293323 0.161997
Si Si2 0.461824 0.470444 0.760913
Si Si3 0.549583 0.800667 0.666067
Si Si4 0.975121 0.870776 0.826435
Si Si5 0.199687 0.565445 0.313832
Si Si6 0.843179 0.691887 0.059948
Si Si7 0.518799 0.019526 0.780343
O O1 0.198615 0.295176 0.349609
O O2 0.032836 0.155007 0.038395
O O3 0.064937 0.283269 0.998855
O O4 0.779483 0.429037 0.256787
O O5 0.529442 0.302616 0.531017
O O6 0.593218 0.494980 0.756307
O O7 0.500000 0.500000 0.000000
O O8 0.466523 0.907771 0.640971
O O9 0.494890 0.892517 0.934754
O O10 0.143902 0.706973 0.602761
O O11 0.754039 0.923861 0.717081
O O12 0.000000 0.000000 0.000000
O O13 0.206928 0.430811 0.188176
O O14 0.011972 0.631302 0.191032
O O15 0.634742 0.852525 0.221312
#
# Coordination Sequence:
#
# PCOD9039846 Si02
#       7
#     2   2   2   2   2   2   2
#     4  10  23  42  71  92 129 181 218 261 328 396
#     4  12  24  41  66 102 134 171 219 277 331 386
#     4   9  20  39  67  96 124 168 228 266 312 399
#     4  11  25  42  63  99 135 167 219 276 326 386
#     4  11  26  41  65  99 140 165 219 280 322 385
#     4  10  23  45  66  97 130 177 221 265 331 394
#     4   9  20  40  67  89 127 175 215 264 326 388
#
# _framework density 22.262457999999999
#
# number of rings (size 3 to 8) (size 9 to 14) (size 15 to 20)
#    0.000    1.714    1.429    2.143   10.000    1.143 
#    2.571    1.429    0.000    0.000    0.000    0.000 
#    0.000    0.000    0.000    0.000    0.000    0.000 
#
# Total GULP energy -78210.332654 kJ/mol
# GULP energy per Si atom -5586.452332 kJ/mol
# Density = 2.221179 g / cm^3
# Si number density = 22.262458 Si / 1000 Ang^3
#
#
#
# Elastic Constant Matrix: (Units=GPa)
#
#
# Indices 1 2 3 4 5 6 
#
# 1 96.8661 20.5841 25.3920 11.6724 -6.7546 17.4225
# 2 20.5841 108.9170 14.4579 13.5183 -4.2584 16.3419
# 3 25.3920 14.4579 56.2168 6.0106 5.7737 15.8706
# 4 11.6724 13.5183 6.0106 20.4701 2.8239 -1.5694
# 5 -6.7546 -4.2584 5.7737 2.8239 24.7703 17.9032
# 6 17.4225 16.3419 15.8706 -1.5694 17.9032 48.3327
#
#
#
# Elastic Compliance Matrix: (Units=1/GPa)
#
#
# Indices 1 2 3 4 5 6 
#
# 1 0.015344 0.001062 -0.004707 -0.010717 0.013761 -0.009790
# 2 0.001062 0.011932 -0.001235 -0.010025 0.009432 -0.007831
# 3 -0.004707 -0.001235 0.021989 -0.002777 -0.003481 -0.003907
# 4 -0.010717 -0.010025 -0.002777 0.067551 -0.026201 0.020063
# 5 0.013761 0.009432 -0.003481 -0.026201 0.075412 -0.035791
# 6 -0.009790 -0.007831 -0.003907 0.020063 -0.035791 0.042058
#
#
# Mechanical properties :
#
#
# Convention : Reuss Voigt Hill
#
# Bulk Modulus (GPa) = 25.31263 42.54086 33.92674
# Shear Modulus (GPa) = 19.43903 32.15236 25.79570
#
# Velocity S-wave (km/s) = 2.95816 3.80444 3.40767
# Velocity P-wave (km/s) = 4.80233 6.20070 5.54577
#
# Compressibility (1/GPa) = 0.03950597
#
# Stress axis : x y z
#
# Youngs Moduli (GPa) = 65.17384 83.80536 45.47666
#
# Poissons Ratio (x) = -0.08901 0.21407
# Poissons Ratio (y) = -0.06923 0.05614
# Poissons Ratio (z) = 0.30679 0.10346
#
# Static dielectric constant tensor:
#      x y z
#    x 1.835870 -0.011960 -0.048070 
#    y -0.011960 1.857740 0.004590 
#    z -0.048070 0.004590 1.835600 
# 
# From -- ./inp_files/157601.got.cif
#   From: 2010.05.17/outbox.cif.g08.bks.cpg/sg2_79_cif.got.tgz:157601.got - 2010.06.03 11:33:40.
