data_PCOD9039959
_publ_section_title
;
Structure prediction by ZEFSAII (Michael W. Deem and Ramdas Pophale) SiO2 
 PCOD9039959
Probable space group: P -1
;
_chemical_formula_sum "Si O2"
_cell_formula_units_Z 14
_cell_length_a 18.392430
_cell_length_b 8.934791
_cell_length_c 10.982002
_cell_angle_alpha 139.329260
_cell_angle_beta 40.640667
_cell_angle_gamma 149.770560
_cell_volume 561.925273
_symmetry_space_group_name_H-M "P -1"
_symmetry_group_IT_number 2
_symmetry_cell_setting 'triclinic'
loop_
_space_group_symop_operation_xyz
x,y,z
-x,-y,-z
loop_
_atom_site_type_symbol
_atom_site_label
_atom_site_fract_x
_atom_site_fract_y
_atom_site_fract_z
Si Si1 0.142140 0.176965 0.838952
Si Si2 0.284873 0.236606 0.262472
Si Si3 0.640176 0.318509 0.951842
Si Si4 0.843954 0.165556 0.597583
Si Si5 0.552951 0.169438 0.699524
Si Si6 0.782932 0.323895 0.139356
Si Si7 0.858999 0.492583 0.412797
O O1 0.151162 0.406431 0.876069
O O2 0.842888 0.747592 0.589826
O O3 0.135120 0.944974 0.620246
O O4 0.000000 0.000000 0.000000
O O5 0.433955 0.587854 0.252854
O O6 0.273084 0.137908 0.354497
O O7 0.248710 0.965471 0.059951
O O8 0.773541 0.316690 0.765300
O O9 0.589931 0.308968 0.874513
O O10 0.500000 0.000000 0.000000
O O11 0.709532 0.605861 0.129347
O O12 0.000620 0.386453 0.610129
O O13 0.387088 0.829166 0.701113
O O14 0.691780 0.200258 0.499507
O O15 0.872797 0.432888 0.218894
#
# Coordination Sequence:
#
# PCOD9039959 Si02
#       7
#     2   2   2   2   2   2   2
#     4  12  27  44  74 107 147 197 242 289 369 440
#     4  10  23  42  73 101 141 188 242 301 360 419
#     4  12  26  51  75 104 150 194 241 302 369 439
#     4  12  25  49  71 106 151 190 240 311 361 433
#     4  10  23  45  70 108 144 187 248 298 357 439
#     4  12  22  47  73 105 147 188 247 306 360 423
#     4  10  25  40  73 106 144 186 245 298 369 431
#
# _framework density 24.914345000000001
#
# number of rings (size 3 to 8) (size 9 to 14) (size 15 to 20)
#    0.857    0.000    4.286    2.143    0.000    4.571 
#    2.571    0.000    0.000    0.000    0.000    0.000 
#    0.000    0.000    0.000    0.000    0.000    0.000 
#
# Total GULP energy -78448.567493 kJ/mol
# GULP energy per Si atom -5603.469107 kJ/mol
# Density = 2.485764 g / cm^3
# Si number density = 24.914345 Si / 1000 Ang^3
#
#
#
# Elastic Constant Matrix: (Units=GPa)
#
#
# Indices 1 2 3 4 5 6 
#
# 1 92.5119 25.3658 37.0992 13.8141 12.3788 5.6511
# 2 25.3658 123.8471 41.0748 -24.7836 16.1472 -3.2514
# 3 37.0992 41.0748 168.4879 4.3631 28.1651 1.2039
# 4 13.8141 -24.7836 4.3631 42.0857 -4.9334 7.0568
# 5 12.3788 16.1472 28.1651 -4.9334 54.4488 4.3173
# 6 5.6511 -3.2514 1.2039 7.0568 4.3173 41.3079
#
#
#
# Elastic Compliance Matrix: (Units=1/GPa)
#
#
# Indices 1 2 3 4 5 6 
#
# 1 0.013623 -0.003263 -0.001747 -0.006278 -0.001730 -0.000816
# 2 -0.003263 0.011066 -0.002046 0.007682 -0.000797 0.000148
# 3 -0.001747 -0.002046 0.007366 -0.001830 -0.003011 0.000491
# 4 -0.006278 0.007682 -0.001830 0.031631 0.003298 -0.004232
# 5 -0.001730 -0.000797 -0.003011 0.003298 0.021050 -0.002502
# 6 -0.000816 0.000148 0.000491 -0.004232 -0.002502 0.025302
#
#
# Mechanical properties :
#
#
# Convention : Reuss Voigt Hill
#
# Bulk Modulus (GPa) = 55.72888 65.76961 60.74925
# Shear Modulus (GPa) = 38.42248 46.32229 42.37239
#
# Velocity S-wave (km/s) = 3.93132 4.31659 4.12846
# Velocity P-wave (km/s) = 6.55926 7.16237 6.86744
#
# Compressibility (1/GPa) = 0.01794402
#
# Stress axis : x y z
#
# Youngs Moduli (GPa) = 73.40299 90.36288 135.76382
#
# Poissons Ratio (x) = 0.29488 0.23712
# Poissons Ratio (y) = 0.23953 0.27777
# Poissons Ratio (z) = 0.12820 0.18488
#
# Static dielectric constant tensor:
#      x y z
#    x 1.930260 0.023700 -0.013630 
#    y 0.023700 2.024370 -0.045310 
#    z -0.013630 -0.045310 1.975740 
# 
# From -- ./inp_files/326589.got.cif
#   From: 2010.05.17/outbox.cif.g08.bks.cpg/sg2_164_cif.got.tgz:326589.got - 2010.06.03 11:33:40.
