data_PCOD9039773
_publ_section_title
;
Structure prediction by ZEFSAII (Michael W. Deem and Ramdas Pophale) SiO2 
 PCOD9039773
Probable space group: P -1
;
_chemical_formula_sum "Si O2"
_cell_formula_units_Z 14
_cell_length_a 9.226890
_cell_length_b 7.895126
_cell_length_c 8.553149
_cell_angle_alpha 104.472798
_cell_angle_beta 105.499440
_cell_angle_gamma 115.202297
_cell_volume 493.738472
_symmetry_space_group_name_H-M "P -1"
_symmetry_group_IT_number 2
_symmetry_cell_setting 'triclinic'
loop_
_space_group_symop_operation_xyz
x,y,z
-x,-y,-z
loop_
_atom_site_type_symbol
_atom_site_label
_atom_site_fract_x
_atom_site_fract_y
_atom_site_fract_z
Si Si1 0.591140 0.698940 0.455984
Si Si2 0.200828 0.696084 0.623314
Si Si3 0.037320 0.887911 0.822027
Si Si4 0.251638 0.919432 0.176334
Si Si5 0.763407 0.735751 0.192448
Si Si6 0.409331 0.712895 0.980209
Si Si7 0.227806 0.586530 0.274761
O O1 0.500000 0.500000 0.500000
O O2 0.733019 0.727117 0.370402
O O3 0.424545 0.657305 0.294789
O O4 0.665222 0.899569 0.631557
O O5 0.157726 0.851334 0.726378
O O6 0.342907 0.695112 0.777919
O O7 0.269745 0.720173 0.476073
O O8 0.000000 0.500000 0.500000
O O9 0.879294 0.654918 0.765099
O O10 0.050380 0.075648 0.772070
O O11 0.142657 0.968047 0.033040
O O12 0.147836 0.691416 0.170854
O O13 0.384417 0.883420 0.097602
O O14 0.738118 0.524328 0.073861
O O15 0.598896 0.738529 0.063388
#
# Coordination Sequence:
#
# PCOD9039773 Si02
#       7
#     2   2   2   2   2   2   2
#     4  12  27  45  71 103 140 179 230 289 346 408
#     4   9  20  39  64  97 135 178 226 277 341 409
#     4  10  24  41  70 101 138 181 230 283 345 411
#     4  11  24  43  73 101 134 181 236 283 342 404
#     4  11  24  45  68 104 142 180 232 283 348 413
#     4  10  23  42  71 100 137 182 233 283 339 415
#     4  11  22  44  65 102 141 178 225 287 350 403
#
# _framework density 28.355090000000001
#
# number of rings (size 3 to 8) (size 9 to 14) (size 15 to 20)
#    0.000    1.429    1.429    2.571    8.000    1.143 
#    0.000   13.571    0.000    0.000    0.000    0.000 
#    0.000    0.000    0.000    0.000    0.000    0.000 
#
# Total GULP energy -78280.554098 kJ/mol
# GULP energy per Si atom -5591.468150 kJ/mol
# Density = 2.829055 g / cm^3
# Si number density = 28.355090 Si / 1000 Ang^3
#
#
#
# Elastic Constant Matrix: (Units=GPa)
#
#
# Indices 1 2 3 4 5 6 
#
# 1 80.8185 50.1193 22.4180 1.8277 -5.6304 15.9688
# 2 50.1193 216.7077 83.3647 28.9089 2.9685 12.3051
# 3 22.4180 83.3647 161.6023 20.7674 -24.5359 5.9910
# 4 1.8277 28.9089 20.7674 49.8215 -6.1129 -0.1920
# 5 -5.6304 2.9685 -24.5359 -6.1129 52.9555 -7.8258
# 6 15.9688 12.3051 5.9910 -0.1920 -7.8258 32.5470
#
#
#
# Elastic Compliance Matrix: (Units=1/GPa)
#
#
# Indices 1 2 3 4 5 6 
#
# 1 0.015833 -0.003452 -0.000238 0.001626 0.001044 -0.006159
# 2 -0.003452 0.007148 -0.003197 -0.003031 -0.002762 -0.001102
# 3 -0.000238 -0.003197 0.008626 -0.001224 0.004116 0.000720
# 4 0.001626 -0.003031 -0.001224 0.022603 0.002581 0.001328
# 5 0.001044 -0.002762 0.004116 0.002581 0.022109 0.005106
# 6 -0.006159 -0.001102 0.000720 0.001328 0.005106 0.035266
#
#
# Mechanical properties :
#
#
# Convention : Reuss Voigt Hill
#
# Bulk Modulus (GPa) = 56.07697 85.65917 70.86807
# Shear Modulus (GPa) = 38.08024 47.27992 42.68008
#
# Velocity S-wave (km/s) = 3.66864 4.08784 3.88390
# Velocity P-wave (km/s) = 6.14531 7.24952 6.72014
#
# Compressibility (1/GPa) = 0.01783263
#
# Stress axis : x y z
#
# Youngs Moduli (GPa) = 63.15994 139.90884 115.93093
#
# Poissons Ratio (x) = 0.48293 0.02757
# Poissons Ratio (y) = 0.21801 0.37066
# Poissons Ratio (z) = 0.01502 0.44732
#
# Static dielectric constant tensor:
#      x y z
#    x 2.290140 -0.000180 -0.008900 
#    y -0.000180 2.270340 -0.081740 
#    z -0.008900 -0.081740 2.197570 
# 
# From -- ./inp_files/239888.got.cif
#   From: 2010.05.17/outbox.cif.g08.bks.cpg/sg2_120_cif.got.tgz:239888.got - 2010.06.03 11:33:40.
