data_PCOD9039432
_publ_section_title
;
Structure prediction by ZEFSAII (Michael W. Deem and Ramdas Pophale) SiO2 
 PCOD9039432
Probable space group: P -1
;
_chemical_formula_sum "Si O2"
_cell_formula_units_Z 14
_cell_length_a 18.957807
_cell_length_b 9.111395
_cell_length_c 10.033898
_cell_angle_alpha 134.297675
_cell_angle_beta 39.538027
_cell_angle_gamma 141.686041
_cell_volume 664.646629
_symmetry_space_group_name_H-M "P -1"
_symmetry_group_IT_number 2
_symmetry_cell_setting 'triclinic'
loop_
_space_group_symop_operation_xyz
x,y,z
-x,-y,-z
loop_
_atom_site_type_symbol
_atom_site_label
_atom_site_fract_x
_atom_site_fract_y
_atom_site_fract_z
Si Si1 0.408108 0.051999 0.078385
Si Si2 0.229768 0.380083 0.226912
Si Si3 0.272098 0.254241 0.569491
Si Si4 0.005251 0.750767 0.672656
Si Si5 0.683052 0.373701 0.470486
Si Si6 0.599919 0.858605 0.154293
Si Si7 0.753627 0.482934 0.002126
O O1 0.374231 0.210879 0.319105
O O2 0.448159 0.151500 0.933808
O O3 0.278852 0.778702 0.072591
O O4 0.500000 0.000000 0.000000
O O5 0.251801 0.540327 0.425371
O O6 0.075621 0.220629 0.311434
O O7 0.285847 0.531267 0.103792
O O8 0.302603 0.236959 0.049625
O O9 0.243636 0.405136 0.599637
O O10 0.315987 0.421409 0.742392
O O11 0.148880 0.988120 0.618856
O O12 0.000000 0.500000 0.500000
O O13 0.910018 0.686894 0.898952
O O14 0.671549 0.132525 0.279470
O O15 0.531595 0.298685 0.665305
#
# Coordination Sequence:
#
# PCOD9039432 Si02
#       7
#     2   2   2   2   2   2   2
#     4  12  25  41  70 100 133 171 221 274 326 400
#     4  10  23  42  68  93 132 171 214 274 329 379
#     4  12  23  43  69  95 133 176 221 271 328 390
#     4  10  23  44  69  95 135 172 221 275 330 385
#     4  11  24  41  69  93 135 174 215 270 334 385
#     4  11  24  44  63  99 135 170 219 272 327 394
#     4  10  24  43  66 101 128 171 223 266 332 386
#
# _framework density 21.063825999999999
#
# number of rings (size 3 to 8) (size 9 to 14) (size 15 to 20)
#    0.857    0.286    4.286    1.714    2.000    5.714 
#    0.000    0.714    0.000    0.000    0.000    0.000 
#    0.000    0.000    0.000    0.000    0.000    0.000 
#
# Total GULP energy -78107.470025 kJ/mol
# GULP energy per Si atom -5579.105002 kJ/mol
# Density = 2.101588 g / cm^3
# Si number density = 21.063826 Si / 1000 Ang^3
#
#
#
# Elastic Constant Matrix: (Units=GPa)
#
#
# Indices 1 2 3 4 5 6 
#
# 1 46.8254 -7.3822 10.8140 -0.2162 4.9477 -10.7110
# 2 -7.3822 82.0255 7.7018 0.2149 4.8678 -20.5118
# 3 10.8140 7.7018 100.5994 16.3018 19.7066 -2.8361
# 4 -0.2162 0.2149 16.3018 21.0339 -1.6509 1.2983
# 5 4.9477 4.8678 19.7066 -1.6509 34.7850 0.4899
# 6 -10.7110 -20.5118 -2.8361 1.2983 0.4899 20.1345
#
#
#
# Elastic Compliance Matrix: (Units=1/GPa)
#
#
# Indices 1 2 3 4 5 6 
#
# 1 0.029618 0.009445 -0.002317 0.000092 -0.004572 0.025157
# 2 0.009445 0.019638 -0.000797 -0.001354 -0.004058 0.025105
# 3 -0.002317 -0.000797 0.013627 -0.011239 -0.007823 0.000790
# 4 0.000092 -0.001354 -0.011239 0.057426 0.009366 -0.006845
# 5 -0.004572 -0.004058 -0.007823 0.009366 0.034971 -0.009123
# 6 0.025157 0.025105 0.000790 -0.006845 -0.009123 0.089399
#
#
# Mechanical properties :
#
#
# Convention : Reuss Voigt Hill
#
# Bulk Modulus (GPa) = 13.23698 27.96864 20.60281
# Shear Modulus (GPa) = 19.44027 29.74511 24.59269
#
# Velocity S-wave (km/s) = 3.04126 3.76192 3.42062
# Velocity P-wave (km/s) = 4.31627 5.67242 5.04016
#
# Compressibility (1/GPa) = 0.07554593
#
# Stress axis : x y z
#
# Youngs Moduli (GPa) = 33.76314 50.92060 73.38595
#
# Poissons Ratio (x) = -0.48095 0.17004
# Poissons Ratio (y) = -0.31890 0.05846
# Poissons Ratio (z) = 0.07823 0.04057
#
# Static dielectric constant tensor:
#      x y z
#    x 1.760390 0.054130 -0.017910 
#    y 0.054130 1.850100 -0.028040 
#    z -0.017910 -0.028040 1.765620 
# 
# From -- ./inp_files/469643.got.cif
#   From: 2010.05.17/outbox.cif.g08.bks.cpg/sg2_235_cif.got.tgz:469643.got - 2010.06.03 11:33:40.
