data_PCOD9039772
_publ_section_title
;
Structure prediction by ZEFSAII (Michael W. Deem and Ramdas Pophale) SiO2 
 PCOD9039772
Probable space group: P -1
;
_chemical_formula_sum "Si O2"
_cell_formula_units_Z 12
_cell_length_a 4.983291
_cell_length_b 7.394342
_cell_length_c 20.717003
_cell_angle_alpha 137.318306
_cell_angle_beta 110.050555
_cell_angle_gamma 84.878375
_cell_volume 470.002791
_symmetry_space_group_name_H-M "P -1"
_symmetry_group_IT_number 2
_symmetry_cell_setting 'triclinic'
loop_
_space_group_symop_operation_xyz
x,y,z
-x,-y,-z
loop_
_atom_site_type_symbol
_atom_site_label
_atom_site_fract_x
_atom_site_fract_y
_atom_site_fract_z
Si Si1 0.077147 0.028374 0.720989
Si Si2 0.018760 0.256335 0.020544
Si Si3 0.671425 0.806371 0.428361
Si Si4 0.557396 0.327907 0.397562
Si Si5 0.627285 0.920715 0.105623
Si Si6 0.426836 0.479496 0.788759
O O1 0.176055 0.820778 0.623570
O O2 0.753313 0.903164 0.689713
O O3 0.444222 0.306488 0.680743
O O4 0.296651 0.056763 0.807310
O O5 0.310998 0.715407 0.008056
O O6 0.122833 0.171044 0.937863
O O7 0.146125 0.314115 0.763222
O O8 0.000000 0.000000 0.000000
O O9 0.624837 0.537190 0.398353
O O10 0.500000 0.000000 0.500000
O O11 0.000000 0.000000 0.500000
O O12 0.500000 0.500000 0.500000
O O13 0.285727 0.484554 0.133191
O O14 0.612082 0.222233 0.157315
#
# Coordination Sequence:
#
# PCOD9039772 Si02
#       6
#     2   2   2   2   2   2
#     4  12  26  43  71 102 138 185 223 288 344 404
#     4  10  23  42  71 100 136 186 227 285 340 405
#     4  12  26  44  71 102 133 180 229 279 341 411
#     4  12  25  47  68 100 143 177 232 288 338 407
#     4  11  24  45  69 101 141 179 234 281 344 400
#     4  11  25  45  71 101 141 181 234 280 346 409
#
# _framework density 25.531763000000002
#
# number of rings (size 3 to 8) (size 9 to 14) (size 15 to 20)
#    0.000    0.667    1.667    6.500    2.333    6.667 
#    0.000    0.000    0.000    0.000    0.000    0.000 
#    0.000    0.000    0.000    0.000    0.000    0.000 
#
# Total GULP energy -67331.033770 kJ/mol
# GULP energy per Si atom -5610.919481 kJ/mol
# Density = 2.547365 g / cm^3
# Si number density = 25.531763 Si / 1000 Ang^3
#
#
#
# Elastic Constant Matrix: (Units=GPa)
#
#
# Indices 1 2 3 4 5 6 
#
# 1 137.0939 30.5523 23.7031 13.3767 -4.8226 39.2172
# 2 30.5523 166.2559 35.3359 4.8563 9.4064 31.4647
# 3 23.7031 35.3359 140.0524 -1.2435 -0.7043 14.2449
# 4 13.3767 4.8563 -1.2435 41.1492 2.2840 -1.3979
# 5 -4.8226 9.4064 -0.7043 2.2840 49.4028 4.1797
# 6 39.2172 31.4647 14.2449 -1.3979 4.1797 40.1849
#
#
#
# Elastic Compliance Matrix: (Units=1/GPa)
#
#
# Indices 1 2 3 4 5 6 
#
# 1 0.011010 0.000234 -0.000829 -0.004124 0.002140 -0.011000
# 2 0.000234 0.007379 -0.001359 -0.001125 -0.000887 -0.005472
# 3 -0.000829 -0.001359 0.007720 0.000615 0.000334 -0.000876
# 4 -0.004124 -0.001125 0.000615 0.026095 -0.001876 0.005790
# 5 0.002140 -0.000887 0.000334 -0.001876 0.021029 -0.003765
# 6 -0.011000 -0.005472 -0.000876 0.005790 -0.003765 0.040808
#
#
# Mechanical properties :
#
#
# Convention : Reuss Voigt Hill
#
# Bulk Modulus (GPa) = 45.04560 69.17606 57.11083
# Shear Modulus (GPa) = 39.88828 49.73477 44.81152
#
# Velocity S-wave (km/s) = 3.95688 4.41835 4.19397
# Velocity P-wave (km/s) = 6.20944 7.29260 6.77271
#
# Compressibility (1/GPa) = 0.02219973
#
# Stress axis : x y z
#
# Youngs Moduli (GPa) = 90.82763 135.51531 129.53735
#
# Poissons Ratio (x) = -0.03175 0.10745
# Poissons Ratio (y) = -0.02128 0.17609
# Poissons Ratio (z) = 0.07534 0.18422
#
# Static dielectric constant tensor:
#      x y z
#    x 1.986670 -0.047020 0.010730 
#    y -0.047020 2.006710 0.045660 
#    z 0.010730 0.045660 2.020710 
# 
# From -- ./inp_files/545511.got.cif
#   From: 2010.05.17/outbox.cif.g08.bks.cpg/sg2_273_cif.got.tgz:545511.got - 2010.06.03 11:33:40.
