data_PCOD9039870
_publ_section_title
;
Structure prediction by ZEFSAII (Michael W. Deem and Ramdas Pophale) SiO2 
 PCOD9039870
Probable space group: P -1
;
_chemical_formula_sum "Si O2"
_cell_formula_units_Z 14
_cell_length_a 9.942382
_cell_length_b 11.111529
_cell_length_c 13.430377
_cell_angle_alpha 35.438590
_cell_angle_beta 40.240019
_cell_angle_gamma 47.666017
_cell_volume 550.466945
_symmetry_space_group_name_H-M "P -1"
_symmetry_group_IT_number 2
_symmetry_cell_setting 'triclinic'
loop_
_space_group_symop_operation_xyz
x,y,z
-x,-y,-z
loop_
_atom_site_type_symbol
_atom_site_label
_atom_site_fract_x
_atom_site_fract_y
_atom_site_fract_z
Si Si1 0.096628 0.204542 0.346312
Si Si2 0.701298 0.963222 0.985005
Si Si3 0.719683 0.556657 0.368626
Si Si4 0.280661 0.731622 0.055855
Si Si5 0.828096 0.007413 0.363021
Si Si6 0.849676 0.688310 0.403768
Si Si7 0.350052 0.567639 0.902406
O O1 0.227447 0.362036 0.106061
O O2 0.235412 0.107032 0.425609
O O3 0.740613 0.251124 0.243578
O O4 0.000000 0.000000 0.500000
O O5 0.650972 0.087968 0.033535
O O6 0.915231 0.022011 0.774050
O O7 0.500000 0.000000 0.000000
O O8 0.500000 0.500000 0.500000
O O9 0.903244 0.364472 0.388721
O O10 0.697171 0.623214 0.451180
O O11 0.764151 0.728514 0.146931
O O12 0.323451 0.678081 0.952149
O O13 0.030779 0.770314 0.178459
O O14 0.405004 0.525309 0.179595
O O15 0.756199 0.875517 0.400953
O O16 0.000000 0.500000 0.500000
#
# Coordination Sequence:
#
# PCOD9039870 Si02
#       7
#     2   2   2   2   2   2   2
#     4  12  27  46  66 100 146 180 224 289 351 407
#     4  11  24  41  69 102 137 180 236 280 344 408
#     4  12  25  44  68 105 140 178 229 290 345 405
#     4  10  23  42  71  98 136 182 227 286 337 408
#     4  11  23  45  73  98 133 187 230 284 343 408
#     4  11  21  45  74 101 138 176 237 288 336 408
#     4  11  23  46  69  99 138 180 231 277 348 414
#
# _framework density 25.432952
#
# number of rings (size 3 to 8) (size 9 to 14) (size 15 to 20)
#    0.000    0.857    4.286    1.714    6.000    4.000 
#    0.000    3.571    0.000    0.000    0.000    0.000 
#    0.000    0.000    0.000    0.000    0.000    0.000 
#
# Total GULP energy -78322.109575 kJ/mol
# GULP energy per Si atom -5594.436398 kJ/mol
# Density = 2.537507 g / cm^3
# Si number density = 25.432952 Si / 1000 Ang^3
#
#
#
# Elastic Constant Matrix: (Units=GPa)
#
#
# Indices 1 2 3 4 5 6 
#
# 1 127.9727 36.0254 13.5370 -26.6437 -5.7691 0.1589
# 2 36.0254 125.0006 25.2336 -30.4676 9.7714 -11.5775
# 3 13.5370 25.2336 57.4086 -18.8717 -4.0089 -4.6745
# 4 -26.6437 -30.4676 -18.8717 38.9967 -5.1856 5.0477
# 5 -5.7691 9.7714 -4.0089 -5.1856 35.6038 -20.0701
# 6 0.1589 -11.5775 -4.6745 5.0477 -20.0701 59.8381
#
#
#
# Elastic Compliance Matrix: (Units=1/GPa)
#
#
# Indices 1 2 3 4 5 6 
#
# 1 0.009591 -0.001667 0.000662 0.005951 0.003086 0.000237
# 2 -0.001667 0.010574 -0.002560 0.005497 -0.002316 0.000610
# 3 0.000662 -0.002560 0.022201 0.009689 0.006113 0.002470
# 4 0.005951 0.005497 0.009689 0.039491 0.006706 0.000722
# 5 0.003086 -0.002316 0.006113 0.006706 0.037711 0.012104
# 6 0.000237 0.000610 0.002470 0.000722 0.012104 0.021021
#
#
# Mechanical properties :
#
#
# Convention : Reuss Voigt Hill
#
# Bulk Modulus (GPa) = 28.37867 51.10822 39.74345
# Shear Modulus (GPa) = 31.35489 42.59343 36.97416
#
# Velocity S-wave (km/s) = 3.51500 4.09679 3.81700
# Velocity P-wave (km/s) = 5.25890 6.52052 5.92340
#
# Compressibility (1/GPa) = 0.03523773
#
# Stress axis : x y z
#
# Youngs Moduli (GPa) = 104.26298 94.56717 45.04245
#
# Poissons Ratio (x) = 0.15761 -0.02982
# Poissons Ratio (y) = 0.17377 0.11531
# Poissons Ratio (z) = -0.06902 0.24208
#
# Static dielectric constant tensor:
#      x y z
#    x 1.987270 0.040710 0.026480 
#    y 0.040710 1.990680 -0.043470 
#    z 0.026480 -0.043470 2.197290 
# 
# From -- ./inp_files/254467.got.cif
#   From: 2010.05.17/outbox.cif.g08.bks.cpg/sg2_128_cif.got.tgz:254467.got - 2010.06.03 11:33:40.
