data_PCOD9039848
_publ_section_title
;
Structure prediction by ZEFSAII (Michael W. Deem and Ramdas Pophale) SiO2 
 PCOD9039848
Probable space group: P -1
;
_chemical_formula_sum "Si O2"
_cell_formula_units_Z 15
_cell_length_a 14.466692
_cell_length_b 10.873240
_cell_length_c 8.500684
_cell_angle_alpha 139.051064
_cell_angle_beta 130.150024
_cell_angle_gamma 49.988513
_cell_volume 636.569884
_symmetry_space_group_name_H-M "P -1"
_symmetry_group_IT_number 2
_symmetry_cell_setting 'triclinic'
loop_
_space_group_symop_operation_xyz
x,y,z
-x,-y,-z
loop_
_atom_site_type_symbol
_atom_site_label
_atom_site_fract_x
_atom_site_fract_y
_atom_site_fract_z
Si Si1 0.000000 0.000000 0.000000
Si Si2 0.265090 0.903607 0.347201
Si Si3 0.930685 0.172467 0.713327
Si Si4 0.414429 0.878683 0.209871
Si Si5 0.165459 0.380191 0.974967
Si Si6 0.041293 0.605847 0.502563
Si Si7 0.834044 0.797342 0.872966
Si Si8 0.423735 0.154096 0.930555
O O1 0.136370 0.026106 0.235637
O O2 0.923247 0.209633 0.216180
O O3 0.200468 0.826173 0.347595
O O4 0.362114 0.775701 0.197066
O O5 0.341841 0.037494 0.635460
O O6 0.898362 0.392827 0.823709
O O7 0.000000 0.000000 0.500000
O O8 0.029277 0.158627 0.957824
O O9 0.489300 0.782118 0.041415
O O10 0.500000 0.000000 0.500000
O O11 0.289032 0.040400 0.161819
O O12 0.074621 0.351457 0.708054
O O13 0.312529 0.340215 0.054664
O O14 0.169077 0.223195 0.962434
O O15 0.000000 0.500000 0.500000
O O16 0.155642 0.421464 0.383550
O O17 0.500000 0.000000 0.000000
#
# Coordination Sequence:
#
# PCOD9039848 Si02
#       8
#     1   2   2   2   2   2   2   2
#     4  12  22  38  70 100 142 178 210 304 356 412
#     4  11  23  42  64 103 138 173 239 278 360 418
#     4  11  24  39  71 103 141 175 220 307 360 409
#     4  10  23  42  71  93 132 188 236 278 343 428
#     4  11  23  45  68 103 140 181 242 284 352 432
#     4  11  23  39  65 104 141 178 226 290 362 427
#     4  11  23  44  69 102 137 181 235 286 366 420
#     4  11  22  44  75  93 132 193 238 283 341 424
#
# _framework density 23.563790000000001
#
# number of rings (size 3 to 8) (size 9 to 14) (size 15 to 20)
#    0.000    1.067    2.667    5.600    3.733    0.000 
#    0.000    1.333    2.933    0.000    0.000    0.000 
#    0.000    0.000    0.000    0.000    0.000    0.000 
#
# Total GULP energy -83531.494834 kJ/mol
# GULP energy per Si atom -5568.766322 kJ/mol
# Density = 2.351016 g / cm^3
# Si number density = 23.563790 Si / 1000 Ang^3
#
#
#
# Elastic Constant Matrix: (Units=GPa)
#
#
# Indices 1 2 3 4 5 6 
#
# 1 153.9209 25.2488 29.4657 4.7126 -7.9480 -12.4174
# 2 25.2488 86.8683 44.1724 -1.9407 -2.2617 -10.5313
# 3 29.4657 44.1724 107.7236 9.1636 -8.1197 -6.2509
# 4 4.7126 -1.9407 9.1636 43.3455 -4.5483 -1.7948
# 5 -7.9480 -2.2617 -8.1197 -4.5483 36.5263 -0.0193
# 6 -12.4174 -10.5313 -6.2509 -1.7948 -0.0193 41.6960
#
#
#
# Elastic Compliance Matrix: (Units=1/GPa)
#
#
# Indices 1 2 3 4 5 6 
#
# 1 0.007136 -0.001229 -0.001235 -0.000382 0.001156 0.001614
# 2 -0.001229 0.015276 -0.005984 0.002154 -0.000382 0.002688
# 3 -0.001235 -0.005984 0.012422 -0.002576 0.001801 -0.000127
# 4 -0.000382 0.002154 -0.002576 0.024057 0.002474 0.001081
# 5 0.001156 -0.000382 0.001801 0.002474 0.028314 0.000637
# 6 0.001614 0.002688 -0.000127 0.001081 0.000637 0.025170
#
#
# Mechanical properties :
#
#
# Convention : Reuss Voigt Hill
#
# Bulk Modulus (GPa) = 55.74517 60.69849 58.22183
# Shear Modulus (GPa) = 36.96842 40.95528 38.96185
#
# Velocity S-wave (km/s) = 3.96519 4.17353 4.07069
# Velocity P-wave (km/s) = 6.68372 7.00283 6.84513
#
# Compressibility (1/GPa) = 0.01793877
#
# Stress axis : x y z
#
# Youngs Moduli (GPa) = 140.12662 65.46382 80.50276
#
# Poissons Ratio (x) = 0.08046 0.09940
# Poissons Ratio (y) = 0.17224 0.48170
# Poissons Ratio (z) = 0.17303 0.39171
#
# Static dielectric constant tensor:
#      x y z
#    x 2.016390 -0.042700 -0.051310 
#    y -0.042700 1.768820 0.028100 
#    z -0.051310 0.028100 1.966260 
# 
# From -- ./inp_files/308903.got.cif
#   From: 2010.05.17/outbox.cif.g08.bks.cpg/sg2_155_cif.got.tgz:308903.got - 2010.06.03 11:33:40.
