data_PCOD9039665
_publ_section_title
;
Structure prediction by ZEFSAII (Michael W. Deem and Ramdas Pophale) SiO2 
 PCOD9039665
Probable space group: P -1
;
_chemical_formula_sum "Si O2"
_cell_formula_units_Z 16
_cell_length_a 13.102853
_cell_length_b 12.503662
_cell_length_c 11.003769
_cell_angle_alpha 119.863368
_cell_angle_beta 86.410829
_cell_angle_gamma 41.573607
_cell_volume 678.971155
_symmetry_space_group_name_H-M "P -1"
_symmetry_group_IT_number 2
_symmetry_cell_setting 'triclinic'
loop_
_space_group_symop_operation_xyz
x,y,z
-x,-y,-z
loop_
_atom_site_type_symbol
_atom_site_label
_atom_site_fract_x
_atom_site_fract_y
_atom_site_fract_z
Si Si1 0.482750 0.857793 0.342801
Si Si2 0.350941 0.601808 0.957783
Si Si3 0.943790 0.892020 0.229545
Si Si4 0.287153 0.179542 0.289092
Si Si5 0.975709 0.381952 0.741032
Si Si6 0.985697 0.419998 0.071445
Si Si7 0.526469 0.502984 0.643569
Si Si8 0.400431 0.289984 0.210311
O O1 0.553318 0.640474 0.197398
O O2 0.716305 0.675512 0.265457
O O3 0.383985 0.024559 0.321695
O O4 0.253179 0.095658 0.577550
O O5 0.353421 0.665386 0.862460
O O6 0.500000 0.500000 0.000000
O O7 0.083658 0.859903 0.157914
O O8 0.098696 0.631196 0.154147
O O9 0.733225 0.182159 0.481434
O O10 0.885515 0.851489 0.108705
O O11 0.392969 0.201020 0.270271
O O12 0.000000 0.500000 0.500000
O O13 0.420243 0.950661 0.046364
O O14 0.902288 0.604811 0.857982
O O15 0.867081 0.433965 0.663951
O O16 0.000000 0.500000 0.000000
O O17 0.500000 0.500000 0.500000
O O18 0.570661 0.599683 0.699840
#
# Coordination Sequence:
#
# PCOD9039665 Si02
#       8
#     2   2   2   2   2   2   2   2
#     4  11  21  39  67 104 134 175 235 295 362 411
#     4  11  24  44  74 104 138 185 246 297 345 428
#     4  10  23  42  69  99 139 187 237 287 364 412
#     4  11  23  44  67 102 138 182 236 299 361 424
#     4  11  20  40  70 102 138 173 239 302 356 416
#     4   9  20  37  62  99 139 173 219 295 351 420
#     4  12  28  48  68 102 150 194 236 291 358 432
#     4  11  26  43  68  99 138 188 239 293 359 427
#
# _framework density 23.565065000000001
#
# number of rings (size 3 to 8) (size 9 to 14) (size 15 to 20)
#    0.000    1.250    2.500    4.125    1.750    6.500 
#    4.500    0.000    0.000    0.000    0.000    0.000 
#    0.000    0.000    0.000    0.000    0.000    0.000 
#
# Total GULP energy -89109.851992 kJ/mol
# GULP energy per Si atom -5569.365750 kJ/mol
# Density = 2.351143 g / cm^3
# Si number density = 23.565065 Si / 1000 Ang^3
#
#
#
# Elastic Constant Matrix: (Units=GPa)
#
#
# Indices 1 2 3 4 5 6 
#
# 1 200.2653 46.4211 37.3437 -14.4713 2.2377 19.6968
# 2 46.4211 74.0096 4.1389 -14.2074 -5.4166 12.3349
# 3 37.3437 4.1389 88.0474 -0.7536 -21.4925 6.9058
# 4 -14.4713 -14.2074 -0.7536 42.8482 5.4593 -5.4500
# 5 2.2377 -5.4166 -21.4925 5.4593 39.2290 -2.8142
# 6 19.6968 12.3349 6.9058 -5.4500 -2.8142 27.8290
#
#
#
# Elastic Compliance Matrix: (Units=1/GPa)
#
#
# Indices 1 2 3 4 5 6 
#
# 1 0.006808 -0.003688 -0.003245 0.001088 -0.003004 -0.002470
# 2 -0.003688 0.017380 0.001812 0.003616 0.002773 -0.004554
# 3 -0.003245 0.001812 0.014883 -0.001547 0.008688 -0.001625
# 4 0.001088 0.003616 -0.001547 0.025700 -0.003796 0.002660
# 5 -0.003004 0.002773 0.008688 -0.003796 0.031418 0.001175
# 6 -0.002470 -0.004554 -0.001625 0.002660 0.001175 0.040743
#
#
# Mechanical properties :
#
#
# Convention : Reuss Voigt Hill
#
# Bulk Modulus (GPa) = 34.68485 59.79219 47.23852
# Shear Modulus (GPa) = 31.89103 40.27581 36.08342
#
# Velocity S-wave (km/s) = 3.68274 4.13865 3.91733
# Velocity P-wave (km/s) = 5.73011 6.94739 6.36790
#
# Compressibility (1/GPa) = 0.02883103
#
# Stress axis : x y z
#
# Youngs Moduli (GPa) = 146.87681 57.53711 67.18891
#
# Poissons Ratio (x) = 0.21222 0.21800
# Poissons Ratio (y) = 0.54174 -0.12178
# Poissons Ratio (z) = 0.47654 -0.10428
#
# Static dielectric constant tensor:
#      x y z
#    x 1.921370 -0.068660 0.017740 
#    y -0.068660 2.031180 -0.100250 
#    z 0.017740 -0.100250 2.189170 
# 
# From -- ./inp_files/428726.got.cif
#   From: 2010.05.17/outbox.cif.g08.bks.cpg/sg2_215_cif.got.tgz:428726.got - 2010.06.03 11:33:40.
