data_PCOD9039975
_publ_section_title
;
Structure prediction by ZEFSAII (Michael W. Deem and Ramdas Pophale) SiO2 
 PCOD9039975
Probable space group: P -1
;
_chemical_formula_sum "Si O2"
_cell_formula_units_Z 15
_cell_length_a 11.051509
_cell_length_b 11.619002
_cell_length_c 6.402159
_cell_angle_alpha 53.338234
_cell_angle_beta 86.829096
_cell_angle_gamma 99.903657
_cell_volume 636.509368
_symmetry_space_group_name_H-M "P -1"
_symmetry_group_IT_number 2
_symmetry_cell_setting 'triclinic'
loop_
_space_group_symop_operation_xyz
x,y,z
-x,-y,-z
loop_
_atom_site_type_symbol
_atom_site_label
_atom_site_fract_x
_atom_site_fract_y
_atom_site_fract_z
Si Si1 0.581994 0.716935 0.181141
Si Si2 0.716131 0.244766 0.476418
Si Si3 0.666235 0.999437 0.082712
Si Si4 0.598537 0.511768 0.789856
Si Si5 0.769059 0.576116 0.066751
Si Si6 0.972208 0.234936 0.244923
Si Si7 0.500000 0.000000 0.500000
Si Si8 0.088474 0.045591 0.747309
O O1 0.586272 0.886068 0.042510
O O2 0.585411 0.630783 0.489683
O O3 0.453429 0.643794 0.152617
O O4 0.696190 0.689282 0.057371
O O5 0.848133 0.267662 0.315855
O O6 0.601243 0.147596 0.455576
O O7 0.711512 0.412808 0.343975
O O8 0.719886 0.150928 0.788439
O O9 0.600099 0.008703 0.295114
O O10 0.773158 0.916227 0.218018
O O11 0.729641 0.552467 0.852015
O O12 0.500000 0.500000 0.000000
O O13 0.918433 0.635975 0.008672
O O14 0.046724 0.170332 0.486915
O O15 0.926384 0.098335 0.239840
O O16 0.000000 0.000000 0.000000
#
# Coordination Sequence:
#
# PCOD9039975 Si02
#       8
#     2   2   2   2   2   2   1   2
#     4  10  23  42  73 106 137 188 252 302 349 430
#     4  12  28  48  70 107 152 193 240 297 377 441
#     4  12  26  48  76 106 145 195 247 304 362 438
#     4   9  21  41  65 102 138 183 237 295 356 415
#     4  11  25  44  72 107 149 189 235 303 368 438
#     4  11  24  46  74 107 142 191 246 298 366 439
#     4  12  30  48  70 104 154 198 236 298 374 434
#     4  11  22  44  77 108 139 186 252 306 356 425
#
# _framework density 23.566033000000001
#
# number of rings (size 3 to 8) (size 9 to 14) (size 15 to 20)
#    0.000    1.067    2.667    2.400    9.333    2.133 
#    0.000    0.667    0.000    0.000    0.000    0.000 
#    0.000    0.000    0.000    0.000    0.000    0.000 
#
# Total GULP energy -83675.586794 kJ/mol
# GULP energy per Si atom -5578.372453 kJ/mol
# Density = 2.351240 g / cm^3
# Si number density = 23.566033 Si / 1000 Ang^3
#
#
#
# Elastic Constant Matrix: (Units=GPa)
#
#
# Indices 1 2 3 4 5 6 
#
# 1 65.2402 -5.3924 8.8031 5.8155 -24.4558 3.6547
# 2 -5.3924 74.5726 20.9185 -9.4027 -14.6534 -2.0185
# 3 8.8031 20.9185 71.7940 3.6086 -15.4576 -10.1068
# 4 5.8155 -9.4027 3.6086 29.2353 -4.5562 -11.5697
# 5 -24.4558 -14.6534 -15.4576 -4.5562 44.0284 1.3060
# 6 3.6547 -2.0185 -10.1068 -11.5697 1.3060 39.3752
#
#
#
# Elastic Compliance Matrix: (Units=1/GPa)
#
#
# Indices 1 2 3 4 5 6 
#
# 1 0.020793 0.003972 -0.001399 -0.001993 0.012265 -0.003078
# 2 0.003972 0.017149 -0.004118 0.006831 0.007138 0.001224
# 3 -0.001399 -0.004118 0.016630 -0.001071 0.003468 0.003757
# 4 -0.001993 0.006831 -0.001071 0.042687 0.004833 0.012643
# 5 0.012265 0.007138 0.003468 0.004833 0.033606 0.000423
# 6 -0.003078 0.001224 0.003757 0.012643 0.000423 0.030410
#
#
# Mechanical properties :
#
#
# Convention : Reuss Voigt Hill
#
# Bulk Modulus (GPa) = 19.42472 28.91835 24.17153
# Shear Modulus (GPa) = 27.54423 35.01296 31.27859
#
# Velocity S-wave (km/s) = 3.42250 3.85871 3.64713
# Velocity P-wave (km/s) = 4.88657 5.67016 5.29288
#
# Compressibility (1/GPa) = 0.05148080
#
# Stress axis : x y z
#
# Youngs Moduli (GPa) = 48.09372 58.31211 60.13349
#
# Poissons Ratio (x) = -0.23159 0.08413
# Poissons Ratio (y) = -0.19101 0.24762
# Poissons Ratio (z) = 0.06729 0.24012
#
# Static dielectric constant tensor:
#      x y z
#    x 1.928050 0.013840 0.044450 
#    y 0.013840 1.940040 -0.043900 
#    z 0.044450 -0.043900 1.949280 
# 
# From -- ./inp_files/65545.got.cif
#   From: 2010.05.17/outbox.cif.g08.bks.cpg/sg2_33_cif.got.tgz:65545.got - 2010.06.03 11:33:40.
