data_PCOD9039762
_publ_section_title
;
Structure prediction by ZEFSAII (Michael W. Deem and Ramdas Pophale) SiO2 
 PCOD9039762
Probable space group: P -1
;
_chemical_formula_sum "Si O2"
_cell_formula_units_Z 14
_cell_length_a 22.211678
_cell_length_b 10.944849
_cell_length_c 5.886210
_cell_angle_alpha 86.904610
_cell_angle_beta 110.156261
_cell_angle_gamma 149.528655
_cell_volume 585.783679
_symmetry_space_group_name_H-M "P -1"
_symmetry_group_IT_number 2
_symmetry_cell_setting 'triclinic'
loop_
_space_group_symop_operation_xyz
x,y,z
-x,-y,-z
loop_
_atom_site_type_symbol
_atom_site_label
_atom_site_fract_x
_atom_site_fract_y
_atom_site_fract_z
Si Si1 0.353189 0.360159 0.041807
Si Si2 0.136139 0.388587 0.173880
Si Si3 0.882171 0.840459 0.180923
Si Si4 0.562458 0.813498 0.558472
Si Si5 0.664300 0.933654 0.134218
Si Si6 0.437351 0.924861 0.678520
Si Si7 0.857012 0.318545 0.738671
O O1 0.412895 0.482162 0.366939
O O2 0.511707 0.644950 0.097681
O O3 0.239473 0.275827 0.869106
O O4 0.292700 0.126537 0.903806
O O5 0.270874 0.588349 0.496045
O O6 0.139036 0.539915 0.161021
O O7 0.172701 0.376345 0.994745
O O8 0.977762 0.077520 0.092271
O O9 0.000000 0.000000 0.500000
O O10 0.559401 0.923424 0.373539
O O11 0.711886 0.999856 0.669374
O O12 0.601328 0.913988 0.856326
O O13 0.808344 0.235416 0.418163
O O14 0.500000 0.000000 0.500000
O O15 0.500000 0.000000 0.000000
O O16 0.000000 0.500000 0.000000
#
# Coordination Sequence:
#
# PCOD9039762 Si02
#       7
#     2   2   2   2   2   2   2
#     4  10  23  43  68 104 138 184 242 299 364 436
#     4  10  26  46  63 105 138 182 247 287 367 445
#     4  11  26  44  70  97 140 192 234 300 364 439
#     4  10  23  42  70  99 134 183 241 299 363 431
#     4  10  23  43  71 106 137 186 239 305 364 437
#     4  11  26  43  74 103 143 193 241 305 369 440
#     4  10  24  43  67 100 140 180 236 296 369 434
#
# _framework density 23.899605000000001
#
# number of rings (size 3 to 8) (size 9 to 14) (size 15 to 20)
#    0.000    1.714    0.000    1.286   14.000    4.000 
#    0.000    0.000    0.000    0.000    0.000    0.000 
#    0.000    0.000    0.000    0.000    0.000    0.000 
#
# Total GULP energy -77944.189271 kJ/mol
# GULP energy per Si atom -5567.442091 kJ/mol
# Density = 2.384521 g / cm^3
# Si number density = 23.899605 Si / 1000 Ang^3
#
#
#
# Elastic Constant Matrix: (Units=GPa)
#
#
# Indices 1 2 3 4 5 6 
#
# 1 179.1974 30.5850 88.7473 11.1868 2.3661 -14.4441
# 2 30.5850 46.0649 29.4063 2.1638 3.9050 -9.5703
# 3 88.7473 29.4063 188.6458 5.9055 7.8792 -10.4026
# 4 11.1868 2.1638 5.9055 36.9055 -1.5809 -0.0151
# 5 2.3661 3.9050 7.8792 -1.5809 37.1389 14.5888
# 6 -14.4441 -9.5703 -10.4026 -0.0151 14.5888 32.2372
#
#
#
# Elastic Compliance Matrix: (Units=1/GPa)
#
#
# Indices 1 2 3 4 5 6 
#
# 1 0.007841 -0.002733 -0.003090 -0.001737 -0.000365 0.001869
# 2 -0.002733 0.027267 -0.002227 -0.000654 -0.005673 0.008719
# 3 -0.003090 -0.002227 0.007221 -0.000151 -0.001483 0.000956
# 4 -0.001737 -0.000654 -0.000151 0.027778 0.002177 -0.001993
# 5 -0.000365 -0.005673 -0.001483 0.002177 0.035107 -0.018213
# 6 0.001869 0.008719 0.000956 -0.001993 -0.018213 0.042996
#
#
# Mechanical properties :
#
#
# Convention : Reuss Voigt Hill
#
# Bulk Modulus (GPa) = 38.12333 79.04281 58.58307
# Shear Modulus (GPa) = 28.89291 38.93429 33.91360
#
# Velocity S-wave (km/s) = 3.48074 4.04056 3.77105
# Velocity P-wave (km/s) = 5.66923 7.41032 6.59746
#
# Compressibility (1/GPa) = 0.02623065
#
# Stress axis : x y z
#
# Youngs Moduli (GPa) = 127.53207 36.67386 138.48201
#
# Poissons Ratio (x) = 0.10022 0.42793
# Poissons Ratio (y) = 0.34850 0.30835
# Poissons Ratio (z) = 0.39410 0.08166
#
# Static dielectric constant tensor:
#      x y z
#    x 2.111800 0.068440 -0.163820 
#    y 0.068440 2.033600 -0.090950 
#    z -0.163820 -0.090950 2.098800 
# 
# From -- ./inp_files/123695.got.cif
#   From: 2010.05.17/outbox.cif.g08.bks.cpg/sg2_62_cif.got.tgz:123695.got - 2010.06.03 11:33:40.
