data_PCOD9039699
_publ_section_title
;
Structure prediction by ZEFSAII (Michael W. Deem and Ramdas Pophale) SiO2 
 PCOD9039699
Probable space group: P -1
;
_chemical_formula_sum "Si O2"
_cell_formula_units_Z 14
_cell_length_a 9.249226
_cell_length_b 14.312413
_cell_length_c 19.576751
_cell_angle_alpha 30.551359
_cell_angle_beta 31.484913
_cell_angle_gamma 51.925527
_cell_volume 616.678149
_symmetry_space_group_name_H-M "P -1"
_symmetry_group_IT_number 2
_symmetry_cell_setting 'triclinic'
loop_
_space_group_symop_operation_xyz
x,y,z
-x,-y,-z
loop_
_atom_site_type_symbol
_atom_site_label
_atom_site_fract_x
_atom_site_fract_y
_atom_site_fract_z
Si Si1 0.369423 0.666665 0.443471
Si Si2 0.218189 0.557744 0.086518
Si Si3 0.826650 0.322509 0.269821
Si Si4 0.977663 0.602706 0.515565
Si Si5 0.311471 0.361860 0.952493
Si Si6 0.691545 0.988868 0.223951
Si Si7 0.821229 0.983339 0.885210
O O1 0.500000 0.500000 0.500000
O O2 0.600573 0.866142 0.266529
O O3 0.042418 0.586670 0.664884
O O4 0.276231 0.669873 0.400592
O O5 0.037894 0.503710 0.121478
O O6 0.500000 0.500000 0.000000
O O7 0.311754 0.792729 0.918585
O O8 0.705108 0.430856 0.194879
O O9 0.565718 0.148980 0.529556
O O10 0.062142 0.255392 0.178882
O O11 0.668049 0.435975 0.781008
O O12 0.000000 0.500000 0.500000
O O13 0.954861 0.808980 0.375088
O O14 0.228466 0.212513 0.015591
O O15 0.016430 0.016090 0.108602
O O16 0.500000 0.000000 0.000000
#
# Coordination Sequence:
#
# PCOD9039699 Si02
#       7
#     2   2   2   2   2   2   2
#     4  11  28  45  72 107 145 189 237 293 362 431
#     4  11  25  47  72  99 147 193 239 290 357 427
#     4  10  23  42  70 102 140 183 233 293 349 417
#     4  12  25  45  71 100 143 179 234 288 350 423
#     4  11  23  41  69 106 140 179 235 291 353 415
#     4  11  25  48  73 103 146 186 238 297 358 424
#     4  12  25  41  74 104 139 185 233 291 354 418
#
# _framework density 22.702279000000001
#
# number of rings (size 3 to 8) (size 9 to 14) (size 15 to 20)
#    0.000    0.857    4.286    1.714    4.000    8.000 
#    0.000    0.000    0.000    0.000    0.000    0.000 
#    0.000    0.000    0.000    0.000    0.000    0.000 
#
# Total GULP energy -78266.899337 kJ/mol
# GULP energy per Si atom -5590.492810 kJ/mol
# Density = 2.265061 g / cm^3
# Si number density = 22.702279 Si / 1000 Ang^3
#
#
#
# Elastic Constant Matrix: (Units=GPa)
#
#
# Indices 1 2 3 4 5 6 
#
# 1 146.9769 46.8373 34.0393 -4.5191 -34.3857 10.0338
# 2 46.8373 107.8268 45.3599 -2.2355 -22.9773 3.8574
# 3 34.0393 45.3599 103.5216 5.6839 -27.7917 3.6256
# 4 -4.5191 -2.2355 5.6839 44.6886 3.9811 3.4787
# 5 -34.3857 -22.9773 -27.7917 3.9811 38.7478 -5.1029
# 6 10.0338 3.8574 3.6256 3.4787 -5.1029 36.0714
#
#
#
# Elastic Compliance Matrix: (Units=1/GPa)
#
#
# Indices 1 2 3 4 5 6 
#
# 1 0.009246 -0.002521 -0.000206 0.000381 0.006336 -0.001422
# 2 -0.002521 0.012591 -0.004140 0.000705 0.002190 0.000013
# 3 -0.000206 -0.004140 0.013690 -0.002673 0.007515 0.000445
# 4 0.000381 0.000705 -0.002673 0.023352 -0.003918 -0.002719
# 5 0.006336 0.002190 0.007515 -0.003918 0.038935 0.003134
# 6 -0.001422 0.000013 0.000445 -0.002719 0.003134 0.028778
#
#
# Mechanical properties :
#
#
# Convention : Reuss Voigt Hill
#
# Bulk Modulus (GPa) = 45.88179 67.86649 56.87414
# Shear Modulus (GPa) = 33.87800 39.37413 36.62606
#
# Velocity S-wave (km/s) = 3.86719 4.16909 4.02097
# Velocity P-wave (km/s) = 6.33989 7.28932 6.83112
#
# Compressibility (1/GPa) = 0.02179514
#
# Stress axis : x y z
#
# Youngs Moduli (GPa) = 108.15623 79.42026 73.04604
#
# Poissons Ratio (x) = 0.20019 0.01503
# Poissons Ratio (y) = 0.27262 0.30238
# Poissons Ratio (z) = 0.02226 0.32877
#
# Static dielectric constant tensor:
#      x y z
#    x 1.868640 -0.014310 0.012320 
#    y -0.014310 1.800010 0.050870 
#    z 0.012320 0.050870 1.891900 
# 
# From -- ./inp_files/111053.got.cif
#   From: 2010.05.17/outbox.cif.g08.bks.cpg/sg2_56_cif.got.tgz:111053.got - 2010.06.03 11:33:40.
