data_PCOD9039784
_publ_section_title
;
Structure prediction by ZEFSAII (Michael W. Deem and Ramdas Pophale) SiO2 
 PCOD9039784
Probable space group: P -1
;
_chemical_formula_sum "Si O2"
_cell_formula_units_Z 16
_cell_length_a 12.385828
_cell_length_b 19.852547
_cell_length_c 8.877506
_cell_angle_alpha 147.697234
_cell_angle_beta 133.377562
_cell_angle_gamma 36.549707
_cell_volume 694.479265
_symmetry_space_group_name_H-M "P -1"
_symmetry_group_IT_number 2
_symmetry_cell_setting 'triclinic'
loop_
_space_group_symop_operation_xyz
x,y,z
-x,-y,-z
loop_
_atom_site_type_symbol
_atom_site_label
_atom_site_fract_x
_atom_site_fract_y
_atom_site_fract_z
Si Si1 0.816333 0.514740 0.696027
Si Si2 0.331665 0.404109 0.956058
Si Si3 0.303094 0.041051 0.915905
Si Si4 0.379532 0.564579 0.858661
Si Si5 0.822800 0.119277 0.649973
Si Si6 0.209664 0.188500 0.425750
Si Si7 0.978417 0.694750 0.089168
Si Si8 0.099133 0.054252 0.301715
O O1 0.680292 0.528569 0.465497
O O2 0.005405 0.345217 0.541204
O O3 0.733273 0.539082 0.827952
O O4 0.864575 0.637574 0.949966
O O5 0.337554 0.249503 0.657488
O O6 0.510023 0.394997 0.069368
O O7 0.170121 0.533676 0.935745
O O8 0.153522 0.181558 0.929570
O O9 0.322476 0.884155 0.595306
O O10 0.238165 0.097001 0.128005
O O11 0.500000 0.000000 0.000000
O O12 0.500000 0.500000 0.000000
O O13 0.202172 0.722708 0.048411
O O14 0.814485 0.063144 0.700483
O O15 0.000000 0.000000 0.500000
O O16 0.228648 0.080009 0.374965
O O17 0.023538 0.785601 0.420907
O O18 0.000000 0.000000 0.000000
#
# Coordination Sequence:
#
# PCOD9039784 Si02
#       8
#     2   2   2   2   2   2   2   2
#     4  11  22  44  71  99 142 177 234 289 351 409
#     4  11  23  45  70 102 144 172 239 288 353 414
#     4  11  25  43  66  97 144 177 235 285 350 410
#     4  12  29  43  70 106 142 186 234 291 348 407
#     4  11  26  47  67 102 141 183 231 282 349 425
#     4  11  22  43  75 101 131 186 235 285 351 424
#     4  10  23  42  71 101 132 190 226 288 350 420
#     4  11  21  41  71 102 131 176 239 281 341 416
#
# _framework density 23.038847000000001
#
# number of rings (size 3 to 8) (size 9 to 14) (size 15 to 20)
#    0.000    1.000    2.500    4.125    8.750    1.000 
#    2.250    1.875    0.000    0.000    0.000    0.000 
#    0.000    0.000    0.000    0.000    0.000    0.000 
#
# Total GULP energy -89404.314399 kJ/mol
# GULP energy per Si atom -5587.769650 kJ/mol
# Density = 2.298641 g / cm^3
# Si number density = 23.038847 Si / 1000 Ang^3
#
#
#
# Elastic Constant Matrix: (Units=GPa)
#
#
# Indices 1 2 3 4 5 6 
#
# 1 99.2892 22.4609 23.4200 -1.3538 -3.1069 0.5309
# 2 22.4609 57.0939 23.4550 -0.0887 -4.3403 7.4262
# 3 23.4200 23.4550 134.0845 -22.4062 7.4615 8.5868
# 4 -1.3538 -0.0887 -22.4062 31.7517 -0.7759 7.8675
# 5 -3.1069 -4.3403 7.4615 -0.7759 42.9185 -10.1106
# 6 0.5309 7.4262 8.5868 7.8675 -10.1106 36.8216
#
#
#
# Elastic Compliance Matrix: (Units=1/GPa)
#
#
# Indices 1 2 3 4 5 6 
#
# 1 0.011351 -0.003917 -0.001623 -0.001021 0.001045 0.001510
# 2 -0.003917 0.020822 -0.003168 -0.001665 0.001737 -0.002571
# 3 -0.001623 -0.003168 0.010074 0.008005 -0.003042 -0.004232
# 4 -0.001021 -0.001665 0.008005 0.039727 -0.003499 -0.010965
# 5 0.001045 0.001737 -0.003042 -0.003499 0.025953 0.008218
# 6 0.001510 -0.002571 -0.004232 -0.010965 0.008218 0.033241
#
#
# Mechanical properties :
#
#
# Convention : Reuss Voigt Hill
#
# Bulk Modulus (GPa) = 40.27482 47.68215 43.97849
# Shear Modulus (GPa) = 29.96517 37.04047 33.50282
#
# Velocity S-wave (km/s) = 3.61035 4.01401 3.81752
# Velocity P-wave (km/s) = 5.90751 6.49803 6.20979
#
# Compressibility (1/GPa) = 0.02482941
#
# Stress axis : x y z
#
# Youngs Moduli (GPa) = 88.09576 48.02698 99.26925
#
# Poissons Ratio (x) = 0.18814 0.16110
# Poissons Ratio (y) = 0.34511 0.31451
# Poissons Ratio (z) = 0.14296 0.15216
#
# Static dielectric constant tensor:
#      x y z
#    x 2.298510 0.129620 0.815970 
#    y 0.129620 1.950920 0.249920 
#    z 0.815970 0.249920 3.327250 
# 
# From -- ./inp_files/283521.got.cif
#   From: 2010.05.17/outbox.cif.g08.bks.cpg/sg2_142_cif.got.tgz:283521.got - 2010.06.03 11:33:40.
