data_PCOD9039819
_publ_section_title
;
Structure prediction by ZEFSAII (Michael W. Deem and Ramdas Pophale) SiO2 
 PCOD9039819
Probable space group: P -1
;
_chemical_formula_sum "Si O2"
_cell_formula_units_Z 14
_cell_length_a 10.718738
_cell_length_b 5.478021
_cell_length_c 15.107512
_cell_angle_alpha 65.270747
_cell_angle_beta 47.017009
_cell_angle_gamma 70.421433
_cell_volume 587.769677
_symmetry_space_group_name_H-M "P -1"
_symmetry_group_IT_number 2
_symmetry_cell_setting 'triclinic'
loop_
_space_group_symop_operation_xyz
x,y,z
-x,-y,-z
loop_
_atom_site_type_symbol
_atom_site_label
_atom_site_fract_x
_atom_site_fract_y
_atom_site_fract_z
Si Si1 0.731263 0.088414 0.280622
Si Si2 0.940534 0.172323 0.418133
Si Si3 0.407733 0.734628 0.111323
Si Si4 0.749260 0.503219 0.064894
Si Si5 0.420156 0.791893 0.471224
Si Si6 0.882433 0.103140 0.915950
Si Si7 0.077137 0.656757 0.356020
O O1 0.732889 0.378536 0.189360
O O2 0.667709 0.095449 0.412022
O O3 0.915918 0.931770 0.200831
O O4 0.571285 0.952493 0.334426
O O5 0.739087 0.225286 0.512912
O O6 0.027453 0.450772 0.334595
O O7 0.000000 0.000000 0.500000
O O8 0.997642 0.963980 0.344401
O O9 0.570057 0.535842 0.091316
O O10 0.277677 0.694691 0.261295
O O11 0.260472 0.745634 0.104127
O O12 0.500000 0.000000 0.000000
O O13 0.824100 0.795492 0.992307
O O14 0.863591 0.278619 0.987966
O O15 0.500000 0.500000 0.500000
O O16 0.000000 0.500000 0.500000
#
# Coordination Sequence:
#
# PCOD9039819 Si02
#       7
#     2   2   2   2   2   2   2
#     4  11  27  46  71 103 148 191 241 293 361 439
#     4  10  24  44  70 101 139 183 237 291 355 426
#     4  10  24  45  71 108 144 185 239 306 359 421
#     4  11  26  45  75 104 139 189 246 296 356 427
#     4  11  28  45  70 108 146 192 236 301 362 429
#     4  11  25  47  72 104 142 189 240 297 363 424
#     4  10  23  42  71 104 142 184 234 288 364 428
#
# _framework density 23.818850999999999
#
# number of rings (size 3 to 8) (size 9 to 14) (size 15 to 20)
#    0.000    1.429    0.000    2.143   14.000    5.714 
#    2.571    0.000    0.000    0.000    0.000    0.000 
#    0.000    0.000    0.000    0.000    0.000    0.000 
#
# Total GULP energy -78020.557039 kJ/mol
# GULP energy per Si atom -5572.896931 kJ/mol
# Density = 2.376464 g / cm^3
# Si number density = 23.818851 Si / 1000 Ang^3
#
#
#
# Elastic Constant Matrix: (Units=GPa)
#
#
# Indices 1 2 3 4 5 6 
#
# 1 111.9234 33.2349 49.8302 2.0862 -29.2772 -24.4414
# 2 33.2349 124.0881 32.8659 9.8405 -24.5109 5.5735
# 3 49.8302 32.8659 149.0525 3.1689 -37.2689 -2.5337
# 4 2.0862 9.8405 3.1689 34.7962 -8.7343 -12.3337
# 5 -29.2772 -24.5109 -37.2689 -8.7343 46.8775 2.8171
# 6 -24.4414 5.5735 -2.5337 -12.3337 2.8171 40.1629
#
#
#
# Elastic Compliance Matrix: (Units=1/GPa)
#
#
# Indices 1 2 3 4 5 6 
#
# 1 0.014754 -0.002963 -0.002753 0.005380 0.005851 0.010458
# 2 -0.002963 0.009988 -0.000584 -0.003555 0.002515 -0.004494
# 3 -0.002753 -0.000584 0.009060 0.000390 0.005328 -0.001277
# 4 0.005380 -0.003555 0.000390 0.036446 0.007734 0.014442
# 5 0.005851 0.002515 0.005328 0.007734 0.031756 0.003695
# 6 0.010458 -0.004494 -0.001277 0.014442 0.003695 0.035982
#
#
# Mechanical properties :
#
#
# Convention : Reuss Voigt Hill
#
# Bulk Modulus (GPa) = 47.16337 68.54734 57.85535
# Shear Modulus (GPa) = 31.71521 42.30952 37.01237
#
# Velocity S-wave (km/s) = 3.65295 4.21919 3.94624
# Velocity P-wave (km/s) = 6.13481 7.25097 6.71612
#
# Compressibility (1/GPa) = 0.02120290
#
# Stress axis : x y z
#
# Youngs Moduli (GPa) = 67.77786 100.12374 110.37185
#
# Poissons Ratio (x) = 0.29669 0.30384
# Poissons Ratio (y) = 0.20084 0.06440
# Poissons Ratio (z) = 0.18658 0.05842
#
# Static dielectric constant tensor:
#      x y z
#    x 2.021940 0.121540 0.078620 
#    y 0.121540 1.998490 0.143560 
#    z 0.078620 0.143560 2.057630 
# 
# From -- ./inp_files/563999.got.cif
#   From: 2010.05.17/outbox.cif.g08.bks.cpg/sg2_282_cif.got.tgz:563999.got - 2010.06.03 11:33:40.
