data_PCOD9039643
_publ_section_title
;
Structure prediction by ZEFSAII (Michael W. Deem and Ramdas Pophale) SiO2 
 PCOD9039643
Probable space group: P -1
;
_chemical_formula_sum "Si O2"
_cell_formula_units_Z 12
_cell_length_a 15.287118
_cell_length_b 15.038362
_cell_length_c 8.907542
_cell_angle_alpha 136.688714
_cell_angle_beta 29.427685
_cell_angle_gamma 144.936065
_cell_volume 577.221817
_symmetry_space_group_name_H-M "P -1"
_symmetry_group_IT_number 2
_symmetry_cell_setting 'triclinic'
loop_
_space_group_symop_operation_xyz
x,y,z
-x,-y,-z
loop_
_atom_site_type_symbol
_atom_site_label
_atom_site_fract_x
_atom_site_fract_y
_atom_site_fract_z
Si Si1 0.086960 0.907325 0.170654
Si Si2 0.724016 0.551161 0.303237
Si Si3 0.585415 0.615275 0.877451
Si Si4 0.470130 0.982942 0.204213
Si Si5 0.202099 0.067512 0.886023
Si Si6 0.775352 0.373663 0.763161
O O1 0.901926 0.728595 0.223678
O O2 0.000000 0.000000 0.500000
O O3 0.297245 0.950574 0.996831
O O4 0.152796 0.953885 0.957925
O O5 0.500000 0.500000 0.500000
O O6 0.687359 0.551460 0.534358
O O7 0.787250 0.444870 0.996946
O O8 0.500000 0.500000 0.000000
O O9 0.744869 0.779787 0.917896
O O10 0.408980 0.629071 0.065598
O O11 0.309603 0.805841 0.291379
O O12 0.385940 0.083255 0.524991
O O13 0.500000 0.000000 0.000000
O O14 0.000000 0.000000 0.000000
O O15 0.000000 0.500000 0.500000
#
# Coordination Sequence:
#
# PCOD9039643 Si02
#       6
#     2   2   2   2   2   2
#     4  12  22  46  73 101 139 184 233 295 353 418
#     4  10  23  42  69  98 135 180 227 281 354 421
#     4  11  26  44  69 103 139 181 237 284 354 425
#     4  12  28  46  72 107 142 186 246 293 352 421
#     4  12  27  44  71 102 142 188 238 291 349 417
#     4  11  25  47  71 102 143 185 229 294 358 420
#
# _framework density 20.789235999999999
#
# number of rings (size 3 to 8) (size 9 to 14) (size 15 to 20)
#    0.000    0.667    3.333    3.500   11.667    0.000 
#    0.000    1.667    0.000    0.000    0.000    0.000 
#    0.000    0.000    0.000    0.000    0.000    0.000 
#
# Total GULP energy -66998.602382 kJ/mol
# GULP energy per Si atom -5583.216865 kJ/mol
# Density = 2.074192 g / cm^3
# Si number density = 20.789236 Si / 1000 Ang^3
#
#
#
# Elastic Constant Matrix: (Units=GPa)
#
#
# Indices 1 2 3 4 5 6 
#
# 1 153.4410 32.8013 46.3557 -12.2116 23.4084 16.9924
# 2 32.8013 118.7072 11.4829 -9.3753 11.6026 21.9796
# 3 46.3557 11.4829 118.3641 1.8746 23.3747 25.8853
# 4 -12.2116 -9.3753 1.8746 38.4991 5.0523 7.8345
# 5 23.4084 11.6026 23.3747 5.0523 51.6872 -9.9591
# 6 16.9924 21.9796 25.8853 7.8345 -9.9591 44.0501
#
#
#
# Elastic Compliance Matrix: (Units=1/GPa)
#
#
# Indices 1 2 3 4 5 6 
#
# 1 0.008506 -0.000895 -0.001829 0.003740 -0.003824 -0.003289
# 2 -0.000895 0.010834 0.001988 0.004566 -0.004944 -0.008158
# 3 -0.001829 0.001988 0.012513 0.002235 -0.007364 -0.009701
# 4 0.003740 0.004566 0.002235 0.032001 -0.009331 -0.012836
# 5 -0.003824 -0.004944 -0.007364 -0.009331 0.029635 0.016628
# 6 -0.003289 -0.008158 -0.009701 -0.012836 0.016628 0.039784
#
#
# Mechanical properties :
#
#
# Convention : Reuss Voigt Hill
#
# Bulk Modulus (GPa) = 32.91805 63.53246 48.22526
# Shear Modulus (GPa) = 34.51306 46.83876 40.67591
#
# Velocity S-wave (km/s) = 4.07890 4.75176 4.42813
# Velocity P-wave (km/s) = 6.16862 7.79309 7.02795
#
# Compressibility (1/GPa) = 0.03037847
#
# Stress axis : x y z
#
# Youngs Moduli (GPa) = 117.55721 92.30558 79.91932
#
# Poissons Ratio (x) = 0.08265 0.14621
# Poissons Ratio (y) = 0.10526 -0.15886
# Poissons Ratio (z) = 0.21506 -0.18348
#
# Static dielectric constant tensor:
#      x y z
#    x 1.641200 0.090570 -0.013950 
#    y 0.090570 1.571240 0.108310 
#    z -0.013950 0.108310 1.791280 
# 
# From -- ./inp_files/148632.got.cif
#   From: 2010.05.17/outbox.cif.g08.bks.cpg/sg2_75_cif.got.tgz:148632.got - 2010.06.03 11:33:40.
