data_PCOD9039664
_publ_section_title
;
Structure prediction by ZEFSAII (Michael W. Deem and Ramdas Pophale) SiO2 
 PCOD9039664
Probable space group: P -1
;
_chemical_formula_sum "Si O2"
_cell_formula_units_Z 16
_cell_length_a 24.362899
_cell_length_b 30.572449
_cell_length_c 18.406609
_cell_angle_alpha 19.321835
_cell_angle_beta 160.306985
_cell_angle_gamma 169.912252
_cell_volume 776.073940
_symmetry_space_group_name_H-M "P -1"
_symmetry_group_IT_number 2
_symmetry_cell_setting 'triclinic'
loop_
_space_group_symop_operation_xyz
x,y,z
-x,-y,-z
loop_
_atom_site_type_symbol
_atom_site_label
_atom_site_fract_x
_atom_site_fract_y
_atom_site_fract_z
Si Si1 0.161550 0.232934 0.877876
Si Si2 0.787430 0.085481 0.403251
Si Si3 0.124329 0.477727 0.501032
Si Si4 0.910832 0.696807 0.114155
Si Si5 0.892133 0.592424 0.994095
Si Si6 0.645534 0.000973 0.940715
Si Si7 0.827626 0.886954 0.132381
Si Si8 0.278983 0.476523 0.271892
O O1 0.139056 0.375062 0.617833
O O2 0.532908 0.455028 0.006315
O O3 0.000000 0.000000 0.000000
O O4 0.935022 0.066726 0.926014
O O5 0.657152 0.114054 0.244186
O O6 0.979523 0.109948 0.648533
O O7 0.024383 0.285559 0.319097
O O8 0.472073 0.789922 0.445231
O O9 0.073904 0.387341 0.663069
O O10 0.888637 0.433070 0.257651
O O11 0.118001 0.789028 0.159523
O O12 0.053844 0.946413 0.911767
O O13 0.542419 0.401988 0.876170
O O14 0.913595 0.630407 0.875282
O O15 0.153101 0.843971 0.976453
O O16 0.507937 0.759992 0.131786
O O17 0.500000 0.500000 0.500000
#
# Coordination Sequence:
#
# PCOD9039664 Si02
#       8
#     2   2   2   2   2   2   2   2
#     4  11  22  37  65 104 140 179 226 269 334 409
#     4  11  22  44  71  95 132 179 226 277 338 394
#     4  10  23  42  69  99 139 179 222 281 331 405
#     4  11  20  43  70  95 143 183 218 268 348 397
#     4  11  25  44  69 104 132 174 235 274 341 398
#     4  11  26  43  70 105 133 173 231 279 335 406
#     4  11  20  44  66  95 136 181 221 271 337 406
#     4  12  25  48  73  93 135 183 223 287 345 390
#
# _framework density 20.616593000000002
#
# number of rings (size 3 to 8) (size 9 to 14) (size 15 to 20)
#    0.000    1.000    5.000    1.875    0.000    7.500 
#    2.250    0.000    0.000    0.000    0.000    0.000 
#    0.000    0.000    0.000    0.000    0.000    0.000 
#
# Total GULP energy -89105.988952 kJ/mol
# GULP energy per Si atom -5569.124310 kJ/mol
# Density = 2.056967 g / cm^3
# Si number density = 20.616593 Si / 1000 Ang^3
#
#
#
# Elastic Constant Matrix: (Units=GPa)
#
#
# Indices 1 2 3 4 5 6 
#
# 1 145.8543 71.6415 112.2522 11.6712 15.1406 30.7435
# 2 71.6415 97.5409 86.2139 8.3828 8.3969 24.2853
# 3 112.2522 86.2139 201.4543 34.1167 26.2868 29.4182
# 4 11.6712 8.3828 34.1167 45.9680 5.2959 16.5082
# 5 15.1406 8.3969 26.2868 5.2959 41.5834 -3.5731
# 6 30.7435 24.2853 29.4182 16.5082 -3.5731 60.4436
#
#
#
# Elastic Compliance Matrix: (Units=1/GPa)
#
#
# Indices 1 2 3 4 5 6 
#
# 1 0.014161 -0.004617 -0.005740 0.002877 -0.001255 -0.003414
# 2 -0.004617 0.019290 -0.005816 0.003091 0.000779 -0.003370
# 3 -0.005740 -0.005816 0.012043 -0.006354 -0.003460 0.000925
# 4 0.002877 0.003091 -0.006354 0.028041 -0.001860 -0.007381
# 5 -0.001255 0.000779 -0.003460 -0.001860 0.027126 0.004121
# 6 -0.003414 -0.003370 0.000925 -0.007381 0.004121 0.021444
#
#
# Mechanical properties :
#
#
# Convention : Reuss Voigt Hill
#
# Bulk Modulus (GPa) = 76.04772 109.45163 92.74967
# Shear Modulus (GPa) = 31.47952 41.24847 36.36399
#
# Velocity S-wave (km/s) = 3.91180 4.47782 4.20434
# Velocity P-wave (km/s) = 7.57427 8.94085 8.28578
#
# Compressibility (1/GPa) = 0.01314964
#
# Stress axis : x y z
#
# Youngs Moduli (GPa) = 70.61630 51.84116 83.03259
#
# Poissons Ratio (x) = 0.23935 0.47658
# Poissons Ratio (y) = 0.32603 0.48289
# Poissons Ratio (z) = 0.40532 0.30149
#
# Static dielectric constant tensor:
#      x y z
#    x 1.758070 -0.044890 -0.033390 
#    y -0.044890 1.737990 -0.003590 
#    z -0.033390 -0.003590 1.775150 
# 
# From -- ./inp_files/528041.got.cif
#   From: 2010.05.17/outbox.cif.g08.bks.cpg/sg2_265_cif.got.tgz:528041.got - 2010.06.03 11:33:40.
