data_PCOD9039685
_publ_section_title
;
Structure prediction by ZEFSAII (Michael W. Deem and Ramdas Pophale) SiO2 
 PCOD9039685
Probable space group: P -1
;
_chemical_formula_sum "Si O2"
_cell_formula_units_Z 16
_cell_length_a 15.741442
_cell_length_b 5.563641
_cell_length_c 24.186679
_cell_angle_alpha 52.392117
_cell_angle_beta 21.935480
_cell_angle_gamma 54.593523
_cell_volume 626.241560
_symmetry_space_group_name_H-M "P -1"
_symmetry_group_IT_number 2
_symmetry_cell_setting 'triclinic'
loop_
_space_group_symop_operation_xyz
x,y,z
-x,-y,-z
loop_
_atom_site_type_symbol
_atom_site_label
_atom_site_fract_x
_atom_site_fract_y
_atom_site_fract_z
Si Si1 0.009393 0.870156 0.397306
Si Si2 0.449705 0.263290 0.449715
Si Si3 0.923707 0.291795 0.125162
Si Si4 0.229526 0.600939 0.966971
Si Si5 0.369917 0.792810 0.277301
Si Si6 0.283371 0.763675 0.021540
Si Si7 0.936221 0.412687 0.712174
Si Si8 0.535160 0.089139 0.672947
O O1 0.045167 0.234323 0.329851
O O2 0.735168 0.857258 0.564032
O O3 0.136021 0.753241 0.392824
O O4 0.111088 0.692541 0.307355
O O5 0.661919 0.218352 0.285473
O O6 0.481499 0.617565 0.397213
O O7 0.187370 0.254262 0.593315
O O8 0.500000 0.000000 0.500000
O O9 0.082226 0.994026 0.085184
O O10 0.000000 0.500000 0.000000
O O11 0.982627 0.508072 0.110837
O O12 0.420170 0.407086 0.845351
O O13 0.307623 0.932744 0.853111
O O14 0.263802 0.506324 0.023322
O O15 0.362575 0.783050 0.348803
O O16 0.466405 0.120302 0.157000
O O17 0.234908 0.711380 0.121451
#
# Coordination Sequence:
#
# PCOD9039685 Si02
#       8
#     2   2   2   2   2   2   2   2
#     4  11  27  44  74 105 148 191 239 305 372 435
#     4  11  23  46  70 101 144 190 237 300 369 432
#     4  11  23  41  71 101 140 188 248 301 369 427
#     4  10  23  42  70 100 143 183 249 305 355 437
#     4  10  23  44  72 103 139 189 238 304 369 431
#     4  10  23  43  65 100 143 186 245 299 357 440
#     4  11  27  47  68 109 148 190 248 300 361 450
#     4  10  24  44  70 106 142 184 245 305 362 445
#
# _framework density 25.549246
#
# number of rings (size 3 to 8) (size 9 to 14) (size 15 to 20)
#    0.000    1.500    1.250    2.625   12.250    3.500 
#    2.250    3.125    0.000    0.000    0.000    0.000 
#    0.000    0.000    0.000    0.000    0.000    0.000 
#
# Total GULP energy -89317.277490 kJ/mol
# GULP energy per Si atom -5582.329843 kJ/mol
# Density = 2.549109 g / cm^3
# Si number density = 25.549246 Si / 1000 Ang^3
#
#
#
# Elastic Constant Matrix: (Units=GPa)
#
#
# Indices 1 2 3 4 5 6 
#
# 1 88.4655 22.8379 23.8772 -4.7257 12.2454 19.4704
# 2 22.8379 88.7087 6.8423 4.6718 10.8558 -4.7344
# 3 23.8772 6.8423 88.0852 6.5062 10.9299 -1.9769
# 4 -4.7257 4.6718 6.5062 22.1769 -1.7428 0.5876
# 5 12.2454 10.8558 10.9299 -1.7428 56.4536 6.7830
# 6 19.4704 -4.7344 -1.9769 0.5876 6.7830 38.0766
#
#
#
# Elastic Compliance Matrix: (Units=1/GPa)
#
#
# Indices 1 2 3 4 5 6 
#
# 1 0.016079 -0.004523 -0.004591 0.005929 -0.000461 -0.009032
# 2 -0.004523 0.013125 0.000922 -0.004306 -0.002393 0.004486
# 3 -0.004591 0.000922 0.013296 -0.005356 -0.002360 0.003656
# 4 0.005929 -0.004306 -0.005356 0.049181 0.002708 -0.005087
# 5 -0.000461 -0.002393 -0.002360 0.002708 0.019254 -0.003656
# 6 -0.009032 0.004486 0.003656 -0.005087 -0.003656 0.032359
#
#
# Mechanical properties :
#
#
# Convention : Reuss Voigt Hill
#
# Bulk Modulus (GPa) = 38.28942 41.37489 39.83216
# Shear Modulus (GPa) = 29.69422 37.45488 33.57455
#
# Velocity S-wave (km/s) = 3.41285 3.83298 3.62900
# Velocity P-wave (km/s) = 5.52713 5.98484 5.76053
#
# Compressibility (1/GPa) = 0.02611688
#
# Stress axis : x y z
#
# Youngs Moduli (GPa) = 62.19305 76.18877 75.21131
#
# Poissons Ratio (x) = 0.34463 0.34527
# Poissons Ratio (y) = 0.28132 -0.06937
# Poissons Ratio (z) = 0.28550 -0.07027
#
# Static dielectric constant tensor:
#      x y z
#    x 2.053490 0.043370 -0.030830 
#    y 0.043370 2.247330 -0.032790 
#    z -0.030830 -0.032790 1.990800 
# 
# From -- ./inp_files/620127.got.cif
#   From: 2010.05.17/outbox.cif.g08.bks.cpg/sg2_311_cif.got.tgz:620127.got - 2010.06.03 11:33:40.
