data_PCOD9039619
_publ_section_title
;
Structure prediction by ZEFSAII (Michael W. Deem and Ramdas Pophale) SiO2 
 PCOD9039619
Probable space group: P -1
;
_chemical_formula_sum "Si O2"
_cell_formula_units_Z 12
_cell_length_a 15.229758
_cell_length_b 12.283135
_cell_length_c 9.268557
_cell_angle_alpha 24.667429
_cell_angle_beta 126.744040
_cell_angle_gamma 135.443256
_cell_volume 500.463657
_symmetry_space_group_name_H-M "P -1"
_symmetry_group_IT_number 2
_symmetry_cell_setting 'triclinic'
loop_
_space_group_symop_operation_xyz
x,y,z
-x,-y,-z
loop_
_atom_site_type_symbol
_atom_site_label
_atom_site_fract_x
_atom_site_fract_y
_atom_site_fract_z
Si Si1 0.414166 0.647740 0.286707
Si Si2 0.999611 0.461136 0.875331
Si Si3 0.771488 0.585823 0.885406
Si Si4 0.366792 0.958413 0.381002
Si Si5 0.797816 0.888299 0.810936
Si Si6 0.238295 0.592385 0.431839
O O1 0.500000 0.500000 0.500000
O O2 0.319531 0.567620 0.153442
O O3 0.314204 0.515160 0.481089
O O4 0.500000 0.000000 0.000000
O O5 0.858512 0.325227 0.839843
O O6 0.081059 0.779123 0.487033
O O7 0.000000 0.500000 0.000000
O O8 0.080185 0.293610 0.135328
O O9 0.756007 0.824933 0.677085
O O10 0.728929 0.329835 0.272521
O O11 0.334653 0.878139 0.280034
O O12 0.500000 0.000000 0.500000
O O13 0.331322 0.189126 0.137724
O O14 0.833754 0.681901 0.193601
#
# Coordination Sequence:
#
# PCOD9039619 Si02
#       6
#     2   2   2   2   2   2
#     4  12  29  47  75 110 153 193 251 306 371 443
#     4  11  23  46  68 101 146 183 248 301 378 438
#     4  10  24  44  68 103 138 192 236 307 362 442
#     4  10  23  42  69  96 145 184 243 294 369 439
#     4  10  25  43  69 103 138 188 244 303 370 438
#     4  11  25  44  72 105 138 196 239 310 365 441
#
# _framework density 23.977765999999999
#
# number of rings (size 3 to 8) (size 9 to 14) (size 15 to 20)
#    0.000    1.333    1.667    1.500   11.667    9.333 
#    0.000    0.000    0.000    0.000    0.000    0.000 
#    0.000    0.000    0.000    0.000    0.000    0.000 
#
# Total GULP energy -66841.695568 kJ/mol
# GULP energy per Si atom -5570.141297 kJ/mol
# Density = 2.392319 g / cm^3
# Si number density = 23.977766 Si / 1000 Ang^3
#
#
#
# Elastic Constant Matrix: (Units=GPa)
#
#
# Indices 1 2 3 4 5 6 
#
# 1 178.8915 93.7627 25.6770 32.9833 12.5697 -14.0611
# 2 93.7627 187.7823 32.9711 48.4255 18.3302 -10.8305
# 3 25.6770 32.9711 52.4215 15.6111 -11.0332 -0.1191
# 4 32.9833 48.4255 15.6111 33.8029 1.8719 -0.6961
# 5 12.5697 18.3302 -11.0332 1.8719 37.8417 5.9345
# 6 -14.0611 -10.8305 -0.1191 -0.6961 5.9345 41.9930
#
#
#
# Elastic Compliance Matrix: (Units=1/GPa)
#
#
# Indices 1 2 3 4 5 6 
#
# 1 0.008129 -0.002539 -0.001877 -0.003257 -0.002221 0.002322
# 2 -0.002539 0.010606 -0.003250 -0.010884 -0.005082 0.002414
# 3 -0.001877 -0.003250 0.026114 -0.006221 0.010588 -0.002992
# 4 -0.003257 -0.010884 -0.006221 0.051015 0.002555 -0.003431
# 5 -0.002221 -0.005082 0.010588 0.002555 0.033642 -0.006736
# 6 0.002322 0.002414 -0.002992 -0.003431 -0.006736 0.026100
#
#
# Mechanical properties :
#
#
# Convention : Reuss Voigt Hill
#
# Bulk Modulus (GPa) = 33.87810 80.43522 57.15666
# Shear Modulus (GPa) = 27.65843 40.50650 34.08246
#
# Velocity S-wave (km/s) = 3.40001 4.11461 3.77426
# Velocity P-wave (km/s) = 5.43811 7.49613 6.54847
#
# Compressibility (1/GPa) = 0.02951759
#
# Stress axis : x y z
#
# Youngs Moduli (GPa) = 123.01392 94.28924 38.29379
#
# Poissons Ratio (x) = 0.23937 0.07188
# Poissons Ratio (y) = 0.31230 0.12444
# Poissons Ratio (z) = 0.23091 0.30641
#
# Static dielectric constant tensor:
#      x y z
#    x 1.696650 -0.216970 0.180030 
#    y -0.216970 2.028670 -0.235380 
#    z 0.180030 -0.235380 2.216300 
# 
# From -- ./inp_files/21105.got.cif
#   From: 2010.05.17/outbox.cif.g08.bks.cpg/sg2_11_cif.got.tgz:21105.got - 2010.06.03 11:33:40.
