data_PCOD9039978
_publ_section_title
;
Structure prediction by ZEFSAII (Michael W. Deem and Ramdas Pophale) SiO2 
 PCOD9039978
Probable space group: P -1
;
_chemical_formula_sum "Si O2"
_cell_formula_units_Z 16
_cell_length_a 5.266556
_cell_length_b 9.498819
_cell_length_c 18.295310
_cell_angle_alpha 130.729333
_cell_angle_beta 78.391946
_cell_angle_gamma 84.249303
_cell_volume 645.504114
_symmetry_space_group_name_H-M "P -1"
_symmetry_group_IT_number 2
_symmetry_cell_setting 'triclinic'
loop_
_space_group_symop_operation_xyz
x,y,z
-x,-y,-z
loop_
_atom_site_type_symbol
_atom_site_label
_atom_site_fract_x
_atom_site_fract_y
_atom_site_fract_z
Si Si1 0.554537 0.688408 0.863240
Si Si2 0.341002 0.360948 0.740532
Si Si3 0.742145 0.994866 0.429084
Si Si4 0.638791 0.664531 0.530364
Si Si5 0.205474 0.994742 0.331851
Si Si6 0.351400 0.097300 0.938085
Si Si7 0.918075 0.432756 0.309363
Si Si8 0.967137 0.013461 0.818068
O O1 0.367424 0.552468 0.844688
O O2 0.800193 0.598242 0.761149
O O3 0.370333 0.897733 0.913594
O O4 0.705441 0.730739 0.941211
O O5 0.551639 0.190025 0.717828
O O6 0.335068 0.452263 0.689397
O O7 0.151172 0.228078 0.683570
O O8 0.584997 0.166507 0.442134
O O9 0.500000 0.000000 0.500000
O O10 0.025271 0.041993 0.433251
O O11 0.500000 0.500000 0.500000
O O12 0.889204 0.555561 0.426303
O O13 0.728159 0.807381 0.629020
O O14 0.057281 0.946382 0.252890
O O15 0.657097 0.069599 0.883287
O O16 0.143856 0.117733 0.890457
O O17 0.900009 0.218498 0.254877
#
# Coordination Sequence:
#
# PCOD9039978 Si02
#       8
#     2   2   2   2   2   2   2   2
#     4  10  23  42  73 107 139 184 242 312 364 433
#     4  11  23  42  68 102 140 187 244 296 363 427
#     4  11  24  43  66  98 145 193 246 296 358 431
#     4  11  26  43  70 107 147 193 243 299 368 444
#     4  11  28  45  71  99 154 195 241 301 368 442
#     4  10  24  44  77 107 142 186 248 309 379 431
#     4  11  23  40  72 101 145 182 245 298 365 430
#     4  11  25  46  73 105 145 192 240 305 373 444
#
# _framework density 24.786826999999999
#
# number of rings (size 3 to 8) (size 9 to 14) (size 15 to 20)
#    0.000    1.250    2.500    1.500    8.750    4.500 
#    0.000    1.250    0.000    0.000    0.000    0.000 
#    0.000    0.000    0.000    0.000    0.000    0.000 
#
# Total GULP energy -89119.420136 kJ/mol
# GULP energy per Si atom -5569.963758 kJ/mol
# Density = 2.473041 g / cm^3
# Si number density = 24.786827 Si / 1000 Ang^3
#
#
#
# Elastic Constant Matrix: (Units=GPa)
#
#
# Indices 1 2 3 4 5 6 
#
# 1 76.2060 21.0245 23.8252 -2.2524 20.3442 10.2156
# 2 21.0245 118.5984 17.1981 7.1869 5.7064 8.9206
# 3 23.8252 17.1981 59.2953 6.5336 9.1324 24.4921
# 4 -2.2524 7.1869 6.5336 33.5610 1.5337 12.7720
# 5 20.3442 5.7064 9.1324 1.5337 35.1657 -5.0733
# 6 10.2156 8.9206 24.4921 12.7720 -5.0733 40.3625
#
#
#
# Elastic Compliance Matrix: (Units=1/GPa)
#
#
# Indices 1 2 3 4 5 6 
#
# 1 0.018374 -0.002152 -0.003797 0.004657 -0.010164 -0.004622
# 2 -0.002152 0.009144 -0.001708 -0.001855 0.000313 0.000187
# 3 -0.003797 -0.001708 0.026350 0.001348 -0.006725 -0.015922
# 4 0.004657 -0.001855 0.001348 0.035738 -0.006276 -0.013684
# 5 -0.010164 0.000313 -0.006725 -0.006276 0.038216 0.013373
# 6 -0.004622 0.000187 -0.015922 -0.013684 0.013373 0.041577
#
#
# Mechanical properties :
#
#
# Convention : Reuss Voigt Hill
#
# Bulk Modulus (GPa) = 25.93839 42.02172 33.98006
# Shear Modulus (GPa) = 25.30808 34.62129 29.96469
#
# Velocity S-wave (km/s) = 3.19882 3.74138 3.48069
# Velocity P-wave (km/s) = 4.91229 5.97109 5.46738
#
# Compressibility (1/GPa) = 0.03855289
#
# Stress axis : x y z
#
# Youngs Moduli (GPa) = 54.42511 109.35650 37.95070
#
# Poissons Ratio (x) = 0.23534 0.14411
# Poissons Ratio (y) = 0.11713 0.06483
# Poissons Ratio (z) = 0.20666 0.18682
#
# Static dielectric constant tensor:
#      x y z
#    x 2.269630 0.062240 0.058380 
#    y 0.062240 1.962140 -0.048400 
#    z 0.058380 -0.048400 2.076750 
# 
# From -- ./inp_files/548399.got.cif
#   From: 2010.05.17/outbox.cif.g08.bks.cpg/sg2_275_cif.got.tgz:548399.got - 2010.06.03 11:33:40.
