data_PCOD9039172
_publ_section_title
;
Structure prediction by ZEFSAII (Michael W. Deem and Ramdas Pophale) SiO2 
 PCOD9039172
Probable space group: P -1
;
_chemical_formula_sum "Si O2"
_cell_formula_units_Z 14
_cell_length_a 6.729087
_cell_length_b 11.369751
_cell_length_c 12.249368
_cell_angle_alpha 57.491769
_cell_angle_beta 119.433240
_cell_angle_gamma 136.354359
_cell_volume 536.956906
_symmetry_space_group_name_H-M "P -1"
_symmetry_group_IT_number 2
_symmetry_cell_setting 'triclinic'
loop_
_space_group_symop_operation_xyz
x,y,z
-x,-y,-z
loop_
_atom_site_type_symbol
_atom_site_label
_atom_site_fract_x
_atom_site_fract_y
_atom_site_fract_z
Si Si1 0.586764 0.691764 0.193572
Si Si2 0.109695 0.438607 0.754411
Si Si3 0.760909 0.208654 0.991113
Si Si4 0.492531 0.970742 0.644120
Si Si5 0.132733 0.377516 0.377455
Si Si6 0.770820 0.808758 0.761405
Si Si7 0.259735 0.128592 0.629359
O O1 0.849855 0.693225 0.228913
O O2 0.413698 0.721857 0.044861
O O3 0.351972 0.500282 0.280741
O O4 0.668013 0.828552 0.244706
O O5 0.446658 0.620492 0.762817
O O6 0.946456 0.338076 0.873254
O O7 0.933210 0.506847 0.628329
O O8 0.004828 0.219765 0.119550
O O9 0.500000 0.000000 0.000000
O O10 0.718505 0.934118 0.750588
O O11 0.179482 0.781937 0.675127
O O12 0.500000 0.000000 0.500000
O O13 0.483647 0.111668 0.637380
O O14 0.248294 0.285290 0.514479
O O15 0.935137 0.934169 0.635319
#
# Coordination Sequence:
#
# PCOD9039172 Si02
#       7
#     2   2   2   2   2   2   2
#     4  11  25  44  66 101 141 182 224 288 341 404
#     4  10  25  44  72 101 138 182 235 274 346 409
#     4  11  24  48  68 101 139 177 234 290 341 398
#     4  11  24  42  68 101 134 182 231 277 339 411
#     4  10  23  42  66  98 143 177 226 284 332 409
#     4  11  24  44  72 102 136 185 231 282 341 406
#     4  12  24  41  69 104 141 180 227 281 347 400
#
# _framework density 26.072856000000002
#
# number of rings (size 3 to 8) (size 9 to 14) (size 15 to 20)
#    0.000    1.143    2.857    2.143    4.000    5.143 
#    0.000    0.000    0.000    0.000    0.000    0.000 
#    0.000    0.000    0.000    0.000    0.000    0.000 
#
# Total GULP energy -78223.318003 kJ/mol
# GULP energy per Si atom -5587.379857 kJ/mol
# Density = 2.601351 g / cm^3
# Si number density = 26.072856 Si / 1000 Ang^3
#
#
#
# Elastic Constant Matrix: (Units=GPa)
#
#
# Indices 1 2 3 4 5 6 
#
# 1 218.6795 42.5745 66.2084 -0.9827 52.2301 -26.2167
# 2 42.5745 114.4160 20.4590 -22.7550 0.8487 9.1458
# 3 66.2084 20.4590 134.5059 -22.1115 48.2595 -8.0368
# 4 -0.9827 -22.7550 -22.1115 38.1254 11.6713 0.2032
# 5 52.2301 0.8487 48.2595 11.6713 58.0231 -14.6587
# 6 -26.2167 9.1458 -8.0368 0.2032 -14.6587 59.8786
#
#
#
# Elastic Compliance Matrix: (Units=1/GPa)
#
#
# Indices 1 2 3 4 5 6 
#
# 1 0.006755 -0.002591 -0.001536 -0.001049 -0.004005 0.002170
# 2 -0.002591 0.011268 0.000913 0.007461 -0.000841 -0.002964
# 3 -0.001536 0.000913 0.015696 0.014269 -0.015180 -0.002470
# 4 -0.001049 0.007461 0.014269 0.045533 -0.021479 -0.005096
# 5 -0.004005 -0.000841 -0.015180 -0.021479 0.039323 0.006037
# 6 0.002170 -0.002964 -0.002470 -0.005096 0.006037 0.019267
#
#
# Mechanical properties :
#
#
# Convention : Reuss Voigt Hill
#
# Bulk Modulus (GPa) = 36.64404 80.67614 58.66009
# Shear Modulus (GPa) = 32.60127 53.76273 43.18200
#
# Velocity S-wave (km/s) = 3.53992 4.54587 4.07406
# Velocity P-wave (km/s) = 5.54915 7.65265 6.68416
#
# Compressibility (1/GPa) = 0.02728957
#
# Stress axis : x y z
#
# Youngs Moduli (GPa) = 148.04772 88.74689 63.70876
#
# Poissons Ratio (x) = 0.22994 0.09789
# Poissons Ratio (y) = 0.38359 -0.05815
# Poissons Ratio (z) = 0.22747 -0.08100
#
# Static dielectric constant tensor:
#      x y z
#    x 2.106770 -0.060120 0.005270 
#    y -0.060120 2.175440 0.065920 
#    z 0.005270 0.065920 2.117400 
# 
# From -- ./inp_files/368082.got.cif
#   From: 2010.05.17/outbox.cif.g08.bks.cpg/sg2_185_cif.got.tgz:368082.got - 2010.06.03 11:33:40.
