data_PCOD9039528
_publ_section_title
;
Structure prediction by ZEFSAII (Michael W. Deem and Ramdas Pophale) SiO2 
 PCOD9039528
Probable space group: P -1
;
_chemical_formula_sum "Si O2"
_cell_formula_units_Z 14
_cell_length_a 9.963413
_cell_length_b 8.990763
_cell_length_c 11.197088
_cell_angle_alpha 73.056900
_cell_angle_beta 121.094169
_cell_angle_gamma 135.065691
_cell_volume 602.061610
_symmetry_space_group_name_H-M "P -1"
_symmetry_group_IT_number 2
_symmetry_cell_setting 'triclinic'
loop_
_space_group_symop_operation_xyz
x,y,z
-x,-y,-z
loop_
_atom_site_type_symbol
_atom_site_label
_atom_site_fract_x
_atom_site_fract_y
_atom_site_fract_z
Si Si1 0.003683 0.030859 0.639885
Si Si2 0.798770 0.282757 0.818060
Si Si3 0.445679 0.455745 0.843890
Si Si4 0.542107 0.182922 0.208558
Si Si5 0.058686 0.703825 0.532608
Si Si6 0.273120 0.617219 0.994590
Si Si7 0.275787 0.435409 0.390647
O O1 0.891223 0.123240 0.576126
O O2 0.234991 0.220127 0.759918
O O3 0.879690 0.798149 0.688451
O O4 0.000000 0.000000 0.500000
O O5 0.774489 0.289729 0.948032
O O6 0.706989 0.381224 0.699856
O O7 0.668254 0.040997 0.786381
O O8 0.048672 0.437676 0.866364
O O9 0.428747 0.626518 0.765120
O O10 0.500000 0.500000 0.000000
O O11 0.444985 0.784890 0.936120
O O12 0.732461 0.189795 0.318854
O O13 0.853697 0.614882 0.535975
O O14 0.000000 0.500000 0.500000
O O15 0.357679 0.515893 0.117912
O O16 0.500000 0.500000 0.500000
#
# Coordination Sequence:
#
# PCOD9039528 Si02
#       7
#     2   2   2   2   2   2   2
#     4  10  23  42  72  97 132 189 231 285 352 422
#     4  11  24  41  68 100 132 183 230 287 343 417
#     4  10  23  42  69 100 136 181 228 283 354 419
#     4  11  22  43  68  98 138 177 228 285 356 413
#     4  11  22  42  71  96 135 182 229 287 359 412
#     4  10  24  42  64  98 140 179 233 278 346 421
#     4  11  25  43  67 106 141 178 244 295 346 425
#
# _framework density 23.253435
#
# number of rings (size 3 to 8) (size 9 to 14) (size 15 to 20)
#    0.000    1.429    2.857    1.286    8.000    5.143 
#    0.000    8.571    0.000    0.000    0.000    0.000 
#    0.000    0.000    0.000    0.000    0.000    0.000 
#
# Total GULP energy -78094.194568 kJ/mol
# GULP energy per Si atom -5578.156755 kJ/mol
# Density = 2.320051 g / cm^3
# Si number density = 23.253435 Si / 1000 Ang^3
#
#
#
# Elastic Constant Matrix: (Units=GPa)
#
#
# Indices 1 2 3 4 5 6 
#
# 1 90.4312 40.6337 13.1758 1.9025 31.6266 -9.2825
# 2 40.6337 184.6413 44.4740 6.4940 13.3195 -9.7071
# 3 13.1758 44.4740 78.8083 8.0254 25.7931 2.3594
# 4 1.9025 6.4940 8.0254 34.6280 -2.5125 1.0881
# 5 31.6266 13.3195 25.7931 -2.5125 46.3950 0.2457
# 6 -9.2825 -9.7071 2.3594 1.0881 0.2457 25.4927
#
#
#
# Elastic Compliance Matrix: (Units=1/GPa)
#
#
# Indices 1 2 3 4 5 6 
#
# 1 0.017001 -0.003273 0.003187 -0.002123 -0.012562 0.004861
# 2 -0.003273 0.007100 -0.004370 -0.000009 0.002612 0.001892
# 3 0.003187 -0.004370 0.018973 -0.004540 -0.011701 -0.001953
# 4 -0.002123 -0.000009 -0.004540 0.030512 0.005635 -0.001713
# 5 -0.012562 0.002612 -0.011701 0.005635 0.036194 -0.003086
# 6 0.004861 0.001892 -0.001953 -0.001713 -0.003086 0.042001
#
#
# Mechanical properties :
#
#
# Convention : Reuss Voigt Hill
#
# Bulk Modulus (GPa) = 29.27221 61.16086 45.21653
# Shear Modulus (GPa) = 29.05607 38.34295 33.69951
#
# Velocity S-wave (km/s) = 3.53872 4.06509 3.81100
# Velocity P-wave (km/s) = 5.41409 6.95645 6.23316
#
# Compressibility (1/GPa) = 0.03416210
#
# Stress axis : x y z
#
# Youngs Moduli (GPa) = 58.81871 140.84342 52.70669
#
# Poissons Ratio (x) = 0.46092 -0.16795
# Poissons Ratio (y) = 0.19249 0.23033
# Poissons Ratio (z) = -0.18743 0.61550
#
# Static dielectric constant tensor:
#      x y z
#    x 1.947760 -0.077850 -0.089080 
#    y -0.077850 2.037260 0.100470 
#    z -0.089080 0.100470 2.165530 
# 
# From -- ./inp_files/416941.got.cif
#   From: 2010.05.17/outbox.cif.g08.bks.cpg/sg2_209_cif.got.tgz:416941.got - 2010.06.03 11:33:40.
