data_PCOD9039605
_publ_section_title
;
Structure prediction by ZEFSAII (Michael W. Deem and Ramdas Pophale) SiO2 
 PCOD9039605
Probable space group: P -1
;
_chemical_formula_sum "Si O2"
_cell_formula_units_Z 16
_cell_length_a 26.074819
_cell_length_b 5.857408
_cell_length_c 12.335358
_cell_angle_alpha 47.116842
_cell_angle_beta 150.366829
_cell_angle_gamma 120.550199
_cell_volume 664.326286
_symmetry_space_group_name_H-M "P -1"
_symmetry_group_IT_number 2
_symmetry_cell_setting 'triclinic'
loop_
_space_group_symop_operation_xyz
x,y,z
-x,-y,-z
loop_
_atom_site_type_symbol
_atom_site_label
_atom_site_fract_x
_atom_site_fract_y
_atom_site_fract_z
Si Si1 0.208132 0.410510 0.525576
Si Si2 0.171616 0.323598 0.895162
Si Si3 0.906657 0.748420 0.811088
Si Si4 0.076693 0.103679 0.988063
Si Si5 0.502005 0.624045 0.632003
Si Si6 0.615344 0.690220 0.616506
Si Si7 0.550616 0.652807 0.945587
Si Si8 0.884826 0.958880 0.344933
O O1 0.199754 0.211780 0.464569
O O2 0.133543 0.286120 0.515862
O O3 0.161369 0.774422 0.280653
O O4 0.326204 0.361937 0.802473
O O5 0.165458 0.181985 0.809317
O O6 0.160282 0.698769 0.786094
O O7 0.084797 0.211707 0.846431
O O8 0.283441 0.178329 0.207976
O O9 0.898922 0.658575 0.951137
O O10 0.000000 0.500000 0.000000
O O11 0.958079 0.053905 0.802847
O O12 0.587267 0.508097 0.730722
O O13 0.389758 0.553021 0.412046
O O14 0.537453 0.494402 0.856472
O O15 0.500000 0.000000 0.500000
O O16 0.521707 0.990816 0.315169
O O17 0.500000 0.500000 0.000000
O O18 0.000000 0.000000 0.500000
#
# Coordination Sequence:
#
# PCOD9039605 Si02
#       8
#     2   2   2   2   2   2   2   2
#     4  11  25  42  70 101 144 193 230 296 371 417
#     4  12  28  45  76 106 142 193 240 292 361 430
#     4   9  21  40  69  95 133 182 243 284 356 426
#     4  10  23  42  70  96 137 187 245 287 350 438
#     4   9  21  40  66  89 135 175 232 280 347 417
#     4  10  23  42  69  95 131 185 235 282 343 431
#     4  11  24  41  66 100 142 170 234 296 351 408
#     4  12  30  48  72 111 153 182 238 303 363 422
#
# _framework density 24.084551999999999
#
# number of rings (size 3 to 8) (size 9 to 14) (size 15 to 20)
#    0.000    1.500    0.000    2.625   19.250    2.500 
#    0.000    0.000    0.000    0.000    0.000    0.000 
#    0.000    0.000    0.000    0.000    0.000    0.000 
#
# Total GULP energy -89219.169599 kJ/mol
# GULP energy per Si atom -5576.198100 kJ/mol
# Density = 2.402973 g / cm^3
# Si number density = 24.084552 Si / 1000 Ang^3
#
#
#
# Elastic Constant Matrix: (Units=GPa)
#
#
# Indices 1 2 3 4 5 6 
#
# 1 91.9580 30.0300 26.5580 5.8786 -39.1769 0.4150
# 2 30.0300 111.2579 57.4048 16.3775 -11.7847 -18.8406
# 3 26.5580 57.4048 96.4422 19.9721 -10.3695 -14.2868
# 4 5.8786 16.3775 19.9721 61.7560 -7.3479 -11.4790
# 5 -39.1769 -11.7847 -10.3695 -7.3479 44.4924 8.8356
# 6 0.4150 -18.8406 -14.2868 -11.4790 8.8356 39.7241
#
#
#
# Elastic Compliance Matrix: (Units=1/GPa)
#
#
# Indices 1 2 3 4 5 6 
#
# 1 0.020357 -0.003384 -0.002808 0.000766 0.017804 -0.006567
# 2 -0.003384 0.014099 -0.006872 -0.000578 -0.001835 0.004492
# 3 -0.002808 -0.006872 0.015970 -0.002874 -0.001444 0.002004
# 4 0.000766 -0.000578 -0.002874 0.018098 0.002158 0.003434
# 5 0.017804 -0.001835 -0.001444 0.002158 0.039626 -0.009766
# 6 -0.006567 0.004492 0.002004 0.003434 -0.009766 0.031258
#
#
# Mechanical properties :
#
#
# Convention : Reuss Voigt Hill
#
# Bulk Modulus (GPa) = 41.16057 58.62708 49.89382
# Shear Modulus (GPa) = 28.79610 41.57219 35.18414
#
# Velocity S-wave (km/s) = 3.46153 4.15914 3.82627
# Velocity P-wave (km/s) = 5.75356 6.88909 6.34677
#
# Compressibility (1/GPa) = 0.02429510
#
# Stress axis : x y z
#
# Youngs Moduli (GPa) = 49.12412 70.92836 62.61915
#
# Poissons Ratio (x) = 0.24005 0.17585
# Poissons Ratio (y) = 0.16626 0.43033
# Poissons Ratio (z) = 0.13796 0.48743
#
# Static dielectric constant tensor:
#      x y z
#    x 2.177090 0.061750 0.073280 
#    y 0.061750 2.354560 0.032920 
#    z 0.073280 0.032920 1.974380 
# 
# From -- ./inp_files/475977.got.cif
#   From: 2010.05.17/outbox.cif.g08.bks.cpg/sg2_238_cif.got.tgz:475977.got - 2010.06.03 11:33:40.
