data_PCOD9039989
_publ_section_title
;
Structure prediction by ZEFSAII (Michael W. Deem and Ramdas Pophale) SiO2 
 PCOD9039989
Probable space group: P -1
;
_chemical_formula_sum "Si O2"
_cell_formula_units_Z 14
_cell_length_a 5.317539
_cell_length_b 16.152178
_cell_length_c 8.157838
_cell_angle_alpha 121.189946
_cell_angle_beta 98.198294
_cell_angle_gamma 105.266642
_cell_volume 544.206689
_symmetry_space_group_name_H-M "P -1"
_symmetry_group_IT_number 2
_symmetry_cell_setting 'triclinic'
loop_
_space_group_symop_operation_xyz
x,y,z
-x,-y,-z
loop_
_atom_site_type_symbol
_atom_site_label
_atom_site_fract_x
_atom_site_fract_y
_atom_site_fract_z
Si Si1 0.040423 0.256577 0.158895
Si Si2 0.388280 0.592108 0.559737
Si Si3 0.256716 0.983867 0.093098
Si Si4 0.828682 0.902346 0.497703
Si Si5 0.541564 0.315828 0.756312
Si Si6 0.039138 0.742111 0.482157
Si Si7 0.045658 0.566326 0.830399
O O1 0.358085 0.294960 0.288634
O O2 0.908635 0.270785 0.335380
O O3 0.047316 0.335603 0.094228
O O4 0.873825 0.136185 0.976770
O O5 0.500000 0.500000 0.500000
O O6 0.203230 0.546535 0.333106
O O7 0.211137 0.579591 0.691894
O O8 0.324445 0.058907 0.335741
O O9 0.500000 0.000000 0.000000
O O10 0.000000 0.000000 0.000000
O O11 0.374100 0.203881 0.724532
O O12 0.025888 0.855205 0.562662
O O13 0.000000 0.000000 0.500000
O O14 0.280751 0.333302 0.670842
O O15 0.737070 0.277486 0.625076
O O16 0.740423 0.411520 0.981474
#
# Coordination Sequence:
#
# PCOD9039989 Si02
#       7
#     2   2   2   2   2   2   2
#     4  11  24  41  72  94 137 177 233 277 342 393
#     4   9  22  42  69 100 130 167 232 286 340 405
#     4  12  26  44  66 101 141 186 233 280 336 411
#     4  10  25  41  66  96 141 183 234 276 342 404
#     4  10  24  43  65  93 139 170 223 275 348 396
#     4  10  24  44  63  96 140 177 217 284 335 402
#     4  10  23  42  73  97 130 174 233 282 343 408
#
# _framework density 25.725518999999998
#
# number of rings (size 3 to 8) (size 9 to 14) (size 15 to 20)
#    0.857    0.857    1.429    0.857   12.000    0.571 
#    0.000    1.429    0.000    0.000    0.000    0.000 
#    0.000    0.000    0.000    0.000    0.000    0.000 
#
# Total GULP energy -78210.131205 kJ/mol
# GULP energy per Si atom -5586.437943 kJ/mol
# Density = 2.566697 g / cm^3
# Si number density = 25.725519 Si / 1000 Ang^3
#
#
#
# Elastic Constant Matrix: (Units=GPa)
#
#
# Indices 1 2 3 4 5 6 
#
# 1 118.4630 25.6879 20.9317 10.2531 -0.9626 14.3403
# 2 25.6879 92.2179 10.6943 14.6351 -5.6382 2.5970
# 3 20.9317 10.6943 102.2122 13.9304 16.5109 -2.7460
# 4 10.2531 14.6351 13.9304 41.8111 3.9802 9.8528
# 5 -0.9626 -5.6382 16.5109 3.9802 42.7092 -3.9146
# 6 14.3403 2.5970 -2.7460 9.8528 -3.9146 29.2257
#
#
#
# Elastic Compliance Matrix: (Units=1/GPa)
#
#
# Indices 1 2 3 4 5 6 
#
# 1 0.009883 -0.002408 -0.001962 0.000199 0.000199 -0.004860
# 2 -0.002408 0.012336 -0.000559 -0.004178 0.002341 0.001755
# 3 -0.001962 -0.000559 0.011419 -0.003385 -0.003970 0.002695
# 4 0.000199 -0.004178 -0.003385 0.029152 -0.002896 -0.010260
# 5 0.000199 0.002341 -0.003970 -0.002896 0.025877 0.003764
# 6 -0.004860 0.001755 0.002695 -0.010260 0.003764 0.040662
#
#
# Mechanical properties :
#
#
# Convention : Reuss Voigt Hill
#
# Bulk Modulus (GPa) = 42.05251 47.50232 44.77742
# Shear Modulus (GPa) = 33.98745 39.78784 36.88764
#
# Velocity S-wave (km/s) = 3.63872 3.93699 3.79079
# Velocity P-wave (km/s) = 5.83402 6.25872 6.05010
#
# Compressibility (1/GPa) = 0.02377979
#
# Stress axis : x y z
#
# Youngs Moduli (GPa) = 101.18411 81.06249 87.57467
#
# Poissons Ratio (x) = 0.19520 0.17181
# Poissons Ratio (y) = 0.24365 0.04897
# Poissons Ratio (z) = 0.19851 0.04533
#
# Static dielectric constant tensor:
#      x y z
#    x 2.214460 -0.076200 -0.009460 
#    y -0.076200 2.152750 0.000800 
#    z -0.009460 0.000800 2.029800 
# 
# From -- ./inp_files/138219.got.cif
#   From: 2010.05.17/outbox.cif.g08.bks.cpg/sg2_70_cif.got.tgz:138219.got - 2010.06.03 11:33:40.
