data_PCOD9039534
_publ_section_title
;
Structure prediction by ZEFSAII (Michael W. Deem and Ramdas Pophale) SiO2 
 PCOD9039534
Probable space group: P -1
;
_chemical_formula_sum "Si O2"
_cell_formula_units_Z 16
_cell_length_a 5.894469
_cell_length_b 25.551048
_cell_length_c 18.108026
_cell_angle_alpha 18.689499
_cell_angle_beta 48.630429
_cell_angle_gamma 51.366782
_cell_volume 655.825004
_symmetry_space_group_name_H-M "P -1"
_symmetry_group_IT_number 2
_symmetry_cell_setting 'triclinic'
loop_
_space_group_symop_operation_xyz
x,y,z
-x,-y,-z
loop_
_atom_site_type_symbol
_atom_site_label
_atom_site_fract_x
_atom_site_fract_y
_atom_site_fract_z
Si Si1 0.739129 0.127104 0.907516
Si Si2 0.768012 0.263615 0.882632
Si Si3 0.351071 0.827493 0.359793
Si Si4 0.720436 0.382533 0.199585
Si Si5 0.180163 0.057143 0.617684
Si Si6 0.306069 0.674761 0.877407
Si Si7 0.144100 0.953375 0.613584
Si Si8 0.561724 0.624011 0.449580
O O1 0.725222 0.179432 0.924912
O O2 0.713849 0.298213 0.641064
O O3 0.465883 0.012459 0.092662
O O4 0.000000 0.000000 0.000000
O O5 0.576528 0.428707 0.713668
O O6 0.120981 0.322119 0.729067
O O7 0.698933 0.118902 0.148418
O O8 0.359637 0.735795 0.558495
O O9 0.520837 0.717255 0.411637
O O10 0.995689 0.863675 0.380576
O O11 0.830612 0.312283 0.191609
O O12 0.425659 0.494541 0.102855
O O13 0.000000 0.500000 0.000000
O O14 0.991986 0.017245 0.635978
O O15 0.412369 0.200749 0.357242
O O16 0.125731 0.756585 0.873122
O O17 0.500000 0.000000 0.500000
O O18 0.000000 0.000000 0.500000
#
# Coordination Sequence:
#
# PCOD9039534 Si02
#       8
#     2   2   2   2   2   2   2   2
#     4  12  23  44  72  99 134 185 236 292 361 430
#     4  11  24  44  68  98 140 174 235 290 361 421
#     4  12  23  42  71  97 137 180 239 282 363 425
#     4  11  23  41  66 100 139 179 228 300 348 429
#     4  11  22  43  73 101 135 189 239 292 356 444
#     4  10  23  43  67  96 139 184 236 290 359 422
#     4  10  23  42  69 100 139 183 238 295 356 425
#     4  11  25  44  65 100 139 178 224 305 354 424
#
# _framework density 24.396750000000001
#
# number of rings (size 3 to 8) (size 9 to 14) (size 15 to 20)
#    0.000    1.000    3.750    3.000    3.500    1.000 
#    0.000    1.250    0.000    0.000    0.000    0.000 
#    0.000    0.000    0.000    0.000    0.000    0.000 
#
# Total GULP energy -89158.450001 kJ/mol
# GULP energy per Si atom -5572.403125 kJ/mol
# Density = 2.434122 g / cm^3
# Si number density = 24.396750 Si / 1000 Ang^3
#
#
#
# Elastic Constant Matrix: (Units=GPa)
#
#
# Indices 1 2 3 4 5 6 
#
# 1 57.7538 27.8095 23.3552 -12.2503 22.5014 17.2659
# 2 27.8095 90.1427 37.6396 -30.2717 7.0292 14.9177
# 3 23.3552 37.6396 132.4660 -29.1044 43.9058 2.9474
# 4 -12.2503 -30.2717 -29.1044 40.4477 -0.9061 -5.3427
# 5 22.5014 7.0292 43.9058 -0.9061 48.0021 -1.6500
# 6 17.2659 14.9177 2.9474 -5.3427 -1.6500 41.2730
#
#
#
# Elastic Compliance Matrix: (Units=1/GPa)
#
#
# Indices 1 2 3 4 5 6 
#
# 1 0.029160 -0.005604 0.003092 0.005136 -0.015936 -0.010366
# 2 -0.005604 0.017151 -0.002797 0.008871 0.002759 -0.002396
# 3 0.003092 -0.002797 0.014419 0.008806 -0.014088 -0.000736
# 4 0.005136 0.008871 0.008806 0.038821 -0.011076 -0.001401
# 5 -0.015936 0.002759 -0.014088 -0.011076 0.040811 0.006873
# 6 -0.010366 -0.002396 -0.000736 -0.001401 0.006873 0.029577
#
#
# Mechanical properties :
#
#
# Convention : Reuss Voigt Hill
#
# Bulk Modulus (GPa) = 19.95532 50.88569 35.42050
# Shear Modulus (GPa) = 25.34680 38.71511 32.03095
#
# Velocity S-wave (km/s) = 3.22676 3.98791 3.62735
# Velocity P-wave (km/s) = 4.69892 6.48902 5.66512
#
# Compressibility (1/GPa) = 0.05011196
#
# Stress axis : x y z
#
# Youngs Moduli (GPa) = 34.29298 58.30546 69.35182
#
# Poissons Ratio (x) = 0.32677 -0.21447
# Poissons Ratio (y) = 0.19219 0.19401
# Poissons Ratio (z) = -0.10605 0.16311
#
# Static dielectric constant tensor:
#      x y z
#    x 2.158430 -0.193700 0.026870 
#    y -0.193700 2.319660 0.039170 
#    z 0.026870 0.039170 1.906010 
# 
# From -- ./inp_files/106616.got.cif
#   From: 2010.05.17/outbox.cif.g08.bks.cpg/sg2_54_cif.got.tgz:106616.got - 2010.06.03 11:33:40.
