data_PCOD9039342
_publ_section_title
;
Structure prediction by ZEFSAII (Michael W. Deem and Ramdas Pophale) SiO2 
 PCOD9039342
Probable space group: P -1
;
_chemical_formula_sum "Si O2"
_cell_formula_units_Z 14
_cell_length_a 6.789267
_cell_length_b 20.280609
_cell_length_c 11.446753
_cell_angle_alpha 28.805403
_cell_angle_beta 52.826696
_cell_angle_gamma 66.081961
_cell_volume 572.672960
_symmetry_space_group_name_H-M "P -1"
_symmetry_group_IT_number 2
_symmetry_cell_setting 'triclinic'
loop_
_space_group_symop_operation_xyz
x,y,z
-x,-y,-z
loop_
_atom_site_type_symbol
_atom_site_label
_atom_site_fract_x
_atom_site_fract_y
_atom_site_fract_z
Si Si1 0.792370 0.700756 0.842052
Si Si2 0.488244 0.199684 0.027447
Si Si3 0.300688 0.606043 0.539522
Si Si4 0.844878 0.014936 0.152754
Si Si5 0.245568 0.361439 0.317595
Si Si6 0.313615 0.913757 0.423648
Si Si7 0.375132 0.145341 0.796394
O O1 0.824480 0.709764 0.676850
O O2 0.061220 0.780435 0.692760
O O3 0.592722 0.774026 0.855332
O O4 0.697160 0.532987 0.173348
O O5 0.527819 0.345066 0.714341
O O6 0.748743 0.155063 0.985617
O O7 0.278911 0.058528 0.263849
O O8 0.424171 0.749129 0.351593
O O9 0.001886 0.587372 0.645749
O O10 0.092103 0.045833 0.101561
O O11 0.552361 0.898943 0.442852
O O12 0.000000 0.000000 0.000000
O O13 0.304669 0.259819 0.553923
O O14 0.500000 0.500000 0.000000
O O15 0.480471 0.940446 0.202605
#
# Coordination Sequence:
#
# PCOD9039342 Si02
#       7
#     2   2   2   2   2   2   2
#     4  12  23  42  66 102 136 171 218 274 338 386
#     4  10  23  42  67  99 136 176 210 271 341 390
#     4  12  24  42  70  96 132 178 225 267 325 395
#     4   8  18  39  66  92 132 168 223 267 312 399
#     4  12  23  41  67  97 134 175 224 274 322 386
#     4   9  20  41  68  93 136 166 220 272 326 394
#     4  11  20  42  67 100 125 172 232 272 312 391
#
# _framework density 24.446762
#
# number of rings (size 3 to 8) (size 9 to 14) (size 15 to 20)
#    0.857    0.571    4.286    2.143    0.000    0.571 
#    7.714    6.429    0.000    0.000    0.000    0.000 
#    0.000    0.000    0.000    0.000    0.000    0.000 
#
# Total GULP energy -78004.747068 kJ/mol
# GULP energy per Si atom -5571.767648 kJ/mol
# Density = 2.439112 g / cm^3
# Si number density = 24.446762 Si / 1000 Ang^3
#
#
#
# Elastic Constant Matrix: (Units=GPa)
#
#
# Indices 1 2 3 4 5 6 
#
# 1 101.9345 11.1723 40.9975 4.0616 -23.6712 -2.0889
# 2 11.1723 85.1122 13.6185 3.9575 -0.4370 -0.7390
# 3 40.9975 13.6185 85.7921 -6.0710 -29.6384 8.7204
# 4 4.0616 3.9575 -6.0710 36.7875 8.4043 2.5467
# 5 -23.6712 -0.4370 -29.6384 8.4043 53.7189 0.8790
# 6 -2.0889 -0.7390 8.7204 2.5467 0.8790 31.1879
#
#
#
# Elastic Compliance Matrix: (Units=1/GPa)
#
#
# Indices 1 2 3 4 5 6 
#
# 1 0.013006 -0.000639 -0.005516 -0.003172 0.003137 0.002569
# 2 -0.000639 0.012265 -0.002272 -0.001414 -0.001231 0.001033
# 3 -0.005516 -0.002272 0.017885 0.002585 0.007110 -0.005835
# 4 -0.003172 -0.001414 0.002585 0.029370 -0.004525 -0.003239
# 5 0.003137 -0.001231 0.007110 -0.004525 0.024653 -0.002132
# 6 0.002569 0.001033 -0.005835 -0.003239 -0.002132 0.034216
#
#
# Mechanical properties :
#
#
# Convention : Reuss Voigt Hill
#
# Bulk Modulus (GPa) = 38.01862 44.93502 41.47682
# Shear Modulus (GPa) = 31.84385 38.14223 34.99304
#
# Velocity S-wave (km/s) = 3.61304 3.95424 3.78749
# Velocity P-wave (km/s) = 5.74376 6.26648 6.01080
#
# Compressibility (1/GPa) = 0.02630290
#
# Stress axis : x y z
#
# Youngs Moduli (GPa) = 76.88697 81.53286 55.91358
#
# Poissons Ratio (x) = 0.05208 0.30840
# Poissons Ratio (y) = 0.04912 0.12704
# Poissons Ratio (z) = 0.42408 0.18524
#
# Static dielectric constant tensor:
#      x y z
#    x 2.077040 0.024390 0.062740 
#    y 0.024390 1.933740 -0.014590 
#    z 0.062740 -0.014590 2.016480 
# 
# From -- ./inp_files/370243.got.cif
#   From: 2010.05.17/outbox.cif.g08.bks.cpg/sg2_186_cif.got.tgz:370243.got - 2010.06.03 11:33:40.
