data_PCOD9039437
_publ_section_title
;
Structure prediction by ZEFSAII (Michael W. Deem and Ramdas Pophale) SiO2 
 PCOD9039437
Probable space group: P -1
;
_chemical_formula_sum "Si O2"
_cell_formula_units_Z 14
_cell_length_a 5.598249
_cell_length_b 15.431682
_cell_length_c 8.940085
_cell_angle_alpha 66.765444
_cell_angle_beta 62.422496
_cell_angle_gamma 98.117392
_cell_volume 577.209643
_symmetry_space_group_name_H-M "P -1"
_symmetry_group_IT_number 2
_symmetry_cell_setting 'triclinic'
loop_
_space_group_symop_operation_xyz
x,y,z
-x,-y,-z
loop_
_atom_site_type_symbol
_atom_site_label
_atom_site_fract_x
_atom_site_fract_y
_atom_site_fract_z
Si Si1 0.138000 0.927782 0.931763
Si Si2 0.046078 0.425221 0.157082
Si Si3 0.154457 0.939510 0.589202
Si Si4 0.463998 0.632407 0.010427
Si Si5 0.583548 0.712630 0.580735
Si Si6 0.566344 0.136148 0.639830
Si Si7 0.164540 0.742593 0.236954
O O1 0.014247 0.904972 0.815540
O O2 0.469396 0.014998 0.782114
O O3 0.117513 0.825962 0.086381
O O4 0.000000 0.000000 0.000000
O O5 0.265719 0.508879 0.149177
O O6 0.729794 0.354327 0.360860
O O7 0.211170 0.364511 0.062958
O O8 0.000000 0.500000 0.000000
O O9 0.144374 0.845006 0.553685
O O10 0.500000 0.000000 0.500000
O O11 0.000000 0.000000 0.500000
O O12 0.308202 0.680081 0.139604
O O13 0.504523 0.685666 0.796580
O O14 0.635486 0.828664 0.435804
O O15 0.851567 0.689054 0.452260
O O16 0.613470 0.194917 0.739729
#
# Coordination Sequence:
#
# PCOD9039437 Si02
#       7
#     2   2   2   2   2   2   2
#     4  11  22  45  66  98 144 192 248 294 355 423
#     4   9  21  46  74  99 139 182 228 301 371 452
#     4  10  23  42  68  94 131 194 250 303 362 423
#     4  10  23  46  74 103 137 184 238 296 375 437
#     4  11  23  44  67 103 145 184 237 299 363 436
#     4  11  24  42  65  96 147 191 242 297 358 427
#     4  12  25  42  71 107 143 189 250 300 355 437
#
# _framework density 24.254617
#
# number of rings (size 3 to 8) (size 9 to 14) (size 15 to 20)
#    0.000    1.429    1.429    3.000    2.000    4.000 
#   10.286   10.000    0.000    0.000    0.000    0.000 
#    0.000    0.000    0.000    0.000    0.000    0.000 
#
# Total GULP energy -78071.796833 kJ/mol
# GULP energy per Si atom -5576.556917 kJ/mol
# Density = 2.419941 g / cm^3
# Si number density = 24.254617 Si / 1000 Ang^3
#
#
#
# Elastic Constant Matrix: (Units=GPa)
#
#
# Indices 1 2 3 4 5 6 
#
# 1 91.5944 27.3331 37.1517 15.6988 -1.0989 -24.5973
# 2 27.3331 126.7647 64.7466 48.0361 -14.0461 -28.7058
# 3 37.1517 64.7466 118.9950 31.3412 0.9701 -6.3789
# 4 15.6988 48.0361 31.3412 58.9542 -2.8377 -11.6275
# 5 -1.0989 -14.0461 0.9701 -2.8377 55.7498 -5.5103
# 6 -24.5973 -28.7058 -6.3789 -11.6275 -5.5103 42.1522
#
#
#
# Elastic Compliance Matrix: (Units=1/GPa)
#
#
# Indices 1 2 3 4 5 6 
#
# 1 0.015075 0.002054 -0.005056 -0.001067 0.001774 0.009368
# 2 0.002054 0.017246 -0.007290 -0.008474 0.005086 0.010168
# 3 -0.005056 -0.007290 0.014046 -0.001627 -0.002918 -0.006619
# 4 -0.001067 -0.008474 -0.001627 0.025005 -0.000840 0.000148
# 5 0.001774 0.005086 -0.002918 -0.000840 0.019897 0.006427
# 6 0.009368 0.010168 -0.006619 0.000148 0.006427 0.035994
#
#
# Mechanical properties :
#
#
# Convention : Reuss Voigt Hill
#
# Bulk Modulus (GPa) = 38.78190 66.20188 52.49189
# Shear Modulus (GPa) = 31.96115 45.24609 38.60362
#
# Velocity S-wave (km/s) = 3.63400 4.32379 3.99381
# Velocity P-wave (km/s) = 5.79932 7.23054 6.55411
#
# Compressibility (1/GPa) = 0.02578522
#
# Stress axis : x y z
#
# Youngs Moduli (GPa) = 66.33344 57.98445 71.19433
#
# Poissons Ratio (x) = -0.11911 0.35993
# Poissons Ratio (y) = -0.13626 0.51899
# Poissons Ratio (z) = 0.33535 0.42269
#
# Static dielectric constant tensor:
#      x y z
#    x 2.165350 0.101920 -0.324740 
#    y 0.101920 1.999930 -0.051490 
#    z -0.324740 -0.051490 2.519280 
# 
# From -- ./inp_files/116983.got.cif
#   From: 2010.05.17/outbox.cif.g08.bks.cpg/sg2_59_cif.got.tgz:116983.got - 2010.06.03 11:33:40.
