data_PCOD9039121
_publ_section_title
;
Structure prediction by ZEFSAII (Michael W. Deem and Ramdas Pophale) SiO2 
 PCOD9039121
Probable space group: P -1
;
_chemical_formula_sum "Si O2"
_cell_formula_units_Z 16
_cell_length_a 13.425871
_cell_length_b 13.800937
_cell_length_c 12.889765
_cell_angle_alpha 29.879502
_cell_angle_beta 117.939366
_cell_angle_gamma 136.594576
_cell_volume 721.011782
_symmetry_space_group_name_H-M "P -1"
_symmetry_group_IT_number 2
_symmetry_cell_setting 'triclinic'
loop_
_space_group_symop_operation_xyz
x,y,z
-x,-y,-z
loop_
_atom_site_type_symbol
_atom_site_label
_atom_site_fract_x
_atom_site_fract_y
_atom_site_fract_z
Si Si1 0.891502 0.713039 0.964070
Si Si2 0.688952 0.888294 0.951276
Si Si3 0.467852 0.168007 0.877299
Si Si4 0.368590 0.586531 0.567960
Si Si5 0.321783 0.176599 0.217187
Si Si6 0.387621 0.915131 0.627260
Si Si7 0.046713 0.366585 0.711653
Si Si8 0.267514 0.264916 0.599372
O O1 0.812188 0.820498 0.857147
O O2 0.746857 0.419810 0.104366
O O3 0.072863 0.987903 0.753744
O O4 0.915457 0.598665 0.180307
O O5 0.491064 0.096477 0.612137
O O6 0.871508 0.041245 0.922894
O O7 0.629747 0.961401 0.941912
O O8 0.587079 0.563116 0.216167
O O9 0.352597 0.162457 0.755101
O O10 0.638770 0.501583 0.662225
O O11 0.500000 0.000000 0.000000
O O12 0.325560 0.467585 0.539782
O O13 0.200260 0.463910 0.641858
O O14 0.313411 0.043804 0.229767
O O15 0.303165 0.008805 0.459417
O O16 0.500000 0.500000 0.000000
O O17 0.500000 0.000000 0.500000
O O18 0.000000 0.500000 0.500000
#
# Coordination Sequence:
#
# PCOD9039121 Si02
#       8
#     2   2   2   2   2   2   2   2
#     4  12  23  42  61  96 138 166 212 262 324 396
#     4  11  21  39  63  90 127 164 214 264 323 381
#     4  10  23  42  66  95 120 163 227 275 320 373
#     4  11  21  39  60  89 135 165 207 255 322 394
#     4  12  22  38  64  96 135 176 201 254 330 395
#     4  12  23  37  57  96 135 171 211 245 312 404
#     4  12  22  33  59  98 130 162 205 261 329 391
#     4  10  24  43  67  92 125 169 213 281 326 363
#
# _framework density 22.191039
#
# number of rings (size 3 to 8) (size 9 to 14) (size 15 to 20)
#    0.000    0.750    7.500    1.875    1.750    1.000 
#    0.000    0.000    0.000    7.500    0.000    0.000 
#    0.000    0.000    0.000    0.000    0.000    0.000 
#
# Total GULP energy -89296.856944 kJ/mol
# GULP energy per Si atom -5581.053559 kJ/mol
# Density = 2.214053 g / cm^3
# Si number density = 22.191039 Si / 1000 Ang^3
#
#
#
# Elastic Constant Matrix: (Units=GPa)
#
#
# Indices 1 2 3 4 5 6 
#
# 1 109.6554 43.5199 39.4563 -26.7566 5.1517 20.7378
# 2 43.5199 88.2276 31.2313 -27.0479 2.3787 4.4177
# 3 39.4563 31.2313 99.1945 -15.8062 5.7358 14.5981
# 4 -26.7566 -27.0479 -15.8062 43.8296 7.5609 0.2175
# 5 5.1517 2.3787 5.7358 7.5609 38.8433 -6.5118
# 6 20.7378 4.4177 14.5981 0.2175 -6.5118 26.6884
#
#
#
# Elastic Compliance Matrix: (Units=1/GPa)
#
#
# Indices 1 2 3 4 5 6 
#
# 1 0.015617 -0.004140 -0.001733 0.007266 -0.004949 -0.011769
# 2 -0.004140 0.016326 -0.002579 0.006804 -0.001127 0.001594
# 3 -0.001733 -0.002579 0.013087 0.002634 -0.003091 -0.006161
# 4 0.007266 0.006804 0.002634 0.034228 -0.010276 -0.011000
# 5 -0.004949 -0.001127 -0.003091 -0.010276 0.031175 0.013413
# 6 -0.011769 0.001594 -0.006161 -0.011000 0.013413 0.053083
#
#
# Mechanical properties :
#
#
# Convention : Reuss Voigt Hill
#
# Bulk Modulus (GPa) = 35.55143 58.38806 46.96974
# Shear Modulus (GPa) = 26.34434 34.06362 30.20398
#
# Velocity S-wave (km/s) = 3.44926 3.92218 3.69330
# Velocity P-wave (km/s) = 5.64965 6.84690 6.27689
#
# Compressibility (1/GPa) = 0.02812826
#
# Stress axis : x y z
#
# Youngs Moduli (GPa) = 64.03213 61.25322 76.40915
#
# Poissons Ratio (x) = 0.25357 0.13238
# Poissons Ratio (y) = 0.26508 0.19704
# Poissons Ratio (z) = 0.11094 0.15796
#
# Static dielectric constant tensor:
#      x y z
#    x 1.838030 -0.033010 -0.006750 
#    y -0.033010 1.895630 -0.037860 
#    z -0.006750 -0.037860 1.925380 
# 
# From -- ./inp_files/570124.got.cif
#   From: 2010.05.17/outbox.cif.g08.bks.cpg/sg2_286_cif.got.tgz:570124.got - 2010.06.03 11:33:40.
