data_PCOD9039579
_publ_section_title
;
Structure prediction by ZEFSAII (Michael W. Deem and Ramdas Pophale) SiO2 
 PCOD9039579
Probable space group: P -1
;
_chemical_formula_sum "Si O2"
_cell_formula_units_Z 14
_cell_length_a 12.158052
_cell_length_b 9.370028
_cell_length_c 14.793122
_cell_angle_alpha 121.770590
_cell_angle_beta 39.567675
_cell_angle_gamma 144.323710
_cell_volume 603.105233
_symmetry_space_group_name_H-M "P -1"
_symmetry_group_IT_number 2
_symmetry_cell_setting 'triclinic'
loop_
_space_group_symop_operation_xyz
x,y,z
-x,-y,-z
loop_
_atom_site_type_symbol
_atom_site_label
_atom_site_fract_x
_atom_site_fract_y
_atom_site_fract_z
Si Si1 0.523539 0.772005 0.654122
Si Si2 0.759609 0.275588 0.835944
Si Si3 0.788013 0.508319 0.060424
Si Si4 0.302700 0.252033 0.919113
Si Si5 0.108872 0.238301 0.637354
Si Si6 0.205694 0.017634 0.076716
Si Si7 0.258982 0.698307 0.342640
O O1 0.379973 0.673883 0.809014
O O2 0.327719 0.534449 0.628468
O O3 0.760363 0.811438 0.519720
O O4 0.617870 0.024339 0.647377
O O5 0.876710 0.437886 0.907263
O O6 0.822134 0.406354 0.744147
O O7 0.877490 0.176895 0.719684
O O8 0.451290 0.087857 0.978104
O O9 0.635339 0.533021 0.102878
O O10 0.038862 0.775549 0.036296
O O11 0.510662 0.261738 0.762007
O O12 0.292415 0.231602 0.027834
O O13 0.000000 0.000000 0.000000
O O14 0.982616 0.068949 0.751754
O O15 0.000000 0.500000 0.500000
#
# Coordination Sequence:
#
# PCOD9039579 Si02
#       7
#     2   2   2   2   2   2   2
#     4  10  25  45  70  97 145 183 229 292 342 423
#     4  11  25  39  71 103 133 181 235 282 351 414
#     4  10  23  42  73  99 137 184 232 285 350 410
#     4   9  21  42  68  98 134 186 228 277 352 413
#     4  10  23  42  69 106 134 184 238 274 354 417
#     4   9  21  41  65 100 140 171 233 290 333 415
#     4  11  27  46  68 104 145 179 236 297 355 415
#
# _framework density 23.213194000000001
#
# number of rings (size 3 to 8) (size 9 to 14) (size 15 to 20)
#    0.000    2.000    0.000    0.429   14.000    6.286 
#    0.000    2.143    0.000    0.000    0.000    0.000 
#    0.000    0.000    0.000    0.000    0.000    0.000 
#
# Total GULP energy -78266.254769 kJ/mol
# GULP energy per Si atom -5590.446769 kJ/mol
# Density = 2.316036 g / cm^3
# Si number density = 23.213194 Si / 1000 Ang^3
#
#
#
# Elastic Constant Matrix: (Units=GPa)
#
#
# Indices 1 2 3 4 5 6 
#
# 1 112.8619 38.0098 33.9650 0.8777 -21.4080 -16.0467
# 2 38.0098 114.7420 52.3268 -9.8440 -5.2792 -13.1418
# 3 33.9650 52.3268 148.8377 -1.4508 -10.1648 -14.3466
# 4 0.8777 -9.8440 -1.4508 40.8467 -6.5636 -0.1773
# 5 -21.4080 -5.2792 -10.1648 -6.5636 42.4965 4.8389
# 6 -16.0467 -13.1418 -14.3466 -0.1773 4.8389 43.7755
#
#
#
# Elastic Compliance Matrix: (Units=1/GPa)
#
#
# Indices 1 2 3 4 5 6 
#
# 1 0.011387 -0.002806 -0.001047 -0.000171 0.004831 0.002454
# 2 -0.002806 0.011504 -0.003277 0.002639 -0.000522 0.001419
# 3 -0.001047 -0.003277 0.008286 -0.000330 0.000854 0.001252
# 4 -0.000171 0.002639 -0.000330 0.025772 0.004112 0.000271
# 5 0.004831 -0.000522 0.000854 0.004112 0.026860 -0.001058
# 6 0.002454 0.001419 0.001252 0.000271 -0.001058 0.024698
#
#
# Mechanical properties :
#
#
# Convention : Reuss Voigt Hill
#
# Bulk Modulus (GPa) = 59.11552 69.44943 64.28248
# Shear Modulus (GPa) = 38.93884 42.23306 40.58595
#
# Velocity S-wave (km/s) = 4.10010 4.27002 4.18592
# Velocity P-wave (km/s) = 6.92359 7.36843 7.14947
#
# Compressibility (1/GPa) = 0.01691603
#
# Stress axis : x y z
#
# Youngs Moduli (GPa) = 87.81784 86.92469 120.68995
#
# Poissons Ratio (x) = 0.24390 0.12640
# Poissons Ratio (y) = 0.24641 0.39554
# Poissons Ratio (z) = 0.09197 0.28488
#
# Static dielectric constant tensor:
#      x y z
#    x 1.906410 0.011410 0.008910 
#    y 0.011410 2.006750 -0.017900 
#    z 0.008910 -0.017900 1.822090 
# 
# From -- ./inp_files/515875.got.cif
#   From: 2010.05.17/outbox.cif.g08.bks.cpg/sg2_258_cif.got.tgz:515875.got - 2010.06.03 11:33:40.
