data_PCOD9039263
_publ_section_title
;
Structure prediction by ZEFSAII (Michael W. Deem and Ramdas Pophale) SiO2 
 PCOD9039263
Probable space group: P -1
;
_chemical_formula_sum "Si O2"
_cell_formula_units_Z 12
_cell_length_a 9.015652
_cell_length_b 12.398471
_cell_length_c 9.183707
_cell_angle_alpha 52.246997
_cell_angle_beta 112.926648
_cell_angle_gamma 142.696966
_cell_volume 481.604970
_symmetry_space_group_name_H-M "P -1"
_symmetry_group_IT_number 2
_symmetry_cell_setting 'triclinic'
loop_
_space_group_symop_operation_xyz
x,y,z
-x,-y,-z
loop_
_atom_site_type_symbol
_atom_site_label
_atom_site_fract_x
_atom_site_fract_y
_atom_site_fract_z
Si Si1 0.233234 0.671884 0.839146
Si Si2 0.714301 0.650207 0.244817
Si Si3 0.883836 0.500369 0.594870
Si Si4 0.077221 0.958480 0.878708
Si Si5 0.569618 0.946176 0.274035
Si Si6 0.407685 0.253255 0.284280
O O1 0.385235 0.648155 0.840689
O O2 0.096690 0.656749 0.664464
O O3 0.433050 0.901749 0.798863
O O4 0.000000 0.500000 0.000000
O O5 0.770253 0.571998 0.450190
O O6 0.482372 0.442594 0.236231
O O7 0.947384 0.805431 0.093716
O O8 0.711370 0.797927 0.189347
O O9 0.660216 0.251151 0.750517
O O10 0.000000 0.500000 0.500000
O O11 0.859916 0.905634 0.761035
O O12 0.185068 0.923276 0.834250
O O13 0.579496 0.853469 0.496463
#
# Coordination Sequence:
#
# PCOD9039263 Si02
#       6
#     2   2   2   2   2   2
#     4  12  26  43  70 103 133 177 229 279 334 397
#     4  10  23  42  67  93 135 177 224 266 339 386
#     4  11  24  45  69  94 136 178 222 280 329 395
#     4  11  24  41  67 101 133 177 221 276 330 408
#     4  11  25  41  69 101 134 179 227 271 342 394
#     4  11  23  42  67  95 137 177 217 280 332 397
#
# _framework density 24.916685999999999
#
# number of rings (size 3 to 8) (size 9 to 14) (size 15 to 20)
#    0.000    1.000    3.333    3.500    2.333    7.333 
#    0.000    0.000    0.000    0.000    0.000    0.000 
#    0.000    0.000    0.000    0.000    0.000    0.000 
#
# Total GULP energy -67222.878740 kJ/mol
# GULP energy per Si atom -5601.906562 kJ/mol
# Density = 2.485997 g / cm^3
# Si number density = 24.916686 Si / 1000 Ang^3
#
#
#
# Elastic Constant Matrix: (Units=GPa)
#
#
# Indices 1 2 3 4 5 6 
#
# 1 50.1059 15.0285 5.2188 13.9944 -13.2566 -0.1138
# 2 15.0285 106.4592 5.9790 -11.3239 10.7669 -26.3556
# 3 5.2188 5.9790 59.7991 7.3198 -1.7147 -5.5517
# 4 13.9944 -11.3239 7.3198 26.7587 -5.3538 1.3823
# 5 -13.2566 10.7669 -1.7147 -5.3538 35.0554 -6.7376
# 6 -0.1138 -26.3556 -5.5517 1.3823 -6.7376 33.7954
#
#
#
# Elastic Compliance Matrix: (Units=1/GPa)
#
#
# Indices 1 2 3 4 5 6 
#
# 1 0.029698 -0.007827 0.000232 -0.016644 0.010490 -0.003194
# 2 -0.007827 0.014379 -0.001081 0.009138 -0.004148 0.009809
# 3 0.000232 -0.001081 0.017724 -0.005367 0.000943 0.002477
# 4 -0.016644 0.009138 -0.005367 0.051045 -0.000810 0.003939
# 5 0.010490 -0.004148 0.000943 -0.000810 0.034430 0.003852
# 6 -0.003194 0.009809 0.002477 0.003939 0.003852 0.038242
#
#
# Mechanical properties :
#
#
# Convention : Reuss Voigt Hill
#
# Bulk Modulus (GPa) = 22.49801 29.86853 26.18327
# Shear Modulus (GPa) = 22.96866 31.79774 27.38320
#
# Velocity S-wave (km/s) = 3.03944 3.57622 3.31870
# Velocity P-wave (km/s) = 4.62239 5.39127 5.02157
#
# Compressibility (1/GPa) = 0.04444837
#
# Stress axis : x y z
#
# Youngs Moduli (GPa) = 33.67223 69.54692 56.41930
#
# Poissons Ratio (x) = 0.54438 -0.01311
# Poissons Ratio (y) = 0.26357 0.06101
# Poissons Ratio (z) = -0.00783 0.07521
#
# Static dielectric constant tensor:
#      x y z
#    x 1.907760 0.005070 -0.016160 
#    y 0.005070 1.949270 -0.022100 
#    z -0.016160 -0.022100 1.988060 
# 
# From -- ./inp_files/148536.got.cif
#   From: 2010.05.17/outbox.cif.g08.bks.cpg/sg2_75_cif.got.tgz:148536.got - 2010.06.03 11:33:40.
