data_PCOD9039308
_publ_section_title
;
Structure prediction by ZEFSAII (Michael W. Deem and Ramdas Pophale) SiO2 
 PCOD9039308
Probable space group: P -1
;
_chemical_formula_sum "Si O2"
_cell_formula_units_Z 16
_cell_length_a 26.085146
_cell_length_b 6.924705
_cell_length_c 13.200747
_cell_angle_alpha 128.332103
_cell_angle_beta 24.546107
_cell_angle_gamma 128.826623
_cell_volume 762.468834
_symmetry_space_group_name_H-M "P -1"
_symmetry_group_IT_number 2
_symmetry_cell_setting 'triclinic'
loop_
_space_group_symop_operation_xyz
x,y,z
-x,-y,-z
loop_
_atom_site_type_symbol
_atom_site_label
_atom_site_fract_x
_atom_site_fract_y
_atom_site_fract_z
Si Si1 0.887894 0.273791 0.518810
Si Si2 0.184437 0.744644 0.889640
Si Si3 0.640558 0.167899 0.822313
Si Si4 0.588089 0.231375 0.359287
Si Si5 0.951794 0.847774 0.636607
Si Si6 0.704151 0.073076 0.461990
Si Si7 0.550872 0.307026 0.233267
Si Si8 0.917730 0.767043 0.016146
O O1 0.766878 0.101246 0.626511
O O2 0.880541 0.566534 0.644805
O O3 0.926136 0.174591 0.524345
O O4 0.010370 0.277152 0.229791
O O5 0.290474 0.714395 0.771056
O O6 0.237218 0.776349 0.691939
O O7 0.088523 0.483162 0.988367
O O8 0.130754 0.988697 0.098433
O O9 0.691704 0.232659 0.637919
O O10 0.610902 0.337407 0.023554
O O11 0.500000 0.000000 0.000000
O O12 0.627015 0.236076 0.171221
O O13 0.504458 0.443751 0.574987
O O14 0.500000 0.000000 0.500000
O O15 0.000000 0.000000 0.500000
O O16 0.565599 0.926553 0.636445
O O17 0.786052 0.858503 0.266429
O O18 0.000000 0.000000 0.000000
#
# Coordination Sequence:
#
# PCOD9039308 Si02
#       8
#     2   2   2   2   2   2   2   2
#     4  11  24  44  69 100 141 176 226 285 354 408
#     4  12  25  42  71 103 137 175 234 286 346 417
#     4  10  24  45  69  93 136 190 228 274 337 411
#     4  11  23  39  67 102 132 174 227 281 346 405
#     4  11  25  42  67 106 138 174 223 291 355 407
#     4  11  22  45  65  97 135 177 234 278 335 410
#     4  10  23  42  67  96 137 180 224 283 341 399
#     4  12  24  44  68  95 133 180 221 284 341 406
#
# _framework density 20.984463000000002
#
# number of rings (size 3 to 8) (size 9 to 14) (size 15 to 20)
#    0.000    1.000    6.250    0.000    3.500    0.500 
#    2.250    1.875    0.000    0.000    0.000    0.000 
#    0.000    0.000    0.000    0.000    0.000    0.000 
#
# Total GULP energy -89109.414569 kJ/mol
# GULP energy per Si atom -5569.338411 kJ/mol
# Density = 2.093670 g / cm^3
# Si number density = 20.984463 Si / 1000 Ang^3
#
#
#
# Elastic Constant Matrix: (Units=GPa)
#
#
# Indices 1 2 3 4 5 6 
#
# 1 147.4545 56.8035 48.3157 -8.9758 18.8227 -16.5669
# 2 56.8035 91.3399 26.2645 3.9813 13.8264 -12.7957
# 3 48.3157 26.2645 103.9254 2.6004 25.5604 -7.8525
# 4 -8.9758 3.9813 2.6004 17.0669 7.1931 -2.2343
# 5 18.8227 13.8264 25.5604 7.1931 39.2649 -3.0035
# 6 -16.5669 -12.7957 -7.8525 -2.2343 -3.0035 25.6994
#
#
#
# Elastic Compliance Matrix: (Units=1/GPa)
#
#
# Indices 1 2 3 4 5 6 
#
# 1 0.011344 -0.005572 -0.003083 0.009491 -0.002896 0.004084
# 2 -0.005572 0.015472 -0.000668 -0.005554 -0.001073 0.003299
# 3 -0.003083 -0.000668 0.012903 -0.000578 -0.006519 0.000811
# 4 0.009491 -0.005554 -0.000578 0.072242 -0.014862 0.007720
# 5 -0.002896 -0.001073 -0.006519 -0.014862 0.034070 -0.001703
# 6 0.004084 0.003299 0.000811 0.007720 -0.001703 0.043907
#
#
# Mechanical properties :
#
#
# Convention : Reuss Voigt Hill
#
# Bulk Modulus (GPa) = 47.44918 67.27637 57.36278
# Shear Modulus (GPa) = 23.19026 30.49530 26.84278
#
# Velocity S-wave (km/s) = 3.32793 3.81626 3.58043
# Velocity P-wave (km/s) = 6.11780 7.17971 6.66992
#
# Compressibility (1/GPa) = 0.02107518
#
# Stress axis : x y z
#
# Youngs Moduli (GPa) = 88.14878 64.63355 77.49996
#
# Poissons Ratio (x) = 0.36013 0.23891
# Poissons Ratio (y) = 0.49115 0.05174
# Poissons Ratio (z) = 0.27173 0.04315
#
# Static dielectric constant tensor:
#      x y z
#    x 1.737460 0.046160 0.043610 
#    y 0.046160 1.765960 -0.018050 
#    z 0.043610 -0.018050 1.813270 
# 
# From -- ./inp_files/94922.got.cif
#   From: 2010.05.17/outbox.cif.g08.bks.cpg/sg2_48_cif.got.tgz:94922.got - 2010.06.03 11:33:40.
