data_PCOD9039038
_publ_section_title
;
Structure prediction by ZEFSAII (Michael W. Deem and Ramdas Pophale) SiO2 
 PCOD9039038
Probable space group: P -1
;
_chemical_formula_sum "Si O2"
_cell_formula_units_Z 15
_cell_length_a 8.405314
_cell_length_b 9.695949
_cell_length_c 21.445625
_cell_angle_alpha 54.868709
_cell_angle_beta 29.902818
_cell_angle_gamma 55.092007
_cell_volume 700.943408
_symmetry_space_group_name_H-M "P -1"
_symmetry_group_IT_number 2
_symmetry_cell_setting 'triclinic'
loop_
_space_group_symop_operation_xyz
x,y,z
-x,-y,-z
loop_
_atom_site_type_symbol
_atom_site_label
_atom_site_fract_x
_atom_site_fract_y
_atom_site_fract_z
Si Si1 0.329203 0.913511 0.445380
Si Si2 0.500000 0.000000 0.500000
Si Si3 0.616633 0.853388 0.048920
Si Si4 0.385130 0.820305 0.791041
Si Si5 0.684926 0.631315 0.310748
Si Si6 0.234655 0.378411 0.498050
Si Si7 0.221867 0.555844 0.245523
Si Si8 0.346918 0.051088 0.853778
O O1 0.445769 0.732108 0.418767
O O2 0.343315 0.908373 0.516145
O O3 0.586864 0.036041 0.307467
O O4 0.000000 0.000000 0.500000
O O5 0.308147 0.188272 0.495719
O O6 0.474313 0.684789 0.126372
O O7 0.493705 0.923742 0.140782
O O8 0.007349 0.809960 0.928656
O O9 0.500000 0.000000 0.000000
O O10 0.599695 0.637375 0.752570
O O11 0.506839 0.900928 0.792060
O O12 0.543333 0.470063 0.377151
O O13 0.694808 0.772206 0.216793
O O14 0.030258 0.574301 0.240764
O O15 0.000000 0.500000 0.500000
O O16 0.039182 0.382701 0.628003
O O17 0.000000 0.000000 0.000000
#
# Coordination Sequence:
#
# PCOD9039038 Si02
#       8
#     2   1   2   2   2   2   2   2
#     4  11  23  43  68  99 137 181 234 290 350 425
#     4  12  26  42  72 102 142 186 240 280 368 422
#     4  11  23  43  68  94 134 177 232 284 340 416
#     4  10  23  42  65  98 132 179 231 282 350 409
#     4  11  23  44  66  97 139 178 222 288 350 416
#     4  12  26  45  68 105 140 183 236 291 355 427
#     4  12  23  42  66  95 136 180 221 290 348 410
#     4   9  20  42  67  92 130 175 224 277 338 405
#
# _framework density 21.399728
#
# number of rings (size 3 to 8) (size 9 to 14) (size 15 to 20)
#    0.000    1.067    1.333    6.400    1.867    1.067 
#    0.000    7.333    0.000    0.000    0.000    0.000 
#    0.000    0.000    0.000    0.000    0.000    0.000 
#
# Total GULP energy -83648.856933 kJ/mol
# GULP energy per Si atom -5576.590462 kJ/mol
# Density = 2.135102 g / cm^3
# Si number density = 21.399728 Si / 1000 Ang^3
#
#
#
# Elastic Constant Matrix: (Units=GPa)
#
#
# Indices 1 2 3 4 5 6 
#
# 1 103.8178 -3.2512 6.5010 -3.9276 0.9400 -4.9329
# 2 -3.2512 133.2541 7.4619 -16.8914 -3.3333 9.1491
# 3 6.5010 7.4619 69.8126 -19.2598 -10.2832 11.8400
# 4 -3.9276 -16.8914 -19.2598 30.0389 0.1191 -1.7008
# 5 0.9400 -3.3333 -10.2832 0.1191 31.4157 -3.3256
# 6 -4.9329 9.1491 11.8400 -1.7008 -3.3256 28.0874
#
#
#
# Elastic Compliance Matrix: (Units=1/GPa)
#
#
# Indices 1 2 3 4 5 6 
#
# 1 0.009847 0.000251 -0.001140 0.000820 -0.000419 0.002128
# 2 0.000251 0.008328 0.001147 0.005293 0.000944 -0.002720
# 3 -0.001140 0.001147 0.019997 0.012868 0.005855 -0.007531
# 4 0.000820 0.005293 0.012868 0.044391 0.004176 -0.003822
# 5 -0.000419 0.000944 0.005855 0.004176 0.033996 0.001429
# 6 0.002128 -0.002720 -0.007531 -0.003822 0.001429 0.039975
#
#
# Mechanical properties :
#
#
# Convention : Reuss Voigt Hill
#
# Bulk Modulus (GPa) = 25.84721 36.47865 31.16293
# Shear Modulus (GPa) = 29.60065 37.65324 33.62694
#
# Velocity S-wave (km/s) = 3.72321 4.19921 3.96835
# Velocity P-wave (km/s) = 5.53060 6.37138 5.96582
#
# Compressibility (1/GPa) = 0.03868890
#
# Stress axis : x y z
#
# Youngs Moduli (GPa) = 101.54872 120.08118 50.00659
#
# Poissons Ratio (x) = -0.03019 0.05702
# Poissons Ratio (y) = -0.02553 -0.05736
# Poissons Ratio (z) = 0.11580 -0.13774
#
# Static dielectric constant tensor:
#      x y z
#    x 1.812800 0.031740 0.029510 
#    y 0.031740 1.739490 0.026020 
#    z 0.029510 0.026020 1.811670 
# 
# From -- ./inp_files/217548.got.cif
#   From: 2010.05.17/outbox.cif.g08.bks.cpg/sg2_109_cif.got.tgz:217548.got - 2010.06.03 11:33:40.
