data_PCOD9039036
_publ_section_title
;
Structure prediction by ZEFSAII (Michael W. Deem and Ramdas Pophale) SiO2 
 PCOD9039036
Probable space group: P -1
;
_chemical_formula_sum "Si O2"
_cell_formula_units_Z 14
_cell_length_a 13.484441
_cell_length_b 9.367622
_cell_length_c 10.404534
_cell_angle_alpha 49.547234
_cell_angle_beta 140.019652
_cell_angle_gamma 111.844256
_cell_volume 621.193345
_symmetry_space_group_name_H-M "P -1"
_symmetry_group_IT_number 2
_symmetry_cell_setting 'triclinic'
loop_
_space_group_symop_operation_xyz
x,y,z
-x,-y,-z
loop_
_atom_site_type_symbol
_atom_site_label
_atom_site_fract_x
_atom_site_fract_y
_atom_site_fract_z
Si Si1 0.647876 0.023987 0.552716
Si Si2 0.755020 0.437354 0.039650
Si Si3 0.459331 0.318444 0.833912
Si Si4 0.033831 0.712544 0.890541
Si Si5 0.752468 0.387621 0.368054
Si Si6 0.686260 0.902661 0.380946
Si Si7 0.958408 0.754630 0.072185
O O1 0.645648 0.239385 0.380808
O O2 0.500000 0.000000 0.500000
O O3 0.649726 0.901054 0.496144
O O4 0.818343 0.949273 0.836797
O O5 0.779923 0.375712 0.250185
O O6 0.848385 0.604348 0.031163
O O7 0.830541 0.303602 0.071597
O O8 0.565510 0.466706 0.817918
O O9 0.343856 0.407068 0.786303
O O10 0.358551 0.266605 0.646362
O O11 0.585586 0.112386 0.109709
O O12 0.876678 0.861812 0.590656
O O13 0.051191 0.769906 0.022134
O O14 0.000000 0.500000 0.000000
O O15 0.919280 0.318334 0.649431
#
# Coordination Sequence:
#
# PCOD9039036 Si02
#       7
#     2   2   2   2   2   2   2
#     4  11  24  44  67  97 134 173 218 273 330 391
#     4  11  22  40  69 102 127 172 223 273 324 383
#     4  11  23  40  66  94 132 169 220 270 326 384
#     4   9  20  42  63  89 132 170 213 265 326 389
#     4  12  24  43  68 100 132 173 220 274 328 389
#     4  10  23  43  62  95 130 174 215 269 325 392
#     4  10  23  42  65  97 136 174 214 269 334 394
#
# _framework density 22.537265999999999
#
# number of rings (size 3 to 8) (size 9 to 14) (size 15 to 20)
#    0.000    1.429    1.429    3.857    2.000    1.714 
#    2.571    7.857    0.000    0.000    0.000    0.000 
#    0.000    0.000    0.000    0.000    0.000    0.000 
#
# Total GULP energy -78137.977004 kJ/mol
# GULP energy per Si atom -5581.284072 kJ/mol
# Density = 2.248597 g / cm^3
# Si number density = 22.537266 Si / 1000 Ang^3
#
#
#
# Elastic Constant Matrix: (Units=GPa)
#
#
# Indices 1 2 3 4 5 6 
#
# 1 147.5089 31.7584 21.9955 -2.8104 -9.7978 -23.9132
# 2 31.7584 90.1018 26.7287 19.1388 -14.6464 -6.4030
# 3 21.9955 26.7287 52.0053 -1.3895 -6.9643 -17.3238
# 4 -2.8104 19.1388 -1.3895 35.6293 -7.2561 -2.5314
# 5 -9.7978 -14.6464 -6.9643 -7.2561 16.0173 -7.7663
# 6 -23.9132 -6.4030 -17.3238 -2.5314 -7.7663 26.3904
#
#
#
# Elastic Compliance Matrix: (Units=1/GPa)
#
#
# Indices 1 2 3 4 5 6 
#
# 1 0.011445 -0.002875 0.006905 0.008652 0.021678 0.021415
# 2 -0.002875 0.016953 -0.008366 -0.009046 0.004264 -0.003596
# 3 0.006905 -0.008366 0.044286 0.020301 0.049125 0.049702
# 4 0.008652 -0.009046 0.020301 0.046026 0.044369 0.036444
# 5 0.021678 0.004264 0.049125 0.044369 0.173539 0.108252
# 6 0.021415 -0.003596 0.049702 0.036444 0.108252 0.124404
#
#
# Mechanical properties :
#
#
# Convention : Reuss Voigt Hill
#
# Bulk Modulus (GPa) = 15.62205 50.06460 32.84333
# Shear Modulus (GPa) = 11.19416 29.54964 20.37190
#
# Velocity S-wave (km/s) = 2.23108 3.62490 3.00979
# Velocity P-wave (km/s) = 3.68561 6.30732 5.16556
#
# Compressibility (1/GPa) = 0.06401208
#
# Stress axis : x y z
#
# Youngs Moduli (GPa) = 87.37440 58.98794 22.58062
#
# Poissons Ratio (x) = 0.16956 -0.15591
# Poissons Ratio (y) = 0.25116 0.18891
# Poissons Ratio (z) = -0.60330 0.49348
#
# Static dielectric constant tensor:
#      x y z
#    x 1.803800 -0.011480 0.010580 
#    y -0.011480 1.936510 -0.049790 
#    z 0.010580 -0.049790 1.867650 
# 
# From -- ./inp_files/242759.got.cif
#   From: 2010.05.17/outbox.cif.g08.bks.cpg/sg2_122_cif.got.tgz:242759.got - 2010.06.03 11:33:40.
