data_PCOD9039639
_publ_section_title
;
Structure prediction by ZEFSAII (Michael W. Deem and Ramdas Pophale) SiO2 
 PCOD9039639
Probable space group: P -1
;
_chemical_formula_sum "Si O2"
_cell_formula_units_Z 16
_cell_length_a 9.098397
_cell_length_b 19.177947
_cell_length_c 8.772900
_cell_angle_alpha 140.264516
_cell_angle_beta 122.242113
_cell_angle_gamma 77.238662
_cell_volume 775.220603
_symmetry_space_group_name_H-M "P -1"
_symmetry_group_IT_number 2
_symmetry_cell_setting 'triclinic'
loop_
_space_group_symop_operation_xyz
x,y,z
-x,-y,-z
loop_
_atom_site_type_symbol
_atom_site_label
_atom_site_fract_x
_atom_site_fract_y
_atom_site_fract_z
Si Si1 0.554262 0.327643 0.302686
Si Si2 0.886922 0.512438 0.309543
Si Si3 0.436755 0.915800 0.681850
Si Si4 0.448356 0.511741 0.711233
Si Si5 0.173184 0.683227 0.300020
Si Si6 0.850066 0.670818 0.311556
Si Si7 0.199419 0.090815 0.302450
Si Si8 0.615596 0.939362 0.356088
O O1 0.418904 0.383220 0.411424
O O2 0.596861 0.408705 0.311564
O O3 0.717655 0.343773 0.541201
O O4 0.487438 0.192211 0.986064
O O5 0.681020 0.490412 0.221596
O O6 0.937899 0.631165 0.441168
O O7 0.000000 0.500000 0.500000
O O8 0.893110 0.421254 0.031666
O O9 0.311984 0.791051 0.465258
O O10 0.625368 0.919650 0.708885
O O11 0.326156 0.971754 0.601792
O O12 0.500000 0.000000 0.000000
O O13 0.662607 0.571699 0.980941
O O14 0.998307 0.704425 0.313809
O O15 0.796688 0.780592 0.508520
O O16 0.230577 0.073121 0.467837
O O17 0.000000 0.000000 0.000000
O O18 0.500000 0.000000 0.500000
#
# Coordination Sequence:
#
# PCOD9039639 Si02
#       8
#     2   2   2   2   2   2   2   2
#     4  11  23  43  73  98 138 176 229 279 351 404
#     4  12  28  44  67 103 140 179 230 278 344 413
#     4  11  23  44  69  97 132 179 228 277 347 406
#     4  11  25  44  73 102 133 182 225 288 345 402
#     4  12  26  43  68  99 138 182 223 283 343 409
#     4  12  25  45  68 100 138 179 230 282 347 401
#     4  11  25  44  68  99 133 177 229 287 340 406
#     4  10  23  42  69  98 133 177 225 276 339 406
#
# _framework density 20.639285999999998
#
# number of rings (size 3 to 8) (size 9 to 14) (size 15 to 20)
#    0.000    0.750    3.750    3.000    8.750    1.000 
#    0.000    3.750    0.000    0.000    0.000    0.000 
#    0.000    0.000    0.000    0.000    0.000    0.000 
#
# Total GULP energy -89346.742935 kJ/mol
# GULP energy per Si atom -5584.171433 kJ/mol
# Density = 2.059231 g / cm^3
# Si number density = 20.639286 Si / 1000 Ang^3
#
#
#
# Elastic Constant Matrix: (Units=GPa)
#
#
# Indices 1 2 3 4 5 6 
#
# 1 91.8303 24.9789 22.0468 4.5606 -0.4459 7.0616
# 2 24.9789 153.8790 46.9450 -11.3394 -5.5598 -2.3251
# 3 22.0468 46.9450 99.0427 -9.3690 -13.6598 -17.7404
# 4 4.5606 -11.3394 -9.3690 39.5752 -2.0351 -9.0010
# 5 -0.4459 -5.5598 -13.6598 -2.0351 34.7261 5.7820
# 6 7.0616 -2.3251 -17.7404 -9.0010 5.7820 26.1641
#
#
#
# Elastic Compliance Matrix: (Units=1/GPa)
#
#
# Indices 1 2 3 4 5 6 
#
# 1 0.013132 -0.001322 -0.004284 -0.004774 -0.000666 -0.008061
# 2 -0.001322 0.007854 -0.003423 0.001415 0.000111 -0.000804
# 3 -0.004284 -0.003423 0.016207 0.006561 0.003955 0.013224
# 4 -0.004774 0.001415 0.006561 0.031584 0.001881 0.016313
# 5 -0.000666 0.000111 0.003955 0.001881 0.031028 -0.003339
# 6 -0.008061 -0.000804 0.013224 0.016313 -0.003339 0.055641
#
#
# Mechanical properties :
#
#
# Convention : Reuss Voigt Hill
#
# Bulk Modulus (GPa) = 52.26121 59.18817 55.72469
# Shear Modulus (GPa) = 27.79603 36.81183 32.30393
#
# Velocity S-wave (km/s) = 3.67380 4.22783 3.96051
# Velocity P-wave (km/s) = 6.58573 7.25068 6.92619
#
# Compressibility (1/GPa) = 0.01913465
#
# Stress axis : x y z
#
# Youngs Moduli (GPa) = 76.15253 127.32837 61.70011
#
# Poissons Ratio (x) = 0.16839 0.26430
# Poissons Ratio (y) = 0.10071 0.21120
# Poissons Ratio (z) = 0.32620 0.43584
#
# Static dielectric constant tensor:
#      x y z
#    x 1.747080 0.011270 0.026240 
#    y 0.011270 1.758050 0.021140 
#    z 0.026240 0.021140 1.768370 
# 
# From -- ./inp_files/218981.got.cif
#   From: 2010.05.17/outbox.cif.g08.bks.cpg/sg2_110_cif.got.tgz:218981.got - 2010.06.03 11:33:40.
