data_PCOD9039120
_publ_section_title
;
Structure prediction by ZEFSAII (Michael W. Deem and Ramdas Pophale) SiO2 
 PCOD9039120
Probable space group: P -1
;
_chemical_formula_sum "Si O2"
_cell_formula_units_Z 15
_cell_length_a 12.287769
_cell_length_b 5.661241
_cell_length_c 12.125812
_cell_angle_alpha 95.792244
_cell_angle_beta 86.447259
_cell_angle_gamma 46.296929
_cell_volume 596.435631
_symmetry_space_group_name_H-M "P -1"
_symmetry_group_IT_number 2
_symmetry_cell_setting 'triclinic'
loop_
_space_group_symop_operation_xyz
x,y,z
-x,-y,-z
loop_
_atom_site_type_symbol
_atom_site_label
_atom_site_fract_x
_atom_site_fract_y
_atom_site_fract_z
Si Si1 0.866764 0.791363 0.136649
Si Si2 0.000000 0.000000 0.000000
Si Si3 0.076666 0.641408 0.521258
Si Si4 0.399015 0.625505 0.668158
Si Si5 0.393903 0.325199 0.448397
Si Si6 0.613119 0.258413 0.807357
Si Si7 0.947528 0.840880 0.769597
Si Si8 0.382373 0.978927 0.975117
O O1 0.999582 0.479270 0.186693
O O2 0.752001 0.092758 0.241478
O O3 0.765346 0.735976 0.078583
O O4 0.906032 0.904213 0.039684
O O5 0.956988 0.022600 0.872349
O O6 0.241822 0.407504 0.442159
O O7 0.070160 0.680735 0.656132
O O8 0.000000 0.500000 0.500000
O O9 0.000000 0.000000 0.500000
O O10 0.353796 0.599990 0.550040
O O11 0.504260 0.700661 0.650743
O O12 0.511897 0.289284 0.719990
O O13 0.500000 0.000000 0.500000
O O14 0.487428 0.630741 0.885491
O O15 0.664361 0.040132 0.902579
O O16 0.775323 0.104291 0.744936
O O17 0.500000 0.000000 0.000000
#
# Coordination Sequence:
#
# PCOD9039120 Si02
#       8
#     2   1   2   2   2   2   2   2
#     4  11  25  46  69 109 142 207 242 322 382 481
#     4  12  26  44  72 108 160 190 260 306 398 472
#     4  12  31  54  82 120 165 210 268 337 410 476
#     4  10  24  46  73 100 150 187 268 309 404 452
#     4  11  25  46  79 107 141 203 262 336 387 475
#     4  10  23  43  63 104 135 192 233 310 366 455
#     4  12  27  45  78 108 155 198 260 316 402 461
#     4  10  23  42  66  94 143 182 246 293 372 448
#
# _framework density 25.149401999999998
#
# number of rings (size 3 to 8) (size 9 to 14) (size 15 to 20)
#    0.000    1.067    1.333    2.800   11.200    3.200 
#    0.000    0.000    0.000    0.000    0.000    0.000 
#    0.000    0.000    0.000    0.000    0.000    0.000 
#
# Total GULP energy -83596.444840 kJ/mol
# GULP energy per Si atom -5573.096323 kJ/mol
# Density = 2.509216 g / cm^3
# Si number density = 25.149402 Si / 1000 Ang^3
#
#
#
# Elastic Constant Matrix: (Units=GPa)
#
#
# Indices 1 2 3 4 5 6 
#
# 1 118.9135 22.8214 9.7105 -0.7796 -11.1416 0.7370
# 2 22.8214 73.0681 5.4588 -7.6290 -18.3399 -21.3693
# 3 9.7105 5.4588 118.0363 -1.9860 -20.8095 10.8125
# 4 -0.7796 -7.6290 -1.9860 30.2938 -3.1590 -4.5821
# 5 -11.1416 -18.3399 -20.8095 -3.1590 51.6104 -1.0706
# 6 0.7370 -21.3693 10.8125 -4.5821 -1.0706 36.2311
#
#
#
# Elastic Compliance Matrix: (Units=1/GPa)
#
#
# Indices 1 2 3 4 5 6 
#
# 1 0.009155 -0.003458 -0.000313 -0.000940 0.000517 -0.002236
# 2 -0.003458 0.021776 -0.000563 0.008319 0.007572 0.014358
# 3 -0.000313 -0.000563 0.009419 0.000380 0.003492 -0.002985
# 4 -0.000940 0.008319 0.000380 0.037129 0.005380 0.009667
# 5 0.000517 0.007572 0.003492 0.005380 0.024015 0.004803
# 6 -0.002236 0.014358 -0.002985 0.009667 0.004803 0.038370
#
#
# Mechanical properties :
#
#
# Convention : Reuss Voigt Hill
#
# Bulk Modulus (GPa) = 31.56372 42.88880 37.22626
# Shear Modulus (GPa) = 31.42807 41.76220 36.59513
#
# Velocity S-wave (km/s) = 3.53888 4.07942 3.81873
# Velocity P-wave (km/s) = 5.41073 6.26734 5.85472
#
# Compressibility (1/GPa) = 0.03168194
#
# Stress axis : x y z
#
# Youngs Moduli (GPa) = 109.23117 45.92158 106.16638
#
# Poissons Ratio (x) = 0.15881 0.03323
# Poissons Ratio (y) = 0.37775 0.05977
# Poissons Ratio (z) = 0.03419 0.02585
#
# Static dielectric constant tensor:
#      x y z
#    x 2.056550 0.024490 0.043220 
#    y 0.024490 2.059060 0.155690 
#    z 0.043220 0.155690 1.860500 
# 
# From -- ./inp_files/76832.got.cif
#   From: 2010.05.17/outbox.cif.g08.bks.cpg/sg2_39_cif.got.tgz:76832.got - 2010.06.03 11:33:40.
