data_PCOD9039891
_publ_section_title
;
Structure prediction by ZEFSAII (Michael W. Deem and Ramdas Pophale) SiO2 
 PCOD9039891
Probable space group: P -1
;
_chemical_formula_sum "Si O2"
_cell_formula_units_Z 14
_cell_length_a 8.788348
_cell_length_b 14.189198
_cell_length_c 20.912547
_cell_angle_alpha 150.192984
_cell_angle_beta 28.874262
_cell_angle_gamma 139.207968
_cell_volume 625.917990
_symmetry_space_group_name_H-M "P -1"
_symmetry_group_IT_number 2
_symmetry_cell_setting 'triclinic'
loop_
_space_group_symop_operation_xyz
x,y,z
-x,-y,-z
loop_
_atom_site_type_symbol
_atom_site_label
_atom_site_fract_x
_atom_site_fract_y
_atom_site_fract_z
Si Si1 0.899278 0.454118 0.685779
Si Si2 0.698013 0.902003 0.813673
Si Si3 0.663008 0.975769 0.580144
Si Si4 0.732910 0.413810 0.242668
Si Si5 0.851056 0.013239 0.404007
Si Si6 0.822985 0.310116 0.393349
Si Si7 0.356940 0.391091 0.927877
O O1 0.936656 0.231783 0.521059
O O2 0.532035 0.482680 0.856951
O O3 0.109458 0.503470 0.701203
O O4 0.996932 0.589081 0.671238
O O5 0.442060 0.784173 0.798201
O O6 0.894944 0.035051 0.771956
O O7 0.959430 0.771965 0.678412
O O8 0.500000 0.000000 0.000000
O O9 0.793651 0.887611 0.413698
O O10 0.490855 0.176768 0.751216
O O11 0.405422 0.858936 0.644262
O O12 0.000000 0.000000 0.500000
O O13 0.445909 0.542834 0.399205
O O14 0.990773 0.392434 0.079502
O O15 0.500000 0.000000 0.500000
O O16 0.500000 0.500000 0.000000
#
# Coordination Sequence:
#
# PCOD9039891 Si02
#       7
#     2   2   2   2   2   2   2
#     4  10  23  42  72 101 128 176 230 276 341 392
#     4  12  27  45  63  99 139 180 221 277 342 399
#     4  11  23  40  72 100 133 177 231 272 334 405
#     4  11  23  43  73  93 137 176 224 285 332 397
#     4  11  23  45  68  91 141 181 215 277 342 402
#     4  12  23  43  67 102 130 174 232 275 333 407
#     4   9  20  43  63  96 137 169 212 279 337 386
#
# _framework density 22.367146999999999
#
# number of rings (size 3 to 8) (size 9 to 14) (size 15 to 20)
#    0.000    1.143    2.857    4.286    4.000    0.000 
#    7.714    4.286    0.000    0.000    0.000    0.000 
#    0.000    0.000    0.000    0.000    0.000    0.000 
#
# Total GULP energy -78016.548872 kJ/mol
# GULP energy per Si atom -5572.610634 kJ/mol
# Density = 2.231624 g / cm^3
# Si number density = 22.367147 Si / 1000 Ang^3
#
#
#
# Elastic Constant Matrix: (Units=GPa)
#
#
# Indices 1 2 3 4 5 6 
#
# 1 50.7051 4.2362 11.9596 -12.0933 -4.9206 14.6775
# 2 4.2362 151.1569 43.2753 -38.6152 6.0816 -0.7740
# 3 11.9596 43.2753 114.1571 -47.4210 1.5181 -9.5591
# 4 -12.0933 -38.6152 -47.4210 50.7752 4.9429 8.9365
# 5 -4.9206 6.0816 1.5181 4.9429 26.4400 -2.7993
# 6 14.6775 -0.7740 -9.5591 8.9365 -2.7993 42.8752
#
#
#
# Elastic Compliance Matrix: (Units=1/GPa)
#
#
# Indices 1 2 3 4 5 6 
#
# 1 0.024771 0.001410 -0.000713 0.007920 0.001772 -0.010148
# 2 0.001410 0.008675 -0.000662 0.007007 -0.003232 -0.002145
# 3 -0.000713 -0.000662 0.014682 0.013261 -0.003247 0.000529
# 4 0.007920 0.007007 0.013261 0.041816 -0.009667 -0.008975
# 5 0.001772 -0.003232 -0.003247 -0.009667 0.041239 0.003319
# 6 -0.010148 -0.002145 0.000529 -0.008975 0.003319 0.028964
#
#
# Mechanical properties :
#
#
# Convention : Reuss Voigt Hill
#
# Bulk Modulus (GPa) = 20.74834 48.32902 34.53868
# Shear Modulus (GPa) = 28.38603 41.12129 34.75366
#
# Velocity S-wave (km/s) = 3.56630 4.29239 3.94608
# Velocity P-wave (km/s) = 5.12390 6.79854 6.01974
#
# Compressibility (1/GPa) = 0.04819662
#
# Stress axis : x y z
#
# Youngs Moduli (GPa) = 40.37029 115.27723 68.11085
#
# Poissons Ratio (x) = -0.16253 0.04857
# Poissons Ratio (y) = -0.05692 0.04510
# Poissons Ratio (z) = 0.02879 0.07634
#
# Static dielectric constant tensor:
#      x y z
#    x 1.774650 0.015540 0.020450 
#    y 0.015540 1.921610 0.041550 
#    z 0.020450 0.041550 1.845190 
# 
# From -- ./inp_files/398983.got.cif
#   From: 2010.05.17/outbox.cif.g08.bks.cpg/sg2_200_cif.got.tgz:398983.got - 2010.06.03 11:33:40.
