data_PCOD9039584
_publ_section_title
;
Structure prediction by ZEFSAII (Michael W. Deem and Ramdas Pophale) SiO2 
 PCOD9039584
Probable space group: P -1
;
_chemical_formula_sum "Si O2"
_cell_formula_units_Z 16
_cell_length_a 8.769953
_cell_length_b 11.371916
_cell_length_c 8.209049
_cell_angle_alpha 131.369293
_cell_angle_beta 98.068897
_cell_angle_gamma 81.272619
_cell_volume 606.403434
_symmetry_space_group_name_H-M "P -1"
_symmetry_group_IT_number 2
_symmetry_cell_setting 'triclinic'
loop_
_space_group_symop_operation_xyz
x,y,z
-x,-y,-z
loop_
_atom_site_type_symbol
_atom_site_label
_atom_site_fract_x
_atom_site_fract_y
_atom_site_fract_z
Si Si1 0.879329 0.243573 0.939016
Si Si2 0.092295 0.314907 0.738353
Si Si3 0.632851 0.699813 0.030478
Si Si4 0.187513 0.704071 0.508304
Si Si5 0.710717 0.946920 0.682618
Si Si6 0.482001 0.747524 0.397920
Si Si7 0.350756 0.547811 0.701252
Si Si8 0.820194 0.930599 0.054163
O O1 0.972309 0.258388 0.801270
O O2 0.014104 0.169545 0.011577
O O3 0.758158 0.113833 0.788111
O O4 0.781223 0.393380 0.134534
O O5 0.969521 0.373225 0.634575
O O6 0.214537 0.392286 0.946625
O O7 0.193038 0.174428 0.534013
O O8 0.526711 0.717945 0.192024
O O9 0.709763 0.840839 0.077702
O O10 0.512647 0.627348 0.823854
O O11 0.313671 0.710962 0.390807
O O12 0.274151 0.604273 0.573078
O O13 0.158379 0.889112 0.724281
O O14 0.531922 0.918664 0.606805
O O15 0.752732 0.930687 0.863105
O O16 0.599340 0.633070 0.421451
#
# Coordination Sequence:
#
# PCOD9039584 Si02
#       8
#     2   2   2   2   2   2   2   2
#     4  11  22  41  73  99 139 177 226 283 342 400
#     4  10  23  42  69 107 132 174 227 287 334 399
#     4  10  25  45  69  97 139 179 228 279 336 404
#     4  12  24  42  72 100 142 175 226 285 341 396
#     4  11  21  42  66 103 134 175 226 281 332 400
#     4  11  27  44  67 100 141 181 230 274 338 409
#     4  12  25  47  69 101 139 185 222 278 344 408
#     4  11  23  41  71 105 136 175 231 284 345 394
#
# _framework density 26.385073999999999
#
# number of rings (size 3 to 8) (size 9 to 14) (size 15 to 20)
#    0.000    1.000    2.500    3.750    5.250    1.500 
#    0.000   16.875    0.000    0.000    0.000    0.000 
#    0.000    0.000    0.000    0.000    0.000    0.000 
#
# Total GULP energy -89563.302390 kJ/mol
# GULP energy per Si atom -5597.706399 kJ/mol
# Density = 2.632502 g / cm^3
# Si number density = 26.385074 Si / 1000 Ang^3
#
#
#
# Elastic Constant Matrix: (Units=GPa)
#
#
# Indices 1 2 3 4 5 6 
#
# 1 177.4650 59.7203 53.3024 -5.4241 20.8860 0.1800
# 2 59.7203 112.2398 24.7845 -29.7109 -1.9355 -6.7234
# 3 53.3024 24.7845 72.2244 -9.6548 -4.0858 -8.2256
# 4 -5.4241 -29.7109 -9.6548 34.1146 -7.5925 0.3258
# 5 20.8860 -1.9355 -4.0858 -7.5925 51.3107 -17.1346
# 6 0.1800 -6.7234 -8.2256 0.3258 -17.1346 46.9984
#
#
#
# Elastic Compliance Matrix: (Units=1/GPa)
#
#
# Indices 1 2 3 4 5 6 
#
# 1 0.011079 -0.006769 -0.008052 -0.008240 -0.008442 -0.005441
# 2 -0.006769 0.016603 0.002477 0.015760 0.007767 0.005557
# 3 -0.008052 0.002477 0.021450 0.008842 0.008823 0.007295
# 4 -0.008240 0.015760 0.008842 0.047399 0.014616 0.008834
# 5 -0.008442 0.007767 0.008823 0.014616 0.030683 0.013773
# 6 -0.005441 0.005557 0.007295 0.008834 0.013773 0.028330
#
#
# Mechanical properties :
#
#
# Convention : Reuss Voigt Hill
#
# Bulk Modulus (GPa) = 40.91015 70.83817 55.87416
# Shear Modulus (GPa) = 26.54224 41.42620 33.98422
#
# Velocity S-wave (km/s) = 3.17512 3.96670 3.59278
# Velocity P-wave (km/s) = 5.38336 6.91995 6.19945
#
# Compressibility (1/GPa) = 0.02444381
#
# Stress axis : x y z
#
# Youngs Moduli (GPa) = 90.26452 60.23071 46.62030
#
# Poissons Ratio (x) = 0.40772 0.37538
# Poissons Ratio (y) = 0.61103 -0.11550
# Poissons Ratio (z) = 0.72680 -0.14921
#
# Static dielectric constant tensor:
#      x y z
#    x 2.050930 -0.027990 0.025520 
#    y -0.027990 2.085540 0.019440 
#    z 0.025520 0.019440 2.088840 
# 
# From -- ./inp_files/190908.got.cif
#   From: 2010.05.17/outbox.cif.g08.bks.cpg/sg2_96_cif.got.tgz:190908.got - 2010.06.03 11:33:40.
