data_PCOD9039060
_publ_section_title
;
Structure prediction by ZEFSAII (Michael W. Deem and Ramdas Pophale) SiO2 
 PCOD9039060
Probable space group: P -1
;
_chemical_formula_sum "Si O2"
_cell_formula_units_Z 16
_cell_length_a 8.519075
_cell_length_b 10.805176
_cell_length_c 10.575267
_cell_angle_alpha 65.386855
_cell_angle_beta 75.264956
_cell_angle_gamma 60.662505
_cell_volume 769.949036
_symmetry_space_group_name_H-M "P -1"
_symmetry_group_IT_number 2
_symmetry_cell_setting 'triclinic'
loop_
_space_group_symop_operation_xyz
x,y,z
-x,-y,-z
loop_
_atom_site_type_symbol
_atom_site_label
_atom_site_fract_x
_atom_site_fract_y
_atom_site_fract_z
Si Si1 0.011122 0.671078 0.286472
Si Si2 0.620098 0.342679 0.472533
Si Si3 0.213531 0.781088 0.759115
Si Si4 0.730623 0.651148 0.550246
Si Si5 0.638489 0.953361 0.878022
Si Si6 0.527267 0.889634 0.661507
Si Si7 0.891484 0.098825 0.706310
Si Si8 0.021455 0.346434 0.995288
O O1 0.191335 0.524750 0.354746
O O2 0.027523 0.825313 0.242122
O O3 0.859455 0.672024 0.412871
O O4 0.973149 0.648642 0.159537
O O5 0.500000 0.500000 0.500000
O O6 0.710602 0.339075 0.319988
O O7 0.467985 0.287196 0.494192
O O8 0.784328 0.226145 0.571007
O O9 0.372461 0.831005 0.737686
O O10 0.134256 0.705754 0.910673
O O11 0.046358 0.942013 0.688103
O O12 0.709484 0.744273 0.643519
O O13 0.550570 0.961488 0.755833
O O14 0.791043 0.784374 0.939120
O O15 0.741757 0.058212 0.815441
O O16 0.500000 0.000000 0.000000
O O17 0.500000 0.000000 0.500000
O O18 0.000000 0.500000 0.000000
#
# Coordination Sequence:
#
# PCOD9039060 Si02
#       8
#     2   2   2   2   2   2   2   2
#     4  11  24  42  69  95 135 178 228 279 341 406
#     4  11  22  41  67 102 131 171 225 283 338 395
#     4  10  25  42  69  99 135 177 225 279 338 421
#     4  10  23  42  66 101 129 177 228 284 331 408
#     4  11  27  43  68 100 138 177 227 281 337 414
#     4  11  23  45  71  99 138 178 229 278 347 398
#     4  11  24  41  66  99 134 176 222 276 344 401
#     4  11  27  46  67  95 136 184 224 280 352 404
#
# _framework density 20.780598000000001
#
# number of rings (size 3 to 8) (size 9 to 14) (size 15 to 20)
#    0.000    1.250    1.250    3.375    8.750    4.000 
#    0.000    3.125    0.000    0.000    0.000    0.000 
#    0.000    0.000    0.000    0.000    0.000    0.000 
#
# Total GULP energy -89341.503191 kJ/mol
# GULP energy per Si atom -5583.843949 kJ/mol
# Density = 2.073330 g / cm^3
# Si number density = 20.780598 Si / 1000 Ang^3
#
#
#
# Elastic Constant Matrix: (Units=GPa)
#
#
# Indices 1 2 3 4 5 6 
#
# 1 59.8065 20.1939 43.3035 7.0404 -2.2639 6.7933
# 2 20.1939 96.1279 44.3263 19.4153 -12.0133 12.6049
# 3 43.3035 44.3263 105.7643 20.7660 -4.6243 4.0768
# 4 7.0404 19.4153 20.7660 34.7913 -0.1676 -3.7643
# 5 -2.2639 -12.0133 -4.6243 -0.1676 31.0131 3.8211
# 6 6.7933 12.6049 4.0768 -3.7643 3.8211 31.1602
#
#
#
# Elastic Compliance Matrix: (Units=1/GPa)
#
#
# Indices 1 2 3 4 5 6 
#
# 1 0.024284 -0.000052 -0.009842 0.000558 0.000783 -0.004014
# 2 -0.000052 0.015652 -0.004672 -0.006694 0.006224 -0.007281
# 3 -0.009842 -0.004672 0.016367 -0.005029 -0.000278 0.001321
# 4 0.000558 -0.006694 -0.005029 0.036226 -0.004107 0.008124
# 5 0.000783 0.006224 -0.000278 -0.004107 0.035574 -0.007510
# 6 -0.004014 -0.007281 0.001321 0.008124 -0.007510 0.037642
#
#
# Mechanical properties :
#
#
# Convention : Reuss Voigt Hill
#
# Bulk Modulus (GPa) = 36.80186 53.03845 44.92015
# Shear Modulus (GPa) = 24.51786 29.65126 27.08456
#
# Velocity S-wave (km/s) = 3.43861 3.78149 3.61412
# Velocity P-wave (km/s) = 5.78909 6.68167 6.25133
#
# Compressibility (1/GPa) = 0.02717254
#
# Stress axis : x y z
#
# Youngs Moduli (GPa) = 41.17969 63.88799 61.09969
#
# Poissons Ratio (x) = 0.00332 0.60132
# Poissons Ratio (y) = 0.00214 0.28544
# Poissons Ratio (z) = 0.40527 0.29847
#
# Static dielectric constant tensor:
#      x y z
#    x 1.751020 0.016980 0.029420 
#    y 0.016980 1.794720 0.018140 
#    z 0.029420 0.018140 1.726310 
# 
# From -- ./inp_files/184935.got.cif
#   From: 2010.05.17/outbox.cif.g08.bks.cpg/sg2_93_cif.got.tgz:184935.got - 2010.06.03 11:33:40.
