data_PCOD9039949
_publ_section_title
;
Structure prediction by ZEFSAII (Michael W. Deem and Ramdas Pophale) SiO2 
 PCOD9039949
Probable space group: P -1
;
_chemical_formula_sum "Si O2"
_cell_formula_units_Z 16
_cell_length_a 6.333269
_cell_length_b 12.775190
_cell_length_c 13.568302
_cell_angle_alpha 40.430742
_cell_angle_beta 58.719206
_cell_angle_gamma 67.856616
_cell_volume 608.124278
_symmetry_space_group_name_H-M "P -1"
_symmetry_group_IT_number 2
_symmetry_cell_setting 'triclinic'
loop_
_space_group_symop_operation_xyz
x,y,z
-x,-y,-z
loop_
_atom_site_type_symbol
_atom_site_label
_atom_site_fract_x
_atom_site_fract_y
_atom_site_fract_z
Si Si1 0.404318 0.402265 0.481199
Si Si2 0.469289 0.838246 0.902491
Si Si3 0.380160 0.851729 0.695253
Si Si4 0.063434 0.776617 0.206027
Si Si5 0.838966 0.651391 0.188135
Si Si6 0.781626 0.149548 0.660737
Si Si7 0.225907 0.361034 0.333109
Si Si8 0.903577 0.671196 0.928250
O O1 0.572623 0.564867 0.336200
O O2 0.573768 0.265720 0.583228
O O3 0.360500 0.385716 0.387691
O O4 0.126039 0.377462 0.610473
O O5 0.345406 0.890764 0.792260
O O6 0.632374 0.689474 0.939734
O O7 0.666371 0.976191 0.787844
O O8 0.308033 0.789401 0.071304
O O9 0.562643 0.702958 0.742718
O O10 0.116082 0.798466 0.752615
O O11 0.500000 0.000000 0.500000
O O12 0.144206 0.837392 0.250518
O O13 0.884348 0.814561 0.126699
O O14 0.057042 0.516840 0.242576
O O15 0.864775 0.689745 0.040713
O O16 0.027591 0.212138 0.500532
O O17 0.000000 0.500000 0.000000
#
# Coordination Sequence:
#
# PCOD9039949 Si02
#       8
#     2   2   2   2   2   2   2   2
#     4  10  23  42  72  99 142 186 231 280 350 412
#     4  12  27  46  70 103 144 182 235 289 348 414
#     4  12  26  46  75 103 138 184 238 292 355 418
#     4  11  25  43  68 104 141 188 231 284 341 419
#     4  11  24  43  68 104 140 183 232 285 347 413
#     4  10  24  45  68 102 140 187 233 286 342 413
#     4  10  23  43  70 102 140 180 237 287 345 418
#     4  12  28  46  73 105 142 186 234 293 354 413
#
# _framework density 26.310413
#
# number of rings (size 3 to 8) (size 9 to 14) (size 15 to 20)
#    0.000    1.000    1.250    3.750    5.250   11.000 
#    0.000    0.000    0.000    0.000    0.000    0.000 
#    0.000    0.000    0.000    0.000    0.000    0.000 
#
# Total GULP energy -89321.276073 kJ/mol
# GULP energy per Si atom -5582.579755 kJ/mol
# Density = 2.625053 g / cm^3
# Si number density = 26.310413 Si / 1000 Ang^3
#
#
#
# Elastic Constant Matrix: (Units=GPa)
#
#
# Indices 1 2 3 4 5 6 
#
# 1 104.9087 34.3959 30.9891 2.6192 -6.2086 4.8371
# 2 34.3959 50.4849 17.8166 6.3288 2.3636 -5.1975
# 3 30.9891 17.8166 82.0314 5.6741 -10.0229 -13.4846
# 4 2.6192 6.3288 5.6741 41.9139 6.6727 -3.6742
# 5 -6.2086 2.3636 -10.0229 6.6727 64.4577 6.0595
# 6 4.8371 -5.1975 -13.4846 -3.6742 6.0595 42.5461
#
#
#
# Elastic Compliance Matrix: (Units=1/GPa)
#
#
# Indices 1 2 3 4 5 6 
#
# 1 0.013712 -0.008507 -0.003846 0.000381 0.001369 -0.003979
# 2 -0.008507 0.027182 -0.002176 -0.002599 -0.002232 0.003691
# 3 -0.003846 -0.002176 0.015186 -0.001366 0.001778 0.004613
# 4 0.000381 -0.002599 -0.001366 0.025019 -0.002837 0.001771
# 5 0.001369 -0.002232 0.001778 -0.002837 0.016530 -0.002464
# 6 -0.003979 0.003691 0.004613 0.001771 -0.002464 0.026373
#
#
# Mechanical properties :
#
#
# Convention : Reuss Voigt Hill
#
# Bulk Modulus (GPa) = 37.00566 44.86981 40.93773
# Shear Modulus (GPa) = 30.85156 40.06509 35.45833
#
# Velocity S-wave (km/s) = 3.42804 3.90652 3.67507
# Velocity P-wave (km/s) = 5.45565 6.11873 5.79668
#
# Compressibility (1/GPa) = 0.02702289
#
# Stress axis : x y z
#
# Youngs Moduli (GPa) = 72.92859 36.78910 65.85014
#
# Poissons Ratio (x) = 0.31295 0.25323
# Poissons Ratio (y) = 0.62037 0.14331
# Poissons Ratio (z) = 0.28045 0.08007
#
# Static dielectric constant tensor:
#      x y z
#    x 2.204550 -0.054440 0.055940 
#    y -0.054440 2.180310 -0.026480 
#    z 0.055940 -0.026480 2.085490 
# 
# From -- ./inp_files/484210.got.cif
#   From: 2010.05.17/outbox.cif.g08.bks.cpg/sg2_243_cif.got.tgz:484210.got - 2010.06.03 11:33:40.
