data_PCOD9039221
_publ_section_title
;
Structure prediction by ZEFSAII (Michael W. Deem and Ramdas Pophale) SiO2 
 PCOD9039221
Probable space group: P -1
;
_chemical_formula_sum "Si O2"
_cell_formula_units_Z 16
_cell_length_a 11.669054
_cell_length_b 17.051958
_cell_length_c 9.718937
_cell_angle_alpha 25.175291
_cell_angle_beta 105.021537
_cell_angle_gamma 112.163425
_cell_volume 745.083247
_symmetry_space_group_name_H-M "P -1"
_symmetry_group_IT_number 2
_symmetry_cell_setting 'triclinic'
loop_
_space_group_symop_operation_xyz
x,y,z
-x,-y,-z
loop_
_atom_site_type_symbol
_atom_site_label
_atom_site_fract_x
_atom_site_fract_y
_atom_site_fract_z
Si Si1 0.786145 0.652286 0.481622
Si Si2 0.977850 0.479753 0.688812
Si Si3 0.716590 0.955013 0.778541
Si Si4 0.515405 0.369577 0.838352
Si Si5 0.135566 0.972121 0.576580
Si Si6 0.470206 0.604935 0.691846
Si Si7 0.746633 0.899899 0.300117
Si Si8 0.232969 0.736317 0.461652
O O1 0.666076 0.449013 0.784776
O O2 0.813510 0.766084 0.454494
O O3 0.902827 0.614535 0.508920
O O4 0.746920 0.799265 0.135857
O O5 0.110104 0.544748 0.707525
O O6 0.000000 0.500000 0.500000
O O7 0.893961 0.257991 0.045974
O O8 0.794991 0.970569 0.638655
O O9 0.752402 0.155309 0.558784
O O10 0.565800 0.856457 0.857525
O O11 0.500000 0.500000 0.500000
O O12 0.448650 0.444249 0.821696
O O13 0.219629 0.080093 0.561317
O O14 0.000000 0.000000 0.500000
O O15 0.597594 0.786348 0.409221
O O16 0.355445 0.680648 0.557633
O O17 0.500000 0.500000 0.000000
O O18 0.780983 0.108698 0.903021
#
# Coordination Sequence:
#
# PCOD9039221 Si02
#       8
#     2   2   2   2   2   2   2   2
#     4   9  22  43  70  96 133 176 224 263 328 400
#     4  12  26  44  67  97 132 182 224 268 326 407
#     4  10  23  42  67 102 133 172 218 282 327 382
#     4   9  20  40  70  96 126 174 217 268 324 391
#     4  12  27  42  67  99 137 174 220 278 329 389
#     4  11  24  42  68  99 132 172 218 282 333 383
#     4  10  23  45  68  97 131 179 222 270 325 395
#     4  11  26  44  67  96 133 178 224 266 331 402
#
# _framework density 21.47411
#
# number of rings (size 3 to 8) (size 9 to 14) (size 15 to 20)
#    0.000    1.500    1.250    2.625    8.750    4.500 
#    0.000    1.875    0.000    0.000    0.000    0.000 
#    0.000    0.000    0.000    0.000    0.000    0.000 
#
# Total GULP energy -89456.393196 kJ/mol
# GULP energy per Si atom -5591.024575 kJ/mol
# Density = 2.142523 g / cm^3
# Si number density = 21.474110 Si / 1000 Ang^3
#
#
#
# Elastic Constant Matrix: (Units=GPa)
#
#
# Indices 1 2 3 4 5 6 
#
# 1 106.5895 42.7045 1.8541 -7.0726 4.4616 -23.8754
# 2 42.7045 165.3024 23.2300 -3.3877 -10.4045 -21.6589
# 3 1.8541 23.2300 34.2553 -0.8027 -17.3246 -3.3380
# 4 -7.0726 -3.3877 -0.8027 28.3849 0.4303 -11.7081
# 5 4.4616 -10.4045 -17.3246 0.4303 32.0426 0.4649
# 6 -23.8754 -21.6589 -3.3380 -11.7081 0.4649 30.2997
#
#
#
# Elastic Compliance Matrix: (Units=1/GPa)
#
#
# Indices 1 2 3 4 5 6 
#
# 1 0.013682 -0.001947 0.000816 0.008519 -0.002397 0.012808
# 2 -0.001947 0.007831 -0.004615 0.002118 0.000227 0.004370
# 3 0.000816 -0.004615 0.043639 0.001550 0.021926 0.002413
# 4 0.008519 0.002118 0.001550 0.048927 -0.000714 0.027314
# 5 -0.002397 0.000227 0.021926 -0.000714 0.043484 -0.000254
# 6 0.012808 0.004370 0.002413 0.027314 -0.000254 0.057044
#
#
# Mechanical properties :
#
#
# Convention : Reuss Voigt Hill
#
# Bulk Modulus (GPa) = 18.63637 49.08051 33.85844
# Shear Modulus (GPa) = 20.49285 34.03600 27.26443
#
# Velocity S-wave (km/s) = 3.09253 3.98550 3.56707
# Velocity P-wave (km/s) = 4.63131 6.63959 5.72421
#
# Compressibility (1/GPa) = 0.05365852
#
# Stress axis : x y z
#
# Youngs Moduli (GPa) = 73.08740 127.68958 22.91533
#
# Poissons Ratio (x) = 0.24867 -0.01869
# Poissons Ratio (y) = 0.14233 0.10576
# Poissons Ratio (z) = -0.05961 0.58932
#
# Static dielectric constant tensor:
#      x y z
#    x 1.775280 0.019180 -0.031970 
#    y 0.019180 1.793280 -0.026560 
#    z -0.031970 -0.026560 1.797740 
# 
# From -- ./inp_files/206059.got.cif
#   From: 2010.05.17/outbox.cif.g08.bks.cpg/sg2_104_cif.got.tgz:206059.got - 2010.06.03 11:33:40.
