data_PCOD9039130
_publ_section_title
;
Structure prediction by ZEFSAII (Michael W. Deem and Ramdas Pophale) SiO2 
 PCOD9039130
Probable space group: P -1
;
_chemical_formula_sum "Si O2"
_cell_formula_units_Z 16
_cell_length_a 6.079320
_cell_length_b 19.178345
_cell_length_c 8.383541
_cell_angle_alpha 127.548127
_cell_angle_beta 117.592671
_cell_angle_gamma 75.921615
_cell_volume 685.759366
_symmetry_space_group_name_H-M "P -1"
_symmetry_group_IT_number 2
_symmetry_cell_setting 'triclinic'
loop_
_space_group_symop_operation_xyz
x,y,z
-x,-y,-z
loop_
_atom_site_type_symbol
_atom_site_label
_atom_site_fract_x
_atom_site_fract_y
_atom_site_fract_z
Si Si1 0.427131 0.826201 0.488807
Si Si2 0.095959 0.227789 0.755556
Si Si3 0.515228 0.100022 0.716770
Si Si4 0.588003 0.651965 0.460289
Si Si5 0.968966 0.373164 0.183713
Si Si6 0.404873 0.384438 0.937319
Si Si7 0.298678 0.997049 0.077617
Si Si8 0.729678 0.480429 0.665088
O O1 0.366367 0.836042 0.291603
O O2 0.549797 0.747482 0.510945
O O3 0.608485 0.910126 0.687047
O O4 0.153399 0.819941 0.462573
O O5 0.264960 0.147652 0.742424
O O6 0.240204 0.293360 0.773264
O O7 0.035856 0.298058 0.972452
O O8 0.500000 0.000000 0.500000
O O9 0.646917 0.086218 0.909483
O O10 0.845027 0.643307 0.629899
O O11 0.576409 0.595692 0.215040
O O12 0.349367 0.617742 0.439826
O O13 0.039594 0.473279 0.286147
O O14 0.671333 0.369886 0.089651
O O15 0.278819 0.459163 0.097140
O O16 0.500000 0.000000 0.000000
O O17 0.000000 0.000000 0.000000
O O18 0.500000 0.500000 0.500000
#
# Coordination Sequence:
#
# PCOD9039130 Si02
#       8
#     2   2   2   2   2   2   2   2
#     4  11  25  45  70  99 141 187 238 298 367 435
#     4  11  22  44  68  98 139 183 237 294 367 424
#     4  10  24  44  70  94 137 181 232 293 363 434
#     4  11  22  43  66 100 135 181 243 290 359 437
#     4  10  23  42  66  95 143 182 237 297 360 423
#     4  11  22  44  65 100 136 188 233 299 357 430
#     4  11  29  48  75 111 146 188 244 302 370 450
#     4   9  22  42  63  98 138 183 238 290 359 424
#
# _framework density 23.331799
#
# number of rings (size 3 to 8) (size 9 to 14) (size 15 to 20)
#    0.000    1.500    2.500    0.375    7.000    4.500 
#    9.000    0.000    0.000    0.000    0.000    0.000 
#    0.000    0.000    0.000    0.000    0.000    0.000 
#
# Total GULP energy -89082.857165 kJ/mol
# GULP energy per Si atom -5567.678573 kJ/mol
# Density = 2.327869 g / cm^3
# Si number density = 23.331799 Si / 1000 Ang^3
#
#
#
# Elastic Constant Matrix: (Units=GPa)
#
#
# Indices 1 2 3 4 5 6 
#
# 1 115.7393 57.9229 42.3143 -11.7707 31.9222 0.1028
# 2 57.9229 158.9378 34.8347 -11.8981 16.6090 16.3769
# 3 42.3143 34.8347 49.6415 0.8769 31.3843 10.8162
# 4 -11.7707 -11.8981 0.8769 36.4948 2.2191 3.6092
# 5 31.9222 16.6090 31.3843 2.2191 47.1331 5.3177
# 6 0.1028 16.3769 10.8162 3.6092 5.3177 44.1955
#
#
#
# Elastic Compliance Matrix: (Units=1/GPa)
#
#
# Indices 1 2 3 4 5 6 
#
# 1 0.014892 -0.003132 -0.009114 0.003871 -0.003486 0.003460
# 2 -0.003132 0.008527 -0.004068 0.001998 0.002020 -0.002563
# 3 -0.009114 -0.004068 0.046505 -0.003339 -0.022426 -0.006882
# 4 0.003871 0.001998 -0.003339 0.029726 -0.002266 -0.002087
# 5 -0.003486 0.002020 -0.022426 -0.002266 0.037862 0.000377
# 6 0.003460 -0.002563 -0.006882 -0.002087 0.000377 0.025378
#
#
# Mechanical properties :
#
#
# Convention : Reuss Voigt Hill
#
# Bulk Modulus (GPa) = 26.81355 66.05138 46.43247
# Shear Modulus (GPa) = 24.04424 38.18112 31.11268
#
# Velocity S-wave (km/s) = 3.21368 4.04968 3.65566
# Velocity P-wave (km/s) = 5.02867 7.08785 6.14513
#
# Compressibility (1/GPa) = 0.03729458
#
# Stress axis : x y z
#
# Youngs Moduli (GPa) = 67.15120 117.26853 21.50322
#
# Poissons Ratio (x) = 0.36728 0.19599
# Poissons Ratio (y) = 0.21032 0.08748
# Poissons Ratio (z) = 0.61204 0.47709
#
# Static dielectric constant tensor:
#      x y z
#    x 1.990940 0.001200 -0.069150 
#    y 0.001200 1.866170 0.008520 
#    z -0.069150 0.008520 1.921050 
# 
# From -- ./inp_files/139435.got.cif
#   From: 2010.05.17/outbox.cif.g08.bks.cpg/sg2_70_cif.got.tgz:139435.got - 2010.06.03 11:33:40.
