data_PCOD9039175
_publ_section_title
;
Structure prediction by ZEFSAII (Michael W. Deem and Ramdas Pophale) SiO2 
 PCOD9039175
Probable space group: P -1
;
_chemical_formula_sum "Si O2"
_cell_formula_units_Z 14
_cell_length_a 13.610319
_cell_length_b 8.712438
_cell_length_c 12.504321
_cell_angle_alpha 80.510606
_cell_angle_beta 31.127201
_cell_angle_gamma 59.570857
_cell_volume 527.340196
_symmetry_space_group_name_H-M "P -1"
_symmetry_group_IT_number 2
_symmetry_cell_setting 'triclinic'
loop_
_space_group_symop_operation_xyz
x,y,z
-x,-y,-z
loop_
_atom_site_type_symbol
_atom_site_label
_atom_site_fract_x
_atom_site_fract_y
_atom_site_fract_z
Si Si1 0.403826 0.047591 0.706831
Si Si2 0.929547 0.169497 0.425508
Si Si3 0.146680 0.743147 0.885749
Si Si4 0.617989 0.591008 0.570443
Si Si5 0.220020 0.260700 0.239060
Si Si6 0.481631 0.663227 0.926239
Si Si7 0.633517 0.657836 0.120054
O O1 0.433978 0.172201 0.746148
O O2 0.500000 0.000000 0.500000
O O3 0.589040 0.790371 0.593862
O O4 0.080004 0.205490 0.981809
O O5 0.877817 0.327703 0.362955
O O6 0.662119 0.220764 0.664801
O O7 0.002930 0.246099 0.444410
O O8 0.193739 0.913479 0.189368
O O9 0.455550 0.633009 0.611320
O O10 0.201091 0.576185 0.945061
O O11 0.000000 0.000000 0.000000
O O12 0.477721 0.622799 0.810062
O O13 0.285391 0.344433 0.262419
O O14 0.208649 0.368505 0.127553
O O15 0.500000 0.000000 0.000000
O O16 0.500000 0.500000 0.000000
#
# Coordination Sequence:
#
# PCOD9039175 Si02
#       7
#     2   2   2   2   2   2   2
#     4  11  24  40  65 100 130 176 227 273 352 398
#     4  10  24  43  67  95 138 176 226 271 345 402
#     4   9  21  43  64  92 133 171 222 280 335 398
#     4  10  23  44  64  99 136 174 224 286 328 408
#     4  10  23  42  66  99 132 173 223 271 342 406
#     4  11  23  41  72 101 132 181 222 277 347 404
#     4  11  23  44  70  96 135 179 224 290 333 406
#
# _framework density 26.548324999999998
#
# number of rings (size 3 to 8) (size 9 to 14) (size 15 to 20)
#    0.000    1.714    0.000    3.857    4.000    6.857 
#    7.714    2.143    0.000    0.000    0.000    0.000 
#    0.000    0.000    0.000    0.000    0.000    0.000 
#
# Total GULP energy -78008.182401 kJ/mol
# GULP energy per Si atom -5572.013029 kJ/mol
# Density = 2.648790 g / cm^3
# Si number density = 26.548325 Si / 1000 Ang^3
#
#
#
# Elastic Constant Matrix: (Units=GPa)
#
#
# Indices 1 2 3 4 5 6 
#
# 1 165.4747 68.3053 72.4312 -3.1477 3.7043 49.7905
# 2 68.3053 198.4628 39.1670 35.6041 5.2348 -12.8646
# 3 72.4312 39.1670 96.4866 -6.4350 -30.8285 6.6778
# 4 -3.1477 35.6041 -6.4350 50.7297 -1.8987 -10.2855
# 5 3.7043 5.2348 -30.8285 -1.8987 67.5619 -10.0844
# 6 49.7905 -12.8646 6.6778 -10.2855 -10.0844 50.0286
#
#
#
# Elastic Compliance Matrix: (Units=1/GPa)
#
#
# Indices 1 2 3 4 5 6 
#
# 1 0.025945 -0.005906 -0.019912 -0.003024 -0.014344 -0.028195
# 2 -0.005906 0.008218 0.000583 -0.004576 0.000892 0.007153
# 3 -0.019912 0.000583 0.029843 0.007087 0.018008 0.021071
# 4 -0.003024 -0.004576 0.007087 0.025304 0.005541 0.007206
# 5 -0.014344 0.000892 0.018008 0.005541 0.026670 0.018617
# 6 -0.028195 0.007153 0.021071 0.007206 0.018617 0.052311
#
#
# Mechanical properties :
#
#
# Convention : Reuss Voigt Hill
#
# Bulk Modulus (GPa) = 73.88557 91.13679 82.51118
# Shear Modulus (GPa) = 22.39408 52.36539 37.37974
#
# Velocity S-wave (km/s) = 2.90750 4.44605 3.75639
# Velocity P-wave (km/s) = 6.25799 7.79485 7.06831
#
# Compressibility (1/GPa) = 0.01353444
#
# Stress axis : x y z
#
# Youngs Moduli (GPa) = 38.54373 121.68918 33.50817
#
# Poissons Ratio (x) = 0.71876 0.66722
# Poissons Ratio (y) = 0.22766 -0.01953
# Poissons Ratio (z) = 0.76748 -0.07093
#
# Static dielectric constant tensor:
#      x y z
#    x 2.161520 -0.031580 -0.059940 
#    y -0.031580 2.236960 0.009990 
#    z -0.059940 0.009990 2.246390 
# 
# From -- ./inp_files/528451.got.cif
#   From: 2010.05.17/outbox.cif.g08.bks.cpg/sg2_265_cif.got.tgz:528451.got - 2010.06.03 11:33:40.
