data_PCOD9039059
_publ_section_title
;
Structure prediction by ZEFSAII (Michael W. Deem and Ramdas Pophale) SiO2 
 PCOD9039059
Probable space group: P -1
;
_chemical_formula_sum "Si O2"
_cell_formula_units_Z 14
_cell_length_a 5.220465
_cell_length_b 11.347082
_cell_length_c 11.662213
_cell_angle_alpha 110.354210
_cell_angle_beta 86.964127
_cell_angle_gamma 118.868116
_cell_volume 561.624012
_symmetry_space_group_name_H-M "P -1"
_symmetry_group_IT_number 2
_symmetry_cell_setting 'triclinic'
loop_
_space_group_symop_operation_xyz
x,y,z
-x,-y,-z
loop_
_atom_site_type_symbol
_atom_site_label
_atom_site_fract_x
_atom_site_fract_y
_atom_site_fract_z
Si Si1 0.457153 0.366685 0.801751
Si Si2 0.917650 0.060633 0.637376
Si Si3 0.454295 0.815433 0.681736
Si Si4 0.759178 0.257433 0.598885
Si Si5 0.527546 0.674215 0.944000
Si Si6 0.216416 0.845328 0.918323
Si Si7 0.255728 0.506856 0.579790
O O1 0.686918 0.366601 0.704897
O O2 0.451787 0.516275 0.844804
O O3 0.183176 0.208280 0.728397
O O4 0.526162 0.353010 0.927663
O O5 0.691592 0.116893 0.624607
O O6 0.782472 0.947875 0.706137
O O7 0.000000 0.000000 0.500000
O O8 0.374782 0.789981 0.540049
O O9 0.246058 0.845868 0.779058
O O10 0.415485 0.666580 0.681325
O O11 0.106226 0.359343 0.603767
O O12 0.310317 0.732123 0.928246
O O13 0.877440 0.789752 0.946724
O O14 0.500000 0.000000 0.000000
O O15 0.500000 0.500000 0.500000
O O16 0.000000 0.500000 0.500000
#
# Coordination Sequence:
#
# PCOD9039059 Si02
#       7
#     2   2   2   2   2   2   2
#     4  11  27  47  77 108 150 199 259 315 377 453
#     4  12  25  43  71 111 155 193 249 311 389 449
#     4  11  25  44  70 109 144 193 244 312 381 448
#     4  11  25  44  73 108 149 194 249 315 383 453
#     4  11  29  51  78 111 148 208 257 314 372 455
#     4  12  28  51  77 109 152 200 259 311 383 452
#     4  10  23  42  66 100 142 184 232 291 364 443
#
# _framework density 24.927712
#
# number of rings (size 3 to 8) (size 9 to 14) (size 15 to 20)
#    0.000    0.857    1.429    3.429   10.000    4.571 
#    0.000    0.000    0.000    0.000    0.000    0.000 
#    0.000    0.000    0.000    0.000    0.000    0.000 
#
# Total GULP energy -78217.650951 kJ/mol
# GULP energy per Si atom -5586.975068 kJ/mol
# Density = 2.487098 g / cm^3
# Si number density = 24.927712 Si / 1000 Ang^3
#
#
#
# Elastic Constant Matrix: (Units=GPa)
#
#
# Indices 1 2 3 4 5 6 
#
# 1 77.4491 3.7750 4.6162 -7.9303 0.1883 -0.7925
# 2 3.7750 126.8360 1.1386 9.5303 5.0294 7.2879
# 3 4.6162 1.1386 113.7599 -0.6745 -6.7756 -9.8207
# 4 -7.9303 9.5303 -0.6745 47.1257 7.2137 -2.3015
# 5 0.1883 5.0294 -6.7756 7.2137 19.1168 0.2716
# 6 -0.7925 7.2879 -9.8207 -2.3015 0.2716 51.1761
#
#
#
# Elastic Compliance Matrix: (Units=1/GPa)
#
#
# Indices 1 2 3 4 5 6 
#
# 1 0.013236 -0.000550 -0.000559 0.002519 -0.001139 0.000295
# 2 -0.000550 0.008159 -0.000277 -0.001559 -0.001632 -0.001285
# 3 -0.000559 -0.000277 0.009170 -0.000347 0.003434 0.001757
# 4 0.002519 -0.001559 -0.000347 0.023327 -0.008558 0.001289
# 5 -0.001139 -0.001632 0.003434 -0.008558 0.057195 0.000185
# 6 0.000295 -0.001285 0.001757 0.001289 0.000185 0.020122
#
#
# Mechanical properties :
#
#
# Convention : Reuss Voigt Hill
#
# Bulk Modulus (GPa) = 35.98034 37.45606 36.71820
# Shear Modulus (GPa) = 34.90545 44.05141 39.47843
#
# Velocity S-wave (km/s) = 3.74607 4.20833 3.98391
# Velocity P-wave (km/s) = 5.75986 6.21867 5.99366
#
# Compressibility (1/GPa) = 0.02779296
#
# Stress axis : x y z
#
# Youngs Moduli (GPa) = 75.55398 122.56727 109.05081
#
# Poissons Ratio (x) = 0.06741 0.06095
# Poissons Ratio (y) = 0.04156 0.03018
# Poissons Ratio (z) = 0.04223 0.03392
#
# Static dielectric constant tensor:
#      x y z
#    x 2.105040 0.045470 0.089250 
#    y 0.045470 1.922870 0.103410 
#    z 0.089250 0.103410 1.983880 
# 
# From -- ./inp_files/365221.got.cif
#   From: 2010.05.17/outbox.cif.g08.bks.cpg/sg2_183_cif.got.tgz:365221.got - 2010.06.03 11:33:40.
