data_PCOD9039294
_publ_section_title
;
Structure prediction by ZEFSAII (Michael W. Deem and Ramdas Pophale) SiO2 
 PCOD9039294
Probable space group: P -1
;
_chemical_formula_sum "Si O2"
_cell_formula_units_Z 16
_cell_length_a 11.693734
_cell_length_b 11.341503
_cell_length_c 11.049657
_cell_angle_alpha 65.407877
_cell_angle_beta 71.541313
_cell_angle_gamma 29.196495
_cell_volume 646.408912
_symmetry_space_group_name_H-M "P -1"
_symmetry_group_IT_number 2
_symmetry_cell_setting 'triclinic'
loop_
_space_group_symop_operation_xyz
x,y,z
-x,-y,-z
loop_
_atom_site_type_symbol
_atom_site_label
_atom_site_fract_x
_atom_site_fract_y
_atom_site_fract_z
Si Si1 0.320381 0.607116 0.611510
Si Si2 0.226546 0.283338 0.608099
Si Si3 0.803074 0.964493 0.260022
Si Si4 0.909511 0.134632 0.177949
Si Si5 0.636417 0.107014 0.842670
Si Si6 0.990875 0.282588 0.455710
Si Si7 0.717076 0.803148 0.767631
Si Si8 0.617613 0.617906 0.939235
O O1 0.500000 0.500000 0.500000
O O2 0.252212 0.739536 0.702759
O O3 0.082483 0.783974 0.548427
O O4 0.438532 0.366390 0.724171
O O5 0.242799 0.426209 0.547683
O O6 0.000000 0.500000 0.500000
O O7 0.146613 0.224276 0.732570
O O8 0.506452 0.994141 0.656077
O O9 0.971295 0.933168 0.196712
O O10 0.551307 0.244335 0.177477
O O11 0.823582 0.909007 0.418179
O O12 0.128486 0.022637 0.189308
O O13 0.763915 0.356644 0.037785
O O14 0.655841 0.948462 0.842453
O O15 0.554726 0.187210 0.974174
O O16 0.076702 0.308560 0.318516
O O17 0.764777 0.613251 0.873451
#
# Coordination Sequence:
#
# PCOD9039294 Si02
#       8
#     2   2   2   2   2   2   2   2
#     4  11  24  41  67 103 135 169 216 280 343 399
#     4   9  21  40  62  96 135 169 214 271 329 389
#     4  10  23  42  67  95 134 180 217 270 331 404
#     4  11  24  44  67  97 135 177 226 271 335 398
#     4  11  23  42  66  97 133 176 225 277 329 395
#     4  11  22  41  70 102 131 169 223 281 342 390
#     4  11  22  41  69  99 133 173 228 278 333 396
#     4  10  25  43  62  96 134 181 226 273 321 394
#
# _framework density 24.752134999999999
#
# number of rings (size 3 to 8) (size 9 to 14) (size 15 to 20)
#    0.000    1.500    2.500    1.500    1.750    8.500 
#    0.000   10.000    0.000    0.000    0.000    0.000 
#    0.000    0.000    0.000    0.000    0.000    0.000 
#
# Total GULP energy -89100.769477 kJ/mol
# GULP energy per Si atom -5568.798092 kJ/mol
# Density = 2.469580 g / cm^3
# Si number density = 24.752135 Si / 1000 Ang^3
#
#
#
# Elastic Constant Matrix: (Units=GPa)
#
#
# Indices 1 2 3 4 5 6 
#
# 1 116.1292 17.8533 39.4803 -3.3354 -16.6295 -2.3033
# 2 17.8533 16.1168 28.1710 1.8631 -7.6997 -4.0544
# 3 39.4803 28.1710 113.3132 -12.2493 -14.2330 2.0678
# 4 -3.3354 1.8631 -12.2493 43.5420 -3.2967 -11.1014
# 5 -16.6295 -7.6997 -14.2330 -3.2967 46.2026 -8.3766
# 6 -2.3033 -4.0544 2.0678 -11.1014 -8.3766 27.0454
#
#
#
# Elastic Compliance Matrix: (Units=1/GPa)
#
#
# Indices 1 2 3 4 5 6 
#
# 1 0.010726 -0.008605 -0.001185 0.001277 0.002326 0.000959
# 2 -0.008605 0.140230 -0.031407 -0.008375 0.014292 0.023679
# 3 -0.001185 -0.031407 0.017589 0.005060 -0.000657 -0.004280
# 4 0.001277 -0.008375 0.005060 0.028127 0.004709 0.011470
# 5 0.002326 0.014292 -0.000657 0.004709 0.027314 0.012784
# 6 0.000959 0.023679 -0.004280 0.011470 0.012784 0.049601
#
#
# Mechanical properties :
#
#
# Convention : Reuss Voigt Hill
#
# Bulk Modulus (GPa) = 11.60766 46.28538 28.94652
# Shear Modulus (GPa) = 12.99725 34.02832 23.51278
#
# Velocity S-wave (km/s) = 2.29398 3.71180 3.08544
# Velocity P-wave (km/s) = 3.42290 6.09181 4.94097
#
# Compressibility (1/GPa) = 0.08614998
#
# Stress axis : x y z
#
# Youngs Moduli (GPa) = 93.23407 7.13116 56.85520
#
# Poissons Ratio (x) = 0.06137 0.06737
# Poissons Ratio (y) = 0.80232 1.78563
# Poissons Ratio (z) = 0.11047 0.22397
#
# Static dielectric constant tensor:
#      x y z
#    x 2.144460 0.162360 0.099980 
#    y 0.162360 2.203820 0.133460 
#    z 0.099980 0.133460 1.958740 
# 
# From -- ./inp_files/363905.got.cif
#   From: 2010.05.17/outbox.cif.g08.bks.cpg/sg2_182_cif.got.tgz:363905.got - 2010.06.03 11:33:40.
