data_PCOD9039715
_publ_section_title
;
Structure prediction by ZEFSAII (Michael W. Deem and Ramdas Pophale) SiO2 
 PCOD9039715
Probable space group: P -1
;
_chemical_formula_sum "Si O2"
_cell_formula_units_Z 16
_cell_length_a 19.474795
_cell_length_b 10.064614
_cell_length_c 5.792312
_cell_angle_alpha 116.963688
_cell_angle_beta 75.058119
_cell_angle_gamma 144.057323
_cell_volume 580.871294
_symmetry_space_group_name_H-M "P -1"
_symmetry_group_IT_number 2
_symmetry_cell_setting 'triclinic'
loop_
_space_group_symop_operation_xyz
x,y,z
-x,-y,-z
loop_
_atom_site_type_symbol
_atom_site_label
_atom_site_fract_x
_atom_site_fract_y
_atom_site_fract_z
Si Si1 0.370418 0.450530 0.021595
Si Si2 0.954107 0.264039 0.936733
Si Si3 0.283062 0.518614 0.494582
Si Si4 0.860817 0.885138 0.351994
Si Si5 0.594283 0.987551 0.046149
Si Si6 0.910184 0.656209 0.752620
Si Si7 0.402596 0.232104 0.516128
Si Si8 0.201136 0.823189 0.677713
O O1 0.258376 0.291860 0.829900
O O2 0.404879 0.340029 0.833490
O O3 0.337257 0.451474 0.308531
O O4 0.477275 0.742354 0.095005
O O5 0.887310 0.066668 0.639173
O O6 0.861711 0.140566 0.128264
O O7 0.000000 0.500000 0.000000
O O8 0.057079 0.333880 0.008720
O O9 0.174863 0.305833 0.594190
O O10 0.216759 0.481043 0.300880
O O11 0.371853 0.784325 0.751007
O O12 0.977734 0.069122 0.239685
O O13 0.703086 0.079027 0.143134
O O14 0.573524 0.886099 0.728247
O O15 0.895694 0.470479 0.498198
O O16 0.500000 0.500000 0.500000
O O17 0.262482 0.953882 0.479734
#
# Coordination Sequence:
#
# PCOD9039715 Si02
#       8
#     2   2   2   2   2   2   2   2
#     4  11  25  45  70 107 154 195 255 310 365 450
#     4  12  26  45  76 109 151 197 252 315 388 445
#     4  11  26  47  74 108 154 204 248 305 375 459
#     4  12  25  43  71 106 153 200 247 305 380 446
#     4  10  25  46  72 108 146 201 251 304 375 445
#     4  11  26  44  70 109 144 198 253 308 371 458
#     4  10  23  42  70 104 145 192 247 308 369 434
#     4  11  23  42  73 106 149 187 247 316 372 446
#
# _framework density 27.544830000000001
#
# number of rings (size 3 to 8) (size 9 to 14) (size 15 to 20)
#    0.000    1.000    1.250    4.125    3.500    9.500 
#    0.000    0.000    0.000    0.000    0.000    0.000 
#    0.000    0.000    0.000    0.000    0.000    0.000 
#
# Total GULP energy -89370.378713 kJ/mol
# GULP energy per Si atom -5585.648670 kJ/mol
# Density = 2.748214 g / cm^3
# Si number density = 27.544830 Si / 1000 Ang^3
#
#
#
# Elastic Constant Matrix: (Units=GPa)
#
#
# Indices 1 2 3 4 5 6 
#
# 1 87.3796 23.7345 87.2222 7.8770 -0.6546 -4.9328
# 2 23.7345 176.7608 64.9508 15.1511 -21.8442 -8.8596
# 3 87.2222 64.9508 197.8518 21.2242 -32.2931 13.6867
# 4 7.8770 15.1511 21.2242 57.7707 17.0787 -5.7646
# 5 -0.6546 -21.8442 -32.2931 17.0787 54.3501 5.7347
# 6 -4.9328 -8.8596 13.6867 -5.7646 5.7347 38.4551
#
#
#
# Elastic Compliance Matrix: (Units=1/GPa)
#
#
# Indices 1 2 3 4 5 6 
#
# 1 0.026649 0.000650 -0.015422 0.006555 -0.011887 0.011812
# 2 0.000650 0.006813 -0.002259 -0.001318 0.001605 0.002020
# 3 -0.015422 -0.002259 0.016242 -0.008029 0.012273 -0.011313
# 4 0.006555 -0.001318 -0.008029 0.024759 -0.013971 0.009190
# 5 -0.011887 0.001605 0.012273 -0.013971 0.031889 -0.012373
# 6 0.011812 0.002020 -0.011313 0.009190 -0.012373 0.035234
#
#
# Mechanical properties :
#
#
# Convention : Reuss Voigt Hill
#
# Bulk Modulus (GPa) = 63.93698 90.42302 77.18000
# Shear Modulus (GPa) = 27.64550 49.18748 38.41649
#
# Velocity S-wave (km/s) = 3.17149 4.23037 3.73861
# Velocity P-wave (km/s) = 6.05586 7.53394 6.83497
#
# Compressibility (1/GPa) = 0.01564040
#
# Stress axis : x y z
#
# Youngs Moduli (GPa) = 37.52541 146.78089 61.57001
#
# Poissons Ratio (x) = -0.09536 0.94951
# Poissons Ratio (y) = -0.02438 0.13911
# Poissons Ratio (z) = 0.57870 0.33164
#
# Static dielectric constant tensor:
#      x y z
#    x 2.182470 -0.005290 0.023420 
#    y -0.005290 2.160610 -0.023200 
#    z 0.023420 -0.023200 2.124140 
# 
# From -- ./inp_files/123783.got.cif
#   From: 2010.05.17/outbox.cif.g08.bks.cpg/sg2_62_cif.got.tgz:123783.got - 2010.06.03 11:33:40.
