data_PCOD9039032
_publ_section_title
;
Structure prediction by ZEFSAII (Michael W. Deem and Ramdas Pophale) SiO2 
 PCOD9039032
Probable space group: P -1
;
_chemical_formula_sum "Si O2"
_cell_formula_units_Z 16
_cell_length_a 10.456644
_cell_length_b 7.833913
_cell_length_c 13.804024
_cell_angle_alpha 101.547330
_cell_angle_beta 56.070358
_cell_angle_gamma 132.313872
_cell_volume 664.777381
_symmetry_space_group_name_H-M "P -1"
_symmetry_group_IT_number 2
_symmetry_cell_setting 'triclinic'
loop_
_space_group_symop_operation_xyz
x,y,z
-x,-y,-z
loop_
_atom_site_type_symbol
_atom_site_label
_atom_site_fract_x
_atom_site_fract_y
_atom_site_fract_z
Si Si1 0.053110 0.394081 0.889237
Si Si2 0.864458 0.055486 0.304655
Si Si3 0.792452 0.164670 0.691068
Si Si4 0.634974 0.927059 0.929191
Si Si5 0.661398 0.455783 0.841841
Si Si6 0.648534 0.804785 0.546400
Si Si7 0.214485 0.610013 0.633936
Si Si8 0.580421 0.589180 0.245125
O O1 0.107163 0.519185 0.776129
O O2 0.256557 0.443582 0.841947
O O3 0.846630 0.114257 0.925797
O O4 0.000000 0.500000 0.000000
O O5 0.772681 0.177992 0.375080
O O6 0.113486 0.275173 0.203790
O O7 0.828104 0.916457 0.402459
O O8 0.729273 0.858188 0.255910
O O9 0.711188 0.296231 0.765205
O O10 0.047250 0.383295 0.609774
O O11 0.711288 0.977884 0.791965
O O12 0.709831 0.018075 0.610809
O O13 0.479195 0.670166 0.016458
O O14 0.500000 0.000000 0.000000
O O15 0.536326 0.444631 0.805521
O O16 0.436591 0.687670 0.562599
O O17 0.585519 0.604288 0.624614
#
# Coordination Sequence:
#
# PCOD9039032 Si02
#       8
#     2   2   2   2   2   2   2   2
#     4  10  23  42  67  95 126 170 216 265 326 395
#     4  11  24  44  63  96 136 169 222 268 320 389
#     4   9  20  41  67  96 128 169 228 262 315 382
#     4   9  20  40  68  94 127 167 212 267 317 386
#     4  10  23  42  65  97 135 176 209 270 328 382
#     4  11  23  40  69  93 127 181 219 269 321 376
#     4   9  21  40  66  98 127 165 222 272 314 380
#     4  11  26  42  62  97 134 170 216 268 334 390
#
# _framework density 24.068210000000001
#
# number of rings (size 3 to 8) (size 9 to 14) (size 15 to 20)
#    0.000    2.000    0.000    2.250    8.750    7.000 
#    0.000    1.250    0.000    0.000    0.000    0.000 
#    0.000    0.000    0.000    0.000    0.000    0.000 
#
# Total GULP energy -89676.813111 kJ/mol
# GULP energy per Si atom -5604.800819 kJ/mol
# Density = 2.401343 g / cm^3
# Si number density = 24.068210 Si / 1000 Ang^3
#
#
#
# Elastic Constant Matrix: (Units=GPa)
#
#
# Indices 1 2 3 4 5 6 
#
# 1 122.7800 38.2438 29.5527 -12.5257 15.1590 -0.8889
# 2 38.2438 130.8869 43.7597 -9.0404 12.1159 4.8375
# 3 29.5527 43.7597 89.4101 -25.8276 2.0490 -0.3305
# 4 -12.5257 -9.0404 -25.8276 43.1277 -8.8000 3.4123
# 5 15.1590 12.1159 2.0490 -8.8000 19.0842 -1.7338
# 6 -0.8889 4.8375 -0.3305 3.4123 -1.7338 29.5007
#
#
#
# Elastic Compliance Matrix: (Units=1/GPa)
#
#
# Indices 1 2 3 4 5 6 
#
# 1 0.010032 -0.001475 -0.002531 -0.000331 -0.006900 0.000149
# 2 -0.001475 0.010235 -0.005089 -0.002421 -0.006065 -0.001856
# 3 -0.002531 -0.005089 0.017265 0.010170 0.008100 0.000251
# 4 -0.000331 -0.002421 0.010170 0.031965 0.015239 -0.002301
# 5 -0.006900 -0.006065 0.008100 0.015239 0.068171 0.003121
# 6 0.000149 -0.001856 0.000251 -0.002301 0.003121 0.034659
#
#
# Mechanical properties :
#
#
# Convention : Reuss Voigt Hill
#
# Bulk Modulus (GPa) = 51.69961 62.90992 57.30476
# Shear Modulus (GPa) = 25.38501 33.77726 29.58113
#
# Velocity S-wave (km/s) = 3.25115 3.75026 3.50959
# Velocity P-wave (km/s) = 5.96829 6.70429 6.34697
#
# Compressibility (1/GPa) = 0.01934251
#
# Stress axis : x y z
#
# Youngs Moduli (GPa) = 99.67616 97.69966 57.92035
#
# Poissons Ratio (x) = 0.14408 0.14661
# Poissons Ratio (y) = 0.14700 0.29478
# Poissons Ratio (z) = 0.25230 0.49723
#
# Static dielectric constant tensor:
#      x y z
#    x 1.906470 -0.049400 -0.030930 
#    y -0.049400 1.925280 -0.025880 
#    z -0.030930 -0.025880 1.896220 
# 
# From -- ./inp_files/515768.got.cif
#   From: 2010.05.17/outbox.cif.g08.bks.cpg/sg2_258_cif.got.tgz:515768.got - 2010.06.03 11:33:40.
