data_PCOD9039292
_publ_section_title
;
Structure prediction by ZEFSAII (Michael W. Deem and Ramdas Pophale) SiO2 
 PCOD9039292
Probable space group: P -1
;
_chemical_formula_sum "Si O2"
_cell_formula_units_Z 16
_cell_length_a 13.158755
_cell_length_b 21.861320
_cell_length_c 7.260333
_cell_angle_alpha 81.132372
_cell_angle_beta 98.800725
_cell_angle_gamma 160.609233
_cell_volume 684.950394
_symmetry_space_group_name_H-M "P -1"
_symmetry_group_IT_number 2
_symmetry_cell_setting 'triclinic'
loop_
_space_group_symop_operation_xyz
x,y,z
-x,-y,-z
loop_
_atom_site_type_symbol
_atom_site_label
_atom_site_fract_x
_atom_site_fract_y
_atom_site_fract_z
Si Si1 0.678265 0.832000 0.895247
Si Si2 0.221848 0.790125 0.886244
Si Si3 0.629042 0.909641 0.100970
Si Si4 0.180952 0.812315 0.253920
Si Si5 0.990614 0.593051 0.569438
Si Si6 0.643267 0.674907 0.949717
Si Si7 0.637169 0.578718 0.300253
Si Si8 0.513027 0.224987 0.486834
O O1 0.529617 0.680730 0.900216
O O2 0.722323 0.888768 0.683263
O O3 0.509777 0.783831 0.005831
O O4 0.000000 0.000000 0.000000
O O5 0.004411 0.634122 0.751497
O O6 0.458545 0.968111 0.757120
O O7 0.433835 0.857958 0.010432
O O8 0.087387 0.750742 0.041032
O O9 0.603795 0.878268 0.322047
O O10 0.987339 0.119736 0.059459
O O11 0.088958 0.699900 0.396244
O O12 0.996178 0.764932 0.310999
O O13 0.239484 0.678890 0.588650
O O14 0.677515 0.380851 0.531053
O O15 0.512355 0.559737 0.801734
O O16 0.573841 0.605404 0.159894
O O17 0.500000 0.500000 0.500000
#
# Coordination Sequence:
#
# PCOD9039292 Si02
#       8
#     2   2   2   2   2   2   2   2
#     4  10  23  42  67  95 132 180 227 279 336 404
#     4  11  23  43  70 100 137 185 225 287 350 400
#     4  11  22  43  71  97 138 183 225 287 343 413
#     4  11  24  44  69 102 137 177 237 286 341 419
#     4  11  24  40  65 102 140 179 224 281 350 412
#     4  10  24  43  66 100 132 177 236 276 340 408
#     4  11  25  44  69  98 137 182 224 286 342 406
#     4  11  24  40  65 102 139 178 230 282 338 420
#
# _framework density 23.359355999999998
#
# number of rings (size 3 to 8) (size 9 to 14) (size 15 to 20)
#    0.000    1.250    3.750    1.125    0.000   11.500 
#    0.000    0.000    0.000    0.000    0.000    0.000 
#    0.000    0.000    0.000    0.000    0.000    0.000 
#
# Total GULP energy -89568.126408 kJ/mol
# GULP energy per Si atom -5598.007901 kJ/mol
# Density = 2.330619 g / cm^3
# Si number density = 23.359356 Si / 1000 Ang^3
#
#
#
# Elastic Constant Matrix: (Units=GPa)
#
#
# Indices 1 2 3 4 5 6 
#
# 1 69.1343 5.6254 18.8525 -7.3965 -3.3427 -0.3988
# 2 5.6254 43.5915 24.1808 2.3392 -1.1914 2.7310
# 3 18.8525 24.1808 145.6128 -3.7444 -5.4971 11.0778
# 4 -7.3965 2.3392 -3.7444 29.4414 2.2207 0.6938
# 5 -3.3427 -1.1914 -5.4971 2.2207 44.0618 -5.0088
# 6 -0.3988 2.7310 11.0778 0.6938 -5.0088 23.4128
#
#
#
# Elastic Compliance Matrix: (Units=1/GPa)
#
#
# Indices 1 2 3 4 5 6 
#
# 1 0.015494 -0.001275 -0.001768 0.003671 0.000887 0.001330
# 2 -0.001275 0.025585 -0.004079 -0.002858 0.000120 -0.000966
# 3 -0.001768 -0.004079 0.008064 0.000959 0.000335 -0.003327
# 4 0.003671 -0.002858 0.000959 0.035394 -0.001628 -0.001455
# 5 0.000887 0.000120 0.000335 -0.001628 0.023448 0.004907
# 6 0.001330 -0.000966 -0.003327 -0.001455 0.004907 0.045514
#
#
# Mechanical properties :
#
#
# Convention : Reuss Voigt Hill
#
# Bulk Modulus (GPa) = 28.65396 39.51734 34.08565
# Shear Modulus (GPa) = 27.87471 33.36186 30.61828
#
# Velocity S-wave (km/s) = 3.45816 3.78325 3.62436
# Velocity P-wave (km/s) = 5.31398 6.00316 5.66905
#
# Compressibility (1/GPa) = 0.03489919
#
# Stress axis : x y z
#
# Youngs Moduli (GPa) = 64.54280 39.08595 124.00586
#
# Poissons Ratio (x) = 0.04983 0.21919
# Poissons Ratio (y) = 0.08229 0.50583
# Poissons Ratio (z) = 0.11408 0.15943
#
# Static dielectric constant tensor:
#      x y z
#    x 1.895250 -0.004950 -0.003880 
#    y -0.004950 1.956380 0.022160 
#    z -0.003880 0.022160 1.837010 
# 
# From -- ./inp_files/101103.got.cif
#   From: 2010.05.17/outbox.cif.g08.bks.cpg/sg2_51_cif.got.tgz:101103.got - 2010.06.03 11:33:40.
