data_PCOD9039317
_publ_section_title
;
Structure prediction by ZEFSAII (Michael W. Deem and Ramdas Pophale) SiO2 
 PCOD9039317
Probable space group: P -1
;
_chemical_formula_sum "Si O2"
_cell_formula_units_Z 16
_cell_length_a 10.665920
_cell_length_b 7.814132
_cell_length_c 18.808496
_cell_angle_alpha 62.536624
_cell_angle_beta 144.300125
_cell_angle_gamma 137.261620
_cell_volume 583.464523
_symmetry_space_group_name_H-M "P -1"
_symmetry_group_IT_number 2
_symmetry_cell_setting 'triclinic'
loop_
_space_group_symop_operation_xyz
x,y,z
-x,-y,-z
loop_
_atom_site_type_symbol
_atom_site_label
_atom_site_fract_x
_atom_site_fract_y
_atom_site_fract_z
Si Si1 0.650054 0.488018 0.859464
Si Si2 0.692732 0.213190 0.216913
Si Si3 0.217578 0.566144 0.919887
Si Si4 0.738838 0.656296 0.516441
Si Si5 0.939579 0.756934 0.293988
Si Si6 0.946791 0.028980 0.838095
Si Si7 0.583406 0.234188 0.729414
Si Si8 0.296036 0.707876 0.547105
O O1 0.324529 0.368550 0.749395
O O2 0.893098 0.807695 0.902310
O O3 0.644334 0.387471 0.800281
O O4 0.711605 0.389187 0.973345
O O5 0.584729 0.195759 0.091400
O O6 0.851095 0.508303 0.257873
O O7 0.935277 0.191831 0.332333
O O8 0.473991 0.012431 0.217188
O O9 0.880869 0.434630 0.781840
O O10 0.177975 0.317039 0.927306
O O11 0.500000 0.500000 0.500000
O O12 0.687475 0.833144 0.423238
O O13 0.689802 0.462473 0.469523
O O14 0.235820 0.875218 0.448289
O O15 0.958336 0.932019 0.208770
O O16 0.611317 0.906756 0.694467
O O17 0.000000 0.500000 0.500000
#
# Coordination Sequence:
#
# PCOD9039317 Si02
#       8
#     2   2   2   2   2   2   2   2
#     4  12  25  44  66 100 135 177 228 276 334 403
#     4  10  24  43  66  99 130 177 221 277 339 406
#     4  11  26  44  67  96 136 181 226 273 332 408
#     4  11  22  42  69  99 139 173 224 282 345 409
#     4  10  23  42  67  97 133 173 220 280 335 401
#     4  11  23  43  69  97 131 177 225 277 339 398
#     4  12  24  43  67  96 134 180 221 279 339 402
#     4  11  21  42  70 102 138 170 226 288 343 405
#
# _framework density 27.422405999999999
#
# number of rings (size 3 to 8) (size 9 to 14) (size 15 to 20)
#    0.000    1.000    3.750    2.250    1.750    5.500 
#    2.250    0.000    0.000    0.000    0.000    0.000 
#    0.000    0.000    0.000    0.000    0.000    0.000 
#
# Total GULP energy -89692.760447 kJ/mol
# GULP energy per Si atom -5605.797528 kJ/mol
# Density = 2.735999 g / cm^3
# Si number density = 27.422406 Si / 1000 Ang^3
#
#
#
# Elastic Constant Matrix: (Units=GPa)
#
#
# Indices 1 2 3 4 5 6 
#
# 1 146.2424 40.2079 5.9526 -4.0594 -2.9539 22.4997
# 2 40.2079 103.8014 23.1706 -14.8215 -19.1779 14.1437
# 3 5.9526 23.1706 115.9337 -26.5765 -2.0627 6.0734
# 4 -4.0594 -14.8215 -26.5765 29.0902 24.9208 -4.1938
# 5 -2.9539 -19.1779 -2.0627 24.9208 40.7953 0.5765
# 6 22.4997 14.1437 6.0734 -4.1938 0.5765 36.1672
#
#
#
# Elastic Compliance Matrix: (Units=1/GPa)
#
#
# Indices 1 2 3 4 5 6 
#
# 1 0.008211 -0.002828 0.000345 0.000004 -0.000662 -0.004049
# 2 -0.002828 0.012799 -0.003077 -0.004313 0.008338 -0.003362
# 3 0.000345 -0.003077 0.015149 0.027658 -0.017578 0.001932
# 4 0.000004 -0.004313 0.027658 0.125865 -0.077698 0.012873
# 5 -0.000662 0.008338 -0.017578 -0.077698 0.075102 -0.010104
# 6 -0.004049 -0.003362 0.001932 0.012873 -0.010104 0.032813
#
#
# Mechanical properties :
#
#
# Convention : Reuss Voigt Hill
#
# Bulk Modulus (GPa) = 39.93696 56.07106 48.00401
# Shear Modulus (GPa) = 17.27686 40.98697 29.13192
#
# Velocity S-wave (km/s) = 2.51276 3.87027 3.26289
# Velocity P-wave (km/s) = 4.79727 6.36109 5.63371
#
# Compressibility (1/GPa) = 0.02503946
#
# Stress axis : x y z
#
# Youngs Moduli (GPa) = 121.78672 78.13202 66.01009
#
# Poissons Ratio (x) = 0.22093 -0.02276
# Poissons Ratio (y) = 0.34437 0.20311
# Poissons Ratio (z) = -0.04199 0.24041
#
# Static dielectric constant tensor:
#      x y z
#    x 2.095980 -0.013710 0.002760 
#    y -0.013710 2.143260 -0.024280 
#    z 0.002760 -0.024280 2.160080 
# 
# From -- ./inp_files/402854.got.cif
#   From: 2010.05.17/outbox.cif.g08.bks.cpg/sg2_202_cif.got.tgz:402854.got - 2010.06.03 11:33:40.
