data_PCOD9039876
_publ_section_title
;
Structure prediction by ZEFSAII (Michael W. Deem and Ramdas Pophale) SiO2 
 PCOD9039876
Probable space group: P -1
;
_chemical_formula_sum "Si O2"
_cell_formula_units_Z 16
_cell_length_a 11.417370
_cell_length_b 9.623827
_cell_length_c 17.796815
_cell_angle_alpha 121.655424
_cell_angle_beta 152.893639
_cell_angle_gamma 56.806866
_cell_volume 742.011449
_symmetry_space_group_name_H-M "P -1"
_symmetry_group_IT_number 2
_symmetry_cell_setting 'triclinic'
loop_
_space_group_symop_operation_xyz
x,y,z
-x,-y,-z
loop_
_atom_site_type_symbol
_atom_site_label
_atom_site_fract_x
_atom_site_fract_y
_atom_site_fract_z
Si Si1 0.281408 0.992525 0.734359
Si Si2 0.838569 0.002264 0.121123
Si Si3 0.960355 0.268337 0.714248
Si Si4 0.122628 0.724198 0.670471
Si Si5 0.811393 0.519416 0.825593
Si Si6 0.481299 0.830090 0.652835
Si Si7 0.802214 0.060299 0.836118
Si Si8 0.426976 0.391724 0.675522
O O1 0.160981 0.185734 0.739986
O O2 0.126385 0.861264 0.645991
O O3 0.315859 0.950067 0.654698
O O4 0.565052 0.958533 0.927513
O O5 0.794747 0.186837 0.183159
O O6 0.975530 0.877593 0.228341
O O7 0.032327 0.976386 0.154934
O O8 0.953528 0.428676 0.807232
O O9 0.684287 0.280047 0.518748
O O10 0.327939 0.558904 0.715046
O O11 0.836765 0.681054 0.507215
O O12 0.701112 0.708636 0.792368
O O13 0.565766 0.441420 0.692914
O O14 0.000000 0.500000 0.000000
O O15 0.592352 0.943500 0.689643
O O16 0.643851 0.250686 0.800066
O O17 0.000000 0.000000 0.000000
#
# Coordination Sequence:
#
# PCOD9039876 Si02
#       8
#     2   2   2   2   2   2   2   2
#     4  11  22  45  68 101 138 177 230 272 342 404
#     4  11  23  43  70 100 135 180 230 273 338 408
#     4  11  24  40  70  99 130 175 226 283 332 397
#     4  10  23  42  71  99 130 181 224 281 333 409
#     4  12  25  45  69  99 135 181 226 279 339 407
#     4  12  25  43  68  99 139 174 228 284 331 405
#     4  12  24  44  65 100 134 180 224 275 341 400
#     4  11  24  43  69  97 138 172 227 272 349 395
#
# _framework density 21.563009999999998
#
# number of rings (size 3 to 8) (size 9 to 14) (size 15 to 20)
#    0.000    0.750    3.750    5.250    3.500    1.000 
#    0.000    0.625    0.000    0.000    0.000    0.000 
#    0.000    0.000    0.000    0.000    0.000    0.000 
#
# Total GULP energy -89416.985090 kJ/mol
# GULP energy per Si atom -5588.561568 kJ/mol
# Density = 2.151393 g / cm^3
# Si number density = 21.563010 Si / 1000 Ang^3
#
#
#
# Elastic Constant Matrix: (Units=GPa)
#
#
# Indices 1 2 3 4 5 6 
#
# 1 63.8836 23.2511 16.9978 9.7144 10.2609 -19.5969
# 2 23.2511 105.4060 17.8564 -5.2810 2.3387 -24.9906
# 3 16.9978 17.8564 73.0378 5.2776 -12.6809 -6.2340
# 4 9.7144 -5.2810 5.2776 31.3252 0.9242 -3.1380
# 5 10.2609 2.3387 -12.6809 0.9242 35.3893 13.3644
# 6 -19.5969 -24.9906 -6.2340 -3.1380 13.3644 37.2273
#
#
#
# Elastic Compliance Matrix: (Units=1/GPa)
#
#
# Indices 1 2 3 4 5 6 
#
# 1 0.026863 -0.000121 -0.007294 -0.004743 -0.017315 0.018655
# 2 -0.000121 0.012993 -0.003620 0.004088 -0.006245 0.010639
# 3 -0.007294 -0.003620 0.017829 -0.002469 0.011714 -0.007697
# 4 -0.004743 0.004088 -0.002469 0.034909 -0.002013 0.003499
# 5 -0.017315 -0.006245 0.011714 -0.002013 0.048921 -0.029078
# 6 0.018655 0.010639 -0.007697 0.003499 -0.029078 0.053269
#
#
# Mechanical properties :
#
#
# Convention : Reuss Voigt Hill
#
# Bulk Modulus (GPa) = 28.07693 39.83758 33.95726
# Shear Modulus (GPa) = 21.86041 33.06984 27.46512
#
# Velocity S-wave (km/s) = 3.18746 3.92042 3.57279
# Velocity P-wave (km/s) = 5.15710 6.24564 5.72729
#
# Compressibility (1/GPa) = 0.03561643
#
# Stress axis : x y z
#
# Youngs Moduli (GPa) = 37.22606 76.96644 56.08794
#
# Poissons Ratio (x) = 0.00928 0.40908
# Poissons Ratio (y) = 0.00449 0.20304
# Poissons Ratio (z) = 0.27151 0.27862
#
# Static dielectric constant tensor:
#      x y z
#    x 1.811960 -0.039410 0.029370 
#    y -0.039410 1.801220 0.010570 
#    z 0.029370 0.010570 1.820300 
# 
# From -- ./inp_files/566164.got.cif
#   From: 2010.05.17/outbox.cif.g08.bks.cpg/sg2_284_cif.got.tgz:566164.got - 2010.06.03 11:33:40.
