data_PCOD9039352
_publ_section_title
;
Structure prediction by ZEFSAII (Michael W. Deem and Ramdas Pophale) SiO2 
 PCOD9039352
Probable space group: P -1
;
_chemical_formula_sum "Si O2"
_cell_formula_units_Z 12
_cell_length_a 11.675696
_cell_length_b 6.167239
_cell_length_c 8.724712
_cell_angle_alpha 119.685817
_cell_angle_beta 82.215448
_cell_angle_gamma 102.232001
_cell_volume 533.049616
_symmetry_space_group_name_H-M "P -1"
_symmetry_group_IT_number 2
_symmetry_cell_setting 'triclinic'
loop_
_space_group_symop_operation_xyz
x,y,z
-x,-y,-z
loop_
_atom_site_type_symbol
_atom_site_label
_atom_site_fract_x
_atom_site_fract_y
_atom_site_fract_z
Si Si1 0.962342 0.510957 0.332959
Si Si2 0.458037 0.590864 0.876654
Si Si3 0.227062 0.281297 0.723893
Si Si4 0.676212 0.949806 0.857304
Si Si5 0.184926 0.829880 0.376049
Si Si6 0.851769 0.710236 0.915510
O O1 0.046580 0.763574 0.339335
O O2 0.013968 0.285386 0.159083
O O3 0.000000 0.500000 0.500000
O O4 0.833848 0.557646 0.332967
O O5 0.365959 0.371230 0.739867
O O6 0.571559 0.712151 0.803043
O O7 0.500000 0.500000 0.000000
O O8 0.382684 0.811882 0.001083
O O9 0.200508 0.984602 0.583519
O O10 0.170216 0.328645 0.914674
O O11 0.780721 0.920436 0.944036
O O12 0.736912 0.997855 0.699641
O O13 0.211226 0.545683 0.253726
#
# Coordination Sequence:
#
# PCOD9039352 Si02
#       6
#     2   2   2   2   2   2
#     4  10  23  45  68 101 143 170 226 286 330 408
#     4  11  23  43  72  99 139 174 234 278 324 413
#     4  12  22  44  72  99 136 187 221 270 353 392
#     4  11  21  45  70  95 141 179 213 296 330 378
#     4  10  24  42  66 100 140 165 230 281 326 409
#     4  10  23  42  68 100 136 173 226 279 331 405
#
# _framework density 22.511977999999999
#
# number of rings (size 3 to 8) (size 9 to 14) (size 15 to 20)
#    1.000    0.333    3.333    2.000    0.000    2.000 
#    0.000    5.833    0.000    0.000    0.000    0.000 
#    0.000    0.000    0.000    0.000    0.000    0.000 
#
# Total GULP energy -66960.329962 kJ/mol
# GULP energy per Si atom -5580.027497 kJ/mol
# Density = 2.246074 g / cm^3
# Si number density = 22.511978 Si / 1000 Ang^3
#
#
#
# Elastic Constant Matrix: (Units=GPa)
#
#
# Indices 1 2 3 4 5 6 
#
# 1 110.3893 38.4915 25.3138 -2.0037 17.2020 -5.8413
# 2 38.4915 48.8235 16.8581 0.3167 -1.1531 -12.1560
# 3 25.3138 16.8581 79.3771 8.7189 -3.5185 -7.3280
# 4 -2.0037 0.3167 8.7189 32.7507 12.3436 -4.5795
# 5 17.2020 -1.1531 -3.5185 12.3436 30.0231 -1.8271
# 6 -5.8413 -12.1560 -7.3280 -4.5795 -1.8271 49.3220
#
#
#
# Elastic Compliance Matrix: (Units=1/GPa)
#
#
# Indices 1 2 3 4 5 6 
#
# 1 0.016402 -0.012245 -0.004136 0.007036 -0.013339 -0.001531
# 2 -0.012245 0.032529 -0.001595 -0.003478 0.009896 0.006374
# 3 -0.004136 -0.001595 0.015410 -0.006828 0.006984 0.001032
# 4 0.007036 -0.003478 -0.006828 0.041323 -0.021833 0.001990
# 5 -0.013339 0.009896 0.006984 -0.021833 0.051233 0.001768
# 6 -0.001531 0.006374 0.001032 0.001990 0.001768 0.022068
#
#
# Mechanical properties :
#
#
# Convention : Reuss Voigt Hill
#
# Bulk Modulus (GPa) = 35.22132 44.43519 39.82825
# Shear Modulus (GPa) = 22.28365 32.94760 27.61563
#
# Velocity S-wave (km/s) = 3.14961 3.82980 3.50624
# Velocity P-wave (km/s) = 5.37646 6.27199 5.84141
#
# Compressibility (1/GPa) = 0.02839190
#
# Stress axis : x y z
#
# Youngs Moduli (GPa) = 60.96756 30.74138 64.89106
#
# Poissons Ratio (x) = 0.37643 0.26836
# Poissons Ratio (y) = 0.74654 0.10347
# Poissons Ratio (z) = 0.25214 0.04902
#
# Static dielectric constant tensor:
#      x y z
#    x 1.842820 0.034140 -0.001960 
#    y 0.034140 1.904260 0.035330 
#    z -0.001960 0.035330 1.860470 
# 
# From -- ./inp_files/229363.got.cif
#   From: 2010.05.17/outbox.cif.g08.bks.cpg/sg2_115_cif.got.tgz:229363.got - 2010.06.03 11:33:40.
