data_PCOD9039504
_publ_section_title
;
Structure prediction by ZEFSAII (Michael W. Deem and Ramdas Pophale) SiO2 
 PCOD9039504
Probable space group: P -1
;
_chemical_formula_sum "Si O2"
_cell_formula_units_Z 16
_cell_length_a 8.841065
_cell_length_b 15.668832
_cell_length_c 9.578585
_cell_angle_alpha 72.516513
_cell_angle_beta 113.959096
_cell_angle_gamma 57.963545
_cell_volume 766.880212
_symmetry_space_group_name_H-M "P -1"
_symmetry_group_IT_number 2
_symmetry_cell_setting 'triclinic'
loop_
_space_group_symop_operation_xyz
x,y,z
-x,-y,-z
loop_
_atom_site_type_symbol
_atom_site_label
_atom_site_fract_x
_atom_site_fract_y
_atom_site_fract_z
Si Si1 0.369594 0.631242 0.803497
Si Si2 0.284010 0.363488 0.223059
Si Si3 0.491308 0.648793 0.407960
Si Si4 0.592452 0.872194 0.028075
Si Si5 0.148076 0.648439 0.433949
Si Si6 0.987923 0.917803 0.628901
Si Si7 0.823221 0.094801 0.019439
Si Si8 0.460806 0.093257 0.323678
O O1 0.554384 0.628240 0.804110
O O2 0.205230 0.651126 0.612927
O O3 0.204623 0.758892 0.778622
O O4 0.500000 0.500000 0.000000
O O5 0.357895 0.356071 0.414989
O O6 0.368655 0.226663 0.286418
O O7 0.000000 0.500000 0.000000
O O8 0.257565 0.690480 0.370637
O O9 0.679677 0.501388 0.483803
O O10 0.371555 0.756328 0.189921
O O11 0.364099 0.896824 0.969652
O O12 0.860129 0.740359 0.260184
O O13 0.666189 0.860528 0.898335
O O14 0.500000 0.000000 0.000000
O O15 0.979984 0.949322 0.770696
O O16 0.000000 0.000000 0.500000
O O17 0.745806 0.975652 0.441180
O O18 0.000000 0.000000 0.000000
O O19 0.500000 0.000000 0.500000
#
# Coordination Sequence:
#
# PCOD9039504 Si02
#       8
#     2   2   2   2   2   2   2   2
#     4  11  24  43  70  99 135 184 224 279 347 407
#     4  11  24  44  68  99 140 177 229 283 339 410
#     4  10  23  42  68  99 134 180 223 274 344 406
#     4  12  26  43  66 101 138 175 228 282 336 407
#     4  10  23  43  67  98 139 175 223 280 337 412
#     4  12  24  47  69  96 138 178 229 284 341 408
#     4  12  26  42  70  98 134 181 226 279 345 403
#     4  12  28  44  70 102 137 184 230 284 344 404
#
# _framework density 20.863754
#
# number of rings (size 3 to 8) (size 9 to 14) (size 15 to 20)
#    0.000    0.750    2.500    3.750    8.750    1.500 
#    0.000    0.000    0.000    0.000    0.000    0.000 
#    0.000    0.000    0.000    0.000    0.000    0.000 
#
# Total GULP energy -89129.596879 kJ/mol
# GULP energy per Si atom -5570.599805 kJ/mol
# Density = 2.081627 g / cm^3
# Si number density = 20.863754 Si / 1000 Ang^3
#
#
#
# Elastic Constant Matrix: (Units=GPa)
#
#
# Indices 1 2 3 4 5 6 
#
# 1 43.4067 15.4839 20.2634 -11.9573 -14.1895 6.6800
# 2 15.4839 111.1998 38.2079 6.7572 -21.9809 7.6408
# 3 20.2634 38.2079 113.9922 1.1965 -15.9132 7.7294
# 4 -11.9573 6.7572 1.1965 45.5927 -2.3864 -4.6208
# 5 -14.1895 -21.9809 -15.9132 -2.3864 46.7803 -12.1645
# 6 6.6800 7.6408 7.7294 -4.6208 -12.1645 28.9595
#
#
#
# Elastic Compliance Matrix: (Units=1/GPa)
#
#
# Indices 1 2 3 4 5 6 
#
# 1 0.030381 -0.001972 -0.003755 0.008622 0.007165 -0.001100
# 2 -0.001972 0.011068 -0.002825 -0.001968 0.003384 -0.000604
# 3 -0.003755 -0.002825 0.010580 -0.000903 0.000824 -0.001010
# 4 0.008622 -0.001968 -0.000903 0.025153 0.003807 0.004384
# 5 0.007165 0.003384 0.000824 0.003807 0.028125 0.009656
# 6 -0.001100 -0.000604 -0.001010 0.004384 0.009656 0.039969
#
#
# Mechanical properties :
#
#
# Convention : Reuss Voigt Hill
#
# Bulk Modulus (GPa) = 28.63367 46.27881 37.45624
# Shear Modulus (GPa) = 28.73175 37.24275 32.98725
#
# Velocity S-wave (km/s) = 3.71497 4.22956 3.98059
# Velocity P-wave (km/s) = 5.67056 6.78836 6.25448
#
# Compressibility (1/GPa) = 0.03492393
#
# Stress axis : x y z
#
# Youngs Moduli (GPa) = 32.91520 90.34941 94.51797
#
# Poissons Ratio (x) = 0.17818 0.35494
# Poissons Ratio (y) = 0.06491 0.26704
# Poissons Ratio (z) = 0.12361 0.25526
#
# Static dielectric constant tensor:
#      x y z
#    x 1.786020 -0.004460 0.047730 
#    y -0.004460 1.730460 0.016240 
#    z 0.047730 0.016240 1.674670 
# 
# From -- ./inp_files/207118.got.cif
#   From: 2010.05.17/outbox.cif.g08.bks.cpg/sg2_104_cif.got.tgz:207118.got - 2010.06.03 11:33:40.
