data_PCOD9039847
_publ_section_title
;
Structure prediction by ZEFSAII (Michael W. Deem and Ramdas Pophale) SiO2 
 PCOD9039847
Probable space group: P -1
;
_chemical_formula_sum "Si O2"
_cell_formula_units_Z 16
_cell_length_a 4.976934
_cell_length_b 7.911436
_cell_length_c 17.649917
_cell_angle_alpha 70.333278
_cell_angle_beta 110.772536
_cell_angle_gamma 96.308871
_cell_volume 611.844922
_symmetry_space_group_name_H-M "P -1"
_symmetry_group_IT_number 2
_symmetry_cell_setting 'triclinic'
loop_
_space_group_symop_operation_xyz
x,y,z
-x,-y,-z
loop_
_atom_site_type_symbol
_atom_site_label
_atom_site_fract_x
_atom_site_fract_y
_atom_site_fract_z
Si Si1 0.468870 0.049161 0.330798
Si Si2 0.601409 0.564758 0.734308
Si Si3 0.869446 0.999428 0.900455
Si Si4 0.264039 0.343010 0.998042
Si Si5 0.397766 0.681873 0.105654
Si Si6 0.097242 0.109716 0.419858
Si Si7 0.108468 0.765284 0.261683
Si Si8 0.947466 0.484740 0.407471
O O1 0.299891 0.236054 0.268314
O O2 0.800828 0.094034 0.344727
O O3 0.356553 0.026532 0.409461
O O4 0.381657 0.875547 0.302344
O O5 0.466798 0.481596 0.809607
O O6 0.829518 0.414134 0.754297
O O7 0.369664 0.571369 0.642715
O O8 0.634220 0.153622 0.865281
O O9 0.027355 0.080043 0.830502
O O10 0.750064 0.799305 0.913781
O O11 0.000000 0.000000 0.000000
O O12 0.410157 0.249946 0.953696
O O13 0.925353 0.382955 0.941846
O O14 0.500000 0.500000 0.000000
O O15 0.135482 0.316444 0.418766
O O16 0.000000 0.000000 0.500000
O O17 0.987879 0.673906 0.339713
O O18 0.000000 0.500000 0.500000
#
# Coordination Sequence:
#
# PCOD9039847 Si02
#       8
#     2   2   2   2   2   2   2   2
#     4  11  25  44  68 101 142 180 233 289 354 421
#     4  10  25  45  67 104 139 191 232 296 355 424
#     4   9  22  44  68 101 137 187 228 286 348 418
#     4  11  23  42  67 106 135 179 233 287 343 420
#     4  10  23  42  71  92 145 181 225 284 354 409
#     4  11  24  46  69 102 142 181 230 300 354 416
#     4  11  24  45  71 103 141 190 236 295 354 428
#     4  11  25  44  74 104 142 191 243 297 356 432
#
# _framework density 26.150416
#
# number of rings (size 3 to 8) (size 9 to 14) (size 15 to 20)
#    0.000    1.500    1.250    1.875   10.500    1.500 
#    2.250    0.000    0.000    0.000    0.000    0.000 
#    0.000    0.000    0.000    0.000    0.000    0.000 
#
# Total GULP energy -89205.915643 kJ/mol
# GULP energy per Si atom -5575.369728 kJ/mol
# Density = 2.609090 g / cm^3
# Si number density = 26.150416 Si / 1000 Ang^3
#
#
#
# Elastic Constant Matrix: (Units=GPa)
#
#
# Indices 1 2 3 4 5 6 
#
# 1 119.4895 21.5806 38.0306 -2.4891 -5.8259 25.5115
# 2 21.5806 121.2212 44.5975 -11.8663 -3.3153 29.1896
# 3 38.0306 44.5975 145.8366 -22.2443 -28.6476 24.6534
# 4 -2.4891 -11.8663 -22.2443 50.2735 13.9204 -10.6203
# 5 -5.8259 -3.3153 -28.6476 13.9204 26.7909 -1.0456
# 6 25.5115 29.1896 24.6534 -10.6203 -1.0456 28.1246
#
#
#
# Elastic Compliance Matrix: (Units=1/GPa)
#
#
# Indices 1 2 3 4 5 6 
#
# 1 0.010940 0.000895 -0.001342 -0.002636 0.002011 -0.010596
# 2 0.000895 0.011460 -0.002101 -0.000243 -0.000937 -0.010990
# 3 -0.001342 -0.002101 0.010990 0.000040 0.010952 -0.005813
# 4 -0.002636 -0.000243 0.000040 0.026008 -0.013609 0.011924
# 5 0.002011 -0.000937 0.010952 -0.013609 0.055902 -0.013513
# 6 -0.010596 -0.010990 -0.005813 0.011924 -0.013513 0.065670
#
#
# Mechanical properties :
#
#
# Convention : Reuss Voigt Hill
#
# Bulk Modulus (GPa) = 35.34516 66.10718 50.72617
# Shear Modulus (GPa) = 25.57571 39.86038 32.71805
#
# Velocity S-wave (km/s) = 3.13073 3.90843 3.54099
# Velocity P-wave (km/s) = 5.15888 6.76034 6.01316
#
# Compressibility (1/GPa) = 0.02829241
#
# Stress axis : x y z
#
# Youngs Moduli (GPa) = 91.40739 87.25897 90.99520
#
# Poissons Ratio (x) = -0.07807 0.12215
# Poissons Ratio (y) = -0.08178 0.19118
# Poissons Ratio (z) = 0.12270 0.18333
#
# Static dielectric constant tensor:
#      x y z
#    x 2.128560 -0.017350 -0.039430 
#    y -0.017350 2.222510 0.001280 
#    z -0.039430 0.001280 2.273850 
# 
# From -- ./inp_files/547988.got.cif
#   From: 2010.05.17/outbox.cif.g08.bks.cpg/sg2_274_cif.got.tgz:547988.got - 2010.06.03 11:33:40.
