data_PCOD9039652
_publ_section_title
;
Structure prediction by ZEFSAII (Michael W. Deem and Ramdas Pophale) SiO2 
 PCOD9039652
Probable space group: P -1
;
_chemical_formula_sum "Si O2"
_cell_formula_units_Z 14
_cell_length_a 6.738020
_cell_length_b 13.677162
_cell_length_c 14.492212
_cell_angle_alpha 149.995766
_cell_angle_beta 64.203540
_cell_angle_gamma 115.907620
_cell_volume 595.934164
_symmetry_space_group_name_H-M "P -1"
_symmetry_group_IT_number 2
_symmetry_cell_setting 'triclinic'
loop_
_space_group_symop_operation_xyz
x,y,z
-x,-y,-z
loop_
_atom_site_type_symbol
_atom_site_label
_atom_site_fract_x
_atom_site_fract_y
_atom_site_fract_z
Si Si1 0.864964 0.177081 0.750907
Si Si2 0.326051 0.310235 0.410570
Si Si3 0.356219 0.145334 0.592635
Si Si4 0.309504 0.556879 0.151986
Si Si5 0.597421 0.129070 0.945056
Si Si6 0.868345 0.790602 0.828581
Si Si7 0.082041 0.602656 0.782684
O O1 0.825854 0.312893 0.782148
O O2 0.730073 0.222491 0.905401
O O3 0.127826 0.183168 0.720925
O O4 0.745901 0.962969 0.566354
O O5 0.500000 0.500000 0.500000
O O6 0.173203 0.244888 0.299541
O O7 0.188218 0.399002 0.592787
O O8 0.425097 0.108929 0.250522
O O9 0.542259 0.333504 0.705381
O O10 0.500000 0.000000 0.500000
O O11 0.124689 0.404256 0.112086
O O12 0.500000 0.500000 0.000000
O O13 0.366565 0.207736 0.071824
O O14 0.742339 0.213121 0.072303
O O15 0.999072 0.631155 0.719824
O O16 0.000000 0.000000 0.000000
#
# Coordination Sequence:
#
# PCOD9039652 Si02
#       7
#     2   2   2   2   2   2   2
#     4  10  23  42  69  98 142 188 222 289 355 416
#     4  12  26  48  75 104 141 181 242 307 352 424
#     4   9  21  40  64  92 140 178 230 281 338 406
#     4  11  24  43  66 104 145 180 236 288 344 435
#     4  12  26  46  73 105 145 187 239 288 371 427
#     4  12  25  49  74 101 143 187 235 305 364 416
#     4  12  27  45  75 106 140 192 238 292 363 426
#
# _framework density 23.492526999999999
#
# number of rings (size 3 to 8) (size 9 to 14) (size 15 to 20)
#    0.000    0.857    2.857    3.429    6.000    6.857 
#    0.000    0.000    0.000    0.000    0.000    0.000 
#    0.000    0.000    0.000    0.000    0.000    0.000 
#
# Total GULP energy -78230.345083 kJ/mol
# GULP energy per Si atom -5587.881792 kJ/mol
# Density = 2.343906 g / cm^3
# Si number density = 23.492527 Si / 1000 Ang^3
#
#
#
# Elastic Constant Matrix: (Units=GPa)
#
#
# Indices 1 2 3 4 5 6 
#
# 1 120.6712 23.5721 16.9546 10.3042 -2.7110 23.2816
# 2 23.5721 47.9038 -1.5032 0.0311 0.6556 3.8822
# 3 16.9546 -1.5032 80.6399 5.5821 -5.2035 8.5862
# 4 10.3042 0.0311 5.5821 38.7196 4.4249 -3.9696
# 5 -2.7110 0.6556 -5.2035 4.4249 42.0440 1.2508
# 6 23.2816 3.8822 8.5862 -3.9696 1.2508 36.7086
#
#
#
# Elastic Compliance Matrix: (Units=1/GPa)
#
#
# Indices 1 2 3 4 5 6 
#
# 1 0.011052 -0.004962 -0.001393 -0.003547 0.001187 -0.006583
# 2 -0.004962 0.023322 0.001291 0.001247 -0.000671 0.000536
# 3 -0.001393 0.001291 0.013256 -0.002019 0.001821 -0.002634
# 4 -0.003547 0.001247 -0.002019 0.028064 -0.003623 0.005748
# 5 0.001187 -0.000671 0.001821 -0.003623 0.024548 -0.002336
# 6 -0.006583 0.000536 -0.002634 0.005748 -0.002336 0.032677
#
#
# Mechanical properties :
#
#
# Convention : Reuss Voigt Hill
#
# Bulk Modulus (GPa) = 26.66582 36.36243 31.51412
# Shear Modulus (GPa) = 32.14461 37.50721 34.82591
#
# Velocity S-wave (km/s) = 3.70305 4.00003 3.85440
# Velocity P-wave (km/s) = 5.44600 6.07006 5.76647
#
# Compressibility (1/GPa) = 0.03750119
#
# Stress axis : x y z
#
# Youngs Moduli (GPa) = 90.48473 42.87714 75.43998
#
# Poissons Ratio (x) = 0.21277 0.10510
# Poissons Ratio (y) = 0.44902 -0.09742
# Poissons Ratio (z) = 0.12606 -0.05537
#
# Static dielectric constant tensor:
#      x y z
#    x 1.946960 -0.028580 -0.015020 
#    y -0.028580 1.872090 0.023160 
#    z -0.015020 0.023160 1.947750 
# 
# From -- ./inp_files/98495.got.cif
#   From: 2010.05.17/outbox.cif.g08.bks.cpg/sg2_50_cif.got.tgz:98495.got - 2010.06.03 11:33:40.
