data_PCOD9039152
_publ_section_title
;
Structure prediction by ZEFSAII (Michael W. Deem and Ramdas Pophale) SiO2 
 PCOD9039152
Probable space group: P -1
;
_chemical_formula_sum "Si O2"
_cell_formula_units_Z 16
_cell_length_a 15.039147
_cell_length_b 8.572487
_cell_length_c 5.500415
_cell_angle_alpha 89.184269
_cell_angle_beta 57.767001
_cell_angle_gamma 96.473438
_cell_volume 593.680485
_symmetry_space_group_name_H-M "P -1"
_symmetry_group_IT_number 2
_symmetry_cell_setting 'triclinic'
loop_
_space_group_symop_operation_xyz
x,y,z
-x,-y,-z
loop_
_atom_site_type_symbol
_atom_site_label
_atom_site_fract_x
_atom_site_fract_y
_atom_site_fract_z
Si Si1 0.112054 0.150230 0.647936
Si Si2 0.797308 0.640061 0.863976
Si Si3 0.681617 0.299583 0.192429
Si Si4 0.989384 0.326519 0.132049
Si Si5 0.816491 0.129105 0.686078
Si Si6 0.398453 0.915175 0.295060
Si Si7 0.489465 0.402469 0.263059
Si Si8 0.308588 0.156352 0.680065
O O1 0.165649 0.320881 0.463518
O O2 0.192856 0.108412 0.736144
O O3 0.114779 0.014403 0.444980
O O4 0.002938 0.189449 0.918018
O O5 0.908576 0.672673 0.843800
O O6 0.740307 0.475244 0.050282
O O7 0.715880 0.765139 0.033738
O O8 0.625733 0.255779 0.534715
O O9 0.582989 0.292899 0.148771
O O10 0.774077 0.193961 0.997000
O O11 0.884022 0.274534 0.442352
O O12 0.000000 0.500000 0.000000
O O13 0.704849 0.074746 0.716979
O O14 0.382376 0.022406 0.555719
O O15 0.500000 0.000000 0.000000
O O16 0.500000 0.500000 0.500000
O O17 0.376126 0.296271 0.428846
O O18 0.500000 0.500000 0.000000
#
# Coordination Sequence:
#
# PCOD9039152 Si02
#       8
#     2   2   2   2   2   2   2   2
#     4  10  23  43  69  98 139 183 235 300 365 443
#     4  11  23  42  68  99 137 182 236 292 368 440
#     4  12  26  43  70 103 141 190 245 301 371 444
#     4  11  24  42  68 101 137 181 234 298 369 443
#     4  11  25  44  69 100 141 181 242 299 372 444
#     4  11  26  45  70  99 141 185 242 303 371 444
#     4  12  27  44  73 108 149 193 252 313 373 444
#     4  10  23  42  66  97 136 182 236 295 368 427
#
# _framework density 26.950523
#
# number of rings (size 3 to 8) (size 9 to 14) (size 15 to 20)
#    0.000    1.000    1.250    4.125    3.500    8.500 
#    0.000    0.000    0.000    0.000    0.000    0.000 
#    0.000    0.000    0.000    0.000    0.000    0.000 
#
# Total GULP energy -89454.934875 kJ/mol
# GULP energy per Si atom -5590.933430 kJ/mol
# Density = 2.688918 g / cm^3
# Si number density = 26.950523 Si / 1000 Ang^3
#
#
#
# Elastic Constant Matrix: (Units=GPa)
#
#
# Indices 1 2 3 4 5 6 
#
# 1 111.8904 22.5588 32.0836 -6.4101 -26.5993 -10.1898
# 2 22.5588 105.5506 56.3635 -6.2365 -7.2118 -8.7600
# 3 32.0836 56.3635 198.6719 -27.8422 -31.6757 -6.8682
# 4 -6.4101 -6.2365 -27.8422 65.2046 -0.5168 -10.9760
# 5 -26.5993 -7.2118 -31.6757 -0.5168 43.4786 -10.2228
# 6 -10.1898 -8.7600 -6.8682 -10.9760 -10.2228 36.6149
#
#
#
# Elastic Compliance Matrix: (Units=1/GPa)
#
#
# Indices 1 2 3 4 5 6 
#
# 1 0.011922 -0.001538 0.000468 0.002341 0.008869 0.006216
# 2 -0.001538 0.011527 -0.003156 -0.000167 -0.000999 0.001409
# 3 0.000468 -0.003156 0.007440 0.003563 0.006055 0.003530
# 4 0.002341 -0.000167 0.003563 0.018567 0.006241 0.008588
# 5 0.008869 -0.000999 0.006055 0.006241 0.036364 0.015388
# 6 0.006216 0.001409 0.003530 0.008588 0.015388 0.036911
#
#
# Mechanical properties :
#
#
# Convention : Reuss Voigt Hill
#
# Bulk Modulus (GPa) = 44.56836 70.90274 57.73555
# Shear Modulus (GPa) = 36.05932 49.40007 42.72970
#
# Velocity S-wave (km/s) = 3.66181 4.28599 3.98614
# Velocity P-wave (km/s) = 5.86954 7.13152 6.53108
#
# Compressibility (1/GPa) = 0.02243744
#
# Stress axis : x y z
#
# Youngs Moduli (GPa) = 83.88130 86.75459 134.40963
#
# Poissons Ratio (x) = 0.13340 -0.06290
# Poissons Ratio (y) = 0.12899 0.42416
# Poissons Ratio (z) = -0.03926 0.27377
#
# Static dielectric constant tensor:
#      x y z
#    x 2.045940 0.022670 0.050160 
#    y 0.022670 2.304000 0.085090 
#    z 0.050160 0.085090 2.131400 
# 
# From -- ./inp_files/72323.got.cif
#   From: 2010.05.17/outbox.cif.g08.bks.cpg/sg2_37_cif.got.tgz:72323.got - 2010.06.03 11:33:40.
