data_PCOD9039002
_publ_section_title
;
Structure prediction by ZEFSAII (Michael W. Deem and Ramdas Pophale) SiO2 
 PCOD9039002
Probable space group: P -1
;
_chemical_formula_sum "Si O2"
_cell_formula_units_Z 16
_cell_length_a 13.893693
_cell_length_b 11.667768
_cell_length_c 11.137366
_cell_angle_alpha 79.358421
_cell_angle_beta 122.045255
_cell_angle_gamma 147.212232
_cell_volume 681.234270
_symmetry_space_group_name_H-M "P -1"
_symmetry_group_IT_number 2
_symmetry_cell_setting 'triclinic'
loop_
_space_group_symop_operation_xyz
x,y,z
-x,-y,-z
loop_
_atom_site_type_symbol
_atom_site_label
_atom_site_fract_x
_atom_site_fract_y
_atom_site_fract_z
Si Si1 0.604466 0.855156 0.448907
Si Si2 0.755878 0.892345 0.154959
Si Si3 0.399946 0.782586 0.938675
Si Si4 0.157526 0.418229 0.420425
Si Si5 0.565382 0.490172 0.791648
Si Si6 0.414164 0.245725 0.201359
Si Si7 0.782692 0.234902 0.342886
Si Si8 0.986539 0.235705 0.833351
O O1 0.373298 0.657995 0.426089
O O2 0.535540 0.685304 0.347213
O O3 0.639677 0.002908 0.363147
O O4 0.859971 0.079391 0.654002
O O5 0.655564 0.703842 0.216626
O O6 0.578710 0.841444 0.075460
O O7 0.685117 0.808873 0.985531
O O8 0.028330 0.187691 0.315571
O O9 0.388754 0.808378 0.788505
O O10 0.128052 0.488347 0.858122
O O11 0.500000 0.000000 0.000000
O O12 0.298005 0.515774 0.619416
O O13 0.942694 0.315335 0.328111
O O14 0.637122 0.686140 0.763301
O O15 0.803386 0.653662 0.987479
O O16 0.241888 0.982058 0.183253
O O17 0.000000 0.500000 0.500000
#
# Coordination Sequence:
#
# PCOD9039002 Si02
#       8
#     2   2   2   2   2   2   2   2
#     4  11  24  44  68 100 135 173 225 276 323 403
#     4  11  23  42  65  97 137 169 225 279 317 408
#     4  11  21  41  67  90 127 178 217 262 342 386
#     4  11  25  43  66 101 136 168 230 272 325 403
#     4  11  23  42  70  93 134 182 217 269 346 384
#     4  11  25  42  64 102 131 175 223 276 332 395
#     4  12  22  43  68  93 135 177 212 276 335 388
#     4  10  23  42  65  95 133 169 224 274 322 404
#
# _framework density 23.48678
#
# number of rings (size 3 to 8) (size 9 to 14) (size 15 to 20)
#    0.000    1.000    3.750    3.000    1.750    4.000 
#    2.250    1.250    0.000    0.000    0.000    0.000 
#    0.000    0.000    0.000    0.000    0.000    0.000 
#
# Total GULP energy -89119.312738 kJ/mol
# GULP energy per Si atom -5569.957046 kJ/mol
# Density = 2.343332 g / cm^3
# Si number density = 23.486780 Si / 1000 Ang^3
#
#
#
# Elastic Constant Matrix: (Units=GPa)
#
#
# Indices 1 2 3 4 5 6 
#
# 1 45.7484 48.0085 25.5605 6.5876 -14.2349 2.1558
# 2 48.0085 132.0764 21.9932 22.0597 -12.4662 -7.0556
# 3 25.5605 21.9932 115.5895 23.4869 -12.8629 -2.8786
# 4 6.5876 22.0597 23.4869 39.1536 -6.0174 -3.2896
# 5 -14.2349 -12.4662 -12.8629 -6.0174 38.0302 -2.8884
# 6 2.1558 -7.0556 -2.8786 -3.2896 -2.8884 30.0480
#
#
#
# Elastic Compliance Matrix: (Units=1/GPa)
#
#
# Indices 1 2 3 4 5 6 
#
# 1 0.044523 -0.015466 -0.007310 0.006609 0.009723 -0.005868
# 2 -0.015466 0.014007 0.002004 -0.006365 -0.001240 0.003775
# 3 -0.007310 0.002004 0.011325 -0.006441 0.000843 0.001456
# 4 0.006609 -0.006365 -0.006441 0.032519 0.003453 0.001306
# 5 0.009723 -0.001240 0.000843 0.003453 0.030542 0.002406
# 6 -0.005868 0.003775 0.001456 0.001306 0.002406 0.035101
#
#
# Mechanical properties :
#
#
# Convention : Reuss Voigt Hill
#
# Bulk Modulus (GPa) = 35.32022 53.83763 44.57892
# Shear Modulus (GPa) = 22.83119 34.63649 28.73384
#
# Velocity S-wave (km/s) = 3.12121 3.84438 3.50152
# Velocity P-wave (km/s) = 5.29720 6.53284 5.94719
#
# Compressibility (1/GPa) = 0.02831240
#
# Stress axis : x y z
#
# Youngs Moduli (GPa) = 22.46017 71.39196 88.29862
#
# Poissons Ratio (x) = 1.10416 0.64545
# Poissons Ratio (y) = 0.34737 -0.17698
# Poissons Ratio (z) = 0.16418 -0.14309
#
# Static dielectric constant tensor:
#      x y z
#    x 1.896500 0.027700 -0.011370 
#    y 0.027700 1.922350 -0.056800 
#    z -0.011370 -0.056800 1.939670 
# 
# From -- ./inp_files/283027.got.cif
#   From: 2010.05.17/outbox.cif.g08.bks.cpg/sg2_142_cif.got.tgz:283027.got - 2010.06.03 11:33:40.
