data_PCOD9039360
_publ_section_title
;
Structure prediction by ZEFSAII (Michael W. Deem and Ramdas Pophale) SiO2 
 PCOD9039360
Probable space group: P -1
;
_chemical_formula_sum "Si O2"
_cell_formula_units_Z 16
_cell_length_a 8.881503
_cell_length_b 7.952021
_cell_length_c 11.882907
_cell_angle_alpha 70.078612
_cell_angle_beta 118.667903
_cell_angle_gamma 114.254801
_cell_volume 660.447880
_symmetry_space_group_name_H-M "P -1"
_symmetry_group_IT_number 2
_symmetry_cell_setting 'triclinic'
loop_
_space_group_symop_operation_xyz
x,y,z
-x,-y,-z
loop_
_atom_site_type_symbol
_atom_site_label
_atom_site_fract_x
_atom_site_fract_y
_atom_site_fract_z
Si Si1 0.359306 0.269844 0.742374
Si Si2 0.992727 0.064680 0.352678
Si Si3 0.564246 0.741566 0.981598
Si Si4 0.068354 0.234250 0.959323
Si Si5 0.171778 0.605040 0.779015
Si Si6 0.310763 0.942539 0.378136
Si Si7 0.788363 0.423768 0.449993
Si Si8 0.306411 0.860989 0.136057
O O1 0.303198 0.414594 0.610002
O O2 0.543996 0.241691 0.777449
O O3 0.189603 0.083387 0.725764
O O4 0.395987 0.339989 0.867268
O O5 0.963682 0.269038 0.284001
O O6 0.000000 0.000000 0.500000
O O7 0.166730 0.037383 0.357533
O O8 0.353218 0.674558 0.900923
O O9 0.623003 0.965185 0.961330
O O10 0.716867 0.713367 0.955860
O O11 0.078166 0.383203 0.823648
O O12 0.891079 0.261552 0.947764
O O13 0.000000 0.000000 0.000000
O O14 0.255288 0.659322 0.671565
O O15 0.249821 0.723452 0.433127
O O16 0.308213 0.950924 0.240984
O O17 0.500000 0.000000 0.500000
O O18 0.000000 0.500000 0.500000
#
# Coordination Sequence:
#
# PCOD9039360 Si02
#       8
#     2   2   2   2   2   2   2   2
#     4  12  24  44  75 103 137 192 242 293 344 438
#     4  12  24  44  74 106 141 188 245 291 350 425
#     4  11  23  45  73 103 138 190 244 280 357 431
#     4  10  23  42  68 100 140 180 222 293 362 410
#     4  12  23  44  75 106 139 185 245 296 343 440
#     4  12  25  43  67 106 144 180 231 302 354 409
#     4  12  24  43  75 102 137 190 245 281 358 425
#     4  11  24  43  67 101 145 182 228 296 361 409
#
# _framework density 24.225984
#
# number of rings (size 3 to 8) (size 9 to 14) (size 15 to 20)
#    0.000    0.500    5.000    3.750    0.000    1.500 
#    0.000    0.625    0.000    0.000    0.000    0.000 
#    0.000    0.000    0.000    0.000    0.000    0.000 
#
# Total GULP energy -89158.585768 kJ/mol
# GULP energy per Si atom -5572.411610 kJ/mol
# Density = 2.417084 g / cm^3
# Si number density = 24.225984 Si / 1000 Ang^3
#
#
#
# Elastic Constant Matrix: (Units=GPa)
#
#
# Indices 1 2 3 4 5 6 
#
# 1 179.2318 32.1091 29.3000 -11.0533 40.2276 -13.8105
# 2 32.1091 72.0128 37.5713 -30.0417 15.9475 -1.1454
# 3 29.3000 37.5713 96.1805 -18.5064 30.4822 3.5887
# 4 -11.0533 -30.0417 -18.5064 41.8895 -6.9123 14.1851
# 5 40.2276 15.9475 30.4822 -6.9123 46.3886 -7.1248
# 6 -13.8105 -1.1454 3.5887 14.1851 -7.1248 36.0097
#
#
#
# Elastic Compliance Matrix: (Units=1/GPa)
#
#
# Indices 1 2 3 4 5 6 
#
# 1 0.007346 -0.002838 0.000172 -0.001695 -0.005406 0.002308
# 2 -0.002838 0.025079 -0.004931 0.017138 -0.001415 -0.006831
# 3 0.000172 -0.004931 0.016124 0.003809 -0.009254 -0.005029
# 4 -0.001695 0.017138 0.003809 0.042972 -0.003296 -0.018064
# 5 -0.005406 -0.001415 -0.009254 -0.003296 0.033351 0.006701
# 6 0.002308 -0.006831 -0.005029 -0.018064 0.006701 0.037381
#
#
# Mechanical properties :
#
#
# Convention : Reuss Voigt Hill
#
# Bulk Modulus (GPa) = 29.98104 60.59843 45.28973
# Shear Modulus (GPa) = 26.51587 41.42053 33.96820
#
# Velocity S-wave (km/s) = 3.31194 4.13941 3.74858
# Velocity P-wave (km/s) = 5.19882 6.92202 6.12136
#
# Compressibility (1/GPa) = 0.03335442
#
# Stress axis : x y z
#
# Youngs Moduli (GPa) = 136.12043 39.87418 62.01810
#
# Poissons Ratio (x) = 0.11318 -0.01066
# Poissons Ratio (y) = 0.38638 0.30581
# Poissons Ratio (z) = -0.02339 0.19662
#
# Static dielectric constant tensor:
#      x y z
#    x 1.954350 -0.075260 -0.016690 
#    y -0.075260 1.979400 0.019790 
#    z -0.016690 0.019790 1.825510 
# 
# From -- ./inp_files/381806.got.cif
#   From: 2010.05.17/outbox.cif.g08.bks.cpg/sg2_191_cif.got.tgz:381806.got - 2010.06.03 11:33:40.
