data_PCOD9039148
_publ_section_title
;
Structure prediction by ZEFSAII (Michael W. Deem and Ramdas Pophale) SiO2 
 PCOD9039148
Probable space group: P -1
;
_chemical_formula_sum "Si O2"
_cell_formula_units_Z 16
_cell_length_a 10.147064
_cell_length_b 8.751963
_cell_length_c 9.327880
_cell_angle_alpha 115.776320
_cell_angle_beta 65.694766
_cell_angle_gamma 92.514372
_cell_volume 670.559388
_symmetry_space_group_name_H-M "P -1"
_symmetry_group_IT_number 2
_symmetry_cell_setting 'triclinic'
loop_
_space_group_symop_operation_xyz
x,y,z
-x,-y,-z
loop_
_atom_site_type_symbol
_atom_site_label
_atom_site_fract_x
_atom_site_fract_y
_atom_site_fract_z
Si Si1 0.364571 0.277478 0.274571
Si Si2 0.880622 0.118123 0.796386
Si Si3 0.845924 0.825409 0.901743
Si Si4 0.584908 0.037216 0.245320
Si Si5 0.125086 0.615953 0.841965
Si Si6 0.350400 0.647654 0.499214
Si Si7 0.166906 0.232396 0.618620
Si Si8 0.328408 0.884321 0.371535
O O1 0.275778 0.263685 0.163002
O O2 0.497287 0.123191 0.179998
O O3 0.424558 0.455632 0.348642
O O4 0.240549 0.269650 0.449811
O O5 0.748549 0.104087 0.743269
O O6 0.012394 0.165848 0.660799
O O7 0.915700 0.942181 0.801517
O O8 0.846015 0.270616 0.989418
O O9 0.966667 0.694709 0.878263
O O10 0.751714 0.962720 0.105999
O O11 0.562039 0.203071 0.427912
O O12 0.499146 0.886812 0.272307
O O13 0.237959 0.636229 0.672279
O O14 0.144420 0.413021 0.784711
O O15 0.283142 0.727599 0.414011
O O16 0.272442 0.061723 0.554779
#
# Coordination Sequence:
#
# PCOD9039148 Si02
#       8
#     2   2   2   2   2   2   2   2
#     4  10  24  43  69  98 126 175 216 270 321 380
#     4  12  23  43  65  99 132 174 208 269 329 383
#     4  12  24  42  68  95 135 172 218 262 322 394
#     4  11  23  46  66  92 131 176 219 263 323 386
#     4  11  26  42  67 101 130 172 215 265 328 382
#     4  11  24  44  71  97 129 168 223 272 315 388
#     4  10  23  42  66  97 133 166 212 271 320 385
#     4  11  25  43  70  97 129 174 217 265 328 379
#
# _framework density 23.860676999999999
#
# number of rings (size 3 to 8) (size 9 to 14) (size 15 to 20)
#    0.000    1.000    3.750    3.000    5.250    1.000 
#    0.000    1.875    0.000    0.000    0.000    0.000 
#    0.000    0.000    0.000    0.000    0.000    0.000 
#
# Total GULP energy -89445.429613 kJ/mol
# GULP energy per Si atom -5590.339351 kJ/mol
# Density = 2.380637 g / cm^3
# Si number density = 23.860677 Si / 1000 Ang^3
#
#
#
# Elastic Constant Matrix: (Units=GPa)
#
#
# Indices 1 2 3 4 5 6 
#
# 1 54.2847 -0.0943 12.2661 -4.0350 3.0878 -2.1294
# 2 -0.0943 83.2128 22.0350 -2.0481 -4.5792 -4.7000
# 3 12.2661 22.0350 59.9023 8.5336 9.9816 -15.3751
# 4 -4.0350 -2.0481 8.5336 36.8695 4.5855 -2.6429
# 5 3.0878 -4.5792 9.9816 4.5855 32.9528 0.0837
# 6 -2.1294 -4.7000 -15.3751 -2.6429 0.0837 34.0147
#
#
#
# Elastic Compliance Matrix: (Units=1/GPa)
#
#
# Indices 1 2 3 4 5 6 
#
# 1 0.019851 0.001400 -0.005132 0.003468 -0.000592 -0.000613
# 2 0.001400 0.013927 -0.006465 0.001933 0.003495 -0.000769
# 3 -0.005132 -0.006465 0.024460 -0.005014 -0.007153 0.009470
# 4 0.003468 0.001933 -0.005014 0.029127 -0.002592 0.000488
# 5 -0.000592 0.003495 -0.007153 -0.002592 0.033423 -0.003071
# 6 -0.000613 -0.000769 0.009470 0.000488 -0.003071 0.033580
#
#
# Mechanical properties :
#
#
# Convention : Reuss Voigt Hill
#
# Bulk Modulus (GPa) = 26.42520 29.53481 27.98001
# Shear Modulus (GPa) = 26.68403 31.64693 29.16548
#
# Velocity S-wave (km/s) = 3.34777 3.64582 3.49997
# Velocity P-wave (km/s) = 5.10316 5.48886 5.29952
#
# Compressibility (1/GPa) = 0.03784266
#
# Stress axis : x y z
#
# Youngs Moduli (GPa) = 50.37541 71.80073 40.88375
#
# Poissons Ratio (x) = -0.10050 0.20984
# Poissons Ratio (y) = -0.07051 0.26431
# Poissons Ratio (z) = 0.25855 0.46419
#
# Static dielectric constant tensor:
#      x y z
#    x 1.911710 -0.009800 0.029670 
#    y -0.009800 1.951190 -0.022030 
#    z 0.029670 -0.022030 1.943020 
# 
# From -- ./inp_files/243206.got.cif
#   From: 2010.05.17/outbox.cif.g08.bks.cpg/sg2_122_cif.got.tgz:243206.got - 2010.06.03 11:33:40.
