data_PCOD9039184
_publ_section_title
;
Structure prediction by ZEFSAII (Michael W. Deem and Ramdas Pophale) SiO2 
 PCOD9039184
Probable space group: P -1
;
_chemical_formula_sum "Si O2"
_cell_formula_units_Z 15
_cell_length_a 14.506821
_cell_length_b 8.097835
_cell_length_c 9.655091
_cell_angle_alpha 132.119684
_cell_angle_beta 68.663937
_cell_angle_gamma 81.833984
_cell_volume 649.890437
_symmetry_space_group_name_H-M "P -1"
_symmetry_group_IT_number 2
_symmetry_cell_setting 'triclinic'
loop_
_space_group_symop_operation_xyz
x,y,z
-x,-y,-z
loop_
_atom_site_type_symbol
_atom_site_label
_atom_site_fract_x
_atom_site_fract_y
_atom_site_fract_z
Si Si1 0.959137 0.215519 0.460351
Si Si2 0.049011 0.653879 0.977947
Si Si3 0.647103 0.039215 0.691463
Si Si4 0.870977 0.632630 0.502984
Si Si5 0.442557 0.302686 0.151389
Si Si6 0.267028 0.596402 0.183378
Si Si7 0.330123 0.404814 0.736020
Si Si8 0.500000 0.500000 0.500000
O O1 0.896848 0.473318 0.539568
O O2 0.871785 0.295311 0.682796
O O3 0.085524 0.167491 0.397665
O O4 0.973260 0.964042 0.234746
O O5 0.047012 0.588878 0.781691
O O6 0.188043 0.544989 0.865216
O O7 0.000000 0.500000 0.000000
O O8 0.736307 0.805594 0.619605
O O9 0.613452 0.900940 0.517002
O O10 0.718511 0.158509 0.661027
O O11 0.536216 0.270088 0.967071
O O12 0.326570 0.413383 0.183579
O O13 0.435296 0.469149 0.381578
O O14 0.500000 0.000000 0.000000
O O15 0.332076 0.446993 0.922560
O O16 0.397450 0.507875 0.666357
#
# Coordination Sequence:
#
# PCOD9039184 Si02
#       8
#     2   2   2   2   2   2   2   1
#     4  11  23  41  66 102 140 182 228 289 349 417
#     4  11  23  43  70 101 139 182 235 287 348 413
#     4  11  23  44  69  96 135 181 228 288 342 410
#     4  10  23  42  66  99 138 179 231 285 351 413
#     4  12  26  47  69  97 137 182 229 285 348 411
#     4  12  26  43  70 104 139 180 234 287 346 419
#     4  11  25  43  72 105 138 185 235 284 350 412
#     4  12  26  46  70 104 138 186 234 284 350 412
#
# _framework density 23.080814
#
# number of rings (size 3 to 8) (size 9 to 14) (size 15 to 20)
#    0.000    0.800    2.667    4.800    1.867    3.200 
#    0.000    0.000    0.000    0.000    0.000    0.000 
#    0.000    0.000    0.000    0.000    0.000    0.000 
#
# Total GULP energy -83583.382559 kJ/mol
# GULP energy per Si atom -5572.225504 kJ/mol
# Density = 2.302828 g / cm^3
# Si number density = 23.080814 Si / 1000 Ang^3
#
#
#
# Elastic Constant Matrix: (Units=GPa)
#
#
# Indices 1 2 3 4 5 6 
#
# 1 101.4283 28.1963 28.7001 -16.9542 -3.5815 22.6167
# 2 28.1963 85.5969 14.6124 -14.3940 -1.9870 16.1157
# 3 28.7001 14.6124 112.2298 -34.6521 8.7428 10.7851
# 4 -16.9542 -14.3940 -34.6521 39.0021 1.8990 -1.9708
# 5 -3.5815 -1.9870 8.7428 1.8990 45.6117 -7.7694
# 6 22.6167 16.1157 10.7851 -1.9708 -7.7694 35.3395
#
#
#
# Elastic Compliance Matrix: (Units=1/GPa)
#
#
# Indices 1 2 3 4 5 6 
#
# 1 0.012883 -0.002215 -0.001357 0.003246 -0.000095 -0.006661
# 2 -0.002215 0.014010 0.000721 0.004628 -0.000763 -0.005101
# 3 -0.001357 0.000721 0.013384 0.011562 -0.003757 -0.003726
# 4 0.003246 0.004628 0.011562 0.038920 -0.004493 -0.006533
# 5 -0.000095 -0.000763 -0.003757 -0.004493 0.023908 0.006561
# 6 -0.006661 -0.005101 -0.003726 -0.006533 0.006561 0.037101
#
#
# Mechanical properties :
#
#
# Convention : Reuss Voigt Hill
#
# Bulk Modulus (GPa) = 28.92154 49.14140 39.03147
# Shear Modulus (GPa) = 31.75961 39.17373 35.46667
#
# Velocity S-wave (km/s) = 3.71350 4.12423 3.92424
# Velocity P-wave (km/s) = 5.56278 6.63448 6.12212
#
# Compressibility (1/GPa) = 0.03457630
#
# Stress axis : x y z
#
# Youngs Moduli (GPa) = 77.62095 71.37750 74.71593
#
# Poissons Ratio (x) = 0.15807 0.10136
# Poissons Ratio (y) = 0.17189 -0.05385
# Poissons Ratio (z) = 0.10530 -0.05144
#
# Static dielectric constant tensor:
#      x y z
#    x 1.920390 -0.016030 -0.036090 
#    y -0.016030 1.896010 0.010530 
#    z -0.036090 0.010530 1.860130 
# 
# From -- ./inp_files/299616.got.cif
#   From: 2010.05.17/outbox.cif.g08.bks.cpg/sg2_150_cif.got.tgz:299616.got - 2010.06.03 11:33:40.
