data_PCOD9039111
_publ_section_title
;
Structure prediction by ZEFSAII (Michael W. Deem and Ramdas Pophale) SiO2 
 PCOD9039111
Probable space group: P -1
;
_chemical_formula_sum "Si O2"
_cell_formula_units_Z 16
_cell_length_a 16.258245
_cell_length_b 15.175721
_cell_length_c 11.090915
_cell_angle_alpha 38.679623
_cell_angle_beta 131.285009
_cell_angle_gamma 154.392831
_cell_volume 729.194670
_symmetry_space_group_name_H-M "P -1"
_symmetry_group_IT_number 2
_symmetry_cell_setting 'triclinic'
loop_
_space_group_symop_operation_xyz
x,y,z
-x,-y,-z
loop_
_atom_site_type_symbol
_atom_site_label
_atom_site_fract_x
_atom_site_fract_y
_atom_site_fract_z
Si Si1 0.274543 0.581685 0.058483
Si Si2 0.817473 0.466114 0.255011
Si Si3 0.741877 0.127109 0.705497
Si Si4 0.511945 0.344782 0.179088
Si Si5 0.429601 0.353220 0.711115
Si Si6 0.846560 0.124589 0.193188
Si Si7 0.476422 0.263531 0.503834
Si Si8 0.362770 0.858170 0.152021
O O1 0.399696 0.573459 0.170736
O O2 0.215874 0.571845 0.879594
O O3 0.074797 0.346373 0.187231
O O4 0.426326 0.848872 0.982512
O O5 0.726890 0.230743 0.478398
O O6 0.720907 0.500571 0.185253
O O7 0.040691 0.692595 0.260316
O O8 0.676999 0.130238 0.762807
O O9 0.617135 0.861997 0.828839
O O10 0.441854 0.213184 0.382021
O O11 0.500000 0.500000 0.000000
O O12 0.500000 0.500000 0.500000
O O13 0.239823 0.065533 0.795559
O O14 0.420579 0.475554 0.660222
O O15 0.717977 0.953396 0.370319
O O16 0.796254 0.229416 0.987760
O O17 0.612987 0.283397 0.663819
#
# Coordination Sequence:
#
# PCOD9039111 Si02
#       8
#     2   2   2   2   2   2   2   2
#     4  11  21  38  70  93 121 172 214 256 316 380
#     4  11  22  40  68  95 123 168 216 254 319 377
#     4  11  23  42  66  93 127 170 213 260 316 373
#     4  12  25  41  65  94 132 164 211 265 316 375
#     4   9  22  43  63  88 125 171 209 254 314 373
#     4  10  23  42  66  94 127 166 214 259 317 383
#     4  11  23  41  63  94 131 167 206 266 322 369
#     4  11  21  41  67  92 130 164 211 265 313 377
#
# _framework density 21.942011999999998
#
# number of rings (size 3 to 8) (size 9 to 14) (size 15 to 20)
#    0.000    1.250    3.750    2.250    1.750    3.000 
#    0.000    6.250    0.000    0.000    0.000    0.000 
#    0.000    0.000    0.000    0.000    0.000    0.000 
#
# Total GULP energy -89477.664763 kJ/mol
# GULP energy per Si atom -5592.354048 kJ/mol
# Density = 2.189207 g / cm^3
# Si number density = 21.942012 Si / 1000 Ang^3
#
#
#
# Elastic Constant Matrix: (Units=GPa)
#
#
# Indices 1 2 3 4 5 6 
#
# 1 98.9873 40.6881 20.7436 -11.1619 21.9054 9.1156
# 2 40.6881 93.2640 18.9057 0.6934 15.6946 29.0333
# 3 20.7436 18.9057 98.1281 8.4176 16.8467 8.8093
# 4 -11.1619 0.6934 8.4176 26.5876 -5.8503 -6.5394
# 5 21.9054 15.6946 16.8467 -5.8503 58.1330 3.2990
# 6 9.1156 29.0333 8.8093 -6.5394 3.2990 24.5668
#
#
#
# Elastic Compliance Matrix: (Units=1/GPa)
#
#
# Indices 1 2 3 4 5 6 
#
# 1 0.014633 -0.007820 -0.002588 0.008473 -0.002214 0.007293
# 2 -0.007820 0.023087 0.001247 -0.011769 -0.003270 -0.027524
# 3 -0.002588 0.001247 0.012264 -0.007302 -0.003286 -0.006413
# 4 0.008473 -0.011769 -0.007302 0.051537 0.005793 0.026323
# 5 -0.002214 -0.003270 -0.003286 0.005793 0.020188 0.004696
# 6 0.007293 -0.027524 -0.006413 0.026323 0.004696 0.079203
#
#
# Mechanical properties :
#
#
# Convention : Reuss Voigt Hill
#
# Bulk Modulus (GPa) = 31.58406 50.11714 40.85060
# Shear Modulus (GPa) = 21.75927 35.86029 28.80978
#
# Velocity S-wave (km/s) = 3.15250 4.04706 3.62746
# Velocity P-wave (km/s) = 5.26085 6.68794 6.01686
#
# Compressibility (1/GPa) = 0.03166154
#
# Stress axis : x y z
#
# Youngs Moduli (GPa) = 68.34002 43.31448 81.53937
#
# Poissons Ratio (x) = 0.33871 0.21103
# Poissons Ratio (y) = 0.53441 -0.10167
# Poissons Ratio (z) = 0.17687 -0.05401
#
# Static dielectric constant tensor:
#      x y z
#    x 1.899250 -0.066880 0.006980 
#    y -0.066880 1.822300 -0.045900 
#    z 0.006980 -0.045900 1.873630 
# 
# From -- ./inp_files/455501.got.cif
#   From: 2010.05.17/outbox.cif.g08.bks.cpg/sg2_228_cif.got.tgz:455501.got - 2010.06.03 11:33:40.
