data_PCOD9039158
_publ_section_title
;
Structure prediction by ZEFSAII (Michael W. Deem and Ramdas Pophale) SiO2 
 PCOD9039158
Probable space group: P -1
;
_chemical_formula_sum "Si O2"
_cell_formula_units_Z 16
_cell_length_a 16.174659
_cell_length_b 9.759546
_cell_length_c 11.444084
_cell_angle_alpha 71.511302
_cell_angle_beta 62.302533
_cell_angle_gamma 125.133862
_cell_volume 771.870836
_symmetry_space_group_name_H-M "P -1"
_symmetry_group_IT_number 2
_symmetry_cell_setting 'triclinic'
loop_
_space_group_symop_operation_xyz
x,y,z
-x,-y,-z
loop_
_atom_site_type_symbol
_atom_site_label
_atom_site_fract_x
_atom_site_fract_y
_atom_site_fract_z
Si Si1 0.359154 0.424075 0.169557
Si Si2 0.745244 0.662250 0.994879
Si Si3 0.565230 0.943637 0.041627
Si Si4 0.138764 0.062384 0.634384
Si Si5 0.118292 0.841352 0.146430
Si Si6 0.737022 0.469661 0.471893
Si Si7 0.156389 0.819517 0.856797
Si Si8 0.545559 0.224325 0.435959
O O1 0.467592 0.686146 0.102366
O O2 0.213727 0.159163 0.426117
O O3 0.500000 0.500000 0.000000
O O4 0.274508 0.375972 0.120988
O O5 0.589339 0.381234 0.252179
O O6 0.925885 0.810653 0.857386
O O7 0.779236 0.874582 0.954651
O O8 0.459752 0.830376 0.263358
O O9 0.500000 0.000000 0.000000
O O10 0.770488 0.149893 0.875938
O O11 0.174512 0.967989 0.708645
O O12 0.228535 0.322046 0.564364
O O13 0.901249 0.586398 0.381630
O O14 0.118561 0.825991 0.010262
O O15 0.716705 0.449856 0.351578
O O16 0.361371 0.032313 0.669794
O O17 0.000000 0.500000 0.000000
O O18 0.500000 0.000000 0.500000
#
# Coordination Sequence:
#
# PCOD9039158 Si02
#       8
#     2   2   2   2   2   2   2   2
#     4  11  22  42  66  97 132 178 238 269 334 403
#     4  11  23  41  70  97 133 181 225 280 332 407
#     4  11  25  43  68  97 137 180 226 286 336 401
#     4  10  23  42  66  98 132 175 226 281 331 402
#     4  11  23  45  68  96 136 173 228 279 339 407
#     4  10  23  44  67  97 132 176 226 272 339 407
#     4  12  25  42  67 100 135 173 223 281 346 407
#     4  12  25  40  66  99 137 175 222 282 344 404
#
# _framework density 20.728856
#
# number of rings (size 3 to 8) (size 9 to 14) (size 15 to 20)
#    0.000    1.000    2.500    4.125    3.500    4.500 
#    2.250    0.000    0.000    0.000    0.000    0.000 
#    0.000    0.000    0.000    0.000    0.000    0.000 
#
# Total GULP energy -89186.368509 kJ/mol
# GULP energy per Si atom -5574.148032 kJ/mol
# Density = 2.068168 g / cm^3
# Si number density = 20.728856 Si / 1000 Ang^3
#
#
#
# Elastic Constant Matrix: (Units=GPa)
#
#
# Indices 1 2 3 4 5 6 
#
# 1 149.5170 28.5495 48.1508 0.4147 -8.9290 3.6503
# 2 28.5495 67.4947 30.7515 23.5576 -2.7492 21.4475
# 3 48.1508 30.7515 81.8522 12.8552 -7.0169 -4.3423
# 4 0.4147 23.5576 12.8552 18.3674 15.4085 -6.2529
# 5 -8.9290 -2.7492 -7.0169 15.4085 17.0733 17.3803
# 6 3.6503 21.4475 -4.3423 -6.2529 17.3803 33.0247
#
#
#
# Elastic Compliance Matrix: (Units=1/GPa)
#
#
# Indices 1 2 3 4 5 6 
#
# 1 0.008680 -0.001318 -0.004708 0.001580 0.003010 -0.002008
# 2 -0.001318 0.009756 -0.006809 0.014830 -0.023577 0.008131
# 3 -0.004708 -0.006809 0.018636 -0.003972 0.001993 0.005592
# 4 0.001580 0.014830 -0.003972 -0.005544 0.039132 -0.031972
# 5 0.003010 -0.023577 0.001993 0.039132 -0.002597 0.024017
# 6 -0.002008 0.008131 0.005592 -0.031972 0.024017 0.007264
#
#
# Mechanical properties :
#
#
# Convention : Reuss Voigt Hill
#
# Bulk Modulus (GPa) = 87.69614 57.08528 72.39071
# Shear Modulus (GPa) = 76.14409 26.45388 51.29898
#
# Velocity S-wave (km/s) = 6.06738 3.57625 4.98009
# Velocity P-wave (km/s) = 9.56464 6.68218 8.25027
#
# Compressibility (1/GPa) = 0.01140301
#
# Stress axis : x y z
#
# Youngs Moduli (GPa) = 115.20247 102.50418 53.65952
#
# Poissons Ratio (x) = 0.13507 0.25263
# Poissons Ratio (y) = 0.15180 0.36536
# Poissons Ratio (z) = 0.54237 0.69794
#
# Static dielectric constant tensor:
#      x y z
#    x 1.937140 0.189390 0.098080 
#    y 0.189390 1.806660 0.048890 
#    z 0.098080 0.048890 1.785690 
# 
# From -- ./inp_files/246065.got.cif
#   From: 2010.05.17/outbox.cif.g08.bks.cpg/sg2_124_cif.got.tgz:246065.got - 2010.06.03 11:33:40.
