data_PCOD9039667
_publ_section_title
;
Structure prediction by ZEFSAII (Michael W. Deem and Ramdas Pophale) SiO2 
 PCOD9039667
Probable space group: P -1
;
_chemical_formula_sum "Si O2"
_cell_formula_units_Z 16
_cell_length_a 21.493447
_cell_length_b 13.729849
_cell_length_c 15.033672
_cell_angle_alpha 160.556948
_cell_angle_beta 26.476961
_cell_angle_gamma 148.343140
_cell_volume 657.635499
_symmetry_space_group_name_H-M "P -1"
_symmetry_group_IT_number 2
_symmetry_cell_setting 'triclinic'
loop_
_space_group_symop_operation_xyz
x,y,z
-x,-y,-z
loop_
_atom_site_type_symbol
_atom_site_label
_atom_site_fract_x
_atom_site_fract_y
_atom_site_fract_z
Si Si1 0.680483 0.235905 0.888305
Si Si2 0.416003 0.785205 0.825583
Si Si3 0.692446 0.762196 0.752597
Si Si4 0.919983 0.790741 0.351845
Si Si5 0.581565 0.662221 0.253636
Si Si6 0.058607 0.046287 0.741004
Si Si7 0.121570 0.470902 0.528205
Si Si8 0.373888 0.660574 0.252336
O O1 0.654026 0.553573 0.156765
O O2 0.534528 0.046969 0.909315
O O3 0.789036 0.081014 0.552354
O O4 0.707091 0.244247 0.967639
O O5 0.500000 0.500000 0.500000
O O6 0.353232 0.899784 0.910778
O O7 0.766392 0.719080 0.525895
O O8 0.802120 0.695965 0.632602
O O9 0.565821 0.524694 0.723822
O O10 0.931532 0.891675 0.323321
O O11 0.000000 0.000000 0.500000
O O12 0.000000 0.500000 0.000000
O O13 0.662366 0.532342 0.954286
O O14 0.575771 0.008738 0.551890
O O15 0.946318 0.776345 0.662093
O O16 0.000491 0.325993 0.105485
O O17 0.242236 0.658889 0.484918
O O18 0.500000 0.500000 0.000000
#
# Coordination Sequence:
#
# PCOD9039667 Si02
#       8
#     2   2   2   2   2   2   2   2
#     4  10  25  44  65 102 139 189 227 281 336 406
#     4  10  23  42  69  99 141 187 236 272 333 418
#     4  11  23  42  68 108 137 178 224 287 345 409
#     4  12  23  39  61  99 140 180 218 263 332 421
#     4  11  27  45  74 102 135 176 232 296 345 401
#     4  12  25  45  67 100 146 184 222 277 339 422
#     4  12  27  44  72 102 135 181 234 285 351 403
#     4  12  26  48  73 104 134 174 235 299 353 397
#
# _framework density 24.329585999999999
#
# number of rings (size 3 to 8) (size 9 to 14) (size 15 to 20)
#    0.000    0.750    5.000    1.125    7.000    2.000 
#    4.500    3.750    0.000    0.000    0.000    0.000 
#    0.000    0.000    0.000    0.000    0.000    0.000 
#
# Total GULP energy -89436.245829 kJ/mol
# GULP energy per Si atom -5589.765364 kJ/mol
# Density = 2.427421 g / cm^3
# Si number density = 24.329586 Si / 1000 Ang^3
#
#
#
# Elastic Constant Matrix: (Units=GPa)
#
#
# Indices 1 2 3 4 5 6 
#
# 1 35.6523 23.7815 18.4635 18.4207 -0.0825 -9.5360
# 2 23.7815 130.8567 53.5847 13.0554 -8.2064 -20.1009
# 3 18.4635 53.5847 141.7457 23.2695 -7.9853 -7.5414
# 4 18.4207 13.0554 23.2695 64.3303 -2.7401 0.7781
# 5 -0.0825 -8.2064 -7.9853 -2.7401 36.7042 4.2409
# 6 -9.5360 -20.1009 -7.5414 0.7781 4.2409 30.6771
#
#
#
# Elastic Compliance Matrix: (Units=1/GPa)
#
#
# Indices 1 2 3 4 5 6 
#
# 1 0.039532 -0.004226 -0.001535 -0.010157 -0.003084 0.009826
# 2 -0.004226 0.010446 -0.003125 0.000213 0.001131 0.004601
# 3 -0.001535 -0.003125 0.008813 -0.002061 0.001114 -0.000460
# 4 -0.010157 0.000213 -0.002061 0.019270 0.001503 -0.004221
# 5 -0.003084 0.001131 0.001114 0.001503 0.028295 -0.003894
# 6 0.009826 0.004601 -0.000460 -0.004221 -0.003894 0.039199
#
#
# Mechanical properties :
#
#
# Convention : Reuss Voigt Hill
#
# Bulk Modulus (GPa) = 24.37985 55.54602 39.96293
# Shear Modulus (GPa) = 28.24848 40.50399 34.37623
#
# Velocity S-wave (km/s) = 3.41115 4.08463 3.76299
# Velocity P-wave (km/s) = 5.05540 6.71757 5.94486
#
# Compressibility (1/GPa) = 0.04101748
#
# Stress axis : x y z
#
# Youngs Moduli (GPa) = 25.29619 95.72959 113.47092
#
# Poissons Ratio (x) = 0.40460 0.17419
# Poissons Ratio (y) = 0.10691 0.35459
# Poissons Ratio (z) = 0.03883 0.29915
#
# Static dielectric constant tensor:
#      x y z
#    x 2.088580 -0.076720 -0.028530 
#    y -0.076720 1.968200 -0.019580 
#    z -0.028530 -0.019580 2.024390 
# 
# From -- ./inp_files/579901.got.cif
#   From: 2010.05.17/outbox.cif.g08.bks.cpg/sg2_290_cif.got.tgz:579901.got - 2010.06.03 11:33:40.
