data_PCOD9039105
_publ_section_title
;
Structure prediction by ZEFSAII (Michael W. Deem and Ramdas Pophale) SiO2 
 PCOD9039105
Probable space group: P -1
;
_chemical_formula_sum "Si O2"
_cell_formula_units_Z 16
_cell_length_a 12.792641
_cell_length_b 6.831831
_cell_length_c 11.189135
_cell_angle_alpha 87.729720
_cell_angle_beta 65.686513
_cell_angle_gamma 122.618156
_cell_volume 705.691258
_symmetry_space_group_name_H-M "P -1"
_symmetry_group_IT_number 2
_symmetry_cell_setting 'triclinic'
loop_
_space_group_symop_operation_xyz
x,y,z
-x,-y,-z
loop_
_atom_site_type_symbol
_atom_site_label
_atom_site_fract_x
_atom_site_fract_y
_atom_site_fract_z
Si Si1 0.142173 0.987608 0.291962
Si Si2 0.638472 0.440046 0.425079
Si Si3 0.207766 0.697149 0.807028
Si Si4 0.413189 0.205406 0.000936
Si Si5 0.856570 0.955575 0.443064
Si Si6 0.413344 0.264685 0.725763
Si Si7 0.687688 0.343115 0.990702
Si Si8 0.025565 0.473383 0.246776
O O1 0.006819 0.992839 0.361208
O O2 0.073025 0.703235 0.301149
O O3 0.270529 0.147188 0.132008
O O4 0.202091 0.069478 0.395711
O O5 0.713069 0.328073 0.339545
O O6 0.747351 0.708055 0.427802
O O7 0.524645 0.268763 0.585827
O O8 0.582602 0.515011 0.339265
O O9 0.040099 0.519833 0.848786
O O10 0.266609 0.980071 0.793400
O O11 0.256223 0.618482 0.900704
O O12 0.445258 0.655987 0.984024
O O13 0.367462 0.931668 0.008967
O O14 0.450202 0.310433 0.846654
O O15 0.898147 0.210105 0.366673
O O16 0.833714 0.514121 0.841002
#
# Coordination Sequence:
#
# PCOD9039105 Si02
#       8
#     2   2   2   2   2   2   2   2
#     4  10  23  42  66  93 129 162 213 264 312 375
#     4  11  23  41  62  97 127 166 212 260 312 377
#     4  11  21  41  65  95 127 169 208 257 320 372
#     4   9  20  43  65  92 125 168 210 263 319 370
#     4  11  23  41  62  97 127 166 212 260 312 377
#     4  10  23  42  66  93 129 162 213 264 312 375
#     4   9  21  39  65  97 126 163 215 259 312 380
#     4  11  21  41  65  95 127 169 208 257 320 372
#
# _framework density 22.672806999999999
#
# number of rings (size 3 to 8) (size 9 to 14) (size 15 to 20)
#    0.000    1.750    2.500    1.125    0.000    5.000 
#    9.000    3.125    0.000    0.000    0.000    0.000 
#    0.000    0.000    0.000    0.000    0.000    0.000 
#
# Total GULP energy -89289.900268 kJ/mol
# GULP energy per Si atom -5580.618767 kJ/mol
# Density = 2.262120 g / cm^3
# Si number density = 22.672807 Si / 1000 Ang^3
#
#
#
# Elastic Constant Matrix: (Units=GPa)
#
#
# Indices 1 2 3 4 5 6 
#
# 1 98.8761 -1.2863 31.2377 13.5364 -6.3041 6.4289
# 2 -1.2863 83.4880 11.0879 6.2682 -6.3632 1.2905
# 3 31.2377 11.0879 98.0386 5.5246 0.3731 -7.4900
# 4 13.5364 6.2682 5.5246 33.2640 -5.3687 -9.3785
# 5 -6.3041 -6.3632 0.3731 -5.3687 21.0418 2.3536
# 6 6.4289 1.2905 -7.4900 -9.3785 2.3536 21.8857
#
#
#
# Elastic Compliance Matrix: (Units=1/GPa)
#
#
# Indices 1 2 3 4 5 6 
#
# 1 0.013448 0.001806 -0.004808 -0.006950 0.003905 -0.009100
# 2 0.001806 0.012907 -0.002163 -0.003236 0.004089 -0.003858
# 3 -0.004808 -0.002163 0.012407 0.001810 -0.002618 0.006843
# 4 -0.006950 -0.003236 0.001810 0.039394 0.004809 0.019216
# 5 0.003905 0.004089 -0.002618 0.004809 0.051853 -0.005800
# 6 -0.009100 -0.003858 0.006843 0.019216 -0.005800 0.059793
#
#
# Mechanical properties :
#
#
# Convention : Reuss Voigt Hill
#
# Bulk Modulus (GPa) = 35.17093 40.27570 37.72331
# Shear Modulus (GPa) = 23.85395 31.19587 27.52491
#
# Velocity S-wave (km/s) = 3.24712 3.71336 3.48804
# Velocity P-wave (km/s) = 5.44100 6.01563 5.73551
#
# Compressibility (1/GPa) = 0.02843257
#
# Stress axis : x y z
#
# Youngs Moduli (GPa) = 74.35976 77.47714 80.59764
#
# Poissons Ratio (x) = -0.13991 0.38748
# Poissons Ratio (y) = -0.13428 0.17434
# Poissons Ratio (z) = 0.35749 0.16759
#
# Static dielectric constant tensor:
#      x y z
#    x 1.901050 -0.003210 0.034930 
#    y -0.003210 1.819670 -0.020320 
#    z 0.034930 -0.020320 1.847820 
# 
# From -- ./inp_files/66334.got.cif
#   From: 2010.05.17/outbox.cif.g08.bks.cpg/sg2_34_cif.got.tgz:66334.got - 2010.06.03 11:33:40.
