data_PCOD9039199
_publ_section_title
;
Structure prediction by ZEFSAII (Michael W. Deem and Ramdas Pophale) SiO2 
 PCOD9039199
Probable space group: P -1
;
_chemical_formula_sum "Si O2"
_cell_formula_units_Z 16
_cell_length_a 23.119628
_cell_length_b 7.265694
_cell_length_c 18.005408
_cell_angle_alpha 38.595948
_cell_angle_beta 157.301069
_cell_angle_gamma 141.418914
_cell_volume 704.565937
_symmetry_space_group_name_H-M "P -1"
_symmetry_group_IT_number 2
_symmetry_cell_setting 'triclinic'
loop_
_space_group_symop_operation_xyz
x,y,z
-x,-y,-z
loop_
_atom_site_type_symbol
_atom_site_label
_atom_site_fract_x
_atom_site_fract_y
_atom_site_fract_z
Si Si1 0.864286 0.454244 0.750911
Si Si2 0.130371 0.774962 0.334348
Si Si3 0.448502 0.190695 0.578580
Si Si4 0.173194 0.130525 0.635848
Si Si5 0.873774 0.022756 0.029880
Si Si6 0.332140 0.124098 0.680881
Si Si7 0.572889 0.657261 0.868421
Si Si8 0.447299 0.095364 0.079792
O O1 0.895286 0.295404 0.761103
O O2 0.740810 0.648478 0.525185
O O3 0.018852 0.705672 0.879806
O O4 0.814677 0.202986 0.835885
O O5 0.187400 0.489104 0.524608
O O6 0.266086 0.080633 0.410812
O O7 0.980736 0.824753 0.182334
O O8 0.500000 0.500000 0.500000
O O9 0.481318 0.911389 0.657574
O O10 0.551195 0.193935 0.773368
O O11 0.211507 0.999782 0.643001
O O12 0.299050 0.070594 0.861417
O O13 0.000000 0.000000 0.500000
O O14 0.743240 0.801482 0.994425
O O15 0.486559 0.334031 0.835853
O O16 0.393084 0.884021 0.781002
O O17 0.553317 0.659508 0.933689
#
# Coordination Sequence:
#
# PCOD9039199 Si02
#       8
#     2   2   2   2   2   2   2   2
#     4  10  23  42  67 100 139 178 222 283 334 413
#     4  11  24  47  67  97 140 183 225 283 338 403
#     4  10  23  43  71 102 140 175 224 278 345 402
#     4  11  25  46  70 100 134 179 239 282 331 406
#     4  11  25  38  68 100 139 181 227 267 350 407
#     4  11  23  44  72  95 133 179 229 278 348 395
#     4  10  25  41  64 104 134 172 228 273 332 414
#     4  10  24  43  70  97 138 178 222 288 333 395
#
# _framework density 22.709015000000001
#
# number of rings (size 3 to 8) (size 9 to 14) (size 15 to 20)
#    0.750    0.750    2.500    1.500   10.500    3.500 
#    0.000    3.125    0.000    0.000    0.000    0.000 
#    0.000    0.000    0.000    0.000    0.000    0.000 
#
# Total GULP energy -89428.536820 kJ/mol
# GULP energy per Si atom -5589.283551 kJ/mol
# Density = 2.265733 g / cm^3
# Si number density = 22.709015 Si / 1000 Ang^3
#
#
#
# Elastic Constant Matrix: (Units=GPa)
#
#
# Indices 1 2 3 4 5 6 
#
# 1 161.9367 54.1523 71.7103 10.6383 13.6186 2.0900
# 2 54.1523 73.2541 23.7095 -2.3560 4.4253 20.3322
# 3 71.7103 23.7095 124.8236 -5.1874 -3.4235 12.2825
# 4 10.6383 -2.3560 -5.1874 34.8172 7.6698 1.5229
# 5 13.6186 4.4253 -3.4235 7.6698 42.7101 13.2298
# 6 2.0900 20.3322 12.2825 1.5229 13.2298 24.8425
#
#
#
# Elastic Compliance Matrix: (Units=1/GPa)
#
#
# Indices 1 2 3 4 5 6 
#
# 1 0.015520 -0.013682 -0.008727 -0.005788 -0.009223 0.019474
# 2 -0.013682 0.030535 0.005841 0.006191 0.010721 -0.032817
# 3 -0.008727 0.005841 0.013752 0.004189 0.007145 -0.014908
# 4 -0.005788 0.006191 0.004189 0.032284 -0.001897 -0.007620
# 5 -0.009223 0.010721 0.007145 -0.001897 0.035559 -0.030351
# 6 0.019474 -0.032817 -0.014908 -0.007620 -0.030351 0.089475
#
#
# Mechanical properties :
#
#
# Convention : Reuss Voigt Hill
#
# Bulk Modulus (GPa) = 37.49435 73.23984 55.36709
# Shear Modulus (GPa) = 19.29366 34.50346 26.89856
#
# Velocity S-wave (km/s) = 2.91796 3.90214 3.44537
# Velocity P-wave (km/s) = 5.28197 7.25422 6.34519
#
# Compressibility (1/GPa) = 0.02667069
#
# Stress axis : x y z
#
# Youngs Moduli (GPa) = 64.43398 32.74904 72.71517
#
# Poissons Ratio (x) = 0.44809 0.63457
# Poissons Ratio (y) = 0.88161 -0.42472
# Poissons Ratio (z) = 0.56230 -0.19128
#
# Static dielectric constant tensor:
#      x y z
#    x 1.888710 -0.008030 -0.016790 
#    y -0.008030 1.851990 -0.012710 
#    z -0.016790 -0.012710 1.861950 
# 
# From -- ./inp_files/602269.got.cif
#   From: 2010.05.17/outbox.cif.g08.bks.cpg/sg2_302_cif.got.tgz:602269.got - 2010.06.03 11:33:40.
