data_PCOD9039862
_publ_section_title
;
Structure prediction by ZEFSAII (Michael W. Deem and Ramdas Pophale) SiO2 
 PCOD9039862
Probable space group: P -1
;
_chemical_formula_sum "Si O2"
_cell_formula_units_Z 12
_cell_length_a 11.755911
_cell_length_b 8.112991
_cell_length_c 17.683903
_cell_angle_alpha 55.904963
_cell_angle_beta 159.162822
_cell_angle_gamma 120.411848
_cell_volume 495.927869
_symmetry_space_group_name_H-M "P -1"
_symmetry_group_IT_number 2
_symmetry_cell_setting 'triclinic'
loop_
_space_group_symop_operation_xyz
x,y,z
-x,-y,-z
loop_
_atom_site_type_symbol
_atom_site_label
_atom_site_fract_x
_atom_site_fract_y
_atom_site_fract_z
Si Si1 0.389283 0.763808 0.612620
Si Si2 0.297066 0.856009 0.251386
Si Si3 0.226495 0.744975 0.773918
Si Si4 0.767184 0.620491 0.034456
Si Si5 0.405352 0.377694 0.648254
Si Si6 0.284811 0.137933 0.774498
O O1 0.492074 0.606236 0.651666
O O2 0.010551 0.750300 0.394961
O O3 0.478620 0.994561 0.603799
O O4 0.578125 0.681723 0.825465
O O5 0.449962 0.743780 0.302133
O O6 0.125565 0.691325 0.235736
O O7 0.000000 0.000000 0.000000
O O8 0.241186 0.612196 0.892701
O O9 0.975677 0.637052 0.594404
O O10 0.118033 0.971273 0.663197
O O11 0.568922 0.731268 0.950105
O O12 0.473946 0.266661 0.799353
O O13 0.500000 0.000000 0.000000
#
# Coordination Sequence:
#
# PCOD9039862 Si02
#       6
#     2   2   2   2   2   2
#     4  11  23  44  67 100 132 176 221 275 326 396
#     4  10  23  45  69  96 137 176 216 272 338 390
#     4  11  23  42  71 100 129 176 224 274 332 389
#     4  10  23  42  71  97 134 173 222 273 332 396
#     4  12  24  43  72  97 134 178 221 274 332 389
#     4  12  24  40  67 104 134 173 228 276 324 390
#
# _framework density 24.197068000000002
#
# number of rings (size 3 to 8) (size 9 to 14) (size 15 to 20)
#    0.000    1.000    3.333    4.000    4.667    3.333 
#    0.000    2.500    0.000    0.000    0.000    0.000 
#    0.000    0.000    0.000    0.000    0.000    0.000 
#
# Total GULP energy -67113.895617 kJ/mol
# GULP energy per Si atom -5592.824635 kJ/mol
# Density = 2.414199 g / cm^3
# Si number density = 24.197068 Si / 1000 Ang^3
#
#
#
# Elastic Constant Matrix: (Units=GPa)
#
#
# Indices 1 2 3 4 5 6 
#
# 1 95.2466 69.5344 38.4942 16.8992 18.4143 -5.9354
# 2 69.5344 135.3717 16.2437 15.0143 22.7331 -33.6470
# 3 38.4942 16.2437 66.1951 -0.0062 -6.4943 1.2223
# 4 16.8992 15.0143 -0.0062 27.3444 4.4961 1.7650
# 5 18.4143 22.7331 -6.4943 4.4961 43.0774 -3.3127
# 6 -5.9354 -33.6470 1.2223 1.7650 -3.3127 39.6000
#
#
#
# Elastic Compliance Matrix: (Units=1/GPa)
#
#
# Indices 1 2 3 4 5 6 
#
# 1 0.026738 -0.011325 -0.013354 -0.008816 -0.006961 -0.005392
# 2 -0.011325 0.016740 0.002007 -0.002585 -0.002469 0.012373
# 3 -0.013354 0.002007 0.023125 0.005971 0.007462 -0.000652
# 4 -0.008816 -0.002585 0.005971 0.043626 0.001052 -0.005558
# 5 -0.006961 -0.002469 0.007462 0.001052 0.028428 -0.001040
# 6 -0.005392 0.012373 -0.000652 -0.005558 -0.001040 0.035138
#
#
# Mechanical properties :
#
#
# Convention : Reuss Voigt Hill
#
# Bulk Modulus (GPa) = 47.03960 60.59535 53.81747
# Shear Modulus (GPa) = 22.10197 33.50711 27.80454
#
# Velocity S-wave (km/s) = 3.02555 3.72527 3.39350
# Velocity P-wave (km/s) = 5.62918 6.60305 6.13547
#
# Compressibility (1/GPa) = 0.02125868
#
# Stress axis : x y z
#
# Youngs Moduli (GPa) = 37.39999 59.73669 43.24394
#
# Poissons Ratio (x) = 0.67653 0.57747
# Poissons Ratio (y) = 0.42356 -0.08679
# Poissons Ratio (z) = 0.49943 -0.11990
#
# Static dielectric constant tensor:
#      x y z
#    x 1.956060 0.006640 -0.057070 
#    y 0.006640 2.005160 0.044370 
#    z -0.057070 0.044370 1.959710 
# 
# From -- ./inp_files/153634.got.cif
#   From: 2010.05.17/outbox.cif.g08.bks.cpg/sg2_77_cif.got.tgz:153634.got - 2010.06.03 11:33:40.
