data_PCOD9039048
_publ_section_title
;
Structure prediction by ZEFSAII (Michael W. Deem and Ramdas Pophale) SiO2 
 PCOD9039048
Probable space group: P -1
;
_chemical_formula_sum "Si O2"
_cell_formula_units_Z 16
_cell_length_a 12.734122
_cell_length_b 6.139595
_cell_length_c 26.924645
_cell_angle_alpha 46.066153
_cell_angle_beta 153.268283
_cell_angle_gamma 132.497654
_cell_volume 671.656347
_symmetry_space_group_name_H-M "P -1"
_symmetry_group_IT_number 2
_symmetry_cell_setting 'triclinic'
loop_
_space_group_symop_operation_xyz
x,y,z
-x,-y,-z
loop_
_atom_site_type_symbol
_atom_site_label
_atom_site_fract_x
_atom_site_fract_y
_atom_site_fract_z
Si Si1 0.624090 0.831905 0.620962
Si Si2 0.019664 0.138828 0.565434
Si Si3 0.724928 0.364227 0.895907
Si Si4 0.442828 0.673453 0.056047
Si Si5 0.640110 0.820737 0.385645
Si Si6 0.334403 0.823314 0.811676
Si Si7 0.756892 0.962465 0.763491
Si Si8 0.914199 0.477255 0.153284
O O1 0.421815 0.538932 0.591632
O O2 0.690659 0.022524 0.669382
O O3 0.858643 0.697041 0.724401
O O4 0.500000 0.000000 0.500000
O O5 0.202051 0.058532 0.613201
O O6 0.000000 0.500000 0.500000
O O7 0.130475 0.017071 0.680423
O O8 0.776765 0.936850 0.475764
O O9 0.605145 0.361218 0.900246
O O10 0.690442 0.597485 0.800097
O O11 0.588107 0.032818 0.874023
O O12 0.000000 0.500000 0.000000
O O13 0.656320 0.488887 0.164501
O O14 0.199910 0.524474 0.948706
O O15 0.500000 0.000000 0.000000
O O16 0.395404 0.936034 0.271505
O O17 0.281609 0.709060 0.863424
O O18 0.008775 0.176439 0.847381
#
# Coordination Sequence:
#
# PCOD9039048 Si02
#       8
#     2   2   2   2   2   2   2   2
#     4  11  26  43  71 102 145 190 246 299 374 438
#     4  11  24  42  71 102 147 187 244 306 363 437
#     4  12  26  45  77 104 144 192 242 303 377 433
#     4  12  27  48  73 108 149 188 249 308 368 438
#     4  10  23  42  65  99 138 185 240 296 362 431
#     4  12  27  44  74 107 144 196 246 297 373 439
#     4  11  25  46  69 103 145 186 247 309 366 442
#     4  11  27  44  73 104 146 192 247 306 365 443
#
# _framework density 23.821707
#
# number of rings (size 3 to 8) (size 9 to 14) (size 15 to 20)
#    0.000    0.750    1.250    4.875    8.750    6.000 
#    0.000    0.000    0.000    0.000    0.000    0.000 
#    0.000    0.000    0.000    0.000    0.000    0.000 
#
# Total GULP energy -89261.666561 kJ/mol
# GULP energy per Si atom -5578.854160 kJ/mol
# Density = 2.376749 g / cm^3
# Si number density = 23.821707 Si / 1000 Ang^3
#
#
#
# Elastic Constant Matrix: (Units=GPa)
#
#
# Indices 1 2 3 4 5 6 
#
# 1 70.5832 6.2788 6.6320 -6.3724 -5.1178 6.6744
# 2 6.2788 104.3400 21.7555 12.5568 -10.8438 9.1840
# 3 6.6320 21.7555 74.7027 -10.4087 -20.1490 -0.1725
# 4 -6.3724 12.5568 -10.4087 39.3025 -2.7229 0.3253
# 5 -5.1178 -10.8438 -20.1490 -2.7229 42.0022 8.8593
# 6 6.6744 9.1840 -0.1725 0.3253 8.8593 36.0847
#
#
#
# Elastic Compliance Matrix: (Units=1/GPa)
#
#
# Indices 1 2 3 4 5 6 
#
# 1 0.014976 -0.000684 -0.000077 0.002824 0.002476 -0.003230
# 2 -0.000684 0.011323 -0.003456 -0.004511 0.001546 -0.003111
# 3 -0.000077 -0.003456 0.017460 0.006286 0.008107 -0.001070
# 4 0.002824 -0.004511 0.006286 0.029306 0.004232 -0.000647
# 5 0.002476 0.001546 0.008107 0.004232 0.030428 -0.008321
# 6 -0.003230 -0.003111 -0.001070 -0.000647 -0.008321 0.031145
#
#
# Mechanical properties :
#
#
# Convention : Reuss Voigt Hill
#
# Bulk Modulus (GPa) = 28.30702 35.43985 31.87344
# Shear Modulus (GPa) = 32.29046 37.80853 35.04950
#
# Velocity S-wave (km/s) = 3.68571 3.98822 3.83995
# Velocity P-wave (km/s) = 5.47917 6.00977 5.75059
#
# Compressibility (1/GPa) = 0.03532692
#
# Stress axis : x y z
#
# Youngs Moduli (GPa) = 66.77537 88.31558 57.27474
#
# Poissons Ratio (x) = 0.06037 0.00439
# Poissons Ratio (y) = 0.04564 0.19792
# Poissons Ratio (z) = 0.00511 0.30518
#
# Static dielectric constant tensor:
#      x y z
#    x 1.926060 -0.016700 -0.014240 
#    y -0.016700 2.061710 -0.029440 
#    z -0.014240 -0.029440 2.038890 
# 
# From -- ./inp_files/547776.got.cif
#   From: 2010.05.17/outbox.cif.g08.bks.cpg/sg2_274_cif.got.tgz:547776.got - 2010.06.03 11:33:40.
