data_PCOD9039813
_publ_section_title
;
Structure prediction by ZEFSAII (Michael W. Deem and Ramdas Pophale) SiO2 
 PCOD9039813
Probable space group: P -1
;
_chemical_formula_sum "Si O2"
_cell_formula_units_Z 14
_cell_length_a 7.135891
_cell_length_b 10.686339
_cell_length_c 16.577853
_cell_angle_alpha 57.085002
_cell_angle_beta 136.162262
_cell_angle_gamma 95.761849
_cell_volume 635.945680
_symmetry_space_group_name_H-M "P -1"
_symmetry_group_IT_number 2
_symmetry_cell_setting 'triclinic'
loop_
_space_group_symop_operation_xyz
x,y,z
-x,-y,-z
loop_
_atom_site_type_symbol
_atom_site_label
_atom_site_fract_x
_atom_site_fract_y
_atom_site_fract_z
Si Si1 0.143930 0.205476 0.783875
Si Si2 0.774344 0.238085 0.516313
Si Si3 0.863775 0.370221 0.015202
Si Si4 0.871862 0.068275 0.026186
Si Si5 0.172474 0.667230 0.675420
Si Si6 0.123483 0.115354 0.335128
Si Si7 0.253237 0.466454 0.387981
O O1 0.504949 0.126907 0.901777
O O2 0.973549 0.292534 0.616127
O O3 0.046006 0.343707 0.777504
O O4 0.002290 0.088934 0.815349
O O5 0.754187 0.265063 0.406145
O O6 0.425342 0.354449 0.402678
O O7 0.953515 0.033686 0.656680
O O8 0.923710 0.224967 0.016305
O O9 0.489589 0.495934 0.859497
O O10 0.000000 0.500000 0.000000
O O11 0.008785 0.257954 0.180145
O O12 0.000000 0.000000 0.000000
O O13 0.042448 0.796798 0.663946
O O14 0.890541 0.634054 0.575888
O O15 0.500000 0.000000 0.500000
O O16 0.500000 0.500000 0.500000
#
# Coordination Sequence:
#
# PCOD9039813 Si02
#       7
#     2   2   2   2   2   2   2
#     4  10  23  44  70 106 142 190 233 306 368 432
#     4  11  24  44  74 108 143 186 247 299 369 439
#     4  12  28  50  74 111 149 202 248 302 378 445
#     4  11  25  44  74 104 147 189 248 300 369 434
#     4  12  26  46  74 106 147 198 245 302 375 438
#     4  12  25  48  73 102 147 195 249 306 363 442
#     4  10  23  42  71 103 145 183 240 301 367 433
#
# _framework density 22.014458999999999
#
# number of rings (size 3 to 8) (size 9 to 14) (size 15 to 20)
#    0.000    0.857    4.286    1.714    2.000    6.857 
#    0.000    0.000    0.000    0.000    0.000    0.000 
#    0.000    0.000    0.000    0.000    0.000    0.000 
#
# Total GULP energy -78012.651548 kJ/mol
# GULP energy per Si atom -5572.332253 kJ/mol
# Density = 2.196435 g / cm^3
# Si number density = 22.014459 Si / 1000 Ang^3
#
#
#
# Elastic Constant Matrix: (Units=GPa)
#
#
# Indices 1 2 3 4 5 6 
#
# 1 141.1360 78.1126 56.0740 -11.4584 -9.6349 -22.6761
# 2 78.1126 156.4883 30.9144 -19.9711 -11.3954 -24.6919
# 3 56.0740 30.9144 107.0879 -5.7737 -20.3851 -20.9506
# 4 -11.4584 -19.9711 -5.7737 32.8175 -0.1858 7.9105
# 5 -9.6349 -11.3954 -20.3851 -0.1858 29.8964 5.4440
# 6 -22.6761 -24.6919 -20.9506 7.9105 5.4440 42.6770
#
#
#
# Elastic Compliance Matrix: (Units=1/GPa)
#
#
# Indices 1 2 3 4 5 6 
#
# 1 0.011777 -0.004837 -0.004815 0.000000 -0.001567 0.001295
# 2 -0.004837 0.009670 0.000861 0.003768 0.002290 0.002457
# 3 -0.004815 0.000861 0.013781 0.000425 0.007507 0.003668
# 4 0.000000 0.003768 0.000425 0.033876 0.002708 -0.004236
# 5 -0.001567 0.002290 0.007507 0.002708 0.039194 -0.001324
# 6 0.001295 0.002457 0.003668 -0.004236 -0.001324 0.028296
#
#
# Mechanical properties :
#
#
# Convention : Reuss Voigt Hill
#
# Bulk Modulus (GPa) = 56.67430 81.65712 69.16571
# Shear Modulus (GPa) = 31.23900 37.05226 34.14563
#
# Velocity S-wave (km/s) = 3.77108 4.10700 3.94262
# Velocity P-wave (km/s) = 6.69039 7.72418 7.22580
#
# Compressibility (1/GPa) = 0.01764468
#
# Stress axis : x y z
#
# Youngs Moduli (GPa) = 84.91451 103.41414 72.56569
#
# Poissons Ratio (x) = 0.50021 0.34942
# Poissons Ratio (y) = 0.41072 -0.06248
# Poissons Ratio (z) = 0.40888 -0.08903
#
# Static dielectric constant tensor:
#      x y z
#    x 1.809790 0.036750 0.013690 
#    y 0.036750 1.988580 -0.041340 
#    z 0.013690 -0.041340 1.903140 
# 
# From -- ./inp_files/482681.got.cif
#   From: 2010.05.17/outbox.cif.g08.bks.cpg/sg2_242_cif.got.tgz:482681.got - 2010.06.03 11:33:40.
