data_PCOD9039485
_publ_section_title
;
Structure prediction by ZEFSAII (Michael W. Deem and Ramdas Pophale) SiO2 
 PCOD9039485
Probable space group: P -1
;
_chemical_formula_sum "Si O2"
_cell_formula_units_Z 16
_cell_length_a 5.125601
_cell_length_b 27.152197
_cell_length_c 9.039847
_cell_angle_alpha 142.718296
_cell_angle_beta 77.692746
_cell_angle_gamma 117.375710
_cell_volume 648.877697
_symmetry_space_group_name_H-M "P -1"
_symmetry_group_IT_number 2
_symmetry_cell_setting 'triclinic'
loop_
_space_group_symop_operation_xyz
x,y,z
-x,-y,-z
loop_
_atom_site_type_symbol
_atom_site_label
_atom_site_fract_x
_atom_site_fract_y
_atom_site_fract_z
Si Si1 0.513189 0.684740 0.918187
Si Si2 0.323773 0.088787 0.126286
Si Si3 0.712114 0.486609 0.325466
Si Si4 0.087667 0.918323 0.090675
Si Si5 0.633166 0.438182 0.905507
Si Si6 0.544686 0.875386 0.464896
Si Si7 0.870371 0.189249 0.897639
Si Si8 0.684750 0.325211 0.388179
O O1 0.506247 0.777427 0.182646
O O2 0.863545 0.719694 0.000547
O O3 0.229440 0.591249 0.789337
O O4 0.522660 0.671461 0.710067
O O5 0.588358 0.070366 0.982103
O O6 0.474423 0.134250 0.376492
O O7 0.183077 0.128308 0.111268
O O8 0.000000 0.000000 0.000000
O O9 0.500000 0.500000 0.500000
O O10 0.989066 0.582618 0.466057
O O11 0.535217 0.428608 0.063335
O O12 0.027278 0.863557 0.121445
O O13 0.155407 0.024249 0.356626
O O14 0.565571 0.345258 0.603257
O O15 0.500000 0.500000 0.000000
O O16 0.000000 0.500000 0.000000
O O17 0.311938 0.879028 0.379245
O O18 0.717752 0.235331 0.131319
#
# Coordination Sequence:
#
# PCOD9039485 Si02
#       8
#     2   2   2   2   2   2   2   2
#     4  11  24  40  67  97 137 177 235 290 350 411
#     4  10  23  45  71 100 136 187 233 287 351 421
#     4  11  21  43  70  97 132 185 228 289 353 415
#     4  11  25  44  73  99 140 189 230 286 358 416
#     4  10  23  42  68  98 128 176 227 280 344 413
#     4  10  24  43  66  99 137 177 234 289 342 420
#     4  11  25  42  67 104 138 185 232 292 349 419
#     4  10  23  44  67  97 141 180 235 291 350 422
#
# _framework density 24.657959000000002
#
# number of rings (size 3 to 8) (size 9 to 14) (size 15 to 20)
#    0.000    1.500    1.250    3.000   10.500    2.500 
#    0.000    0.000    0.000    0.000    0.000    0.000 
#    0.000    0.000    0.000    0.000    0.000    0.000 
#
# Total GULP energy -89078.780851 kJ/mol
# GULP energy per Si atom -5567.423803 kJ/mol
# Density = 2.460184 g / cm^3
# Si number density = 24.657959 Si / 1000 Ang^3
#
#
#
# Elastic Constant Matrix: (Units=GPa)
#
#
# Indices 1 2 3 4 5 6 
#
# 1 115.2073 38.3277 37.9434 -14.0380 -3.1568 -8.4753
# 2 38.3277 101.1240 50.5358 -13.7241 8.1065 -5.3194
# 3 37.9434 50.5358 161.3216 -31.0566 7.9396 -7.8188
# 4 -14.0380 -13.7241 -31.0566 51.0538 -6.0247 5.7446
# 5 -3.1568 8.1065 7.9396 -6.0247 31.3293 -9.7240
# 6 -8.4753 -5.3194 -7.8188 5.7446 -9.7240 44.8998
#
#
#
# Elastic Compliance Matrix: (Units=1/GPa)
#
#
# Indices 1 2 3 4 5 6 
#
# 1 0.010599 -0.003361 -0.001229 0.001418 0.003105 0.001880
# 2 -0.003361 0.012967 -0.003068 0.000384 -0.002941 -0.000319
# 3 -0.001229 -0.003068 0.008209 0.003732 -0.000624 0.000221
# 4 0.001418 0.000384 0.003732 0.022861 0.003093 -0.001292
# 5 0.003105 -0.002941 -0.000624 0.003093 0.036089 0.007549
# 6 0.001880 -0.000319 0.000221 -0.001292 0.007549 0.024428
#
#
# Mechanical properties :
#
#
# Convention : Reuss Voigt Hill
#
# Bulk Modulus (GPa) = 60.75599 70.14076 65.44837
# Shear Modulus (GPa) = 36.77686 42.17963 39.47825
#
# Velocity S-wave (km/s) = 3.86616 4.14041 4.00563
# Velocity P-wave (km/s) = 6.68001 7.16691 6.92774
#
# Compressibility (1/GPa) = 0.01645928
#
# Stress axis : x y z
#
# Youngs Moduli (GPa) = 94.34924 77.11798 121.81738
#
# Poissons Ratio (x) = 0.25917 0.14969
# Poissons Ratio (y) = 0.31707 0.37379
# Poissons Ratio (z) = 0.11594 0.23663
#
# Static dielectric constant tensor:
#      x y z
#    x 2.155970 -0.072990 0.022690 
#    y -0.072990 2.122140 0.025560 
#    z 0.022690 0.025560 2.003730 
# 
# From -- ./inp_files/143157.got.cif
#   From: 2010.05.17/outbox.cif.g08.bks.cpg/sg2_72_cif.got.tgz:143157.got - 2010.06.03 11:33:40.
