data_PCOD9039569
_publ_section_title
;
Structure prediction by ZEFSAII (Michael W. Deem and Ramdas Pophale) SiO2 
 PCOD9039569
Probable space group: P -1
;
_chemical_formula_sum "Si O2"
_cell_formula_units_Z 16
_cell_length_a 12.937844
_cell_length_b 12.915387
_cell_length_c 5.134210
_cell_angle_alpha 76.189658
_cell_angle_beta 69.411692
_cell_angle_gamma 63.386840
_cell_volume 714.643612
_symmetry_space_group_name_H-M "P -1"
_symmetry_group_IT_number 2
_symmetry_cell_setting 'triclinic'
loop_
_space_group_symop_operation_xyz
x,y,z
-x,-y,-z
loop_
_atom_site_type_symbol
_atom_site_label
_atom_site_fract_x
_atom_site_fract_y
_atom_site_fract_z
Si Si1 0.395667 0.600312 0.267331
Si Si2 0.423224 0.365650 0.525379
Si Si3 0.216216 0.279058 0.844235
Si Si4 0.051619 0.366507 0.446413
Si Si5 0.584092 0.982814 0.181517
Si Si6 0.898809 0.127119 0.021989
Si Si7 0.641045 0.185869 0.190010
Si Si8 0.132231 0.730061 0.555666
O O1 0.409188 0.469885 0.273765
O O2 0.513281 0.599592 0.309630
O O3 0.273696 0.650826 0.520594
O O4 0.364353 0.697159 0.015487
O O5 0.299878 0.351112 0.681678
O O6 0.522709 0.238987 0.438733
O O7 0.125538 0.297254 0.673079
O O8 0.306018 0.143105 0.855004
O O9 0.143689 0.328201 0.144702
O O10 0.000000 0.500000 0.500000
O O11 0.938975 0.340724 0.462857
O O12 0.500000 0.000000 0.500000
O O13 0.629531 0.087301 0.080115
O O14 0.500000 0.000000 0.000000
O O15 0.771782 0.128497 0.236068
O O16 0.924865 0.209264 0.159323
O O17 0.881106 0.175742 0.714743
O O18 0.000000 0.000000 0.000000
#
# Coordination Sequence:
#
# PCOD9039569 Si02
#       8
#     2   2   2   2   2   2   2   2
#     4  10  23  42  69 104 133 188 225 306 354 423
#     4  11  22  43  70 103 144 175 242 289 367 430
#     4  12  27  47  74 111 142 198 242 298 371 437
#     4  12  28  50  74 105 147 195 247 304 362 434
#     4  12  26  46  71 104 150 189 236 295 355 447
#     4  11  25  44  69 102 133 189 231 299 351 419
#     4  11  24  42  70  99 148 179 240 288 370 420
#     4  11  24  47  69 100 141 176 248 286 361 418
#
# _framework density 22.388781000000002
#
# number of rings (size 3 to 8) (size 9 to 14) (size 15 to 20)
#    0.000    0.750    2.500    4.125    5.250    1.000 
#    2.250    0.000    0.000    0.000    0.000    0.000 
#    0.000    0.000    0.000    0.000    0.000    0.000 
#
# Total GULP energy -89434.606823 kJ/mol
# GULP energy per Si atom -5589.662926 kJ/mol
# Density = 2.233782 g / cm^3
# Si number density = 22.388781 Si / 1000 Ang^3
#
#
#
# Elastic Constant Matrix: (Units=GPa)
#
#
# Indices 1 2 3 4 5 6 
#
# 1 111.7375 40.0187 33.7310 10.2151 9.9887 2.7617
# 2 40.0187 138.1063 34.2752 20.2603 3.6174 -5.3975
# 3 33.7310 34.2752 108.0008 17.3048 11.7383 -6.7777
# 4 10.2151 20.2603 17.3048 32.8124 -2.1148 4.4113
# 5 9.9887 3.6174 11.7383 -2.1148 40.2280 -0.2063
# 6 2.7617 -5.3975 -6.7777 4.4113 -0.2063 32.4992
#
#
#
# Elastic Compliance Matrix: (Units=1/GPa)
#
#
# Indices 1 2 3 4 5 6 
#
# 1 0.010821 -0.002492 -0.002441 -0.000416 -0.001781 -0.001797
# 2 -0.002492 0.008998 -0.001237 -0.004405 -0.000050 0.002046
# 3 -0.002441 -0.001237 0.011788 -0.005310 -0.002985 0.003162
# 4 -0.000416 -0.004405 -0.005310 0.037302 0.003975 -0.006842
# 5 -0.001781 -0.000050 -0.002985 0.003975 0.026381 -0.000852
# 6 -0.001797 0.002046 0.003162 -0.006842 -0.000852 0.032845
#
#
# Mechanical properties :
#
#
# Convention : Reuss Voigt Hill
#
# Bulk Modulus (GPa) = 51.90824 63.76604 57.83714
# Shear Modulus (GPa) = 34.03716 37.76258 35.89987
#
# Velocity S-wave (km/s) = 3.90330 4.11137 4.00869
# Velocity P-wave (km/s) = 6.59921 7.14709 6.87861
#
# Compressibility (1/GPa) = 0.01926477
#
# Stress axis : x y z
#
# Youngs Moduli (GPa) = 92.41497 111.14051 84.83132
#
# Poissons Ratio (x) = 0.27699 0.20709
# Poissons Ratio (y) = 0.23032 0.10497
# Poissons Ratio (z) = 0.22560 0.13752
#
# Static dielectric constant tensor:
#      x y z
#    x 1.779920 -0.031220 0.005860 
#    y -0.031220 1.834810 0.041870 
#    z 0.005860 0.041870 1.857830 
# 
# From -- ./inp_files/70438.got.cif
#   From: 2010.05.17/outbox.cif.g08.bks.cpg/sg2_36_cif.got.tgz:70438.got - 2010.06.03 11:33:40.
