data_PCOD9039766
_publ_section_title
;
Structure prediction by ZEFSAII (Michael W. Deem and Ramdas Pophale) SiO2 
 PCOD9039766
Probable space group: P -1
;
_chemical_formula_sum "Si O2"
_cell_formula_units_Z 16
_cell_length_a 9.352499
_cell_length_b 15.566911
_cell_length_c 5.323639
_cell_angle_alpha 113.555687
_cell_angle_beta 93.938971
_cell_angle_gamma 71.388167
_cell_volume 671.778115
_symmetry_space_group_name_H-M "P -1"
_symmetry_group_IT_number 2
_symmetry_cell_setting 'triclinic'
loop_
_space_group_symop_operation_xyz
x,y,z
-x,-y,-z
loop_
_atom_site_type_symbol
_atom_site_label
_atom_site_fract_x
_atom_site_fract_y
_atom_site_fract_z
Si Si1 0.846119 0.935035 0.531062
Si Si2 0.113018 0.859571 0.160183
Si Si3 0.665808 0.923175 0.994034
Si Si4 0.155584 0.706007 0.609410
Si Si5 0.038757 0.431682 0.674928
Si Si6 0.354655 0.277772 0.363912
Si Si7 0.547168 0.398108 0.245782
Si Si8 0.399687 0.735713 0.294406
O O1 0.757386 0.915145 0.734744
O O2 0.999977 0.852538 0.361107
O O3 0.900260 0.027026 0.730206
O O4 0.743077 0.955855 0.286832
O O5 0.292618 0.807536 0.162669
O O6 0.066427 0.805722 0.858716
O O7 0.669820 0.809816 0.905654
O O8 0.500000 0.000000 0.000000
O O9 0.270409 0.638657 0.752333
O O10 0.276476 0.728922 0.470780
O O11 0.062383 0.640924 0.411269
O O12 0.207896 0.356572 0.559681
O O13 0.000000 0.500000 0.500000
O O14 0.000000 0.500000 0.000000
O O15 0.449728 0.335622 0.290918
O O16 0.472384 0.225140 0.535845
O O17 0.500000 0.500000 0.500000
O O18 0.522919 0.375754 0.927677
#
# Coordination Sequence:
#
# PCOD9039766 Si02
#       8
#     2   2   2   2   2   2   2   2
#     4  11  27  44  74 106 144 192 248 304 363 437
#     4  10  24  44  73 101 142 186 251 306 362 426
#     4  12  28  47  73 108 156 193 246 299 378 441
#     4  10  24  43  70 100 138 187 240 299 363 428
#     4  12  30  48  74 107 150 191 243 304 373 447
#     4  11  27  44  73 106 147 198 239 305 373 442
#     4  10  23  42  70  99 141 184 252 296 359 428
#     4  10  24  42  74 100 142 190 248 299 363 431
#
# _framework density 23.817384000000001
#
# number of rings (size 3 to 8) (size 9 to 14) (size 15 to 20)
#    0.000    1.250    0.000    2.625   21.000    2.000 
#    0.000    0.000    0.000    0.000    0.000    0.000 
#    0.000    0.000    0.000    0.000    0.000    0.000 
#
# Total GULP energy -89327.618831 kJ/mol
# GULP energy per Si atom -5582.976177 kJ/mol
# Density = 2.376317 g / cm^3
# Si number density = 23.817384 Si / 1000 Ang^3
#
#
#
# Elastic Constant Matrix: (Units=GPa)
#
#
# Indices 1 2 3 4 5 6 
#
# 1 137.3962 28.9118 56.3181 9.8247 -5.7553 -6.2316
# 2 28.9118 49.1479 43.3325 12.0284 -4.0918 6.1436
# 3 56.3181 43.3325 192.0410 23.4424 -5.1255 11.8914
# 4 9.8247 12.0284 23.4424 43.9352 1.8501 5.1717
# 5 -5.7553 -4.0918 -5.1255 1.8501 43.8829 0.3345
# 6 -6.2316 6.1436 11.8914 5.1717 0.3345 41.5212
#
#
#
# Elastic Compliance Matrix: (Units=1/GPa)
#
#
# Indices 1 2 3 4 5 6 
#
# 1 0.009015 -0.003837 -0.001882 -0.000279 0.000598 0.002490
# 2 -0.003837 0.028086 -0.004472 -0.004174 0.001792 -0.002945
# 3 -0.001882 -0.004472 0.007106 -0.001991 0.000261 -0.001410
# 4 -0.000279 -0.004174 -0.001991 0.025335 -0.001711 -0.001996
# 5 0.000598 0.001792 0.000261 -0.001711 0.023138 -0.000223
# 6 0.002490 -0.002945 -0.001410 -0.001996 -0.000223 0.025548
#
#
# Mechanical properties :
#
#
# Convention : Reuss Voigt Hill
#
# Bulk Modulus (GPa) = 41.97511 70.63443 56.30477
# Shear Modulus (GPa) = 34.11777 42.53605 38.32691
#
# Velocity S-wave (km/s) = 3.78891 4.23060 4.01583
# Velocity P-wave (km/s) = 6.06656 7.32018 6.72265
#
# Compressibility (1/GPa) = 0.02382364
#
# Stress axis : x y z
#
# Youngs Moduli (GPa) = 110.92633 35.60514 140.73309
#
# Poissons Ratio (x) = 0.13661 0.26487
# Poissons Ratio (y) = 0.42561 0.62943
# Poissons Ratio (z) = 0.20877 0.15924
#
# Static dielectric constant tensor:
#      x y z
#    x 1.918950 -0.072590 0.010930 
#    y -0.072590 2.092890 -0.045780 
#    z 0.010930 -0.045780 1.994140 
# 
# From -- ./inp_files/46266.got.cif
#   From: 2010.05.17/outbox.cif.g08.bks.cpg/sg2_24_cif.got.tgz:46266.got - 2010.06.03 11:33:40.
