data_PCOD9039286
_publ_section_title
;
Structure prediction by ZEFSAII (Michael W. Deem and Ramdas Pophale) SiO2 
 PCOD9039286
Probable space group: P -1
;
_chemical_formula_sum "Si O2"
_cell_formula_units_Z 14
_cell_length_a 9.191320
_cell_length_b 7.378657
_cell_length_c 22.370728
_cell_angle_alpha 50.842370
_cell_angle_beta 151.978160
_cell_angle_gamma 125.966554
_cell_volume 550.835621
_symmetry_space_group_name_H-M "P -1"
_symmetry_group_IT_number 2
_symmetry_cell_setting 'triclinic'
loop_
_space_group_symop_operation_xyz
x,y,z
-x,-y,-z
loop_
_atom_site_type_symbol
_atom_site_label
_atom_site_fract_x
_atom_site_fract_y
_atom_site_fract_z
Si Si1 0.854773 0.984502 0.265373
Si Si2 0.565451 0.359956 0.268069
Si Si3 0.781075 0.417409 0.080697
Si Si4 0.179925 0.781276 0.075044
Si Si5 0.251181 0.336302 0.822057
Si Si6 0.080368 0.175128 0.549295
Si Si7 0.245071 0.898376 0.222660
O O1 0.486279 0.959622 0.153180
O O2 0.860353 0.810158 0.246778
O O3 0.004661 0.925565 0.394964
O O4 0.951280 0.235803 0.219797
O O5 0.323170 0.555971 0.143798
O O6 0.693629 0.397531 0.238730
O O7 0.397146 0.109991 0.275675
O O8 0.866279 0.386515 0.413983
O O9 0.998507 0.639768 0.091901
O O10 0.500000 0.500000 0.000000
O O11 0.587592 0.287123 0.982470
O O12 0.936209 0.930235 0.921947
O O13 0.990357 0.274218 0.789590
O O14 0.454735 0.219158 0.670212
O O15 0.000000 0.000000 0.500000
#
# Coordination Sequence:
#
# PCOD9039286 Si02
#       7
#     2   2   2   2   2   2   2
#     4  11  25  43  69  98 139 176 230 274 340 400
#     4  10  23  42  67  94 138 178 227 267 338 401
#     4  12  25  39  66 109 142 169 220 287 348 393
#     4  11  23  39  72 101 134 175 226 278 337 401
#     4  11  24  40  70 103 137 173 225 283 335 405
#     4  10  25  47  67  93 141 185 220 278 341 401
#     4  11  21  41  70 100 136 176 220 281 344 390
#
# _framework density 25.415929999999999
#
# number of rings (size 3 to 8) (size 9 to 14) (size 15 to 20)
#    0.000    1.143    2.857    2.571    8.000    4.000 
#    0.000    9.286    0.000    0.000    0.000    0.000 
#    0.000    0.000    0.000    0.000    0.000    0.000 
#
# Total GULP energy -78169.740592 kJ/mol
# GULP energy per Si atom -5583.552899 kJ/mol
# Density = 2.535808 g / cm^3
# Si number density = 25.415930 Si / 1000 Ang^3
#
#
#
# Elastic Constant Matrix: (Units=GPa)
#
#
# Indices 1 2 3 4 5 6 
#
# 1 127.6095 28.2407 46.4985 -10.9728 -18.4911 26.4130
# 2 28.2407 101.0119 31.8507 -2.5701 -1.6973 12.6994
# 3 46.4985 31.8507 152.9344 -13.7939 -19.0917 19.8112
# 4 -10.9728 -2.5701 -13.7939 33.6361 6.3557 -3.3025
# 5 -18.4911 -1.6973 -19.0917 6.3557 47.3817 1.2524
# 6 26.4130 12.6994 19.8112 -3.3025 1.2524 51.2798
#
#
#
# Elastic Compliance Matrix: (Units=1/GPa)
#
#
# Indices 1 2 3 4 5 6 
#
# 1 0.010296 -0.001724 -0.001693 0.001519 0.003182 -0.004202
# 2 -0.001724 0.011064 -0.001777 -0.000389 -0.000910 -0.001168
# 3 -0.001693 -0.001777 0.008124 0.002033 0.002323 -0.001752
# 4 0.001519 -0.000389 0.002033 0.031633 -0.002862 0.000636
# 5 0.003182 -0.000910 0.002323 -0.002862 0.023715 -0.003074
# 6 -0.004202 -0.001168 -0.001752 0.000636 -0.003074 0.022748
#
#
# Mechanical properties :
#
#
# Convention : Reuss Voigt Hill
#
# Bulk Modulus (GPa) = 52.36931 66.08173 59.22552
# Shear Modulus (GPa) = 40.21436 44.79057 42.50247
#
# Velocity S-wave (km/s) = 3.98207 4.20253 4.09378
# Velocity P-wave (km/s) = 6.46468 7.04308 6.76007
#
# Compressibility (1/GPa) = 0.01909515
#
# Stress axis : x y z
#
# Youngs Moduli (GPa) = 97.12213 90.38330 123.09414
#
# Poissons Ratio (x) = 0.15586 0.20838
# Poissons Ratio (y) = 0.16748 0.21877
# Poissons Ratio (z) = 0.16441 0.16064
#
# Static dielectric constant tensor:
#      x y z
#    x 2.145180 -0.127730 -0.113730 
#    y -0.127730 2.078250 0.048050 
#    z -0.113730 0.048050 2.102230 
# 
# From -- ./inp_files/306694.got.cif
#   From: 2010.05.17/outbox.cif.g08.bks.cpg/sg2_154_cif.got.tgz:306694.got - 2010.06.03 11:33:40.
