data_PCOD9039205
_publ_section_title
;
Structure prediction by ZEFSAII (Michael W. Deem and Ramdas Pophale) SiO2 
 PCOD9039205
Probable space group: P -1
;
_chemical_formula_sum "Si O2"
_cell_formula_units_Z 16
_cell_length_a 9.229088
_cell_length_b 14.247931
_cell_length_c 20.283157
_cell_angle_alpha 21.298997
_cell_angle_beta 54.101272
_cell_angle_gamma 52.304917
_cell_volume 765.298711
_symmetry_space_group_name_H-M "P -1"
_symmetry_group_IT_number 2
_symmetry_cell_setting 'triclinic'
loop_
_space_group_symop_operation_xyz
x,y,z
-x,-y,-z
loop_
_atom_site_type_symbol
_atom_site_label
_atom_site_fract_x
_atom_site_fract_y
_atom_site_fract_z
Si Si1 0.334336 0.192770 0.745621
Si Si2 0.816724 0.221048 0.418468
Si Si3 0.010632 0.271098 0.698603
Si Si4 0.994838 0.294220 0.951113
Si Si5 0.414020 0.753373 0.668077
Si Si6 0.778056 0.311443 0.861029
Si Si7 0.260045 0.816315 0.386677
Si Si8 0.075242 0.729985 0.865624
O O1 0.279246 0.502921 0.574502
O O2 0.553218 0.113381 0.735745
O O3 0.227945 0.169072 0.721366
O O4 0.248950 0.988976 0.944848
O O5 0.679538 0.216636 0.398147
O O6 0.747130 0.153461 0.552394
O O7 0.866849 0.509787 0.217826
O O8 0.000000 0.000000 0.500000
O O9 0.905817 0.371427 0.728757
O O10 0.000000 0.500000 0.500000
O O11 0.928711 0.023065 0.860717
O O12 0.870825 0.344014 0.885562
O O13 0.898078 0.340681 0.018063
O O14 0.578176 0.496981 0.792209
O O15 0.260321 0.745023 0.769094
O O16 0.500000 0.000000 0.500000
O O17 0.080008 0.000360 0.281873
O O18 0.000000 0.500000 0.000000
#
# Coordination Sequence:
#
# PCOD9039205 Si02
#       8
#     2   2   2   2   2   2   2   2
#     4  10  23  42  67 101 134 181 221 290 343 409
#     4  12  23  44  68  99 135 188 228 279 348 411
#     4  11  24  43  70 101 138 182 228 289 349 411
#     4  11  24  42  75  97 135 193 226 284 350 409
#     4  12  28  42  70 103 139 182 231 290 345 414
#     4  11  25  46  68 101 145 175 231 283 352 416
#     4  11  23  41  71  98 140 175 234 282 343 414
#     4  12  24  46  69 102 141 181 237 286 343 413
#
# _framework density 20.906866999999998
#
# number of rings (size 3 to 8) (size 9 to 14) (size 15 to 20)
#    0.000    0.750    2.500    5.250    5.250    1.500 
#    0.000    1.250    0.000    0.000    0.000    0.000 
#    0.000    0.000    0.000    0.000    0.000    0.000 
#
# Total GULP energy -89423.139030 kJ/mol
# GULP energy per Si atom -5588.946189 kJ/mol
# Density = 2.085928 g / cm^3
# Si number density = 20.906867 Si / 1000 Ang^3
#
#
#
# Elastic Constant Matrix: (Units=GPa)
#
#
# Indices 1 2 3 4 5 6 
#
# 1 119.5752 49.7783 58.9935 9.0820 -4.5684 6.8306
# 2 49.7783 98.3696 38.6910 15.3972 3.2657 1.8627
# 3 58.9935 38.6910 117.2768 6.7338 -2.3928 1.5151
# 4 9.0820 15.3972 6.7338 47.1501 1.4751 7.1935
# 5 -4.5684 3.2657 -2.3928 1.4751 40.5703 0.5649
# 6 6.8306 1.8627 1.5151 7.1935 0.5649 45.0117
#
#
#
# Elastic Compliance Matrix: (Units=1/GPa)
#
#
# Indices 1 2 3 4 5 6 
#
# 1 0.012840 -0.004582 -0.004890 -0.000083 0.001552 -0.001601
# 2 -0.004582 0.013896 -0.002127 -0.003416 -0.001646 0.000758
# 3 -0.004890 -0.002127 0.011695 -0.000112 0.000308 0.000450
# 4 -0.000083 -0.003416 -0.000112 0.022906 -0.000525 -0.003496
# 5 0.001552 -0.001646 0.000308 -0.000525 0.024999 -0.000408
# 6 -0.001601 0.000758 0.000450 -0.003496 -0.000408 0.022977
#
#
# Mechanical properties :
#
#
# Convention : Reuss Voigt Hill
#
# Bulk Modulus (GPa) = 65.64661 70.01637 67.83149
# Shear Modulus (GPa) = 36.34020 39.06367 37.70193
#
# Velocity S-wave (km/s) = 4.17369 4.32726 4.25117
# Velocity P-wave (km/s) = 7.39554 7.65044 7.52407
#
# Compressibility (1/GPa) = 0.01523308
#
# Stress axis : x y z
#
# Youngs Moduli (GPa) = 77.88097 71.96332 85.50532
#
# Poissons Ratio (x) = 0.32976 0.41813
# Poissons Ratio (y) = 0.35688 0.18184
# Poissons Ratio (z) = 0.38084 0.15304
#
# Static dielectric constant tensor:
#      x y z
#    x 1.734570 0.015540 0.006980 
#    y 0.015540 1.777290 -0.053490 
#    z 0.006980 -0.053490 1.790320 
# 
# From -- ./inp_files/280110.got.cif
#   From: 2010.05.17/outbox.cif.g08.bks.cpg/sg2_141_cif.got.tgz:280110.got - 2010.06.03 11:33:40.
