data_PCOD9039345
_publ_section_title
;
Structure prediction by ZEFSAII (Michael W. Deem and Ramdas Pophale) SiO2 
 PCOD9039345
Probable space group: P -1
;
_chemical_formula_sum "Si O2"
_cell_formula_units_Z 13
_cell_length_a 10.406934
_cell_length_b 6.035888
_cell_length_c 8.866543
_cell_angle_alpha 83.885851
_cell_angle_beta 59.206421
_cell_angle_gamma 73.288861
_cell_volume 457.665174
_symmetry_space_group_name_H-M "P -1"
_symmetry_group_IT_number 2
_symmetry_cell_setting 'triclinic'
loop_
_space_group_symop_operation_xyz
x,y,z
-x,-y,-z
loop_
_atom_site_type_symbol
_atom_site_label
_atom_site_fract_x
_atom_site_fract_y
_atom_site_fract_z
Si Si1 0.500000 0.500000 0.500000
Si Si2 0.813299 0.943993 0.073075
Si Si3 0.449957 0.280525 0.873469
Si Si4 0.026940 0.653297 0.751687
Si Si5 0.216293 0.993059 0.326934
Si Si6 0.287777 0.230019 0.567601
Si Si7 0.792115 0.369193 0.837990
O O1 0.487982 0.419767 0.694021
O O2 0.460889 0.253458 0.484939
O O3 0.685564 0.825525 0.095039
O O4 0.781590 0.931251 0.268189
O O5 0.978809 0.771348 0.934414
O O6 0.790569 0.179155 0.979962
O O7 0.606749 0.087658 0.835219
O O8 0.365473 0.433052 0.053785
O O9 0.933567 0.858510 0.684225
O O10 0.936517 0.464868 0.780390
O O11 0.204249 0.504965 0.642493
O O12 0.239600 0.143253 0.444267
O O13 0.190917 0.737515 0.332027
#
# Coordination Sequence:
#
# PCOD9039345 Si02
#       7
#     1   2   2   2   2   2   2
#     4  10  26  44  70  98 132 184 220 284 346 376
#     4   9  22  43  70  99 132 180 230 277 332 396
#     4  10  23  42  67  99 138 174 230 276 331 407
#     4  10  23  46  67 102 137 180 222 278 339 404
#     4  11  25  41  70 104 138 177 223 279 341 402
#     4  11  24  46  70  99 142 172 232 283 328 409
#     4  10  23  42  68 100 140 179 220 273 347 397
#
# _framework density 28.405044
#
# number of rings (size 3 to 8) (size 9 to 14) (size 15 to 20)
#    0.000    1.846    0.000    1.385    6.462    8.000 
#    5.538    0.000    0.000    0.000    0.000    0.000 
#    0.000    0.000    0.000    0.000    0.000    0.000 
#
# Total GULP energy -72455.847462 kJ/mol
# GULP energy per Si atom -5573.526728 kJ/mol
# Density = 2.834039 g / cm^3
# Si number density = 28.405044 Si / 1000 Ang^3
#
#
#
# Elastic Constant Matrix: (Units=GPa)
#
#
# Indices 1 2 3 4 5 6 
#
# 1 48.2937 4.2179 11.8396 18.8975 24.1510 -1.5950
# 2 4.2179 103.0627 49.3551 13.4379 -7.9369 -23.8534
# 3 11.8396 49.3551 111.5200 9.5028 4.6677 -23.4551
# 4 18.8975 13.4379 9.5028 60.8504 1.7823 -19.9246
# 5 24.1510 -7.9369 4.6677 1.7823 43.1027 5.6794
# 6 -1.5950 -23.8534 -23.4551 -19.9246 5.6794 37.1652
#
#
#
# Elastic Compliance Matrix: (Units=1/GPa)
#
#
# Indices 1 2 3 4 5 6 
#
# 1 0.034733 -0.001221 -0.002222 -0.010830 -0.018514 -0.003672
# 2 -0.001221 0.013521 -0.004932 -0.000334 0.003081 0.004863
# 3 -0.002222 -0.004932 0.012555 0.001812 -0.001878 0.005921
# 4 -0.010830 -0.000334 0.001812 0.023638 0.003166 0.012653
# 5 -0.018514 0.003081 -0.001878 0.003166 0.034689 -0.003606
# 6 -0.003672 0.004863 0.005921 0.012653 -0.003606 0.040942
#
#
# Mechanical properties :
#
#
# Convention : Reuss Voigt Hill
#
# Bulk Modulus (GPa) = 22.69635 43.74462 33.22048
# Shear Modulus (GPa) = 26.10761 41.38792 33.74776
#
# Velocity S-wave (km/s) = 3.03499 3.82129 3.45061
# Velocity P-wave (km/s) = 4.50434 5.90791 5.25321
#
# Compressibility (1/GPa) = 0.04405995
#
# Stress axis : x y z
#
# Youngs Moduli (GPa) = 28.79093 73.95866 79.64823
#
# Poissons Ratio (x) = 0.09031 0.17695
# Poissons Ratio (y) = 0.03516 0.39283
# Poissons Ratio (z) = 0.06396 0.36477
#
# Static dielectric constant tensor:
#      x y z
#    x 2.380180 -0.089040 -0.070790 
#    y -0.089040 2.301440 -0.013250 
#    z -0.070790 -0.013250 2.364280 
# 
# From -- ./inp_files/65186.got.cif
#   From: 2010.05.17/outbox.cif.g08.bks.cpg/sg2_33_cif.got.tgz:65186.got - 2010.06.03 11:33:40.
