data_PCOD9039906
_publ_section_title
;
Structure prediction by ZEFSAII (Michael W. Deem and Ramdas Pophale) SiO2 
 PCOD9039906
Probable space group: P -1
;
_chemical_formula_sum "Si O2"
_cell_formula_units_Z 14
_cell_length_a 10.734013
_cell_length_b 9.133513
_cell_length_c 16.321746
_cell_angle_alpha 106.453831
_cell_angle_beta 34.174329
_cell_angle_gamma 129.075154
_cell_volume 584.422861
_symmetry_space_group_name_H-M "P -1"
_symmetry_group_IT_number 2
_symmetry_cell_setting 'triclinic'
loop_
_space_group_symop_operation_xyz
x,y,z
-x,-y,-z
loop_
_atom_site_type_symbol
_atom_site_label
_atom_site_fract_x
_atom_site_fract_y
_atom_site_fract_z
Si Si1 0.014960 0.180083 0.292588
Si Si2 0.789423 0.127580 0.727568
Si Si3 0.246131 0.709818 0.837843
Si Si4 0.136843 0.401152 0.424538
Si Si5 0.639967 0.738881 0.484300
Si Si6 0.198083 0.244372 0.960366
Si Si7 0.374361 0.627797 0.093335
O O1 0.971596 0.215478 0.414650
O O2 0.065996 0.359801 0.237434
O O3 0.382610 0.296454 0.099509
O O4 0.720549 0.909430 0.397560
O O5 0.705336 0.234527 0.843157
O O6 0.050008 0.313715 0.548453
O O7 0.985503 0.102211 0.666824
O O8 0.498056 0.917517 0.796759
O O9 0.427167 0.697998 0.669077
O O10 0.042891 0.734868 0.902929
O O11 0.000000 0.500000 0.000000
O O12 0.000000 0.500000 0.500000
O O13 0.519369 0.579859 0.230643
O O14 0.500000 0.500000 0.500000
O O15 0.390807 0.285461 0.942400
O O16 0.000000 0.000000 0.000000
#
# Coordination Sequence:
#
# PCOD9039906 Si02
#       7
#     2   2   2   2   2   2   2
#     4  10  23  43  67 100 138 179 234 285 360 409
#     4  12  24  47  74 100 138 188 242 290 354 420
#     4  12  27  46  71 106 141 189 237 287 352 425
#     4  11  20  41  73 102 132 179 234 288 349 416
#     4  12  30  47  67 104 148 191 235 290 355 426
#     4  11  22  40  71 107 138 170 235 293 347 415
#     4  10  23  42  72 104 133 182 230 299 355 408
#
# _framework density 23.955255999999999
#
# number of rings (size 3 to 8) (size 9 to 14) (size 15 to 20)
#    0.000    0.857    5.714    1.286    6.000    5.143 
#    0.000    1.429    0.000    0.000    0.000    0.000 
#    0.000    0.000    0.000    0.000    0.000    0.000 
#
# Total GULP energy -78243.505276 kJ/mol
# GULP energy per Si atom -5588.821805 kJ/mol
# Density = 2.390073 g / cm^3
# Si number density = 23.955256 Si / 1000 Ang^3
#
#
#
# Elastic Constant Matrix: (Units=GPa)
#
#
# Indices 1 2 3 4 5 6 
#
# 1 60.5584 12.4530 11.0103 -3.3564 -15.1481 -14.5365
# 2 12.4530 157.7499 67.3349 4.1316 1.8428 -18.1034
# 3 11.0103 67.3349 97.9240 18.0583 -12.1415 -8.5181
# 4 -3.3564 4.1316 18.0583 58.5936 -4.8493 -6.8527
# 5 -15.1481 1.8428 -12.1415 -4.8493 36.6891 4.0189
# 6 -14.5365 -18.1034 -8.5181 -6.8527 4.0189 24.5474
#
#
#
# Elastic Compliance Matrix: (Units=1/GPa)
#
#
# Indices 1 2 3 4 5 6 
#
# 1 0.021811 -0.000050 -0.001060 0.003658 0.007798 0.012256
# 2 -0.000050 0.010078 -0.007167 0.001923 -0.003301 0.005993
# 3 -0.001060 -0.007167 0.016516 -0.004493 0.005042 -0.002262
# 4 0.003658 0.001923 -0.004493 0.019508 0.001718 0.007190
# 5 0.007798 -0.003301 0.005042 0.001718 0.032639 -0.000931
# 6 0.012256 0.005993 -0.002262 0.007190 -0.000931 0.053791
#
#
# Mechanical properties :
#
#
# Convention : Reuss Voigt Hill
#
# Bulk Modulus (GPa) = 31.39447 55.31431 43.35439
# Shear Modulus (GPa) = 27.54593 38.99496 33.27044
#
# Velocity S-wave (km/s) = 3.39468 4.03901 3.73078
# Velocity P-wave (km/s) = 5.33845 6.70017 6.05769
#
# Compressibility (1/GPa) = 0.03185274
#
# Stress axis : x y z
#
# Youngs Moduli (GPa) = 45.84766 99.22301 60.54605
#
# Poissons Ratio (x) = 0.00495 0.06416
# Poissons Ratio (y) = 0.00228 0.43394
# Poissons Ratio (z) = 0.04859 0.71114
#
# Static dielectric constant tensor:
#      x y z
#    x 1.825000 0.048790 -0.022050 
#    y 0.048790 1.919530 0.020820 
#    z -0.022050 0.020820 1.892220 
# 
# From -- ./inp_files/566808.got.cif
#   From: 2010.05.17/outbox.cif.g08.bks.cpg/sg2_284_cif.got.tgz:566808.got - 2010.06.03 11:33:40.
