data_PCOD9039997
_publ_section_title
;
Structure prediction by ZEFSAII (Michael W. Deem and Ramdas Pophale) SiO2 
 PCOD9039997
Probable space group: P -1
;
_chemical_formula_sum "Si O2"
_cell_formula_units_Z 16
_cell_length_a 9.061424
_cell_length_b 12.433352
_cell_length_c 8.695057
_cell_angle_alpha 84.201962
_cell_angle_beta 83.083252
_cell_angle_gamma 131.258131
_cell_volume 709.374368
_symmetry_space_group_name_H-M "P -1"
_symmetry_group_IT_number 2
_symmetry_cell_setting 'triclinic'
loop_
_space_group_symop_operation_xyz
x,y,z
-x,-y,-z
loop_
_atom_site_type_symbol
_atom_site_label
_atom_site_fract_x
_atom_site_fract_y
_atom_site_fract_z
Si Si1 0.476470 0.767934 0.765169
Si Si2 0.447871 0.992768 0.826766
Si Si3 0.370799 0.377872 0.665455
Si Si4 0.828782 0.826652 0.547359
Si Si5 0.914846 0.428688 0.332644
Si Si6 0.346335 0.507841 0.945872
Si Si7 0.663803 0.324198 0.683278
Si Si8 0.989857 0.251737 0.230473
O O1 0.524282 0.916986 0.755090
O O2 0.618865 0.784219 0.617537
O O3 0.239681 0.637363 0.776653
O O4 0.472205 0.682758 0.918884
O O5 0.210767 0.882850 0.818913
O O6 0.551400 0.153909 0.730305
O O7 0.500000 0.000000 0.000000
O O8 0.500000 0.500000 0.500000
O O9 0.188485 0.237806 0.607624
O O10 0.316591 0.441415 0.788352
O O11 0.509128 0.347681 0.718528
O O12 0.883773 0.776095 0.690314
O O13 0.000000 0.000000 0.500000
O O14 0.789008 0.408734 0.497070
O O15 0.931911 0.307517 0.364137
O O16 0.135825 0.584483 0.248819
O O17 0.500000 0.500000 0.000000
O O18 0.137013 0.390203 0.078692
#
# Coordination Sequence:
#
# PCOD9039997 Si02
#       8
#     2   2   2   2   2   2   2   2
#     4  11  25  46  67 101 138 191 233 291 356 417
#     4  11  29  46  68 102 151 188 234 285 366 434
#     4  12  23  45  76 108 141 183 244 296 355 420
#     4  12  25  45  70 107 143 184 236 297 363 424
#     4  10  23  42  73  99 136 178 240 284 350 409
#     4  12  24  44  74 105 146 183 244 301 348 424
#     4  11  23  43  71 106 139 182 234 295 344 425
#     4  11  26  45  71 104 137 191 230 295 362 412
#
# _framework density 22.555085999999999
#
# number of rings (size 3 to 8) (size 9 to 14) (size 15 to 20)
#    0.000    0.750    3.750    2.250    7.000    4.000 
#    0.000    1.875    0.000    0.000    0.000    0.000 
#    0.000    0.000    0.000    0.000    0.000    0.000 
#
# Total GULP energy -89252.625397 kJ/mol
# GULP energy per Si atom -5578.289087 kJ/mol
# Density = 2.250375 g / cm^3
# Si number density = 22.555086 Si / 1000 Ang^3
#
#
#
# Elastic Constant Matrix: (Units=GPa)
#
#
# Indices 1 2 3 4 5 6 
#
# 1 96.4619 34.7454 8.1102 -0.5746 1.6407 -9.6239
# 2 34.7454 135.2276 12.3990 -5.5140 -7.2778 2.7456
# 3 8.1102 12.3990 62.5320 8.3887 -8.8920 -7.2692
# 4 -0.5746 -5.5140 8.3887 40.4818 -2.8061 5.6307
# 5 1.6407 -7.2778 -8.8920 -2.8061 23.8804 -0.4854
# 6 -9.6239 2.7456 -7.2692 5.6307 -0.4854 48.1228
#
#
#
# Elastic Compliance Matrix: (Units=1/GPa)
#
#
# Indices 1 2 3 4 5 6 
#
# 1 0.011853 -0.003155 -0.000847 -0.000575 -0.002109 0.002469
# 2 -0.003155 0.008567 -0.001348 0.001785 0.002505 -0.001507
# 3 -0.000847 -0.001348 0.018123 -0.003977 0.005993 0.003171
# 4 -0.000575 0.001785 -0.003977 0.026450 0.002132 -0.003891
# 5 -0.002109 0.002505 0.005993 0.002132 0.045277 0.000548
# 6 0.002469 -0.001507 0.003171 -0.003891 0.000548 0.022300
#
#
# Mechanical properties :
#
#
# Convention : Reuss Voigt Hill
#
# Bulk Modulus (GPa) = 35.91565 44.97008 40.44287
# Shear Modulus (GPa) = 32.77564 38.42812 35.60188
#
# Velocity S-wave (km/s) = 3.81614 4.13212 3.97727
# Velocity P-wave (km/s) = 5.94772 6.53813 6.24990
#
# Compressibility (1/GPa) = 0.02784302
#
# Stress axis : x y z
#
# Youngs Moduli (GPa) = 84.36567 116.72224 55.17765
#
# Poissons Ratio (x) = 0.36825 0.04676
# Poissons Ratio (y) = 0.26617 0.07438
# Poissons Ratio (z) = 0.07150 0.15734
#
# Static dielectric constant tensor:
#      x y z
#    x 1.846630 -0.493140 -0.190390 
#    y -0.493140 0.459920 -0.884520 
#    z -0.190390 -0.884520 1.369570 
# 
# From -- ./inp_files/186776.got.cif
#   From: 2010.05.17/outbox.cif.g08.bks.cpg/sg2_94_cif.got.tgz:186776.got - 2010.06.03 11:33:40.
