data_PCOD9039746
_publ_section_title
;
Structure prediction by ZEFSAII (Michael W. Deem and Ramdas Pophale) SiO2 
 PCOD9039746
Probable space group: P -1
;
_chemical_formula_sum "Si O2"
_cell_formula_units_Z 16
_cell_length_a 12.198187
_cell_length_b 6.962864
_cell_length_c 11.588353
_cell_angle_alpha 64.009043
_cell_angle_beta 106.030453
_cell_angle_gamma 68.857289
_cell_volume 705.850669
_symmetry_space_group_name_H-M "P -1"
_symmetry_group_IT_number 2
_symmetry_cell_setting 'triclinic'
loop_
_space_group_symop_operation_xyz
x,y,z
-x,-y,-z
loop_
_atom_site_type_symbol
_atom_site_label
_atom_site_fract_x
_atom_site_fract_y
_atom_site_fract_z
Si Si1 0.241487 0.242990 0.347927
Si Si2 0.715900 0.914863 0.336237
Si Si3 0.737711 0.846106 0.044345
Si Si4 0.650147 0.309787 0.046978
Si Si5 0.013130 0.827285 0.156817
Si Si6 0.832554 0.428074 0.343928
Si Si7 0.074929 0.026559 0.349802
Si Si8 0.393504 0.200539 0.191384
O O1 0.265503 0.123450 0.512907
O O2 0.370342 0.163811 0.326578
O O3 0.152543 0.548348 0.259256
O O4 0.152874 0.148269 0.287678
O O5 0.817752 0.645470 0.370815
O O6 0.736852 0.125806 0.228849
O O7 0.553088 0.030903 0.244722
O O8 0.889387 0.785288 0.122015
O O9 0.727901 0.626185 0.163474
O O10 0.646420 0.115041 0.010742
O O11 0.690241 0.872158 0.894390
O O12 0.500000 0.500000 0.000000
O O13 0.679287 0.494703 0.937027
O O14 0.011970 0.956030 0.244075
O O15 0.000000 0.000000 0.000000
O O16 0.825323 0.235304 0.478939
O O17 0.967216 0.236346 0.356518
#
# Coordination Sequence:
#
# PCOD9039746 Si02
#       8
#     2   2   2   2   2   2   2   2
#     4  12  25  44  70 101 136 180 224 277 347 403
#     4  10  23  47  70  99 135 180 230 279 329 407
#     4  11  24  41  67 100 132 175 225 279 331 401
#     4   9  22  42  68  96 130 179 226 275 330 395
#     4  12  26  43  67  99 136 175 224 280 341 410
#     4  10  23  42  70  96 136 173 228 281 334 399
#     4  11  25  43  67 103 133 178 222 284 343 395
#     4  11  25  45  68 100 139 180 224 279 339 402
#
# _framework density 22.667683
#
# number of rings (size 3 to 8) (size 9 to 14) (size 15 to 20)
#    0.000    1.250    2.500    1.875    5.250    9.500 
#    2.250    0.625    0.000    0.000    0.000    0.000 
#    0.000    0.000    0.000    0.000    0.000    0.000 
#
# Total GULP energy -89309.885886 kJ/mol
# GULP energy per Si atom -5581.867868 kJ/mol
# Density = 2.261609 g / cm^3
# Si number density = 22.667683 Si / 1000 Ang^3
#
#
#
# Elastic Constant Matrix: (Units=GPa)
#
#
# Indices 1 2 3 4 5 6 
#
# 1 77.0506 36.4060 20.4831 13.5163 -14.8496 -8.2690
# 2 36.4060 116.9593 54.9915 -8.0641 -4.3726 -10.4936
# 3 20.4831 54.9915 123.4194 11.7843 -23.9881 5.3149
# 4 13.5163 -8.0641 11.7843 39.4090 2.3364 -1.0880
# 5 -14.8496 -4.3726 -23.9881 2.3364 32.5918 0.4258
# 6 -8.2690 -10.4936 5.3149 -1.0880 0.4258 26.1581
#
#
#
# Elastic Compliance Matrix: (Units=1/GPa)
#
#
# Indices 1 2 3 4 5 6 
#
# 1 0.019903 -0.007798 0.003191 -0.009979 0.011061 0.001920
# 2 -0.007798 0.015870 -0.008561 0.009153 -0.008461 0.006159
# 3 0.003191 -0.008561 0.014709 -0.008108 0.011790 -0.005943
# 4 -0.009979 0.009153 -0.008108 0.033896 -0.011765 0.003766
# 5 0.011061 -0.008461 0.011790 -0.011765 0.044154 -0.003501
# 6 0.001920 0.006159 -0.005943 0.003766 -0.003501 0.042728
#
#
# Mechanical properties :
#
#
# Convention : Reuss Voigt Hill
#
# Bulk Modulus (GPa) = 41.41293 60.13228 50.77260
# Shear Modulus (GPa) = 24.31398 33.33503 28.82451
#
# Velocity S-wave (km/s) = 3.27865 3.83900 3.56984
# Velocity P-wave (km/s) = 5.71332 6.79970 6.28004
#
# Compressibility (1/GPa) = 0.02414705
#
# Stress axis : x y z
#
# Youngs Moduli (GPa) = 50.24387 63.01361 67.98680
#
# Poissons Ratio (x) = 0.49138 -0.21697
# Poissons Ratio (y) = 0.39180 0.58200
# Poissons Ratio (z) = -0.16035 0.53943
#
# Static dielectric constant tensor:
#      x y z
#    x 1.844270 0.030610 0.013400 
#    y 0.030610 1.843860 0.007140 
#    z 0.013400 0.007140 1.878860 
# 
# From -- ./inp_files/441046.got.cif
#   From: 2010.05.17/outbox.cif.g08.bks.cpg/sg2_221_cif.got.tgz:441046.got - 2010.06.03 11:33:40.
