data_PCOD9039095
_publ_section_title
;
Structure prediction by ZEFSAII (Michael W. Deem and Ramdas Pophale) SiO2 
 PCOD9039095
Probable space group: P -1
;
_chemical_formula_sum "Si O2"
_cell_formula_units_Z 15
_cell_length_a 14.981121
_cell_length_b 4.857583
_cell_length_c 12.228738
_cell_angle_alpha 92.532714
_cell_angle_beta 137.377490
_cell_angle_gamma 105.102320
_cell_volume 542.606705
_symmetry_space_group_name_H-M "P -1"
_symmetry_group_IT_number 2
_symmetry_cell_setting 'triclinic'
loop_
_space_group_symop_operation_xyz
x,y,z
-x,-y,-z
loop_
_atom_site_type_symbol
_atom_site_label
_atom_site_fract_x
_atom_site_fract_y
_atom_site_fract_z
Si Si1 0.671970 0.691811 0.812723
Si Si2 0.030099 0.410983 0.645373
Si Si3 0.295953 0.337374 0.915550
Si Si4 0.912170 0.813223 0.665183
Si Si5 0.372282 0.091668 0.568528
Si Si6 0.000000 0.000000 0.000000
Si Si7 0.411628 0.113257 0.840675
Si Si8 0.759425 0.254022 0.767435
O O1 0.522457 0.381977 0.675056
O O2 0.657116 0.974238 0.749599
O O3 0.779235 0.585745 0.835023
O O4 0.732583 0.791700 0.990596
O O5 0.204572 0.533458 0.821339
O O6 0.000000 0.500000 0.500000
O O7 0.948119 0.537919 0.656279
O O8 0.981785 0.063430 0.634871
O O9 0.281064 0.136818 0.790815
O O10 0.469340 0.549126 0.078869
O O11 0.747519 0.775731 0.523196
O O12 0.978146 0.908651 0.846007
O O13 0.378292 0.953575 0.690653
O O14 0.315790 0.835981 0.419387
O O15 0.098005 0.801719 0.102897
O O16 0.500000 0.000000 0.000000
#
# Coordination Sequence:
#
# PCOD9039095 Si02
#       8
#     2   2   2   2   2   1   2   2
#     4  11  24  42  69  96 133 169 221 267 330 383
#     4  12  26  43  69  97 136 174 223 273 331 396
#     4  10  24  41  63  98 125 173 216 270 322 391
#     4  11  26  44  67 101 131 180 218 273 333 394
#     4  10  24  43  66  97 133 171 221 272 327 389
#     4  10  24  44  70  96 140 172 224 268 330 398
#     4  10  23  42  66  92 127 172 216 269 326 382
#     4  11  24  43  66 101 129 176 212 272 326 391
#
# _framework density 27.644331999999999
#
# number of rings (size 3 to 8) (size 9 to 14) (size 15 to 20)
#    0.000    1.333    0.000    3.600    7.467    6.400 
#    4.800    0.000    0.000    0.000    0.000    0.000 
#    0.000    0.000    0.000    0.000    0.000    0.000 
#
# Total GULP energy -83930.118662 kJ/mol
# GULP energy per Si atom -5595.341244 kJ/mol
# Density = 2.758141 g / cm^3
# Si number density = 27.644332 Si / 1000 Ang^3
#
#
#
# Elastic Constant Matrix: (Units=GPa)
#
#
# Indices 1 2 3 4 5 6 
#
# 1 123.3291 7.4534 44.6064 -5.4459 -28.4945 -0.1992
# 2 7.4534 99.5413 11.7410 -7.6969 -25.4144 -5.7741
# 3 44.6064 11.7410 163.1198 -10.7482 -54.4519 1.4084
# 4 -5.4459 -7.6969 -10.7482 29.7296 11.6678 1.2750
# 5 -28.4945 -25.4144 -54.4519 11.6678 67.7578 -5.7693
# 6 -0.1992 -5.7741 1.4084 1.2750 -5.7693 31.9433
#
#
#
# Elastic Compliance Matrix: (Units=1/GPa)
#
#
# Indices 1 2 3 4 5 6 
#
# 1 0.009328 0.000236 -0.001660 0.000073 0.002721 0.000662
# 2 0.000236 0.011506 0.000887 0.001187 0.005173 0.002929
# 3 -0.001660 0.000887 0.008775 0.000430 0.006694 0.000955
# 4 0.000073 0.001187 0.000430 0.036426 -0.005645 -0.002277
# 5 0.002721 0.005173 0.006694 -0.005645 0.024648 0.005334
# 6 0.000662 0.002929 0.000955 -0.002277 0.005334 0.032851
#
#
# Mechanical properties :
#
#
# Convention : Reuss Voigt Hill
#
# Bulk Modulus (GPa) = 35.04578 57.06577 46.05578
# Shear Modulus (GPa) = 37.28002 47.36543 42.32272
#
# Velocity S-wave (km/s) = 3.67626 4.14380 3.91701
# Velocity P-wave (km/s) = 5.54299 6.60170 6.09537
#
# Compressibility (1/GPa) = 0.02853410
#
# Stress axis : x y z
#
# Youngs Moduli (GPa) = 107.20938 86.91005 113.95747
#
# Poissons Ratio (x) = -0.02052 0.18922
# Poissons Ratio (y) = -0.02531 -0.10107
# Poissons Ratio (z) = 0.17801 -0.07708
#
# Static dielectric constant tensor:
#      x y z
#    x 2.040700 -0.072780 -0.104880 
#    y -0.072780 2.027010 0.000190 
#    z -0.104880 0.000190 2.020190 
# 
# From -- ./inp_files/441229.got.cif
#   From: 2010.05.17/outbox.cif.g08.bks.cpg/sg2_221_cif.got.tgz:441229.got - 2010.06.03 11:33:40.
