data_PCOD9039365
_publ_section_title
;
Structure prediction by ZEFSAII (Michael W. Deem and Ramdas Pophale) SiO2 
 PCOD9039365
Probable space group: P -1
;
_chemical_formula_sum "Si O2"
_cell_formula_units_Z 14
_cell_length_a 4.827031
_cell_length_b 17.142225
_cell_length_c 11.791034
_cell_angle_alpha 47.413007
_cell_angle_beta 113.281084
_cell_angle_gamma 133.570659
_cell_volume 515.795004
_symmetry_space_group_name_H-M "P -1"
_symmetry_group_IT_number 2
_symmetry_cell_setting 'triclinic'
loop_
_space_group_symop_operation_xyz
x,y,z
-x,-y,-z
loop_
_atom_site_type_symbol
_atom_site_label
_atom_site_fract_x
_atom_site_fract_y
_atom_site_fract_z
Si Si1 0.124458 0.735442 0.522544
Si Si2 0.436678 0.311708 0.201060
Si Si3 0.464688 0.746927 0.355474
Si Si4 0.544491 0.335147 0.820950
Si Si5 0.589395 0.545347 0.138489
Si Si6 0.022466 0.039638 0.095316
Si Si7 0.603084 0.029988 0.353864
O O1 0.226873 0.681502 0.694367
O O2 0.115808 0.676352 0.456929
O O3 0.785896 0.745530 0.471295
O O4 0.508684 0.893297 0.426562
O O5 0.396394 0.403279 0.187057
O O6 0.041298 0.160632 0.280390
O O7 0.531798 0.378746 0.027984
O O8 0.435225 0.683855 0.291228
O O9 0.617503 0.900657 0.207337
O O10 0.493079 0.442504 0.756061
O O11 0.954609 0.375927 0.884426
O O12 0.176090 0.192710 0.956274
O O13 0.336757 0.050715 0.215724
O O14 0.000000 0.000000 0.000000
O O15 0.500000 0.000000 0.500000
#
# Coordination Sequence:
#
# PCOD9039365 Si02
#       7
#     2   2   2   2   2   2   2
#     4  11  24  42  68 101 138 171 221 286 352 405
#     4  11  25  44  66 100 140 182 230 278 340 406
#     4  10  23  42  68 101 133 176 223 284 347 406
#     4  11  23  45  68  97 135 181 236 274 337 406
#     4  11  27  43  69  97 137 186 232 277 326 409
#     4   9  20  38  66  97 135 174 221 281 339 402
#     4  11  23  41  71 107 139 179 226 287 355 409
#
# _framework density 27.142567
#
# number of rings (size 3 to 8) (size 9 to 14) (size 15 to 20)
#    0.000    1.429    1.429    3.000    4.000    5.714 
#    0.000   10.000    0.000    0.000    0.000    0.000 
#    0.000    0.000    0.000    0.000    0.000    0.000 
#
# Total GULP energy -78406.336364 kJ/mol
# GULP energy per Si atom -5600.452597 kJ/mol
# Density = 2.708079 g / cm^3
# Si number density = 27.142567 Si / 1000 Ang^3
#
#
#
# Elastic Constant Matrix: (Units=GPa)
#
#
# Indices 1 2 3 4 5 6 
#
# 1 107.8090 21.9572 23.4386 10.2528 -9.1347 -9.6428
# 2 21.9572 119.2599 17.9241 14.2674 -1.1444 -16.4213
# 3 23.4386 17.9241 93.0088 28.7110 -5.6577 5.9748
# 4 10.2528 14.2674 28.7110 46.4797 -8.1731 -4.5127
# 5 -9.1347 -1.1444 -5.6577 -8.1731 33.8863 14.9548
# 6 -9.6428 -16.4213 5.9748 -4.5127 14.9548 42.6985
#
#
#
# Elastic Compliance Matrix: (Units=1/GPa)
#
#
# Indices 1 2 3 4 5 6 
#
# 1 0.010336 -0.001318 -0.002360 0.000027 0.001657 0.001580
# 2 -0.001318 0.009627 -0.001390 -0.001846 -0.002614 0.004320
# 3 -0.002360 -0.001390 0.014539 -0.008163 0.001804 -0.004596
# 4 0.000027 -0.001846 -0.008163 0.028095 0.004559 0.001811
# 5 0.001657 -0.002614 0.001804 0.004559 0.037196 -0.013429
# 6 0.001580 0.004320 -0.004596 0.001811 -0.013429 0.030976
#
#
# Mechanical properties :
#
#
# Convention : Reuss Voigt Hill
#
# Bulk Modulus (GPa) = 41.03893 49.63528 45.33711
# Shear Modulus (GPa) = 33.55074 41.73009 37.64041
#
# Velocity S-wave (km/s) = 3.51963 3.92527 3.72797
# Velocity P-wave (km/s) = 5.62758 6.23460 5.93885
#
# Compressibility (1/GPa) = 0.02436711
#
# Stress axis : x y z
#
# Youngs Moduli (GPa) = 96.74616 103.87276 68.78081
#
# Poissons Ratio (x) = 0.13692 0.16231
# Poissons Ratio (y) = 0.12753 0.09558
# Poissons Ratio (z) = 0.22830 0.14435
#
# Static dielectric constant tensor:
#      x y z
#    x 2.046610 0.034160 -0.057500 
#    y 0.034160 2.188040 0.032060 
#    z -0.057500 0.032060 2.285620 
# 
# From -- ./inp_files/367537.got.cif
#   From: 2010.05.17/outbox.cif.g08.bks.cpg/sg2_184_cif.got.tgz:367537.got - 2010.06.03 11:33:40.
