data_PCOD9039282
_publ_section_title
;
Structure prediction by ZEFSAII (Michael W. Deem and Ramdas Pophale) SiO2 
 PCOD9039282
Probable space group: P -1
;
_chemical_formula_sum "Si O2"
_cell_formula_units_Z 12
_cell_length_a 5.501553
_cell_length_b 7.379471
_cell_length_c 11.431754
_cell_angle_alpha 96.133776
_cell_angle_beta 91.240176
_cell_angle_gamma 73.192537
_cell_volume 441.722250
_symmetry_space_group_name_H-M "P -1"
_symmetry_group_IT_number 2
_symmetry_cell_setting 'triclinic'
loop_
_space_group_symop_operation_xyz
x,y,z
-x,-y,-z
loop_
_atom_site_type_symbol
_atom_site_label
_atom_site_fract_x
_atom_site_fract_y
_atom_site_fract_z
Si Si1 0.173822 0.153853 0.265941
Si Si2 0.382460 0.906335 0.600209
Si Si3 0.117655 0.474447 0.630477
Si Si4 0.275236 0.746712 0.372428
Si Si5 0.204950 0.117735 0.855528
Si Si6 0.300731 0.868825 0.055918
O O1 0.380544 0.232496 0.340583
O O2 0.925044 0.325782 0.289560
O O3 0.231032 0.079383 0.131472
O O4 0.738636 0.959316 0.282536
O O5 0.216086 0.808289 0.512783
O O6 0.500000 0.000000 0.500000
O O7 0.780101 0.053264 0.684710
O O8 0.923846 0.365409 0.675885
O O9 0.000000 0.500000 0.500000
O O10 0.421517 0.366208 0.631776
O O11 0.413902 0.223802 0.901247
O O12 0.917913 0.215772 0.903189
O O13 0.275326 0.925393 0.924529
#
# Coordination Sequence:
#
# PCOD9039282 Si02
#       6
#     2   2   2   2   2   2
#     4  10  23  42  67  94 136 174 225 277 336 402
#     4   9  19  36  61  95 130 171 216 273 336 399
#     4  12  26  41  63  96 138 178 223 272 342 407
#     4  11  26  42  62 100 135 176 221 276 340 406
#     4   9  18  33  57  90 127 159 228 270 319 405
#     4   9  19  35  58  92 119 171 221 271 324 395
#
# _framework density 27.166394
#
# number of rings (size 3 to 8) (size 9 to 14) (size 15 to 20)
#    0.000    2.000    1.667    0.500    2.333    7.333 
#    0.000    2.500    0.000    0.000    0.000  100.333 
#    0.000    0.000    0.000    0.000    0.000    0.000 
#
# Total GULP energy -66846.696046 kJ/mol
# GULP energy per Si atom -5570.558004 kJ/mol
# Density = 2.710456 g / cm^3
# Si number density = 27.166394 Si / 1000 Ang^3
#
#
#
# Elastic Constant Matrix: (Units=GPa)
#
#
# Indices 1 2 3 4 5 6 
#
# 1 241.0844 51.0077 21.2539 -2.8113 -1.7031 -3.6134
# 2 51.0077 114.2105 24.9708 9.6810 -17.1994 -14.5775
# 3 21.2539 24.9708 118.8023 -14.7525 -21.9921 8.1691
# 4 -2.8113 9.6810 -14.7525 25.4743 8.3645 -7.9983
# 5 -1.7031 -17.1994 -21.9921 8.3645 44.3860 1.1440
# 6 -3.6134 -14.5775 8.1691 -7.9983 1.1440 48.9638
#
#
#
# Elastic Compliance Matrix: (Units=1/GPa)
#
#
# Indices 1 2 3 4 5 6 
#
# 1 0.004683 -0.002324 -0.000376 0.001578 -0.001205 0.000002
# 2 -0.002324 0.011877 -0.002243 -0.006793 0.004617 0.002521
# 3 -0.000376 -0.002243 0.010324 0.005190 0.003296 -0.001647
# 4 0.001578 -0.006793 0.005190 0.049912 -0.009551 0.005604
# 5 -0.001205 0.004617 0.003296 -0.009551 0.027743 -0.001473
# 6 0.000002 0.002521 -0.001647 0.005604 -0.001473 0.022399
#
#
# Mechanical properties :
#
#
# Convention : Reuss Voigt Hill
#
# Bulk Modulus (GPa) = 58.83374 74.28466 66.55920
# Shear Modulus (GPa) = 35.08998 48.88914 41.98956
#
# Velocity S-wave (km/s) = 3.59788 4.24679 3.93573
# Velocity P-wave (km/s) = 6.24207 7.17291 6.72362
#
# Compressibility (1/GPa) = 0.01699705
#
# Stress axis : x y z
#
# Youngs Moduli (GPa) = 213.55005 84.19647 96.86120
#
# Poissons Ratio (x) = 0.19567 0.03647
# Poissons Ratio (y) = 0.49628 0.21725
# Poissons Ratio (z) = 0.08040 0.18884
#
# Static dielectric constant tensor:
#      x y z
#    x 2.503250 0.118750 0.029030 
#    y 0.118750 2.242160 -0.092240 
#    z 0.029030 -0.092240 2.233980 
# 
# From -- ./inp_files/29669.got.cif
#   From: 2010.05.17/outbox.cif.g08.bks.cpg/sg2_15_cif.got.tgz:29669.got - 2010.06.03 11:33:40.
