data_PCOD9039957
_publ_section_title
;
Structure prediction by ZEFSAII (Michael W. Deem and Ramdas Pophale) SiO2 
 PCOD9039957
Probable space group: P -1
;
_chemical_formula_sum "Si O2"
_cell_formula_units_Z 14
_cell_length_a 12.538414
_cell_length_b 9.151838
_cell_length_c 17.521621
_cell_angle_alpha 58.209314
_cell_angle_beta 28.661626
_cell_angle_gamma 41.437503
_cell_volume 581.327329
_symmetry_space_group_name_H-M "P -1"
_symmetry_group_IT_number 2
_symmetry_cell_setting 'triclinic'
loop_
_space_group_symop_operation_xyz
x,y,z
-x,-y,-z
loop_
_atom_site_type_symbol
_atom_site_label
_atom_site_fract_x
_atom_site_fract_y
_atom_site_fract_z
Si Si1 0.497177 0.117535 0.789578
Si Si2 0.380247 0.724880 0.560049
Si Si3 0.721335 0.362355 0.036059
Si Si4 0.196416 0.369604 0.335417
Si Si5 0.167931 0.654947 0.849677
Si Si6 0.677096 0.084350 0.849219
Si Si7 0.805786 0.755851 0.336757
O O1 0.329533 0.386056 0.796692
O O2 0.701635 0.064315 0.747702
O O3 0.699898 0.884635 0.672392
O O4 0.198478 0.164056 0.990625
O O5 0.500000 0.500000 0.500000
O O6 0.354572 0.694092 0.674232
O O7 0.648986 0.718031 0.382739
O O8 0.020891 0.944055 0.701897
O O9 0.498291 0.324794 0.170090
O O10 0.818116 0.318478 0.076155
O O11 0.543071 0.641158 0.060259
O O12 0.994460 0.215134 0.843022
O O13 0.000000 0.500000 0.500000
O O14 0.011672 0.542984 0.329306
O O15 0.500000 0.000000 0.000000
O O16 0.500000 0.000000 0.500000
#
# Coordination Sequence:
#
# PCOD9039957 Si02
#       7
#     2   2   2   2   2   2   2
#     4  10  23  42  73 100 140 177 242 282 355 412
#     4  12  25  42  71 107 142 178 234 296 351 415
#     4  11  26  47  73 100 141 191 236 291 355 422
#     4  12  27  48  73 104 144 187 235 292 358 427
#     4  10  24  43  73 103 136 185 237 294 349 413
#     4  11  21  43  72 102 135 185 233 290 349 413
#     4  12  29  46  68 105 145 186 237 288 357 424
#
# _framework density 24.082816000000001
#
# number of rings (size 3 to 8) (size 9 to 14) (size 15 to 20)
#    0.000    0.857    1.429    4.714    8.000    1.714 
#    0.000    3.571    0.000    0.000    0.000    0.000 
#    0.000    0.000    0.000    0.000    0.000    0.000 
#
# Total GULP energy -78364.359967 kJ/mol
# GULP energy per Si atom -5597.454283 kJ/mol
# Density = 2.402800 g / cm^3
# Si number density = 24.082816 Si / 1000 Ang^3
#
#
#
# Elastic Constant Matrix: (Units=GPa)
#
#
# Indices 1 2 3 4 5 6 
#
# 1 116.6384 32.1933 54.1781 12.7372 -3.8440 2.9393
# 2 32.1933 64.7620 28.2080 16.6129 10.4957 19.5867
# 3 54.1781 28.2080 138.5092 -4.2943 6.3628 -3.9612
# 4 12.7372 16.6129 -4.2943 37.5632 16.9548 3.2969
# 5 -3.8440 10.4957 6.3628 16.9548 43.5882 3.8437
# 6 2.9393 19.5867 -3.9612 3.2969 3.8437 44.0110
#
#
#
# Elastic Compliance Matrix: (Units=1/GPa)
#
#
# Indices 1 2 3 4 5 6 
#
# 1 0.012380 -0.003784 -0.004431 -0.005153 0.004615 0.000441
# 2 -0.003784 0.024603 -0.004021 -0.008496 -0.001458 -0.010295
# 3 -0.004431 -0.004021 0.010187 0.005723 -0.003389 0.002870
# 4 -0.005153 -0.008496 0.005723 0.039174 -0.014746 0.002994
# 5 0.004615 -0.001458 -0.003389 -0.014746 0.030062 -0.001485
# 6 0.000441 -0.010295 0.002870 0.002994 -0.001485 0.027437
#
#
# Mechanical properties :
#
#
# Convention : Reuss Voigt Hill
#
# Bulk Modulus (GPa) = 44.05707 61.00759 52.53233
# Shear Modulus (GPa) = 28.42849 38.72116 33.57482
#
# Velocity S-wave (km/s) = 3.43949 4.01413 3.73787
# Velocity P-wave (km/s) = 5.84013 6.84629 6.36313
#
# Compressibility (1/GPa) = 0.02269783
#
# Stress axis : x y z
#
# Youngs Moduli (GPa) = 80.77791 40.64574 98.16386
#
# Poissons Ratio (x) = 0.15379 0.43496
# Poissons Ratio (y) = 0.30563 0.39475
# Poissons Ratio (z) = 0.35792 0.16345
#
# Static dielectric constant tensor:
#      x y z
#    x 1.836800 -0.093960 -0.066690 
#    y -0.093960 1.901220 -0.113600 
#    z -0.066690 -0.113600 1.524820 
# 
# From -- ./inp_files/173467.got.cif
#   From: 2010.05.17/outbox.cif.g08.bks.cpg/sg2_87_cif.got.tgz:173467.got - 2010.06.03 11:33:40.
