data_PCOD9039186
_publ_section_title
;
Structure prediction by ZEFSAII (Michael W. Deem and Ramdas Pophale) SiO2 
 PCOD9039186
Probable space group: P -1
;
_chemical_formula_sum "Si O2"
_cell_formula_units_Z 14
_cell_length_a 11.131362
_cell_length_b 14.271618
_cell_length_c 6.485373
_cell_angle_alpha 62.712943
_cell_angle_beta 100.394999
_cell_angle_gamma 54.425260
_cell_volume 585.153696
_symmetry_space_group_name_H-M "P -1"
_symmetry_group_IT_number 2
_symmetry_cell_setting 'triclinic'
loop_
_space_group_symop_operation_xyz
x,y,z
-x,-y,-z
loop_
_atom_site_type_symbol
_atom_site_label
_atom_site_fract_x
_atom_site_fract_y
_atom_site_fract_z
Si Si1 0.085969 0.699141 0.767161
Si Si2 0.316957 0.231097 0.847645
Si Si3 0.962550 0.982887 0.252935
Si Si4 0.541105 0.492544 0.785477
Si Si5 0.464768 0.709402 0.262803
Si Si6 0.818094 0.595841 0.979455
Si Si7 0.693180 0.869277 0.458513
O O1 0.060886 0.804770 0.480549
O O2 0.875114 0.808534 0.670068
O O3 0.232449 0.646831 0.033753
O O4 0.189575 0.524474 0.899548
O O5 0.392226 0.289415 0.711729
O O6 0.245981 0.196995 0.690220
O O7 0.166950 0.364188 0.832637
O O8 0.499690 0.058226 0.186564
O O9 0.000000 0.000000 0.500000
O O10 0.737821 0.120519 0.045234
O O11 0.000000 0.000000 0.000000
O O12 0.452187 0.662832 0.527149
O O13 0.473382 0.434016 0.702853
O O14 0.500000 0.500000 0.000000
O O15 0.663725 0.773541 0.647756
O O16 0.000000 0.500000 0.000000
#
# Coordination Sequence:
#
# PCOD9039186 Si02
#       7
#     2   2   2   2   2   2   2
#     4  11  22  45  68 104 143 192 250 309 385 444
#     4  11  22  43  67 101 145 186 250 306 382 454
#     4  12  26  50  73 112 157 200 258 315 385 461
#     4  11  23  42  68 102 141 185 246 309 378 455
#     4  11  24  41  69 102 141 196 241 310 384 447
#     4  10  23  42  66  99 138 187 245 298 377 444
#     4  10  23  43  67 101 140 189 251 306 382 447
#
# _framework density 23.925336999999999
#
# number of rings (size 3 to 8) (size 9 to 14) (size 15 to 20)
#    0.000    1.143    2.857    3.000    0.000    3.429 
#    7.714    0.000    0.000    0.000    0.000    0.000 
#    0.000    0.000    0.000    0.000    0.000    0.000 
#
# Total GULP energy -77950.178839 kJ/mol
# GULP energy per Si atom -5567.869917 kJ/mol
# Density = 2.387088 g / cm^3
# Si number density = 23.925337 Si / 1000 Ang^3
#
#
#
# Elastic Constant Matrix: (Units=GPa)
#
#
# Indices 1 2 3 4 5 6 
#
# 1 74.8239 28.8778 46.3953 -3.4118 -3.5665 7.6420
# 2 28.8778 83.8313 13.5878 29.4333 -19.0045 6.0188
# 3 46.3953 13.5878 139.9335 -8.5922 -24.8511 12.5776
# 4 -3.4118 29.4333 -8.5922 33.6856 12.6096 -11.6781
# 5 -3.5665 -19.0045 -24.8511 12.6096 50.5728 -9.0194
# 6 7.6420 6.0188 12.5776 -11.6781 -9.0194 24.6764
#
#
#
# Elastic Compliance Matrix: (Units=1/GPa)
#
#
# Indices 1 2 3 4 5 6 
#
# 1 0.027593 -0.023686 -0.008924 0.031242 -0.017303 0.010241
# 2 -0.023686 0.053884 0.007099 -0.071112 0.034354 -0.030523
# 3 -0.008924 0.007099 0.010907 -0.009643 0.008752 -0.005892
# 4 0.031242 -0.071112 -0.009643 0.131328 -0.052068 0.055705
# 5 -0.017303 0.034354 0.008752 -0.052068 0.046017 -0.015303
# 6 0.010241 -0.030523 -0.005892 0.055705 -0.015303 0.068570
#
#
# Mechanical properties :
#
#
# Convention : Reuss Voigt Hill
#
# Bulk Modulus (GPa) = 24.17578 52.92340 38.54959
# Shear Modulus (GPa) = 12.40362 35.76881 24.08621
#
# Velocity S-wave (km/s) = 2.27938 3.87074 3.17633
# Velocity P-wave (km/s) = 4.12965 6.49193 5.44055
#
# Compressibility (1/GPa) = 0.04136371
#
# Stress axis : x y z
#
# Youngs Moduli (GPa) = 36.24097 18.55832 91.68121
#
# Poissons Ratio (x) = 0.43956 0.81814
# Poissons Ratio (y) = 0.85839 -0.65083
# Poissons Ratio (z) = 0.32340 -0.13174
#
# Static dielectric constant tensor:
#      x y z
#    x 1.934820 0.007990 -0.024530 
#    y 0.007990 2.012190 0.060450 
#    z -0.024530 0.060450 2.090020 
# 
# From -- ./inp_files/28515.got.cif
#   From: 2010.05.17/outbox.cif.g08.bks.cpg/sg2_15_cif.got.tgz:28515.got - 2010.06.03 11:33:40.
