data_PCOD9039304
_publ_section_title
;
Structure prediction by ZEFSAII (Michael W. Deem and Ramdas Pophale) SiO2 
 PCOD9039304
Probable space group: P -1
;
_chemical_formula_sum "Si O2"
_cell_formula_units_Z 16
_cell_length_a 9.821718
_cell_length_b 12.337226
_cell_length_c 15.942264
_cell_angle_alpha 134.744709
_cell_angle_beta 95.914942
_cell_angle_gamma 47.065205
_cell_volume 692.956613
_symmetry_space_group_name_H-M "P -1"
_symmetry_group_IT_number 2
_symmetry_cell_setting 'triclinic'
loop_
_space_group_symop_operation_xyz
x,y,z
-x,-y,-z
loop_
_atom_site_type_symbol
_atom_site_label
_atom_site_fract_x
_atom_site_fract_y
_atom_site_fract_z
Si Si1 0.074146 0.258782 0.405043
Si Si2 0.149540 0.589177 0.129001
Si Si3 0.988427 0.242286 0.976696
Si Si4 0.244411 0.846258 0.477569
Si Si5 0.443381 0.425273 0.387430
Si Si6 0.192091 0.312404 0.119610
Si Si7 0.348523 0.725768 0.034675
Si Si8 0.697442 0.938234 0.513591
O O1 0.294870 0.057935 0.383914
O O2 0.000000 0.500000 0.500000
O O3 0.815595 0.421558 0.517058
O O4 0.187573 0.031893 0.219664
O O5 0.190590 0.392087 0.071607
O O6 0.146484 0.575904 0.021097
O O7 0.399350 0.456249 0.101229
O O8 0.881649 0.928482 0.332492
O O9 0.852665 0.211509 0.975120
O O10 0.298006 0.925959 0.797476
O O11 0.015038 0.330459 0.104239
O O12 0.409933 0.552178 0.369126
O O13 0.375552 0.834150 0.412762
O O14 0.000000 0.000000 0.500000
O O15 0.500000 0.500000 0.500000
O O16 0.005394 0.599436 0.321850
O O17 0.500000 0.000000 0.000000
O O18 0.500000 0.500000 0.000000
O O19 0.500000 0.000000 0.500000
#
# Coordination Sequence:
#
# PCOD9039304 Si02
#       8
#     2   2   2   2   2   2   2   2
#     4  12  27  44  71 102 140 181 229 296 349 414
#     4  10  23  42  67  96 133 179 228 275 339 418
#     4  11  23  41  72  99 134 176 229 285 339 418
#     4  11  23  44  71  96 137 187 222 284 352 409
#     4  12  22  43  68 102 135 172 237 280 344 425
#     4  11  26  46  66  99 139 185 225 281 355 409
#     4  10  23  42  68 101 131 172 231 281 342 402
#     4  11  28  45  69 101 144 181 235 285 353 423
#
# _framework density 23.089466999999999
#
# number of rings (size 3 to 8) (size 9 to 14) (size 15 to 20)
#    0.000    1.000    3.750    1.875   10.500    0.000 
#    0.000    0.625    0.000    0.000    0.000    0.000 
#    0.000    0.000    0.000    0.000    0.000    0.000 
#
# Total GULP energy -89462.701222 kJ/mol
# GULP energy per Si atom -5591.418826 kJ/mol
# Density = 2.303691 g / cm^3
# Si number density = 23.089467 Si / 1000 Ang^3
#
#
#
# Elastic Constant Matrix: (Units=GPa)
#
#
# Indices 1 2 3 4 5 6 
#
# 1 138.9082 45.9436 3.9181 10.7550 22.7540 -2.2780
# 2 45.9436 98.3657 16.8361 7.5530 12.4111 -1.7995
# 3 3.9181 16.8361 88.6105 10.7872 4.1243 8.3753
# 4 10.7550 7.5530 10.7872 28.1556 -5.4083 8.4022
# 5 22.7540 12.4111 4.1243 -5.4083 35.5039 3.0107
# 6 -2.2780 -1.7995 8.3753 8.4022 3.0107 37.7047
#
#
#
# Elastic Compliance Matrix: (Units=1/GPa)
#
#
# Indices 1 2 3 4 5 6 
#
# 1 0.009726 -0.003549 0.000941 -0.004797 -0.005982 0.001756
# 2 -0.003549 0.012664 -0.002016 -0.002177 -0.002378 0.001513
# 3 0.000941 -0.002016 0.012411 -0.004439 -0.001875 -0.001657
# 4 -0.004797 -0.002177 -0.004439 0.045067 0.012099 -0.010416
# 5 -0.005982 -0.002378 -0.001875 0.012099 0.035365 -0.005578
# 6 0.001756 0.001513 -0.001657 -0.010416 -0.005578 0.029835
#
#
# Mechanical properties :
#
#
# Convention : Reuss Voigt Hill
#
# Bulk Modulus (GPa) = 39.13573 51.03110 45.08342
# Shear Modulus (GPa) = 30.70612 37.55195 34.12904
#
# Velocity S-wave (km/s) = 3.65070 4.03720 3.84881
# Velocity P-wave (km/s) = 5.89547 6.62430 6.27049
#
# Compressibility (1/GPa) = 0.02555210
#
# Stress axis : x y z
#
# Youngs Moduli (GPa) = 102.81518 78.96598 80.57229
#
# Poissons Ratio (x) = 0.28022 -0.07578
# Poissons Ratio (y) = 0.36485 0.16247
# Poissons Ratio (z) = -0.09671 0.15923
#
# Static dielectric constant tensor:
#      x y z
#    x 1.914560 -0.072370 0.082950 
#    y -0.072370 1.829870 -0.060000 
#    z 0.082950 -0.060000 2.039430 
# 
# From -- ./inp_files/190007.got.cif
#   From: 2010.05.17/outbox.cif.g08.bks.cpg/sg2_96_cif.got.tgz:190007.got - 2010.06.03 11:33:40.
