data_PCOD9039786
_publ_section_title
;
Structure prediction by ZEFSAII (Michael W. Deem and Ramdas Pophale) SiO2 
 PCOD9039786
Probable space group: P -1
;
_chemical_formula_sum "Si O2"
_cell_formula_units_Z 16
_cell_length_a 19.211000
_cell_length_b 14.332670
_cell_length_c 11.514769
_cell_angle_alpha 46.240119
_cell_angle_beta 149.799997
_cell_angle_gamma 153.953711
_cell_volume 646.541657
_symmetry_space_group_name_H-M "P -1"
_symmetry_group_IT_number 2
_symmetry_cell_setting 'triclinic'
loop_
_space_group_symop_operation_xyz
x,y,z
-x,-y,-z
loop_
_atom_site_type_symbol
_atom_site_label
_atom_site_fract_x
_atom_site_fract_y
_atom_site_fract_z
Si Si1 0.795014 0.737119 0.526659
Si Si2 0.524796 0.042603 0.228706
Si Si3 0.948610 0.606384 0.427837
Si Si4 0.552071 0.296965 0.917326
Si Si5 0.971446 0.369033 0.823321
Si Si6 0.767206 0.581850 0.395649
Si Si7 0.311056 0.059110 0.110721
Si Si8 0.232097 0.558924 0.257637
O O1 0.789448 0.723427 0.388921
O O2 0.652124 0.492702 0.561925
O O3 0.652515 0.753218 0.344418
O O4 0.062102 0.920584 0.811080
O O5 0.807041 0.228332 0.437322
O O6 0.440812 0.068665 0.976691
O O7 0.445442 0.068477 0.203336
O O8 0.405142 0.812031 0.269730
O O9 0.725643 0.451264 0.149176
O O10 0.927337 0.705825 0.403502
O O11 0.926523 0.463402 0.603574
O O12 0.754239 0.457861 0.970357
O O13 0.003252 0.406222 0.975012
O O14 0.773982 0.099225 0.767472
O O15 0.496839 0.317198 0.196232
O O16 0.851580 0.540234 0.647706
#
# Coordination Sequence:
#
# PCOD9039786 Si02
#       8
#     2   2   2   2   2   2   2   2
#     4   9  25  47  68 101 142 182 231 280 345 417
#     4  11  23  41  68 106 131 178 234 281 350 398
#     4  11  24  40  64 103 139 178 224 289 347 405
#     4  11  24  44  67  98 149 181 220 287 354 413
#     4  10  23  42  71 101 139 180 228 293 344 403
#     4  10  23  44  69 101 136 185 230 280 341 416
#     4  11  23  42  74 100 135 186 234 284 339 411
#     4   9  23  43  68 102 133 178 238 282 337 405
#
# _framework density 24.747050999999999
#
# number of rings (size 3 to 8) (size 9 to 14) (size 15 to 20)
#    0.750    1.000    1.250    2.250    5.250    7.500 
#    0.000    5.000    0.000    0.000    0.000    0.000 
#    0.000    0.000    0.000    0.000    0.000    0.000 
#
# Total GULP energy -89271.957618 kJ/mol
# GULP energy per Si atom -5579.497351 kJ/mol
# Density = 2.469073 g / cm^3
# Si number density = 24.747051 Si / 1000 Ang^3
#
#
#
# Elastic Constant Matrix: (Units=GPa)
#
#
# Indices 1 2 3 4 5 6 
#
# 1 90.8928 19.5581 39.2164 10.7030 -2.1015 20.2864
# 2 19.5581 86.0679 36.9720 -15.4472 13.1812 19.3632
# 3 39.2164 36.9720 125.8925 10.1612 12.1759 -8.6561
# 4 10.7030 -15.4472 10.1612 38.5064 -5.6707 -3.6701
# 5 -2.1015 13.1812 12.1759 -5.6707 47.4301 -3.4374
# 6 20.2864 19.3632 -8.6561 -3.6701 -3.4374 34.7175
#
#
#
# Elastic Compliance Matrix: (Units=1/GPa)
#
#
# Indices 1 2 3 4 5 6 
#
# 1 0.016513 0.000651 -0.005916 -0.003782 0.000761 -0.011811
# 2 0.000651 0.019132 -0.006948 0.007640 -0.003484 -0.012321
# 3 -0.005916 -0.006948 0.012958 -0.003811 -0.001387 0.010023
# 4 -0.003782 0.007640 -0.003811 0.031514 0.002497 0.000577
# 5 0.000761 -0.003484 -0.001387 0.002497 0.023008 0.003694
# 6 -0.011811 -0.012321 0.010023 0.000577 0.003694 0.045503
#
#
# Mechanical properties :
#
#
# Convention : Reuss Voigt Hill
#
# Bulk Modulus (GPa) = 41.36234 54.92736 48.14485
# Shear Modulus (GPa) = 27.60693 37.93794 32.77244
#
# Velocity S-wave (km/s) = 3.34363 3.91964 3.64304
# Velocity P-wave (km/s) = 5.62644 6.53670 6.09858
#
# Compressibility (1/GPa) = 0.02417658
#
# Stress axis : x y z
#
# Youngs Moduli (GPa) = 60.55672 52.26761 77.17520
#
# Poissons Ratio (x) = -0.03401 0.45654
# Poissons Ratio (y) = -0.03940 0.53624
# Poissons Ratio (z) = 0.35823 0.36317
#
# Static dielectric constant tensor:
#      x y z
#    x 2.026870 -0.064610 -0.046820 
#    y -0.064610 2.096370 0.040980 
#    z -0.046820 0.040980 1.982450 
# 
# From -- ./inp_files/471732.got.cif
#   From: 2010.05.17/outbox.cif.g08.bks.cpg/sg2_236_cif.got.tgz:471732.got - 2010.06.03 11:33:40.
