data_PCOD9039629
_publ_section_title
;
Structure prediction by ZEFSAII (Michael W. Deem and Ramdas Pophale) SiO2 
 PCOD9039629
Probable space group: P -1
;
_chemical_formula_sum "Si O2"
_cell_formula_units_Z 10
_cell_length_a 13.801396
_cell_length_b 5.195941
_cell_length_c 9.324798
_cell_angle_alpha 104.413235
_cell_angle_beta 40.943980
_cell_angle_gamma 120.222741
_cell_volume 368.324585
_symmetry_space_group_name_H-M "P -1"
_symmetry_group_IT_number 2
_symmetry_cell_setting 'triclinic'
loop_
_space_group_symop_operation_xyz
x,y,z
-x,-y,-z
loop_
_atom_site_type_symbol
_atom_site_label
_atom_site_fract_x
_atom_site_fract_y
_atom_site_fract_z
Si Si1 0.701553 0.886058 0.794483
Si Si2 0.163894 0.445371 0.192623
Si Si3 0.897528 0.259891 0.211758
Si Si4 0.345882 0.313195 0.748581
Si Si5 0.579518 0.310359 0.692539
O O1 0.810656 0.778386 0.758184
O O2 0.660168 0.680035 0.670643
O O3 0.518602 0.796494 0.059850
O O4 0.807975 0.250725 0.718647
O O5 0.006818 0.312150 0.240243
O O6 0.312866 0.525177 0.921270
O O7 0.731215 0.272447 0.455384
O O8 0.819886 0.925091 0.182327
O O9 0.000000 0.500000 0.000000
O O10 0.500000 0.500000 0.500000
O O11 0.418174 0.146248 0.745446
#
# Coordination Sequence:
#
# PCOD9039629 Si02
#       5
#     2   2   2   2   2
#     4  10  24  46  69  98 133 183 232 281 334 407
#     4  11  24  43  68  99 139 175 225 284 347 403
#     4  12  24  42  68 103 142 179 222 285 350 408
#     4  11  23  41  69 100 136 184 232 280 336 411
#     4  10  23  42  69  97 135 180 231 279 336 407
#
# _framework density 27.149968999999999
#
# number of rings (size 3 to 8) (size 9 to 14) (size 15 to 20)
#    0.000    1.200    0.000    6.000    0.000   12.000 
#    0.000    0.000    0.000    0.000    0.000    0.000 
#    0.000    0.000    0.000    0.000    0.000    0.000 
#
# Total GULP energy -56005.350218 kJ/mol
# GULP energy per Si atom -5600.535022 kJ/mol
# Density = 2.708817 g / cm^3
# Si number density = 27.149969 Si / 1000 Ang^3
#
#
#
# Elastic Constant Matrix: (Units=GPa)
#
#
# Indices 1 2 3 4 5 6 
#
# 1 193.1997 45.2022 37.6625 -2.9469 -21.1998 12.4558
# 2 45.2022 145.9603 32.2067 4.9405 6.3243 2.0774
# 3 37.6625 32.2067 114.5626 12.1361 4.9506 -10.1808
# 4 -2.9469 4.9405 12.1361 46.9760 1.0854 1.2665
# 5 -21.1998 6.3243 4.9506 1.0854 39.5196 -0.4374
# 6 12.4558 2.0774 -10.1808 1.2665 -0.4374 44.9678
#
#
#
# Elastic Compliance Matrix: (Units=1/GPa)
#
#
# Indices 1 2 3 4 5 6 
#
# 1 0.006615 -0.001750 -0.002176 0.001128 0.004045 -0.002236
# 2 -0.001750 0.007832 -0.001508 -0.000492 -0.001992 -0.000224
# 3 -0.002176 -0.001508 0.010526 -0.002732 -0.002135 0.003112
# 4 0.001128 -0.000492 -0.002732 0.022148 0.000401 -0.001528
# 5 0.004045 -0.001992 -0.002135 0.000401 0.028035 -0.001250
# 6 -0.002236 -0.000224 0.003112 -0.001528 -0.001250 0.023603
#
#
# Mechanical properties :
#
#
# Convention : Reuss Voigt Hill
#
# Bulk Modulus (GPa) = 70.89538 75.98506 73.44022
# Shear Modulus (GPa) = 43.73329 48.86941 46.30135
#
# Velocity S-wave (km/s) = 4.01784 4.24722 4.13412
# Velocity P-wave (km/s) = 6.90603 7.21802 7.06374
#
# Compressibility (1/GPa) = 0.01410529
#
# Stress axis : x y z
#
# Youngs Moduli (GPa) = 151.17449 127.67943 95.00032
#
# Poissons Ratio (x) = 0.22345 0.20669
# Poissons Ratio (y) = 0.26457 0.14328
# Poissons Ratio (z) = 0.32891 0.19257
#
# Static dielectric constant tensor:
#      x y z
#    x 2.394480 -0.092330 0.094040 
#    y -0.092330 2.095910 -0.066110 
#    z 0.094040 -0.066110 2.182320 
# 
# From -- ./inp_files/17775.got.cif
#   From: 2010.05.17/outbox.cif.g08.bks.cpg/sg2_9_cif.got.tgz:17775.got - 2010.06.03 11:33:40.
