data_PCOD9039601
_publ_section_title
;
Structure prediction by ZEFSAII (Michael W. Deem and Ramdas Pophale) SiO2 
 PCOD9039601
Probable space group: P -1
;
_chemical_formula_sum "Si O2"
_cell_formula_units_Z 14
_cell_length_a 12.147932
_cell_length_b 6.760177
_cell_length_c 12.031691
_cell_angle_alpha 89.031988
_cell_angle_beta 114.710032
_cell_angle_gamma 129.830164
_cell_volume 643.199511
_symmetry_space_group_name_H-M "P -1"
_symmetry_group_IT_number 2
_symmetry_cell_setting 'triclinic'
loop_
_space_group_symop_operation_xyz
x,y,z
-x,-y,-z
loop_
_atom_site_type_symbol
_atom_site_label
_atom_site_fract_x
_atom_site_fract_y
_atom_site_fract_z
Si Si1 0.572360 0.557215 0.375286
Si Si2 0.979034 0.578976 0.727180
Si Si3 0.459765 0.323991 0.091496
Si Si4 0.629227 0.960099 0.559541
Si Si5 0.091187 0.035127 0.925536
Si Si6 0.229668 0.546812 0.820392
Si Si7 0.891411 0.684051 0.474273
O O1 0.543399 0.522750 0.232314
O O2 0.615742 0.821521 0.439775
O O3 0.417430 0.268743 0.371797
O O4 0.722282 0.572518 0.462103
O O5 0.984843 0.652597 0.600803
O O6 0.149816 0.657397 0.828996
O O7 0.813283 0.253017 0.664792
O O8 0.971607 0.760212 0.802324
O O9 0.569641 0.251589 0.115968
O O10 0.500000 0.500000 0.000000
O O11 0.260070 0.103317 0.027205
O O12 0.500000 0.000000 0.500000
O O13 0.156819 0.290658 0.872399
O O14 0.000000 0.000000 0.000000
O O15 0.152940 0.442467 0.664899
O O16 0.000000 0.000000 0.500000
#
# Coordination Sequence:
#
# PCOD9039601 Si02
#       7
#     2   2   2   2   2   2   2
#     4  10  23  42  69  94 140 174 220 283 337 401
#     4  12  25  41  71 104 134 175 231 280 344 409
#     4   9  22  47  68  93 133 187 225 269 341 395
#     4  11  24  41  65 104 136 176 219 282 349 398
#     4  11  26  44  69  96 137 185 227 278 333 403
#     4  10  23  44  68  98 133 175 230 282 337 400
#     4  11  20  41  69  98 133 174 216 286 351 395
#
# _framework density 21.766183999999999
#
# number of rings (size 3 to 8) (size 9 to 14) (size 15 to 20)
#    0.000    1.429    2.857    1.286    4.000    1.143 
#    0.000    0.000    0.000    0.000    0.000    0.000 
#    0.000    0.000    0.000    0.000    0.000    0.000 
#
# Total GULP energy -78144.986959 kJ/mol
# GULP energy per Si atom -5581.784783 kJ/mol
# Density = 2.171664 g / cm^3
# Si number density = 21.766184 Si / 1000 Ang^3
#
#
#
# Elastic Constant Matrix: (Units=GPa)
#
#
# Indices 1 2 3 4 5 6 
#
# 1 136.6952 40.9489 59.9479 0.8927 -3.2721 -4.4806
# 2 40.9489 59.4425 30.0656 0.8461 -3.0382 5.1968
# 3 59.9479 30.0656 111.9122 -5.2503 -12.1429 -9.4649
# 4 0.8927 0.8461 -5.2503 20.6570 -3.2444 2.1187
# 5 -3.2721 -3.0382 -12.1429 -3.2444 40.7842 1.7864
# 6 -4.4806 5.1968 -9.4649 2.1187 1.7864 34.8485
#
#
#
# Elastic Compliance Matrix: (Units=1/GPa)
#
#
# Indices 1 2 3 4 5 6 
#
# 1 0.010925 -0.005377 -0.004503 -0.001678 -0.001048 0.001139
# 2 -0.005377 0.022878 -0.003712 -0.001081 0.000303 -0.005061
# 3 -0.004503 -0.003712 0.013169 0.003915 0.003457 0.003136
# 4 -0.001678 -0.001081 0.003915 0.050557 0.005074 -0.002325
# 5 -0.001048 0.000303 0.003457 0.005074 0.025929 -0.000879
# 6 0.001139 -0.005061 0.003136 -0.002325 -0.000879 0.030635
#
#
# Mechanical properties :
#
#
# Convention : Reuss Voigt Hill
#
# Bulk Modulus (GPa) = 50.53843 63.33052 56.93448
# Shear Modulus (GPa) = 26.61369 31.06376 28.83872
#
# Velocity S-wave (km/s) = 3.50052 3.78187 3.64391
# Velocity P-wave (km/s) = 6.29344 6.94471 6.62708
#
# Compressibility (1/GPa) = 0.01978692
#
# Stress axis : x y z
#
# Youngs Moduli (GPa) = 91.53676 43.71024 75.93521
#
# Poissons Ratio (x) = 0.23504 0.34197
# Poissons Ratio (y) = 0.49221 0.28185
# Poissons Ratio (z) = 0.41223 0.16224
#
# Static dielectric constant tensor:
#      x y z
#    x 2.504200 0.397220 0.270870 
#    y 0.397220 2.021150 0.174280 
#    z 0.270870 0.174280 1.835240 
# 
# From -- ./inp_files/117082.got.cif
#   From: 2010.05.17/outbox.cif.g08.bks.cpg/sg2_59_cif.got.tgz:117082.got - 2010.06.03 11:33:40.
