data_PCOD9039377
_publ_section_title
;
Structure prediction by ZEFSAII (Michael W. Deem and Ramdas Pophale) SiO2 
 PCOD9039377
Probable space group: P -1
;
_chemical_formula_sum "Si O2"
_cell_formula_units_Z 12
_cell_length_a 12.114488
_cell_length_b 8.543677
_cell_length_c 9.717745
_cell_angle_alpha 81.793279
_cell_angle_beta 141.573824
_cell_angle_gamma 118.636690
_cell_volume 496.218283
_symmetry_space_group_name_H-M "P -1"
_symmetry_group_IT_number 2
_symmetry_cell_setting 'triclinic'
loop_
_space_group_symop_operation_xyz
x,y,z
-x,-y,-z
loop_
_atom_site_type_symbol
_atom_site_label
_atom_site_fract_x
_atom_site_fract_y
_atom_site_fract_z
Si Si1 0.500542 0.085451 0.697417
Si Si2 0.861887 0.742863 0.243701
Si Si3 0.995926 0.629889 0.861111
Si Si4 0.497150 0.684358 0.074891
Si Si5 0.139901 0.104769 0.258478
Si Si6 0.798587 0.339582 0.455196
O O1 0.486714 0.163886 0.823153
O O2 0.379776 0.150547 0.476987
O O3 0.353083 0.852281 0.574145
O O4 0.752744 0.175997 0.913748
O O5 0.737029 0.753129 0.250278
O O6 0.035292 0.695289 0.452335
O O7 0.658396 0.541746 0.992942
O O8 0.997316 0.940628 0.260299
O O9 0.842216 0.699283 0.725056
O O10 0.935149 0.521037 0.669373
O O11 0.000000 0.500000 0.000000
O O12 0.366129 0.669461 0.812626
O O13 0.000000 0.000000 0.000000
#
# Coordination Sequence:
#
# PCOD9039377 Si02
#       6
#     2   2   2   2   2   2
#     4  11  26  45  70 104 137 182 229 280 343 406
#     4  10  23  42  68 101 140 178 227 277 336 403
#     4  12  27  46  72 101 135 184 234 282 341 404
#     4  11  23  41  72 104 142 179 228 276 344 410
#     4  11  27  48  71  99 139 181 231 286 340 407
#     4  11  24  43  70 101 143 177 226 285 337 406
#
# _framework density 24.182905999999999
#
# number of rings (size 3 to 8) (size 9 to 14) (size 15 to 20)
#    0.000    1.000    1.667    4.000    4.667    7.333 
#    0.000    0.000    0.000    0.000    0.000    0.000 
#    0.000    0.000    0.000    0.000    0.000    0.000 
#
# Total GULP energy -67185.797929 kJ/mol
# GULP energy per Si atom -5598.816494 kJ/mol
# Density = 2.412786 g / cm^3
# Si number density = 24.182906 Si / 1000 Ang^3
#
#
#
# Elastic Constant Matrix: (Units=GPa)
#
#
# Indices 1 2 3 4 5 6 
#
# 1 35.6769 -2.8794 13.0457 -6.9072 -0.6826 -5.8889
# 2 -2.8794 74.2737 5.7776 -9.8908 -2.6408 -12.5369
# 3 13.0457 5.7776 125.1130 -14.6310 -2.1246 -9.7269
# 4 -6.9072 -9.8908 -14.6310 36.6203 7.0703 12.5763
# 5 -0.6826 -2.6408 -2.1246 7.0703 37.1610 1.2542
# 6 -5.8889 -12.5369 -9.7269 12.5763 1.2542 19.4119
#
#
#
# Elastic Compliance Matrix: (Units=1/GPa)
#
#
# Indices 1 2 3 4 5 6 
#
# 1 0.031116 0.003197 -0.002399 0.002915 -0.000177 0.008425
# 2 0.003197 0.015480 -0.000117 0.001144 0.000593 0.010129
# 3 -0.002399 -0.000117 0.008675 0.002283 -0.000061 0.002068
# 4 0.002915 0.001144 0.002283 0.037531 -0.006162 -0.021150
# 5 -0.000177 0.000593 -0.000061 -0.006162 0.028034 0.002479
# 6 0.008425 0.010129 0.002068 -0.021150 0.002479 0.075191
#
#
# Mechanical properties :
#
#
# Convention : Reuss Voigt Hill
#
# Bulk Modulus (GPa) = 17.65757 29.66124 23.65940
# Shear Modulus (GPa) = 23.41442 33.24662 28.33052
#
# Velocity S-wave (km/s) = 3.11500 3.71185 3.42645
# Velocity P-wave (km/s) = 4.50058 5.53737 5.04567
#
# Compressibility (1/GPa) = 0.05663293
#
# Stress axis : x y z
#
# Youngs Moduli (GPa) = 32.13749 64.59979 115.27208
#
# Poissons Ratio (x) = -0.20652 0.27657
# Poissons Ratio (y) = -0.10274 0.01347
# Poissons Ratio (z) = 0.07711 0.00755
#
# Static dielectric constant tensor:
#      x y z
#    x 1.941090 0.036420 0.016020 
#    y 0.036420 1.998260 -0.000980 
#    z 0.016020 -0.000980 1.872240 
# 
# From -- ./inp_files/96653.got.cif
#   From: 2010.05.17/outbox.cif.g08.bks.cpg/sg2_49_cif.got.tgz:96653.got - 2010.06.03 11:33:40.
