data_PCOD9039392
_publ_section_title
;
Structure prediction by ZEFSAII (Michael W. Deem and Ramdas Pophale) SiO2 
 PCOD9039392
Probable space group: P -1
;
_chemical_formula_sum "Si O2"
_cell_formula_units_Z 16
_cell_length_a 15.625258
_cell_length_b 10.952958
_cell_length_c 5.516082
_cell_angle_alpha 65.122025
_cell_angle_beta 118.827360
_cell_angle_gamma 122.416965
_cell_volume 681.169870
_symmetry_space_group_name_H-M "P -1"
_symmetry_group_IT_number 2
_symmetry_cell_setting 'triclinic'
loop_
_space_group_symop_operation_xyz
x,y,z
-x,-y,-z
loop_
_atom_site_type_symbol
_atom_site_label
_atom_site_fract_x
_atom_site_fract_y
_atom_site_fract_z
Si Si1 0.824214 0.465443 0.334786
Si Si2 0.377943 0.413683 0.467868
Si Si3 0.215439 0.282121 0.991863
Si Si4 0.641886 0.827263 0.034028
Si Si5 0.002118 0.614335 0.106088
Si Si6 0.433646 0.939825 0.207264
Si Si7 0.396307 0.658923 0.636075
Si Si8 0.027650 0.095789 0.208739
O O1 0.902729 0.390885 0.591553
O O2 0.701966 0.352676 0.315321
O O3 0.878396 0.528854 0.099340
O O4 0.842032 0.632953 0.316805
O O5 0.500000 0.500000 0.500000
O O6 0.314068 0.415848 0.141392
O O7 0.363131 0.497718 0.610957
O O8 0.357512 0.248290 0.647414
O O9 0.265698 0.188414 0.988381
O O10 0.150042 0.196117 0.211806
O O11 0.653792 0.992603 0.950282
O O12 0.519163 0.728229 0.847259
O O13 0.000000 0.500000 0.000000
O O14 0.022876 0.783491 0.944410
O O15 0.500000 0.000000 0.500000
O O16 0.395471 0.765560 0.324944
O O17 0.500000 0.000000 0.000000
O O18 0.000000 0.000000 0.500000
O O19 0.000000 0.000000 0.000000
#
# Coordination Sequence:
#
# PCOD9039392 Si02
#       8
#     2   2   2   2   2   2   2   2
#     4  10  23  42  68 102 141 178 247 298 374 422
#     4  12  22  37  69 102 138 184 239 291 352 431
#     4  11  25  42  74 106 146 192 238 310 370 430
#     4  11  23  42  65  97 150 185 237 290 365 427
#     4  10  25  47  76 102 143 189 244 315 379 438
#     4  10  24  44  62  89 141 193 230 287 351 418
#     4  11  22  41  65 103 137 187 241 292 353 441
#     4  11  29  51  80 112 150 193 253 312 379 450
#
# _framework density 23.489000000000001
#
# number of rings (size 3 to 8) (size 9 to 14) (size 15 to 20)
#    0.000    1.250    2.500    1.875   12.250    2.000 
#    0.000    0.000    0.000    0.000    0.000    0.000 
#    0.000    0.000    0.000    0.000    0.000    0.000 
#
# Total GULP energy -89088.090304 kJ/mol
# GULP energy per Si atom -5568.005644 kJ/mol
# Density = 2.343554 g / cm^3
# Si number density = 23.489000 Si / 1000 Ang^3
#
#
#
# Elastic Constant Matrix: (Units=GPa)
#
#
# Indices 1 2 3 4 5 6 
#
# 1 163.1895 17.2895 38.9136 -26.9124 -7.5632 -6.3379
# 2 17.2895 51.4046 38.8014 -20.9644 5.0245 -15.3527
# 3 38.9136 38.8014 119.7284 -43.0067 -4.2044 -6.4757
# 4 -26.9124 -20.9644 -43.0067 46.1916 -5.0494 -0.4427
# 5 -7.5632 5.0245 -4.2044 -5.0494 40.3576 -9.5526
# 6 -6.3379 -15.3527 -6.4757 -0.4427 -9.5526 40.0791
#
#
#
# Elastic Compliance Matrix: (Units=1/GPa)
#
#
# Indices 1 2 3 4 5 6 
#
# 1 0.007073 -0.000039 -0.000864 0.003535 0.002035 0.001488
# 2 -0.000039 0.030963 -0.006689 0.007786 -0.001075 0.010604
# 3 -0.000864 -0.006689 0.014792 0.010645 0.003708 0.000692
# 4 0.003535 0.007786 0.010645 0.038024 0.007317 0.007425
# 5 0.002035 -0.001075 0.003708 0.007317 0.028333 0.007343
# 6 0.001488 0.010604 0.000692 0.007425 0.007343 0.031192
#
#
# Mechanical properties :
#
#
# Convention : Reuss Voigt Hill
#
# Bulk Modulus (GPa) = 26.56556 58.25904 42.41230
# Shear Modulus (GPa) = 28.07229 41.28019 34.67624
#
# Velocity S-wave (km/s) = 3.46081 4.19671 3.84640
# Velocity P-wave (km/s) = 5.22532 6.95268 6.14995
#
# Compressibility (1/GPa) = 0.03764273
#
# Stress axis : x y z
#
# Youngs Moduli (GPa) = 141.37845 32.29628 67.60307
#
# Poissons Ratio (x) = 0.00127 0.05844
# Poissons Ratio (y) = 0.00557 0.45221
# Poissons Ratio (z) = 0.12221 0.21604
#
# Static dielectric constant tensor:
#      x y z
#    x 2.114550 -0.101140 0.040190 
#    y -0.101140 2.971020 0.724950 
#    z 0.040190 0.724950 2.645090 
# 
# From -- ./inp_files/94508.got.cif
#   From: 2010.05.17/outbox.cif.g08.bks.cpg/sg2_48_cif.got.tgz:94508.got - 2010.06.03 11:33:40.
