data_PCOD9039917
_publ_section_title
;
Structure prediction by ZEFSAII (Michael W. Deem and Ramdas Pophale) SiO2 
 PCOD9039917
Probable space group: P -1
;
_chemical_formula_sum "Si O2"
_cell_formula_units_Z 14
_cell_length_a 17.379618
_cell_length_b 17.320370
_cell_length_c 7.552110
_cell_angle_alpha 34.888361
_cell_angle_beta 41.012881
_cell_angle_gamma 24.511136
_cell_volume 539.135143
_symmetry_space_group_name_H-M "P -1"
_symmetry_group_IT_number 2
_symmetry_cell_setting 'triclinic'
loop_
_space_group_symop_operation_xyz
x,y,z
-x,-y,-z
loop_
_atom_site_type_symbol
_atom_site_label
_atom_site_fract_x
_atom_site_fract_y
_atom_site_fract_z
Si Si1 0.487599 0.498928 0.235293
Si Si2 0.618265 0.660193 0.770204
Si Si3 0.382750 0.308330 0.884345
Si Si4 0.065692 0.949973 0.183128
Si Si5 0.029782 0.292651 0.703505
Si Si6 0.045177 0.234035 0.186623
Si Si7 0.683332 0.909585 0.711462
O O1 0.505301 0.327738 0.580678
O O2 0.283822 0.724092 0.231337
O O3 0.500000 0.500000 0.000000
O O4 0.620453 0.494945 0.091854
O O5 0.457959 0.849965 0.560941
O O6 0.817874 0.526038 0.605981
O O7 0.581931 0.749440 0.860901
O O8 0.164916 0.543035 0.804865
O O9 0.414652 0.148651 0.010720
O O10 0.957663 0.926758 0.513825
O O11 0.036577 0.126921 0.964473
O O12 0.000000 0.000000 0.000000
O O13 0.169499 0.236731 0.432033
O O14 0.076022 0.267322 0.876864
O O15 0.192007 0.157551 0.215021
#
# Coordination Sequence:
#
# PCOD9039917 Si02
#       7
#     2   2   2   2   2   2   2
#     4  11  23  43  73 108 141 187 243 299 355 425
#     4  11  24  46  74 107 141 193 244 293 361 428
#     4  10  25  46  74 105 149 188 243 301 358 430
#     4  11  19  41  71 104 144 186 237 301 354 416
#     4  11  24  44  76 106 145 190 240 297 363 426
#     4  10  23  42  72 108 141 192 246 290 361 433
#     4  12  24  50  74 106 152 191 234 303 362 432
#
# _framework density 25.967513
#
# number of rings (size 3 to 8) (size 9 to 14) (size 15 to 20)
#    0.000    1.143    2.857    2.571    2.000    2.286 
#   10.286    0.714    6.286    0.000    0.000    0.000 
#    0.000    0.000    0.000    0.000    0.000    0.000 
#
# Total GULP energy -78628.974968 kJ/mol
# GULP energy per Si atom -5616.355355 kJ/mol
# Density = 2.590841 g / cm^3
# Si number density = 25.967513 Si / 1000 Ang^3
#
#
#
# Elastic Constant Matrix: (Units=GPa)
#
#
# Indices 1 2 3 4 5 6 
#
# 1 142.1145 25.9377 32.5373 -6.8500 -9.9346 -1.3126
# 2 25.9377 82.0770 29.5724 9.3238 3.6206 -8.2868
# 3 32.5373 29.5724 91.4502 4.4119 -30.7358 -10.7139
# 4 -6.8500 9.3238 4.4119 32.9270 13.1974 -5.5497
# 5 -9.9346 3.6206 -30.7358 13.1974 53.3901 -13.0234
# 6 -1.3126 -8.2868 -10.7139 -5.5497 -13.0234 38.5828
#
#
#
# Elastic Compliance Matrix: (Units=1/GPa)
#
#
# Indices 1 2 3 4 5 6 
#
# 1 0.008090 -0.001920 -0.002768 0.002803 -0.000843 -0.000787
# 2 -0.001920 0.015193 -0.005425 -0.002403 -0.003911 0.000026
# 3 -0.002768 -0.005425 0.020006 -0.006304 0.014989 0.008449
# 4 0.002803 -0.002403 -0.006304 0.037282 -0.012403 -0.000995
# 5 -0.000843 -0.003911 0.014989 -0.012403 0.033674 0.012876
# 6 -0.000787 0.000026 0.008449 -0.000995 0.012876 0.032446
#
#
# Mechanical properties :
#
#
# Convention : Reuss Voigt Hill
#
# Bulk Modulus (GPa) = 43.36137 54.63739 48.99938
# Shear Modulus (GPa) = 28.63612 40.15294 34.39453
#
# Velocity S-wave (km/s) = 3.32440 3.93654 3.64335
# Velocity P-wave (km/s) = 5.60982 6.46128 6.05054
#
# Compressibility (1/GPa) = 0.02306200
#
# Stress axis : x y z
#
# Youngs Moduli (GPa) = 123.61508 65.81889 49.98542
#
# Poissons Ratio (x) = 0.12636 0.13837
# Poissons Ratio (y) = 0.23731 0.27119
# Poissons Ratio (z) = 0.34219 0.35710
#
# Static dielectric constant tensor:
#      x y z
#    x 2.130270 0.064600 -0.044720 
#    y 0.064600 2.033990 0.023000 
#    z -0.044720 0.023000 2.071830 
# 
# From -- ./inp_files/349649.got.cif
#   From: 2010.05.17/outbox.cif.g08.bks.cpg/sg2_175_cif.got.tgz:349649.got - 2010.06.03 11:33:40.
