data_PCOD9039429
_publ_section_title
;
Structure prediction by ZEFSAII (Michael W. Deem and Ramdas Pophale) SiO2 
 PCOD9039429
Probable space group: P -1
;
_chemical_formula_sum "Si O2"
_cell_formula_units_Z 16
_cell_length_a 14.433186
_cell_length_b 15.198164
_cell_length_c 14.934186
_cell_angle_alpha 141.883748
_cell_angle_beta 141.929122
_cell_angle_gamma 19.296691
_cell_volume 651.988655
_symmetry_space_group_name_H-M "P -1"
_symmetry_group_IT_number 2
_symmetry_cell_setting 'triclinic'
loop_
_space_group_symop_operation_xyz
x,y,z
-x,-y,-z
loop_
_atom_site_type_symbol
_atom_site_label
_atom_site_fract_x
_atom_site_fract_y
_atom_site_fract_z
Si Si1 0.343498 0.831093 0.614451
Si Si2 0.114939 0.089049 0.354653
Si Si3 0.778545 0.303750 0.941349
Si Si4 0.424238 0.827354 0.999584
Si Si5 0.830683 0.256292 0.453474
Si Si6 0.503270 0.029801 0.668173
Si Si7 0.146552 0.558600 0.729450
Si Si8 0.676590 0.715295 0.915970
O O1 0.515962 0.579231 0.482859
O O2 0.189413 0.878237 0.618741
O O3 0.604409 0.698894 0.754620
O O4 0.099092 0.108089 0.594467
O O5 0.341113 0.014513 0.512311
O O6 0.919460 0.337974 0.337662
O O7 0.924771 0.179874 0.362703
O O8 0.245435 0.846067 0.208542
O O9 0.528877 0.596220 0.939354
O O10 0.079362 0.108926 0.967923
O O11 0.795613 0.348150 0.091263
O O12 0.559950 0.729456 0.926452
O O13 0.535191 0.866298 0.180106
O O14 0.378919 0.249346 0.680293
O O15 0.842230 0.741525 0.679388
O O16 0.000000 0.500000 0.000000
O O17 0.500000 0.000000 0.000000
#
# Coordination Sequence:
#
# PCOD9039429 Si02
#       8
#     2   2   2   2   2   2   2   2
#     4  10  23  45  60  92 134 162 215 264 339 361
#     4  12  24  40  71 101 124 172 234 259 324 396
#     4  10  23  42  68  92 130 170 219 267 320 387
#     4  10  23  45  62  93 130 174 209 266 336 386
#     4  10  24  41  66  90 130 173 202 279 319 392
#     4  10  24  41  66  92 140 168 209 270 334 384
#     4  10  23  45  62  96 136 175 205 276 330 384
#     4  12  25  39  69  94 125 170 223 267 319 397
#
# _framework density 24.540303999999999
#
# number of rings (size 3 to 8) (size 9 to 14) (size 15 to 20)
#    0.000    1.500    0.000    3.375    3.500    8.000 
#    0.000    3.750    0.000    0.000    0.000    0.000 
#    0.000    0.000    0.000    0.000    0.000    0.000 
#
# Total GULP energy -89612.992621 kJ/mol
# GULP energy per Si atom -5600.812039 kJ/mol
# Density = 2.448445 g / cm^3
# Si number density = 24.540304 Si / 1000 Ang^3
#
#
#
# Elastic Constant Matrix: (Units=GPa)
#
#
# Indices 1 2 3 4 5 6 
#
# 1 65.0415 6.7026 18.1819 0.5333 -8.9163 -6.6354
# 2 6.7026 99.4378 10.7895 -8.8878 -1.0218 -13.1654
# 3 18.1819 10.7895 128.1212 -6.7853 13.7234 -2.6435
# 4 0.5333 -8.8878 -6.7853 37.9188 -0.4118 6.7061
# 5 -8.9163 -1.0218 13.7234 -0.4118 33.5145 -3.9624
# 6 -6.6354 -13.1654 -2.6435 6.7061 -3.9624 26.1427
#
#
#
# Elastic Compliance Matrix: (Units=1/GPa)
#
#
# Indices 1 2 3 4 5 6 
#
# 1 0.017787 -0.000207 -0.003201 -0.001781 0.006671 0.005555
# 2 -0.000207 0.011000 -0.000844 0.001524 0.001260 0.005202
# 3 -0.003201 -0.000844 0.008888 0.001647 -0.004670 -0.001469
# 4 -0.001781 0.001524 0.001647 0.028272 -0.001583 -0.007010
# 5 0.006671 0.001260 -0.004670 -0.001583 0.034428 0.007480
# 6 0.005555 0.005202 -0.001469 -0.007010 0.007480 0.045065
#
#
# Mechanical properties :
#
#
# Convention : Reuss Voigt Hill
#
# Bulk Modulus (GPa) = 34.28086 40.43871 37.35979
# Shear Modulus (GPa) = 30.55005 36.64362 33.59684
#
# Velocity S-wave (km/s) = 3.53213 3.86839 3.70408
# Velocity P-wave (km/s) = 5.53481 6.03878 5.79228
#
# Compressibility (1/GPa) = 0.02917079
#
# Stress axis : x y z
#
# Youngs Moduli (GPa) = 56.22143 90.91000 112.51673
#
# Poissons Ratio (x) = 0.01880 0.36017
# Poissons Ratio (y) = 0.01163 0.09495
# Poissons Ratio (z) = 0.17997 0.07672
#
# Static dielectric constant tensor:
#      x y z
#    x 1.897430 -0.032840 0.067880 
#    y -0.032840 1.884850 -0.031670 
#    z 0.067880 -0.031670 1.985910 
# 
# From -- ./inp_files/534460.got.cif
#   From: 2010.05.17/outbox.cif.g08.bks.cpg/sg2_268_cif.got.tgz:534460.got - 2010.06.03 11:33:40.
