data_PCOD9039137
_publ_section_title
;
Structure prediction by ZEFSAII (Michael W. Deem and Ramdas Pophale) SiO2 
 PCOD9039137
Probable space group: P -1
;
_chemical_formula_sum "Si O2"
_cell_formula_units_Z 16
_cell_length_a 7.223842
_cell_length_b 14.764122
_cell_length_c 14.521976
_cell_angle_alpha 134.442302
_cell_angle_beta 44.626323
_cell_angle_gamma 107.886517
_cell_volume 718.136822
_symmetry_space_group_name_H-M "P -1"
_symmetry_group_IT_number 2
_symmetry_cell_setting 'triclinic'
loop_
_space_group_symop_operation_xyz
x,y,z
-x,-y,-z
loop_
_atom_site_type_symbol
_atom_site_label
_atom_site_fract_x
_atom_site_fract_y
_atom_site_fract_z
Si Si1 0.078729 0.288999 0.332084
Si Si2 0.768481 0.402475 0.073417
Si Si3 0.815473 0.086441 0.370594
Si Si4 0.595353 0.976277 0.660525
Si Si5 0.572214 0.662012 0.203405
Si Si6 0.789922 0.231775 0.761252
Si Si7 0.558796 0.054759 0.920134
Si Si8 0.617993 0.549492 0.582993
O O1 0.223506 0.343170 0.402309
O O2 0.927107 0.190449 0.351490
O O3 0.852714 0.415442 0.449648
O O4 0.328112 0.207803 0.113858
O O5 0.591701 0.554218 0.201223
O O6 0.623584 0.388652 0.209794
O O7 0.775284 0.304808 0.915710
O O8 0.095674 0.376555 0.961985
O O9 0.590100 0.182562 0.591620
O O10 0.654018 0.020054 0.315274
O O11 0.106606 0.973333 0.225717
O O12 0.660013 0.114083 0.729001
O O13 0.506446 0.971533 0.794250
O O14 0.882118 0.847350 0.442085
O O15 0.388538 0.661682 0.178177
O O16 0.500000 0.000000 0.000000
O O17 0.500000 0.500000 0.500000
#
# Coordination Sequence:
#
# PCOD9039137 Si02
#       8
#     2   2   2   2   2   2   2   2
#     4  10  24  44  66 100 139 175 232 276 328 405
#     4  11  24  45  68 102 136 172 233 279 335 415
#     4  11  22  44  68  97 136 176 227 277 333 406
#     4  11  24  40  68  99 138 176 223 278 334 406
#     4  11  23  43  70 100 131 185 221 283 342 396
#     4  11  24  42  67 100 136 179 221 277 345 397
#     4  10  23  42  66  96 132 180 223 273 333 395
#     4  11  25  45  71 100 138 183 220 283 341 397
#
# _framework density 22.279878
#
# number of rings (size 3 to 8) (size 9 to 14) (size 15 to 20)
#    0.000    1.250    3.750    1.125    0.000   10.500 
#    4.500    0.000    0.000    0.000    0.000    0.000 
#    0.000    0.000    0.000    0.000    0.000    0.000 
#
# Total GULP energy -89440.929448 kJ/mol
# GULP energy per Si atom -5590.058090 kJ/mol
# Density = 2.222917 g / cm^3
# Si number density = 22.279878 Si / 1000 Ang^3
#
#
#
# Elastic Constant Matrix: (Units=GPa)
#
#
# Indices 1 2 3 4 5 6 
#
# 1 94.1622 -0.1697 23.2786 8.9181 14.7162 12.7773
# 2 -0.1697 34.5262 -3.1219 -5.3077 -0.6129 6.8753
# 3 23.2786 -3.1219 121.2289 4.2249 7.8510 0.7344
# 4 8.9181 -5.3077 4.2249 15.1891 -6.2223 7.1284
# 5 14.7162 -0.6129 7.8510 -6.2223 47.9869 2.1048
# 6 12.7773 6.8753 0.7344 7.1284 2.1048 27.2279
#
#
#
# Elastic Compliance Matrix: (Units=1/GPa)
#
#
# Indices 1 2 3 4 5 6 
#
# 1 0.012992 -0.000624 -0.001939 -0.007461 -0.004485 -0.003587
# 2 -0.000624 0.035132 0.000123 0.020986 0.003972 -0.014383
# 3 -0.001939 0.000123 0.008778 -0.002396 -0.001210 0.001363
# 4 -0.007461 0.020986 -0.002396 0.098755 0.017021 -0.028903
# 5 -0.004485 0.003972 -0.001210 0.017021 0.024900 -0.005247
# 6 -0.003587 -0.014383 0.001363 -0.028903 -0.005247 0.049978
#
#
# Mechanical properties :
#
#
# Convention : Reuss Voigt Hill
#
# Bulk Modulus (GPa) = 19.22187 32.21015 25.71601
# Shear Modulus (GPa) = 19.78192 33.40947 26.59569
#
# Velocity S-wave (km/s) = 2.98297 3.87658 3.45876
# Velocity P-wave (km/s) = 4.52883 5.87585 5.24576
#
# Compressibility (1/GPa) = 0.05202407
#
# Stress axis : x y z
#
# Youngs Moduli (GPa) = 76.96749 28.46378 113.92207
#
# Poissons Ratio (x) = 0.01775 0.22086
# Poissons Ratio (y) = 0.04801 -0.01401
# Poissons Ratio (z) = 0.14922 -0.00350
#
# Static dielectric constant tensor:
#      x y z
#    x 1.787230 -0.017930 0.011350 
#    y -0.017930 1.889450 0.008620 
#    z 0.011350 0.008620 1.838090 
# 
# From -- ./inp_files/485242.got.cif
#   From: 2010.05.17/outbox.cif.g08.bks.cpg/sg2_243_cif.got.tgz:485242.got - 2010.06.03 11:33:40.
