data_PCOD9039376
_publ_section_title
;
Structure prediction by ZEFSAII (Michael W. Deem and Ramdas Pophale) SiO2 
 PCOD9039376
Probable space group: P -1
;
_chemical_formula_sum "Si O2"
_cell_formula_units_Z 16
_cell_length_a 11.482939
_cell_length_b 9.608704
_cell_length_c 14.411596
_cell_angle_alpha 132.904039
_cell_angle_beta 140.929857
_cell_angle_gamma 48.170891
_cell_volume 700.360228
_symmetry_space_group_name_H-M "P -1"
_symmetry_group_IT_number 2
_symmetry_cell_setting 'triclinic'
loop_
_space_group_symop_operation_xyz
x,y,z
-x,-y,-z
loop_
_atom_site_type_symbol
_atom_site_label
_atom_site_fract_x
_atom_site_fract_y
_atom_site_fract_z
Si Si1 0.592896 0.271232 0.477108
Si Si2 0.494924 0.698238 0.919407
Si Si3 0.677407 0.034336 0.235313
Si Si4 0.724598 0.834760 0.653350
Si Si5 0.047777 0.926427 0.285531
Si Si6 0.861761 0.144394 0.105624
Si Si7 0.810989 0.682645 0.452353
Si Si8 0.591732 0.252538 0.812826
O O1 0.500000 0.500000 0.500000
O O2 0.687142 0.134621 0.385362
O O3 0.414352 0.198033 0.368398
O O4 0.761411 0.245876 0.646347
O O5 0.453098 0.789655 0.832161
O O6 0.286959 0.723175 0.850976
O O7 0.612459 0.466113 0.894213
O O8 0.585224 0.852409 0.097617
O O9 0.879853 0.948732 0.267407
O O10 0.704106 0.699746 0.493233
O O11 0.956370 0.785716 0.784158
O O12 0.649622 0.070804 0.693392
O O13 0.116757 0.124597 0.425195
O O14 0.953773 0.942718 0.131419
O O15 0.731347 0.154847 0.939985
O O16 0.636026 0.701526 0.282212
O O17 0.000000 0.500000 0.500000
#
# Coordination Sequence:
#
# PCOD9039376 Si02
#       8
#     2   2   2   2   2   2   2   2
#     4  12  27  43  70  99 141 190 237 287 353 418
#     4  10  23  42  72 100 140 185 234 283 345 422
#     4  10  23  46  65  99 145 190 232 281 337 425
#     4  11  25  44  64 104 144 173 232 304 350 407
#     4  10  23  46  68 100 138 182 236 294 336 415
#     4  10  23  42  68 101 140 177 229 288 355 407
#     4  11  24  42  74 103 138 180 232 298 359 407
#     4  12  22  40  72 106 138 183 223 297 356 415
#
# _framework density 22.845385
#
# number of rings (size 3 to 8) (size 9 to 14) (size 15 to 20)
#    0.000    1.250    1.250    4.500    5.250    1.000 
#    0.000    0.000    0.000    8.250    0.000    0.000 
#    0.000    0.000    0.000    0.000    0.000    0.000 
#
# Total GULP energy -89310.480533 kJ/mol
# GULP energy per Si atom -5581.905033 kJ/mol
# Density = 2.279339 g / cm^3
# Si number density = 22.845385 Si / 1000 Ang^3
#
#
#
# Elastic Constant Matrix: (Units=GPa)
#
#
# Indices 1 2 3 4 5 6 
#
# 1 97.7569 29.0185 25.0849 -10.1357 16.0575 0.2814
# 2 29.0185 168.5482 55.9086 -11.6092 4.6024 -4.2650
# 3 25.0849 55.9086 98.5295 -33.7418 11.9298 2.4638
# 4 -10.1357 -11.6092 -33.7418 43.3530 -1.7132 4.4782
# 5 16.0575 4.6024 11.9298 -1.7132 39.3359 -4.0207
# 6 0.2814 -4.2650 2.4638 4.4782 -4.0207 18.0700
#
#
#
# Elastic Compliance Matrix: (Units=1/GPa)
#
#
# Indices 1 2 3 4 5 6 
#
# 1 0.011844 -0.001510 -0.001039 0.001564 -0.004457 -0.001778
# 2 -0.001510 0.007789 -0.005211 -0.002631 0.001535 0.003566
# 3 -0.001039 -0.005211 0.018871 0.013709 -0.004939 -0.008283
# 4 0.001564 -0.002631 0.013709 0.034470 -0.004213 -0.011994
# 5 -0.004457 0.001535 -0.004939 -0.004213 0.029261 0.008660
# 6 -0.001778 0.003566 -0.008283 -0.011994 0.008660 0.062239
#
#
# Mechanical properties :
#
#
# Convention : Reuss Voigt Hill
#
# Bulk Modulus (GPa) = 43.51117 64.98430 54.24773
# Shear Modulus (GPa) = 26.64485 37.13995 31.89240
#
# Velocity S-wave (km/s) = 3.41884 4.03638 3.74038
# Velocity P-wave (km/s) = 5.88828 7.08733 6.51545
#
# Compressibility (1/GPa) = 0.02298261
#
# Stress axis : x y z
#
# Youngs Moduli (GPa) = 84.43396 128.39161 52.99261
#
# Poissons Ratio (x) = 0.19388 0.05505
# Poissons Ratio (y) = 0.12750 0.27615
# Poissons Ratio (z) = 0.08772 0.66906
#
# Static dielectric constant tensor:
#      x y z
#    x 1.891210 -0.000170 -0.034180 
#    y -0.000170 1.866860 -0.031160 
#    z -0.034180 -0.031160 1.974160 
# 
# From -- ./inp_files/516310.got.cif
#   From: 2010.05.17/outbox.cif.g08.bks.cpg/sg2_259_cif.got.tgz:516310.got - 2010.06.03 11:33:40.
