data_PCOD9039108
_publ_section_title
;
Structure prediction by ZEFSAII (Michael W. Deem and Ramdas Pophale) SiO2 
 PCOD9039108
Probable space group: P -1
;
_chemical_formula_sum "Si O2"
_cell_formula_units_Z 16
_cell_length_a 16.926530
_cell_length_b 8.352540
_cell_length_c 15.681925
_cell_angle_alpha 49.999274
_cell_angle_beta 150.252934
_cell_angle_gamma 130.351982
_cell_volume 819.053112
_symmetry_space_group_name_H-M "P -1"
_symmetry_group_IT_number 2
_symmetry_cell_setting 'triclinic'
loop_
_space_group_symop_operation_xyz
x,y,z
-x,-y,-z
loop_
_atom_site_type_symbol
_atom_site_label
_atom_site_fract_x
_atom_site_fract_y
_atom_site_fract_z
Si Si1 0.109731 0.026063 0.776620
Si Si2 0.756393 0.104972 0.395568
Si Si3 0.488709 0.456843 0.216534
Si Si4 0.512201 0.029712 0.663598
Si Si5 0.833991 0.351245 0.929977
Si Si6 0.332914 0.089797 0.803128
Si Si7 0.427352 0.401858 0.372815
Si Si8 0.323109 0.468843 0.890773
O O1 0.192362 0.011278 0.767355
O O2 0.228511 0.227255 0.865646
O O3 0.931168 0.073776 0.599592
O O4 0.113587 0.803801 0.900076
O O5 0.755896 0.351496 0.288125
O O6 0.606397 0.002823 0.353356
O O7 0.725606 0.982134 0.320250
O O8 0.629704 0.651465 0.246918
O O9 0.500469 0.481945 0.321472
O O10 0.488923 0.211149 0.282222
O O11 0.342967 0.494721 0.003594
O O12 0.693683 0.181950 0.801023
O O13 0.431285 0.154936 0.473970
O O14 0.741364 0.527688 0.815615
O O15 0.000000 0.500000 0.000000
O O16 0.500000 0.000000 0.000000
O O17 0.500000 0.500000 0.500000
O O18 0.500000 0.500000 0.000000
#
# Coordination Sequence:
#
# PCOD9039108 Si02
#       8
#     2   2   2   2   2   2   2   2
#     4  12  24  41  63  98 141 174 220 278 333 398
#     4  12  24  40  67 101 137 176 219 275 336 400
#     4  12  22  39  72  98 128 173 225 265 335 405
#     4  11  22  44  68  94 129 174 226 277 336 398
#     4  11  23  42  67  91 127 177 222 275 338 398
#     4  12  22  39  66  99 133 178 223 265 329 403
#     4  10  23  42  66  94 124 169 223 279 328 389
#     4  12  21  42  67  98 136 180 218 265 337 407
#
# _framework density 19.534752999999998
#
# number of rings (size 3 to 8) (size 9 to 14) (size 15 to 20)
#    0.000    0.500    5.000    4.875    0.000    1.000 
#    0.000    0.625    5.500    0.000    0.000    0.000 
#    0.000    0.000    0.000    0.000    0.000    0.000 
#
# Total GULP energy -89113.810823 kJ/mol
# GULP energy per Si atom -5569.613176 kJ/mol
# Density = 1.949029 g / cm^3
# Si number density = 19.534753 Si / 1000 Ang^3
#
#
#
# Elastic Constant Matrix: (Units=GPa)
#
#
# Indices 1 2 3 4 5 6 
#
# 1 104.5694 43.4736 41.1503 6.6883 -10.7076 21.1645
# 2 43.4736 110.5717 46.6153 -10.2994 12.4453 34.3115
# 3 41.1503 46.6153 110.5240 -26.8800 5.9619 19.7225
# 4 6.6883 -10.2994 -26.8800 43.3952 -1.5423 -8.2639
# 5 -10.7076 12.4453 5.9619 -1.5423 34.2580 -5.4447
# 6 21.1645 34.3115 19.7225 -8.2639 -5.4447 29.2635
#
#
#
# Elastic Compliance Matrix: (Units=1/GPa)
#
#
# Indices 1 2 3 4 5 6 
#
# 1 0.015123 -0.003936 -0.005393 -0.007056 0.006217 -0.003524
# 2 -0.003936 0.019031 -0.002574 -0.000656 -0.010895 -0.019945
# 3 -0.005393 -0.002574 0.014676 0.009013 -0.003057 -0.000996
# 4 -0.007056 -0.000656 0.009013 0.031138 -0.000791 0.008444
# 5 0.006217 -0.010895 -0.003057 -0.000791 0.038329 0.017246
# 6 -0.003524 -0.019945 -0.000996 0.008444 0.017246 0.066371
#
#
# Mechanical properties :
#
#
# Convention : Reuss Voigt Hill
#
# Bulk Modulus (GPa) = 39.96228 65.34929 52.65578
# Shear Modulus (GPa) = 23.06125 34.34508 28.70317
#
# Velocity S-wave (km/s) = 3.43960 4.19758 3.83735
# Velocity P-wave (km/s) = 6.02295 7.55105 6.82987
#
# Compressibility (1/GPa) = 0.02502360
#
# Stress axis : x y z
#
# Youngs Moduli (GPa) = 66.12610 52.54675 68.13850
#
# Poissons Ratio (x) = 0.20681 0.36747
# Poissons Ratio (y) = 0.26026 0.17539
# Poissons Ratio (z) = 0.35662 0.13526
#
# Static dielectric constant tensor:
#      x y z
#    x 2.056000 0.061070 0.110520 
#    y 0.061070 1.719760 0.007370 
#    z 0.110520 0.007370 1.661240 
# 
# From -- ./inp_files/331922.got.cif
#   From: 2010.05.17/outbox.cif.g08.bks.cpg/sg2_166_cif.got.tgz:331922.got - 2010.06.03 11:33:40.
