data_PCOD9039239
_publ_section_title
;
Structure prediction by ZEFSAII (Michael W. Deem and Ramdas Pophale) SiO2 
 PCOD9039239
Probable space group: P -1
;
_chemical_formula_sum "Si O2"
_cell_formula_units_Z 16
_cell_length_a 6.668760
_cell_length_b 10.880127
_cell_length_c 14.884972
_cell_angle_alpha 118.928845
_cell_angle_beta 54.081897
_cell_angle_gamma 82.245692
_cell_volume 617.685417
_symmetry_space_group_name_H-M "P -1"
_symmetry_group_IT_number 2
_symmetry_cell_setting 'triclinic'
loop_
_space_group_symop_operation_xyz
x,y,z
-x,-y,-z
loop_
_atom_site_type_symbol
_atom_site_label
_atom_site_fract_x
_atom_site_fract_y
_atom_site_fract_z
Si Si1 0.521437 0.727338 0.430114
Si Si2 0.134272 0.985781 0.363217
Si Si3 0.424530 0.708194 0.055921
Si Si4 0.006145 0.610998 0.117644
Si Si5 0.328503 0.229070 0.398281
Si Si6 0.760502 0.864365 0.969744
Si Si7 0.600372 0.372098 0.251858
Si Si8 0.743051 0.735447 0.755137
O O1 0.693061 0.730748 0.297733
O O2 0.683673 0.722302 0.477936
O O3 0.551938 0.549398 0.349861
O O4 0.164319 0.890709 0.578182
O O5 0.352541 0.050804 0.331124
O O6 0.308242 0.790726 0.214364
O O7 0.000000 0.000000 0.500000
O O8 0.252769 0.475963 0.079994
O O9 0.162107 0.703707 0.078992
O O10 0.501347 0.833464 0.039739
O O11 0.949587 0.239059 0.079308
O O12 0.000000 0.500000 0.000000
O O13 0.096770 0.313458 0.401533
O O14 0.550072 0.274145 0.311161
O O15 0.905707 0.762193 0.801027
O O16 0.578493 0.069255 0.095426
O O17 0.358365 0.391227 0.249161
#
# Coordination Sequence:
#
# PCOD9039239 Si02
#       8
#     2   2   2   2   2   2   2   2
#     4  12  26  45  69 101 143 183 227 286 346 407
#     4  12  27  48  70 100 139 184 235 286 342 406
#     4  11  24  45  70  99 134 174 229 285 334 408
#     4  11  26  45  70 100 130 177 231 284 342 398
#     4  10  25  43  67 103 140 182 226 278 348 411
#     4  11  20  42  71 100 140 175 228 281 339 408
#     4  10  23  42  67 105 138 180 226 281 339 419
#     4   9  23  38  66 103 134 180 218 279 339 408
#
# _framework density 25.903151999999999
#
# number of rings (size 3 to 8) (size 9 to 14) (size 15 to 20)
#    0.750    0.500    2.500    2.250    3.500    5.500 
#    0.000    0.000    0.000    0.000    0.000    0.000 
#    0.000    0.000    0.000    0.000    0.000    0.000 
#
# Total GULP energy -89234.568449 kJ/mol
# GULP energy per Si atom -5577.160528 kJ/mol
# Density = 2.584419 g / cm^3
# Si number density = 25.903152 Si / 1000 Ang^3
#
#
#
# Elastic Constant Matrix: (Units=GPa)
#
#
# Indices 1 2 3 4 5 6 
#
# 1 113.7207 32.6063 39.3565 -8.7033 9.2519 17.8400
# 2 32.6063 72.2604 11.1671 -1.0859 5.5897 20.0847
# 3 39.3565 11.1671 69.3123 -0.3558 4.5935 -1.2761
# 4 -8.7033 -1.0859 -0.3558 46.2998 -4.9139 1.6272
# 5 9.2519 5.5897 4.5935 -4.9139 50.0500 -0.5117
# 6 17.8400 20.0847 -1.2761 1.6272 -0.5117 44.3522
#
#
#
# Elastic Compliance Matrix: (Units=1/GPa)
#
#
# Indices 1 2 3 4 5 6 
#
# 1 0.013088 -0.003635 -0.006827 0.002333 -0.001198 -0.003914
# 2 -0.003635 0.017504 -0.000791 -0.000188 -0.001295 -0.006495
# 3 -0.006827 -0.000791 0.018522 -0.001336 -0.000443 0.003681
# 4 0.002333 -0.000188 -0.001336 0.022281 0.001883 -0.001687
# 5 -0.001198 -0.001295 -0.000443 0.001883 0.020584 0.001224
# 6 -0.003914 -0.006495 0.003681 -0.001687 0.001224 0.027245
#
#
# Mechanical properties :
#
#
# Convention : Reuss Voigt Hill
#
# Bulk Modulus (GPa) = 37.58197 46.83923 42.21060
# Shear Modulus (GPa) = 33.20072 39.61796 36.40934
#
# Velocity S-wave (km/s) = 3.58400 3.91508 3.75319
# Velocity P-wave (km/s) = 5.62734 6.20958 5.92561
#
# Compressibility (1/GPa) = 0.02660850
#
# Stress axis : x y z
#
# Youngs Moduli (GPa) = 76.40309 57.12954 53.99128
#
# Poissons Ratio (x) = 0.20768 0.36859
# Poissons Ratio (y) = 0.27774 0.04269
# Poissons Ratio (z) = 0.52159 0.04517
#
# Static dielectric constant tensor:
#      x y z
#    x 2.045560 -0.032610 0.022140 
#    y -0.032610 2.064280 -0.062440 
#    z 0.022140 -0.062440 2.094680 
# 
# From -- ./inp_files/556304.got.cif
#   From: 2010.05.17/outbox.cif.g08.bks.cpg/sg2_279_cif.got.tgz:556304.got - 2010.06.03 11:33:40.
