data_PCOD9039752
_publ_section_title
;
Structure prediction by ZEFSAII (Michael W. Deem and Ramdas Pophale) SiO2 
 PCOD9039752
Probable space group: P -1
;
_chemical_formula_sum "Si O2"
_cell_formula_units_Z 14
_cell_length_a 15.977197
_cell_length_b 27.155410
_cell_length_c 17.945530
_cell_angle_alpha 162.732111
_cell_angle_beta 18.016817
_cell_angle_gamma 162.990800
_cell_volume 608.625755
_symmetry_space_group_name_H-M "P -1"
_symmetry_group_IT_number 2
_symmetry_cell_setting 'triclinic'
loop_
_space_group_symop_operation_xyz
x,y,z
-x,-y,-z
loop_
_atom_site_type_symbol
_atom_site_label
_atom_site_fract_x
_atom_site_fract_y
_atom_site_fract_z
Si Si1 0.484438 0.929319 0.327072
Si Si2 0.050266 0.232597 0.802247
Si Si3 0.461771 0.246785 0.349691
Si Si4 0.927420 0.906624 0.682949
Si Si5 0.139947 0.830061 0.778239
Si Si6 0.563920 0.607971 0.854270
Si Si7 0.409885 0.297514 0.746461
O O1 0.141416 0.847484 0.462066
O O2 0.500000 0.000000 0.500000
O O3 0.717704 0.109364 0.337480
O O4 0.585849 0.770896 0.017224
O O5 0.177164 0.142456 0.501878
O O6 0.199742 0.450969 0.955855
O O7 0.247906 0.270986 0.765690
O O8 0.685379 0.161267 0.022265
O O9 0.298019 0.240309 0.401182
O O10 0.664947 0.464888 0.526001
O O11 0.160743 0.110030 0.735500
O O12 0.753002 0.971080 0.981774
O O13 0.277693 0.717223 0.541121
O O14 0.766196 0.705987 0.899147
O O15 0.500000 0.500000 0.000000
#
# Coordination Sequence:
#
# PCOD9039752 Si02
#       7
#     2   2   2   2   2   2   2
#     4  11  24  41  70 103 135 178 231 288 348 404
#     4  10  25  45  70  98 140 185 230 275 347 406
#     4  10  26  45  69 101 142 184 230 278 345 414
#     4  11  26  43  67 102 138 177 231 286 343 410
#     4  11  24  41  69 100 135 178 230 290 344 407
#     4  10  23  42  70  97 138 182 229 282 342 410
#     4  11  25  42  71 102 138 177 235 284 346 407
#
# _framework density 23.002642000000002
#
# number of rings (size 3 to 8) (size 9 to 14) (size 15 to 20)
#    0.857    0.571    1.429    2.143   10.000    2.857 
#    0.000    1.429    0.000    0.000    0.000    0.000 
#    0.000    0.000    0.000    0.000    0.000    0.000 
#
# Total GULP energy -78198.563231 kJ/mol
# GULP energy per Si atom -5585.611659 kJ/mol
# Density = 2.295029 g / cm^3
# Si number density = 23.002642 Si / 1000 Ang^3
#
#
#
# Elastic Constant Matrix: (Units=GPa)
#
#
# Indices 1 2 3 4 5 6 
#
# 1 136.8787 5.1073 28.2360 -13.9574 0.6934 26.8805
# 2 5.1073 33.3635 -6.3208 -7.3285 1.7929 1.4576
# 3 28.2360 -6.3208 106.0687 -18.1232 -8.3075 12.6655
# 4 -13.9574 -7.3285 -18.1232 34.5667 1.3426 5.1481
# 5 0.6934 1.7929 -8.3075 1.3426 46.8426 -2.1158
# 6 26.8805 1.4576 12.6655 5.1481 -2.1158 28.8164
#
#
#
# Elastic Compliance Matrix: (Units=1/GPa)
#
#
# Indices 1 2 3 4 5 6 
#
# 1 0.009930 -0.000018 -0.000633 0.005192 -0.000858 -0.009974
# 2 -0.000018 0.033315 0.004294 0.010160 -0.001051 -0.005448
# 3 -0.000633 0.004294 0.012050 0.007841 0.001477 -0.006215
# 4 0.005192 0.010160 0.007841 0.039705 -0.000934 -0.015966
# 5 -0.000858 -0.001051 0.001477 -0.000934 0.021779 0.001970
# 6 -0.009974 -0.005448 -0.006215 -0.015966 0.001970 0.050010
#
#
# Mechanical properties :
#
#
# Convention : Reuss Voigt Hill
#
# Bulk Modulus (GPa) = 15.97931 36.70620 26.34276
# Shear Modulus (GPa) = 27.72195 38.66438 33.19316
#
# Velocity S-wave (km/s) = 3.47531 4.10429 3.80283
# Velocity P-wave (km/s) = 4.80266 6.20099 5.54607
#
# Compressibility (1/GPa) = 0.06258091
#
# Stress axis : x y z
#
# Youngs Moduli (GPa) = 100.70966 30.01627 82.98908
#
# Poissons Ratio (x) = 0.00053 0.05257
# Poissons Ratio (y) = 0.00178 -0.35637
# Poissons Ratio (z) = 0.06379 -0.12890
#
# Static dielectric constant tensor:
#      x y z
#    x 1.805420 -0.041660 0.029300 
#    y -0.041660 1.918920 -0.028980 
#    z 0.029300 -0.028980 1.903580 
# 
# From -- ./inp_files/27310.got.cif
#   From: 2010.05.17/outbox.cif.g08.bks.cpg/sg2_14_cif.got.tgz:27310.got - 2010.06.03 11:33:40.
