data_PCOD9039070
_publ_section_title
;
Structure prediction by ZEFSAII (Michael W. Deem and Ramdas Pophale) SiO2 
 PCOD9039070
Probable space group: P -1
;
_chemical_formula_sum "Si O2"
_cell_formula_units_Z 14
_cell_length_a 16.495199
_cell_length_b 6.355006
_cell_length_c 10.933201
_cell_angle_alpha 81.186428
_cell_angle_beta 33.816778
_cell_angle_gamma 82.866936
_cell_volume 630.305043
_symmetry_space_group_name_H-M "P -1"
_symmetry_group_IT_number 2
_symmetry_cell_setting 'triclinic'
loop_
_space_group_symop_operation_xyz
x,y,z
-x,-y,-z
loop_
_atom_site_type_symbol
_atom_site_label
_atom_site_fract_x
_atom_site_fract_y
_atom_site_fract_z
Si Si1 0.180537 0.832644 0.512605
Si Si2 0.596572 0.703157 0.395623
Si Si3 0.319051 0.619572 0.118667
Si Si4 0.971293 0.089928 0.891948
Si Si5 0.142808 0.443781 0.750207
Si Si6 0.673118 0.103543 0.150365
Si Si7 0.604405 0.812360 0.836116
O O1 0.223614 0.725777 0.338515
O O2 0.214439 0.652298 0.584218
O O3 0.277956 0.042030 0.389951
O O4 0.020681 0.920818 0.741106
O O5 0.500000 0.500000 0.500000
O O6 0.739716 0.658333 0.299153
O O7 0.484011 0.823521 0.613831
O O8 0.647757 0.847529 0.202919
O O9 0.318898 0.361693 0.155422
O O10 0.278624 0.751715 0.036979
O O11 0.491758 0.675197 0.910313
O O12 0.073600 0.298446 0.743081
O O13 0.801978 0.139469 0.083650
O O14 0.000000 0.000000 0.000000
O O15 0.000000 0.500000 0.000000
O O16 0.500000 0.000000 0.000000
#
# Coordination Sequence:
#
# PCOD9039070 Si02
#       7
#     2   2   2   2   2   2   2
#     4  11  24  40  71  98 133 185 233 286 345 417
#     4  11  26  41  68 105 137 182 228 295 355 404
#     4  10  23  42  66 102 140 177 233 288 354 414
#     4  12  24  45  67  96 139 186 235 278 348 423
#     4  12  24  43  71  99 138 184 237 285 348 426
#     4  11  26  44  67 103 143 179 232 294 346 416
#     4   9  21  40  66 100 134 181 224 284 349 422
#
# _framework density 22.211466000000001
#
# number of rings (size 3 to 8) (size 9 to 14) (size 15 to 20)
#    0.000    1.143    2.857    1.714   10.000    1.714 
#    0.000    2.857    0.000    0.000    0.000    0.000 
#    0.000    0.000    0.000    0.000    0.000    0.000 
#
# Total GULP energy -78012.265597 kJ/mol
# GULP energy per Si atom -5572.304686 kJ/mol
# Density = 2.216091 g / cm^3
# Si number density = 22.211466 Si / 1000 Ang^3
#
#
#
# Elastic Constant Matrix: (Units=GPa)
#
#
# Indices 1 2 3 4 5 6 
#
# 1 92.2082 39.6857 41.2409 -3.6609 -8.6778 -30.9868
# 2 39.6857 142.7945 43.7507 -27.9119 5.8602 -18.4953
# 3 41.2409 43.7507 117.2796 10.6268 0.6307 -18.1724
# 4 -3.6609 -27.9119 10.6268 56.5368 -4.0572 2.5282
# 5 -8.6778 5.8602 0.6307 -4.0572 42.1526 -4.9836
# 6 -30.9868 -18.4953 -18.1724 2.5282 -4.9836 30.9112
#
#
#
# Elastic Compliance Matrix: (Units=1/GPa)
#
#
# Indices 1 2 3 4 5 6 
#
# 1 0.019984 -0.002390 -0.003489 0.000459 0.006621 0.017582
# 2 -0.002390 0.009811 -0.003120 0.005144 -0.001193 0.001027
# 3 -0.003489 -0.003120 0.011544 -0.004057 -0.000653 0.001649
# 4 0.000459 0.005144 -0.004057 0.021137 0.001434 -0.000345
# 5 0.006621 -0.001193 -0.000653 0.001434 0.026547 0.009703
# 6 0.017582 0.001027 0.001649 -0.000345 0.009703 0.053152
#
#
# Mechanical properties :
#
#
# Convention : Reuss Voigt Hill
#
# Bulk Modulus (GPa) = 42.84230 66.84853 54.84541
# Shear Modulus (GPa) = 29.77048 41.09378 35.43213
#
# Velocity S-wave (km/s) = 3.66501 4.30596 3.99835
# Velocity P-wave (km/s) = 6.10246 7.40834 6.78688
#
# Compressibility (1/GPa) = 0.02334142
#
# Stress axis : x y z
#
# Youngs Moduli (GPa) = 50.04123 101.93084 86.62608
#
# Poissons Ratio (x) = 0.24360 0.30220
# Poissons Ratio (y) = 0.11959 0.27027
# Poissons Ratio (z) = 0.17457 0.31801
#
# Static dielectric constant tensor:
#      x y z
#    x 1.827450 0.019410 0.027810 
#    y 0.019410 1.984050 0.014890 
#    z 0.027810 0.014890 1.875160 
# 
# From -- ./inp_files/459471.got.cif
#   From: 2010.05.17/outbox.cif.g08.bks.cpg/sg2_230_cif.got.tgz:459471.got - 2010.06.03 11:33:40.
