data_PCOD9039524
_publ_section_title
;
Structure prediction by ZEFSAII (Michael W. Deem and Ramdas Pophale) SiO2 
 PCOD9039524
Probable space group: P -1
;
_chemical_formula_sum "Si O2"
_cell_formula_units_Z 14
_cell_length_a 18.747254
_cell_length_b 8.115425
_cell_length_c 5.118951
_cell_angle_alpha 66.781736
_cell_angle_beta 82.630002
_cell_angle_gamma 122.891875
_cell_volume 538.610968
_symmetry_space_group_name_H-M "P -1"
_symmetry_group_IT_number 2
_symmetry_cell_setting 'triclinic'
loop_
_space_group_symop_operation_xyz
x,y,z
-x,-y,-z
loop_
_atom_site_type_symbol
_atom_site_label
_atom_site_fract_x
_atom_site_fract_y
_atom_site_fract_z
Si Si1 0.743683 0.285555 0.190356
Si Si2 0.292985 0.254586 0.601354
Si Si3 0.214523 0.866452 0.234260
Si Si4 0.926677 0.791903 0.861867
Si Si5 0.577503 0.210779 0.629760
Si Si6 0.909932 0.106513 0.037952
Si Si7 0.533254 0.660839 0.638069
O O1 0.787801 0.225401 0.427826
O O2 0.648785 0.204464 0.428702
O O3 0.739970 0.202992 0.948538
O O4 0.824495 0.568941 0.950743
O O5 0.352070 0.533713 0.410842
O O6 0.188159 0.080477 0.636861
O O7 0.355582 0.196078 0.489274
O O8 0.274289 0.147064 0.973354
O O9 0.114627 0.767434 0.218169
O O10 0.910567 0.919424 0.001723
O O11 0.000000 0.000000 0.500000
O O12 0.988941 0.725180 0.978824
O O13 0.484969 0.772332 0.552310
O O14 0.500000 0.000000 0.000000
O O15 0.500000 0.500000 0.500000
O O16 0.500000 0.500000 0.000000
#
# Coordination Sequence:
#
# PCOD9039524 Si02
#       7
#     2   2   2   2   2   2   2
#     4  12  26  47  71 110 148 184 247 301 350 435
#     4   9  21  47  67 100 143 194 233 300 356 438
#     4  10  26  44  72 101 148 195 233 294 369 418
#     4  11  25  43  74 106 139 191 238 297 367 429
#     4  11  24  45  76 110 147 194 247 309 362 431
#     4   9  23  46  69  99 142 186 236 283 373 423
#     4  10  23  42  69 100 135 189 237 286 358 424
#
# _framework density 25.992788000000001
#
# number of rings (size 3 to 8) (size 9 to 14) (size 15 to 20)
#    0.857    0.857    1.429    0.857    6.000    9.143 
#    0.000    4.286    0.000    0.000    0.000    0.000 
#    0.000    0.000    0.000    0.000    0.000    0.000 
#
# Total GULP energy -78165.450841 kJ/mol
# GULP energy per Si atom -5583.246489 kJ/mol
# Density = 2.593363 g / cm^3
# Si number density = 25.992788 Si / 1000 Ang^3
#
#
#
# Elastic Constant Matrix: (Units=GPa)
#
#
# Indices 1 2 3 4 5 6 
#
# 1 188.1711 22.2311 43.1234 2.2826 -22.9494 -12.5103
# 2 22.2311 94.1183 31.8518 -11.7481 -15.3638 1.2485
# 3 43.1234 31.8518 146.6851 -9.3044 2.1838 10.1331
# 4 2.2826 -11.7481 -9.3044 34.2942 6.7693 -5.8959
# 5 -22.9494 -15.3638 2.1838 6.7693 50.2234 -6.1822
# 6 -12.5103 1.2485 10.1331 -5.8959 -6.1822 34.2351
#
#
#
# Elastic Compliance Matrix: (Units=1/GPa)
#
#
# Indices 1 2 3 4 5 6 
#
# 1 0.006553 -0.000425 -0.002209 -0.001285 0.003563 0.003486
# 2 -0.000425 0.012531 -0.002538 0.003171 0.003484 0.001314
# 3 -0.002209 -0.002538 0.008393 0.001512 -0.002778 -0.003440
# 4 -0.001285 0.003171 0.001512 0.032102 -0.003535 0.003858
# 5 0.003563 0.003484 -0.002778 -0.003535 0.023904 0.005705
# 6 0.003486 0.001314 -0.003440 0.003858 0.005705 0.033149
#
#
# Mechanical properties :
#
#
# Convention : Reuss Voigt Hill
#
# Bulk Modulus (GPa) = 58.36922 69.26522 63.81722
# Shear Modulus (GPa) = 37.68271 45.86844 41.77557
#
# Velocity S-wave (km/s) = 3.81167 4.20534 4.01334
# Velocity P-wave (km/s) = 6.47120 7.09123 6.78830
#
# Compressibility (1/GPa) = 0.01713232
#
# Stress axis : x y z
#
# Youngs Moduli (GPa) = 152.60815 79.80091 119.14968
#
# Poissons Ratio (x) = 0.03393 0.26326
# Poissons Ratio (y) = 0.06488 0.30235
# Poissons Ratio (z) = 0.33718 0.20250
#
# Static dielectric constant tensor:
#      x y z
#    x 2.031070 0.050540 0.117740 
#    y 0.050540 2.126680 -0.187380 
#    z 0.117740 -0.187380 2.148630 
# 
# From -- ./inp_files/115914.got.cif
#   From: 2010.05.17/outbox.cif.g08.bks.cpg/sg2_58_cif.got.tgz:115914.got - 2010.06.03 11:33:40.
