data_PCOD9039419
_publ_section_title
;
Structure prediction by ZEFSAII (Michael W. Deem and Ramdas Pophale) SiO2 
 PCOD9039419
Probable space group: P -1
;
_chemical_formula_sum "Si O2"
_cell_formula_units_Z 14
_cell_length_a 12.086797
_cell_length_b 11.203612
_cell_length_c 5.466928
_cell_angle_alpha 97.660003
_cell_angle_beta 50.928365
_cell_angle_gamma 102.154093
_cell_volume 561.861569
_symmetry_space_group_name_H-M "P -1"
_symmetry_group_IT_number 2
_symmetry_cell_setting 'triclinic'
loop_
_space_group_symop_operation_xyz
x,y,z
-x,-y,-z
loop_
_atom_site_type_symbol
_atom_site_label
_atom_site_fract_x
_atom_site_fract_y
_atom_site_fract_z
Si Si1 0.493735 0.870224 0.344689
Si Si2 0.930593 0.669305 0.716229
Si Si3 0.153415 0.574428 0.027718
Si Si4 0.003896 0.075003 0.766865
Si Si5 0.710176 0.768106 0.727713
Si Si6 0.525383 0.366848 0.329867
Si Si7 0.816316 0.220632 0.314577
O O1 0.494718 0.751759 0.490603
O O2 0.341783 0.839662 0.406148
O O3 0.500000 0.000000 0.500000
O O4 0.626644 0.870997 0.979004
O O5 0.879889 0.570803 0.969787
O O6 0.788612 0.710205 0.822435
O O7 0.015138 0.611233 0.366681
O O8 0.055791 0.772090 0.669287
O O9 0.304327 0.613795 0.973618
O O10 0.181668 0.642580 0.750291
O O11 0.153357 0.169793 0.600525
O O12 0.000000 0.000000 0.500000
O O13 0.867614 0.146030 0.994545
O O14 0.000000 0.000000 0.000000
O O15 0.590522 0.672833 0.731833
O O16 0.500000 0.500000 0.500000
#
# Coordination Sequence:
#
# PCOD9039419 Si02
#       7
#     2   2   2   2   2   2   2
#     4  11  27  49  76 109 155 203 265 323 403 469
#     4  11  23  42  75 107 150 197 258 320 394 463
#     4  10  23  42  68 107 150 194 258 315 395 460
#     4  12  28  48  78 110 155 202 262 329 398 475
#     4  12  27  47  77 112 152 204 264 325 396 478
#     4  11  27  47  75 107 155 203 260 322 398 477
#     4  11  24  45  72 105 150 198 256 320 392 467
#
# _framework density 24.917172999999998
#
# number of rings (size 3 to 8) (size 9 to 14) (size 15 to 20)
#    0.000    0.857    1.429    3.857    8.000    7.429 
#    0.000    0.000    0.000    0.000    0.000    0.000 
#    0.000    0.000    0.000    0.000    0.000    0.000 
#
# Total GULP energy -78365.580430 kJ/mol
# GULP energy per Si atom -5597.541459 kJ/mol
# Density = 2.486046 g / cm^3
# Si number density = 24.917173 Si / 1000 Ang^3
#
#
#
# Elastic Constant Matrix: (Units=GPa)
#
#
# Indices 1 2 3 4 5 6 
#
# 1 150.1853 48.9573 14.8085 10.8961 -26.5191 29.3490
# 2 48.9573 126.1135 15.5687 7.8647 2.0681 -4.0548
# 3 14.8085 15.5687 65.0538 9.7524 -28.2776 -11.2262
# 4 10.8961 7.8647 9.7524 40.0427 -0.0390 4.1842
# 5 -26.5191 2.0681 -28.2776 -0.0390 51.3264 -7.8372
# 6 29.3490 -4.0548 -11.2262 4.1842 -7.8372 41.0027
#
#
#
# Elastic Compliance Matrix: (Units=1/GPa)
#
#
# Indices 1 2 3 4 5 6 
#
# 1 0.010223 -0.004113 -0.000646 -0.001079 0.004019 -0.007023
# 2 -0.004113 0.010001 -0.002417 -0.000538 -0.003453 0.002666
# 3 -0.000646 -0.002417 0.025809 -0.006767 0.015653 0.010972
# 4 -0.001079 -0.000538 -0.006767 0.027527 -0.004990 -0.004897
# 5 0.004019 -0.003453 0.015653 -0.004990 0.031478 0.007594
# 6 -0.007023 0.002666 0.010972 -0.004897 0.007594 0.034635
#
#
# Mechanical properties :
#
#
# Convention : Reuss Voigt Hill
#
# Bulk Modulus (GPa) = 31.56599 55.55796 43.56198
# Shear Modulus (GPa) = 30.37906 43.94222 37.16064
#
# Velocity S-wave (km/s) = 3.49550 4.20400 3.86601
# Velocity P-wave (km/s) = 5.38397 6.77571 6.11954
#
# Compressibility (1/GPa) = 0.03167966
#
# Stress axis : x y z
#
# Youngs Moduli (GPa) = 97.81509 99.99489 38.74555
#
# Poissons Ratio (x) = 0.41132 0.02504
# Poissons Ratio (y) = 0.40235 0.09366
# Poissons Ratio (z) = 0.06320 0.24172
#
# Static dielectric constant tensor:
#      x y z
#    x 1.999370 -0.047760 0.052630 
#    y -0.047760 2.028880 0.031500 
#    z 0.052630 0.031500 1.960820 
# 
# From -- ./inp_files/68199.got.cif
#   From: 2010.05.17/outbox.cif.g08.bks.cpg/sg2_35_cif.got.tgz:68199.got - 2010.06.03 11:33:40.
