data_PCOD9039863
_publ_section_title
;
Structure prediction by ZEFSAII (Michael W. Deem and Ramdas Pophale) SiO2 
 PCOD9039863
Probable space group: P -1
;
_chemical_formula_sum "Si O2"
_cell_formula_units_Z 12
_cell_length_a 8.866364
_cell_length_b 15.643444
_cell_length_c 15.178991
_cell_angle_alpha 19.403540
_cell_angle_beta 49.597350
_cell_angle_gamma 49.113319
_cell_volume 524.792265
_symmetry_space_group_name_H-M "P -1"
_symmetry_group_IT_number 2
_symmetry_cell_setting 'triclinic'
loop_
_space_group_symop_operation_xyz
x,y,z
-x,-y,-z
loop_
_atom_site_type_symbol
_atom_site_label
_atom_site_fract_x
_atom_site_fract_y
_atom_site_fract_z
Si Si1 0.239328 0.916281 0.489259
Si Si2 0.134398 0.515593 0.349371
Si Si3 0.366156 0.774966 0.767979
Si Si4 0.366136 0.768907 0.386962
Si Si5 0.351868 0.930046 0.806460
Si Si6 0.244340 0.268782 0.829510
O O1 0.272141 0.766326 0.716103
O O2 0.302168 0.794634 0.488076
O O3 0.404613 0.112118 0.244228
O O4 0.000000 0.000000 0.500000
O O5 0.000000 0.500000 0.500000
O O6 0.968946 0.597882 0.256589
O O7 0.272321 0.236672 0.550779
O O8 0.270062 0.740249 0.090593
O O9 0.256429 0.848966 0.829557
O O10 0.500000 0.000000 0.500000
O O11 0.500000 0.500000 0.000000
O O12 0.325931 0.488807 0.642264
O O13 0.597429 0.789395 0.255511
O O14 0.248066 0.007468 0.140154
#
# Coordination Sequence:
#
# PCOD9039863 Si02
#       6
#     2   2   2   2   2   2
#     4  11  26  46  74 107 145 192 244 291 360 428
#     4  12  25  43  75 103 137 189 245 291 366 423
#     4  10  23  46  69  98 138 190 234 292 354 412
#     4  10  23  45  66 103 141 180 233 297 353 423
#     4  11  25  46  71 102 149 182 241 303 349 436
#     4  10  23  42  71  97 140 184 230 295 363 415
#
# _framework density 22.86619
#
# number of rings (size 3 to 8) (size 9 to 14) (size 15 to 20)
#    0.000    1.333    0.000    4.500    4.667    8.000 
#    0.000   10.000    0.000    0.000    0.000    0.000 
#    0.000    0.000    0.000    0.000    0.000    0.000 
#
# Total GULP energy -66962.872730 kJ/mol
# GULP energy per Si atom -5580.239394 kJ/mol
# Density = 2.281415 g / cm^3
# Si number density = 22.866190 Si / 1000 Ang^3
#
#
#
# Elastic Constant Matrix: (Units=GPa)
#
#
# Indices 1 2 3 4 5 6 
#
# 1 119.1116 74.7159 42.8778 8.3668 17.1205 -14.5111
# 2 74.7159 132.3298 36.0011 12.9565 2.2629 4.4039
# 3 42.8778 36.0011 106.1972 -8.0685 11.8470 -30.3519
# 4 8.3668 12.9565 -8.0685 45.3760 -7.2298 0.6938
# 5 17.1205 2.2629 11.8470 -7.2298 26.2599 8.7358
# 6 -14.5111 4.4039 -30.3519 0.6938 8.7358 33.6061
#
#
#
# Elastic Compliance Matrix: (Units=1/GPa)
#
#
# Indices 1 2 3 4 5 6 
#
# 1 0.020717 -0.012658 0.003666 -0.003276 -0.021482 0.019568
# 2 -0.012658 0.017469 -0.008388 -0.001176 0.016748 -0.019660
# 3 0.003666 -0.008388 0.020530 0.001927 -0.019098 0.026149
# 4 -0.003276 -0.001176 0.001927 0.024787 0.008979 -0.002366
# 5 -0.021482 0.016748 -0.019098 0.008979 0.078101 -0.049207
# 6 0.019568 -0.019660 0.026149 -0.002366 -0.049207 0.077239
#
#
# Mechanical properties :
#
#
# Convention : Reuss Voigt Hill
#
# Bulk Modulus (GPa) = 41.74039 73.86979 57.80509
# Shear Modulus (GPa) = 17.75644 34.65132 26.20388
#
# Velocity S-wave (km/s) = 2.78966 3.89703 3.38888
# Velocity P-wave (km/s) = 5.35445 7.25428 6.37553
#
# Compressibility (1/GPa) = 0.02395761
#
# Stress axis : x y z
#
# Youngs Moduli (GPa) = 48.26857 57.24478 48.70914
#
# Poissons Ratio (x) = 0.72461 -0.17859
# Poissons Ratio (y) = 0.61099 0.40856
# Poissons Ratio (z) = -0.17698 0.48016
#
# Static dielectric constant tensor:
#      x y z
#    x 1.912510 0.073230 0.064070 
#    y 0.073230 2.000810 0.140350 
#    z 0.064070 0.140350 2.044100 
# 
# From -- ./inp_files/88504.got.cif
#   From: 2010.05.17/outbox.cif.g08.bks.cpg/sg2_45_cif.got.tgz:88504.got - 2010.06.03 11:33:40.
