data_PCOD9039302
_publ_section_title
;
Structure prediction by ZEFSAII (Michael W. Deem and Ramdas Pophale) SiO2 
 PCOD9039302
Probable space group: P -1
;
_chemical_formula_sum "Si O2"
_cell_formula_units_Z 14
_cell_length_a 14.588226
_cell_length_b 11.455362
_cell_length_c 4.867490
_cell_angle_alpha 65.846537
_cell_angle_beta 98.790513
_cell_angle_gamma 59.638880
_cell_volume 569.700297
_symmetry_space_group_name_H-M "P -1"
_symmetry_group_IT_number 2
_symmetry_cell_setting 'triclinic'
loop_
_space_group_symop_operation_xyz
x,y,z
-x,-y,-z
loop_
_atom_site_type_symbol
_atom_site_label
_atom_site_fract_x
_atom_site_fract_y
_atom_site_fract_z
Si Si1 0.091364 0.234839 0.286491
Si Si2 0.831751 0.549889 0.713345
Si Si3 0.305135 0.991510 0.230671
Si Si4 0.745444 0.244066 0.450998
Si Si5 0.314756 0.413280 0.885840
Si Si6 0.449260 0.934757 0.842886
Si Si7 0.108757 0.946312 0.794832
O O1 0.134493 0.331587 0.339483
O O2 0.174683 0.133833 0.158171
O O3 0.103197 0.104108 0.619490
O O4 0.952882 0.368245 0.010816
O O5 0.786989 0.561087 0.377589
O O6 0.724825 0.597402 0.818760
O O7 0.328163 0.820799 0.460562
O O8 0.387742 0.009084 0.447772
O O9 0.342900 0.976304 0.949355
O O10 0.690174 0.429827 0.294498
O O11 0.780457 0.202417 0.189408
O O12 0.862662 0.128043 0.816021
O O13 0.441605 0.253055 0.995967
O O14 0.500000 0.000000 0.000000
O O15 0.000000 0.000000 0.500000
#
# Coordination Sequence:
#
# PCOD9039302 Si02
#       7
#     2   2   2   2   2   2   2
#     4  10  23  42  67  96 131 167 212 267 323 384
#     4  11  25  41  66  97 130 169 210 266 327 381
#     4  11  24  42  65  95 127 168 218 262 319 383
#     4  11  24  40  63  93 127 170 213 265 321 375
#     4  12  25  44  65  95 132 168 217 264 320 385
#     4  12  25  43  68  93 127 172 215 267 319 379
#     4  11  22  39  64  93 130 172 215 259 316 386
#
# _framework density 24.574325000000002
#
# number of rings (size 3 to 8) (size 9 to 14) (size 15 to 20)
#    0.000    0.857    0.000    7.714    0.000   10.286 
#    0.000    0.000    0.000    0.000    0.000    0.000 
#    0.000    0.000    0.000    0.000    0.000    0.000 
#
# Total GULP energy -78394.966145 kJ/mol
# GULP energy per Si atom -5599.640439 kJ/mol
# Density = 2.451839 g / cm^3
# Si number density = 24.574325 Si / 1000 Ang^3
#
#
#
# Elastic Constant Matrix: (Units=GPa)
#
#
# Indices 1 2 3 4 5 6 
#
# 1 59.8990 19.0036 0.7582 -0.8421 6.6905 11.1751
# 2 19.0036 120.0919 52.4635 -18.1679 0.2137 -1.8665
# 3 0.7582 52.4635 68.2253 11.8521 0.9668 -4.0881
# 4 -0.8421 -18.1679 11.8521 54.9387 -2.7382 2.1436
# 5 6.6905 0.2137 0.9668 -2.7382 36.0416 2.7098
# 6 11.1751 -1.8665 -4.0881 2.1436 2.7098 38.4813
#
#
#
# Elastic Compliance Matrix: (Units=1/GPa)
#
#
# Indices 1 2 3 4 5 6 
#
# 1 0.019633 -0.005249 0.003951 -0.002260 -0.003503 -0.005164
# 2 -0.005249 0.016709 -0.014302 0.008617 0.001898 0.000202
# 3 0.003951 -0.014302 0.027636 -0.010821 -0.002352 0.001863
# 4 -0.002260 0.008617 -0.010821 0.023541 0.002565 -0.001567
# 5 -0.003503 0.001898 -0.002352 0.002565 0.028741 -0.001307
# 6 -0.005164 0.000202 0.001863 -0.001567 -0.001307 0.027873
#
#
# Mechanical properties :
#
#
# Convention : Reuss Voigt Hill
#
# Bulk Modulus (GPa) = 30.50847 43.62964 37.06906
# Shear Modulus (GPa) = 26.84425 37.62505 32.23465
#
# Velocity S-wave (km/s) = 3.30869 3.91714 3.62570
# Velocity P-wave (km/s) = 5.19983 6.18476 5.71356
#
# Compressibility (1/GPa) = 0.03277778
#
# Stress axis : x y z
#
# Youngs Moduli (GPa) = 50.93522 59.84766 36.18413
#
# Poissons Ratio (x) = 0.31412 -0.14295
# Poissons Ratio (y) = 0.26734 0.51752
# Poissons Ratio (z) = -0.20123 0.85596
#
# Static dielectric constant tensor:
#      x y z
#    x 2.039880 0.019130 0.035540 
#    y 0.019130 1.879990 -0.014420 
#    z 0.035540 -0.014420 1.967710 
# 
# From -- ./inp_files/94422.got.cif
#   From: 2010.05.17/outbox.cif.g08.bks.cpg/sg2_48_cif.got.tgz:94422.got - 2010.06.03 11:33:40.
