data_PCOD9039549
_publ_section_title
;
Structure prediction by ZEFSAII (Michael W. Deem and Ramdas Pophale) SiO2 
 PCOD9039549
Probable space group: P -1
;
_chemical_formula_sum "Si O2"
_cell_formula_units_Z 14
_cell_length_a 19.963535
_cell_length_b 18.049578
_cell_length_c 8.233867
_cell_angle_alpha 145.004957
_cell_angle_beta 135.359634
_cell_angle_gamma 20.951769
_cell_volume 587.370586
_symmetry_space_group_name_H-M "P -1"
_symmetry_group_IT_number 2
_symmetry_cell_setting 'triclinic'
loop_
_space_group_symop_operation_xyz
x,y,z
-x,-y,-z
loop_
_atom_site_type_symbol
_atom_site_label
_atom_site_fract_x
_atom_site_fract_y
_atom_site_fract_z
Si Si1 0.121761 0.503537 0.072341
Si Si2 0.519370 0.329500 0.786619
Si Si3 0.328796 0.729640 0.746924
Si Si4 0.838807 0.277445 0.302871
Si Si5 0.322552 0.157838 0.365459
Si Si6 0.011006 0.303165 0.160866
Si Si7 0.708138 0.889762 0.114417
O O1 0.086823 0.677892 0.417357
O O2 0.929577 0.644560 0.002846
O O3 0.287829 0.228235 0.957605
O O4 0.122487 0.533521 0.937713
O O5 0.310898 0.516387 0.729306
O O6 0.651467 0.087390 0.463770
O O7 0.500000 0.500000 0.000000
O O8 0.590144 0.260479 0.966917
O O9 0.500000 0.500000 0.500000
O O10 0.267578 0.676663 0.652748
O O11 0.130823 0.028648 0.876885
O O12 0.000000 0.000000 0.000000
O O13 0.181639 0.211673 0.295038
O O14 0.159620 0.459708 0.581582
O O15 0.500000 0.000000 0.500000
O O16 0.397524 0.008673 0.056920
#
# Coordination Sequence:
#
# PCOD9039549 Si02
#       7
#     2   2   2   2   2   2   2
#     4  10  23  42  69 101 143 184 249 299 369 438
#     4  10  24  44  71 100 144 192 244 297 368 449
#     4  11  27  47  75 102 149 205 246 305 389 443
#     4  11  26  45  72 106 144 192 258 310 365 451
#     4  10  24  43  71 105 150 194 248 314 377 449
#     4  10  25  44  67 104 153 191 247 318 377 437
#     4  10  23  43  75 100 142 198 242 298 377 445
#
# _framework density 23.835038000000001
#
# number of rings (size 3 to 8) (size 9 to 14) (size 15 to 20)
#    0.000    1.714    0.000    1.714   22.000    2.286 
#    0.000    0.000    0.000    0.000    0.000    0.000 
#    0.000    0.000    0.000    0.000    0.000    0.000 
#
# Total GULP energy -78129.712620 kJ/mol
# GULP energy per Si atom -5580.693759 kJ/mol
# Density = 2.378079 g / cm^3
# Si number density = 23.835038 Si / 1000 Ang^3
#
#
#
# Elastic Constant Matrix: (Units=GPa)
#
#
# Indices 1 2 3 4 5 6 
#
# 1 84.6096 35.1414 36.2110 0.4561 1.8359 0.1671
# 2 35.1414 117.6503 46.0023 -17.2531 -5.0447 11.5098
# 3 36.2110 46.0023 158.3879 -11.8265 -14.0519 22.7691
# 4 0.4561 -17.2531 -11.8265 58.1168 0.7344 2.0662
# 5 1.8359 -5.0447 -14.0519 0.7344 33.0989 2.2431
# 6 0.1671 11.5098 22.7691 2.0662 2.2431 35.1995
#
#
#
# Elastic Compliance Matrix: (Units=1/GPa)
#
#
# Indices 1 2 3 4 5 6 
#
# 1 0.014907 -0.003987 -0.003185 -0.002039 -0.002986 0.003603
# 2 -0.003987 0.011088 -0.001541 0.003094 0.001383 -0.002880
# 3 -0.003185 -0.001541 0.008742 0.001491 0.003991 -0.005478
# 4 -0.002039 0.003094 0.001491 0.018543 0.001018 -0.003120
# 5 -0.002986 0.001383 0.003991 0.001018 0.032610 -0.005158
# 6 0.003603 -0.002880 -0.005478 -0.003120 -0.005158 0.033389
#
#
# Mechanical properties :
#
#
# Convention : Reuss Voigt Hill
#
# Bulk Modulus (GPa) = 57.76752 66.15082 61.95917
# Shear Modulus (GPa) = 35.09368 41.50256 38.29812
#
# Velocity S-wave (km/s) = 3.84129 4.17735 4.01284
# Velocity P-wave (km/s) = 6.63046 7.14708 6.89361
#
# Compressibility (1/GPa) = 0.01731077
#
# Stress axis : x y z
#
# Youngs Moduli (GPa) = 67.08424 90.18782 114.38551
#
# Poissons Ratio (x) = 0.35954 0.36434
# Poissons Ratio (y) = 0.26744 0.17630
# Poissons Ratio (z) = 0.21368 0.13900
#
# Static dielectric constant tensor:
#      x y z
#    x 2.019530 0.005650 -0.207570 
#    y 0.005650 1.971720 0.062100 
#    z -0.207570 0.062100 2.475790 
# 
# From -- ./inp_files/355320.got.cif
#   From: 2010.05.17/outbox.cif.g08.bks.cpg/sg2_178_cif.got.tgz:355320.got - 2010.06.03 11:33:40.
