data_PCOD9039129
_publ_section_title
;
Structure prediction by ZEFSAII (Michael W. Deem and Ramdas Pophale) SiO2 
 PCOD9039129
Probable space group: P -1
;
_chemical_formula_sum "Si O2"
_cell_formula_units_Z 12
_cell_length_a 18.991138
_cell_length_b 15.143329
_cell_length_c 6.462387
_cell_angle_alpha 56.363595
_cell_angle_beta 61.636766
_cell_angle_gamma 19.971477
_cell_volume 521.673520
_symmetry_space_group_name_H-M "P -1"
_symmetry_group_IT_number 2
_symmetry_cell_setting 'triclinic'
loop_
_space_group_symop_operation_xyz
x,y,z
-x,-y,-z
loop_
_atom_site_type_symbol
_atom_site_label
_atom_site_fract_x
_atom_site_fract_y
_atom_site_fract_z
Si Si1 0.763525 0.295928 0.375395
Si Si2 0.689862 0.794607 0.850897
Si Si3 0.595806 0.121025 0.337646
Si Si4 0.756783 0.515459 0.883035
Si Si5 0.367116 0.736485 0.605932
Si Si6 0.880961 0.831468 0.960890
O O1 0.604840 0.444519 0.572546
O O2 0.722470 0.272529 0.261570
O O3 0.706097 0.487408 0.159597
O O4 0.000000 0.000000 0.500000
O O5 0.660527 0.748208 0.762018
O O6 0.682582 0.924471 0.622559
O O7 0.924612 0.473525 0.008715
O O8 0.500000 0.000000 0.000000
O O9 0.350553 0.396106 0.287595
O O10 0.631026 0.193628 0.286638
O O11 0.717390 0.965105 0.151485
O O12 0.000008 0.239494 0.943762
O O13 0.232639 0.963118 0.323863
#
# Coordination Sequence:
#
# PCOD9039129 Si02
#       6
#     2   2   2   2   2   2
#     4  11  21  45  70  93 134 175 221 277 324 403
#     4  10  23  43  71  96 135 182 220 266 337 392
#     4  12  24  44  67 101 138 170 224 280 324 398
#     4  10  23  42  66  95 139 170 222 273 330 389
#     4  11  25  41  71  97 129 179 224 267 342 385
#     4  10  24  44  65 101 133 174 222 271 332 394
#
# _framework density 23.002891999999999
#
# number of rings (size 3 to 8) (size 9 to 14) (size 15 to 20)
#    1.000    0.333    3.333    2.000    0.000    4.000 
#    0.000    1.667    0.000    0.000    0.000    0.000 
#    0.000    0.000    0.000    0.000    0.000    0.000 
#
# Total GULP energy -66935.283898 kJ/mol
# GULP energy per Si atom -5577.940325 kJ/mol
# Density = 2.295054 g / cm^3
# Si number density = 23.002892 Si / 1000 Ang^3
#
#
#
# Elastic Constant Matrix: (Units=GPa)
#
#
# Indices 1 2 3 4 5 6 
#
# 1 104.2122 18.4798 -15.8480 -11.8790 2.4206 -12.1262
# 2 18.4798 103.6647 24.7404 -25.0044 15.5321 -15.2285
# 3 -15.8480 24.7404 40.3810 -20.5732 5.4619 -4.8838
# 4 -11.8790 -25.0044 -20.5732 27.8285 -13.6097 5.3677
# 5 2.4206 15.5321 5.4619 -13.6097 29.4317 -3.7018
# 6 -12.1262 -15.2285 -4.8838 5.3677 -3.7018 32.5790
#
#
#
# Elastic Compliance Matrix: (Units=1/GPa)
#
#
# Indices 1 2 3 4 5 6 
#
# 1 0.015077 -0.002392 0.016642 0.018718 0.006169 0.004605
# 2 -0.002392 0.013606 -0.006222 0.004265 -0.003423 0.003445
# 3 0.016642 -0.006222 0.060658 0.053076 0.015885 0.005439
# 4 0.018718 0.004265 0.053076 0.103145 0.034539 0.003848
# 5 0.006169 -0.003423 0.015885 0.034539 0.048666 0.002916
# 6 0.004605 0.003445 0.005439 0.003848 0.002916 0.034532
#
#
# Mechanical properties :
#
#
# Convention : Reuss Voigt Hill
#
# Bulk Modulus (GPa) = 9.48808 33.66693 21.57751
# Shear Modulus (GPa) = 16.96296 32.69355 24.82825
#
# Velocity S-wave (km/s) = 2.71851 3.77408 3.28892
# Velocity P-wave (km/s) = 3.73997 5.80166 4.88092
#
# Compressibility (1/GPa) = 0.10539536
#
# Stress axis : x y z
#
# Youngs Moduli (GPa) = 66.32614 73.49904 16.48598
#
# Poissons Ratio (x) = 0.17583 -0.27436
# Poissons Ratio (y) = 0.15867 0.10257
# Poissons Ratio (z) = -1.10378 0.45730
#
# Static dielectric constant tensor:
#      x y z
#    x 1.926420 0.012360 0.030900 
#    y 0.012360 1.850950 -0.010810 
#    z 0.030900 -0.010810 1.840010 
# 
# From -- ./inp_files/347772.got.cif
#   From: 2010.05.17/outbox.cif.g08.bks.cpg/sg2_174_cif.got.tgz:347772.got - 2010.06.03 11:33:40.
