data_PCOD9039560
_publ_section_title
;
Structure prediction by ZEFSAII (Michael W. Deem and Ramdas Pophale) SiO2 
 PCOD9039560
Probable space group: P -1
;
_chemical_formula_sum "Si O2"
_cell_formula_units_Z 16
_cell_length_a 19.013953
_cell_length_b 9.656722
_cell_length_c 7.057272
_cell_angle_alpha 134.403228
_cell_angle_beta 45.731435
_cell_angle_gamma 135.145968
_cell_volume 598.183606
_symmetry_space_group_name_H-M "P -1"
_symmetry_group_IT_number 2
_symmetry_cell_setting 'triclinic'
loop_
_space_group_symop_operation_xyz
x,y,z
-x,-y,-z
loop_
_atom_site_type_symbol
_atom_site_label
_atom_site_fract_x
_atom_site_fract_y
_atom_site_fract_z
Si Si1 0.263978 0.124220 0.189857
Si Si2 0.988318 0.589698 0.404115
Si Si3 0.553866 0.992325 0.685392
Si Si4 0.621032 0.431202 0.507289
Si Si5 0.131331 0.145454 0.125207
Si Si6 0.311231 0.585108 0.044312
Si Si7 0.236487 0.951060 0.494303
Si Si8 0.814533 0.339012 0.179432
O O1 0.370969 0.350848 0.202666
O O2 0.163267 0.126166 0.262050
O O3 0.239716 0.063060 0.396696
O O4 0.267552 0.912319 0.893284
O O5 0.973239 0.809462 0.656203
O O6 0.881555 0.436729 0.337589
O O7 0.091159 0.626312 0.116068
O O8 0.000000 0.500000 0.500000
O O9 0.470612 0.811580 0.534136
O O10 0.610551 0.249742 0.786512
O O11 0.650269 0.923802 0.486458
O O12 0.500000 0.000000 0.000000
O O13 0.738936 0.447713 0.358661
O O14 0.626437 0.452051 0.287153
O O15 0.228991 0.359061 0.061298
O O16 0.140179 0.956853 0.807292
O O17 0.247795 0.727503 0.229447
#
# Coordination Sequence:
#
# PCOD9039560 Si02
#       8
#     2   2   2   2   2   2   2   2
#     4  12  25  40  73 104 139 182 225 285 345 404
#     4  11  27  48  77  96 133 181 229 286 356 416
#     4   8  18  39  72 100 133 198 230 268 336 405
#     4  11  19  44  72  96 141 186 230 278 342 399
#     4  12  25  43  70 105 139 178 231 291 347 410
#     4   9  20  42  67  99 144 184 232 275 332 406
#     4  10  23  42  69 102 142 186 229 277 337 405
#     4  11  25  48  69 103 136 175 233 287 344 415
#
# _framework density 26.747643
#
# number of rings (size 3 to 8) (size 9 to 14) (size 15 to 20)
#    0.750    0.750    3.750    0.750    1.750    1.000 
#    2.250    2.500    0.000    0.000    0.000    0.000 
#    0.000    0.000    0.000    0.000    0.000    0.000 
#
# Total GULP energy -89454.125333 kJ/mol
# GULP energy per Si atom -5590.882833 kJ/mol
# Density = 2.668676 g / cm^3
# Si number density = 26.747643 Si / 1000 Ang^3
#
#
#
# Elastic Constant Matrix: (Units=GPa)
#
#
# Indices 1 2 3 4 5 6 
#
# 1 143.4382 14.6661 28.7412 -1.2287 23.5023 -1.7761
# 2 14.6661 76.4703 3.5565 11.9900 13.9255 3.0355
# 3 28.7412 3.5565 103.7898 10.8987 6.7848 2.8529
# 4 -1.2287 11.9900 10.8987 49.6713 5.9638 19.9294
# 5 23.5023 13.9255 6.7848 5.9638 42.3955 13.6170
# 6 -1.7761 3.0355 2.8529 19.9294 13.6170 57.3002
#
#
#
# Elastic Compliance Matrix: (Units=1/GPa)
#
#
# Indices 1 2 3 4 5 6 
#
# 1 0.008228 -0.000867 -0.002090 0.000951 -0.004439 0.001129
# 2 -0.000867 0.014531 0.000371 -0.003692 -0.004312 0.001494
# 3 -0.002090 0.000371 0.010484 -0.002543 -0.000404 0.000374
# 4 0.000951 -0.003692 -0.002543 0.024937 0.000279 -0.008388
# 5 -0.004439 -0.004312 -0.000404 0.000279 0.029757 -0.007057
# 6 0.001129 0.001494 0.000374 -0.008388 -0.007057 0.021984
#
#
# Mechanical properties :
#
#
# Convention : Reuss Voigt Hill
#
# Bulk Modulus (GPa) = 35.62285 46.40286 41.01285
# Shear Modulus (GPa) = 40.17710 48.32236 44.24973
#
# Velocity S-wave (km/s) = 3.87987 4.25503 4.07177
# Velocity P-wave (km/s) = 5.78085 6.44410 6.12146
#
# Compressibility (1/GPa) = 0.02807187
#
# Stress axis : x y z
#
# Youngs Moduli (GPa) = 121.53056 68.81951 95.38386
#
# Poissons Ratio (x) = 0.05963 0.19932
# Poissons Ratio (y) = 0.10531 -0.03534
# Poissons Ratio (z) = 0.25395 -0.02550
#
# Static dielectric constant tensor:
#      x y z
#    x 2.072860 0.033990 0.030170 
#    y 0.033990 2.165010 0.010460 
#    z 0.030170 0.010460 2.123410 
# 
# From -- ./inp_files/343013.got.cif
#   From: 2010.05.17/outbox.cif.g08.bks.cpg/sg2_172_cif.got.tgz:343013.got - 2010.06.03 11:33:40.
