data_PCOD9039767
_publ_section_title
;
Structure prediction by ZEFSAII (Michael W. Deem and Ramdas Pophale) SiO2 
 PCOD9039767
Probable space group: P -1
;
_chemical_formula_sum "Si O2"
_cell_formula_units_Z 10
_cell_length_a 15.499598
_cell_length_b 5.186521
_cell_length_c 7.548883
_cell_angle_alpha 94.194308
_cell_angle_beta 49.938324
_cell_angle_gamma 64.594008
_cell_volume 362.057637
_symmetry_space_group_name_H-M "P -1"
_symmetry_group_IT_number 2
_symmetry_cell_setting 'triclinic'
loop_
_space_group_symop_operation_xyz
x,y,z
-x,-y,-z
loop_
_atom_site_type_symbol
_atom_site_label
_atom_site_fract_x
_atom_site_fract_y
_atom_site_fract_z
Si Si1 0.380136 0.504299 0.750953
Si Si2 0.353035 0.126978 0.492828
Si Si3 0.974683 0.922576 0.339445
Si Si4 0.096209 0.250474 0.017937
Si Si5 0.334198 0.822550 0.189466
O O1 0.500000 0.500000 0.500000
O O2 0.312248 0.437440 0.675705
O O3 0.475360 0.157236 0.719553
O O4 0.311876 0.786429 0.007967
O O5 0.324089 0.114076 0.321864
O O6 0.257196 0.052570 0.722353
O O7 0.804516 0.124787 0.541886
O O8 0.040869 0.048864 0.132678
O O9 0.000000 0.000000 0.500000
O O10 0.058527 0.529015 0.220113
O O11 0.000000 0.500000 0.000000
O O12 0.500000 0.500000 0.000000
#
# Coordination Sequence:
#
# PCOD9039767 Si02
#       5
#     2   2   2   2   2
#     4  10  23  42  70  99 143 187 244 308 372 441
#     4  10  23  43  67 104 139 191 245 303 371 444
#     4  12  27  48  74 112 151 197 249 313 376 452
#     4  12  26  46  77 104 150 195 250 306 378 449
#     4  10  23  46  69 106 144 192 250 304 372 445
#
# _framework density 27.619911999999999
#
# number of rings (size 3 to 8) (size 9 to 14) (size 15 to 20)
#    0.000    1.200    2.000    2.400    5.600    2.400 
#    7.200    0.000    0.000    0.000    0.000    0.000 
#    0.000    0.000    0.000    0.000    0.000    0.000 
#
# Total GULP energy -55803.873519 kJ/mol
# GULP energy per Si atom -5580.387352 kJ/mol
# Density = 2.755705 g / cm^3
# Si number density = 27.619912 Si / 1000 Ang^3
#
#
#
# Elastic Constant Matrix: (Units=GPa)
#
#
# Indices 1 2 3 4 5 6 
#
# 1 180.9616 59.5275 63.1440 30.0606 40.8709 60.2020
# 2 59.5275 127.8449 65.2674 9.6123 -2.3539 25.3801
# 3 63.1440 65.2674 160.6542 9.4768 -2.7825 20.1919
# 4 30.0606 9.6123 9.4768 50.5423 9.1514 -2.3022
# 5 40.8709 -2.3539 -2.7825 9.1514 84.8540 26.7667
# 6 60.2020 25.3801 20.1919 -2.3022 26.7667 52.5291
#
#
#
# Elastic Compliance Matrix: (Units=1/GPa)
#
#
# Indices 1 2 3 4 5 6 
#
# 1 0.012360 -0.001734 -0.002273 -0.006856 -0.001565 -0.011957
# 2 -0.001734 0.011080 -0.003317 -0.000993 0.002162 -0.003236
# 3 -0.002273 -0.003317 0.008421 0.000218 0.001128 0.000406
# 4 -0.006856 -0.000993 0.000218 0.025013 -0.002818 0.010786
# 5 -0.001565 0.002162 0.001128 -0.002818 0.015345 -0.007627
# 6 -0.011957 -0.003236 0.000406 0.010786 -0.007627 0.038507
#
#
# Mechanical properties :
#
#
# Convention : Reuss Voigt Hill
#
# Bulk Modulus (GPa) = 58.09917 93.92650 76.01284
# Shear Modulus (GPa) = 38.13546 56.35320 47.24433
#
# Velocity S-wave (km/s) = 3.71984 4.52188 4.14033
# Velocity P-wave (km/s) = 6.28733 7.83223 7.10191
#
# Compressibility (1/GPa) = 0.01721195
#
# Stress axis : x y z
#
# Youngs Moduli (GPa) = 80.90776 90.25608 118.74744
#
# Poissons Ratio (x) = 0.15651 0.26995
# Poissons Ratio (y) = 0.14030 0.39388
# Poissons Ratio (z) = 0.18393 0.29937
#
# Static dielectric constant tensor:
#      x y z
#    x 2.345030 0.086440 0.136790 
#    y 0.086440 2.541360 0.250470 
#    z 0.136790 0.250470 2.277380 
# 
# From -- ./inp_files/18171.got.cif
#   From: 2010.05.17/outbox.cif.g08.bks.cpg/sg2_10_cif.got.tgz:18171.got - 2010.06.03 11:33:40.
