data_PCOD9039552
_publ_section_title
;
Structure prediction by ZEFSAII (Michael W. Deem and Ramdas Pophale) SiO2 
 PCOD9039552
Probable space group: P -1
;
_chemical_formula_sum "Si O2"
_cell_formula_units_Z 14
_cell_length_a 19.800595
_cell_length_b 5.299981
_cell_length_c 12.574962
_cell_angle_alpha 99.464536
_cell_angle_beta 22.764284
_cell_angle_gamma 99.259132
_cell_volume 503.527549
_symmetry_space_group_name_H-M "P -1"
_symmetry_group_IT_number 2
_symmetry_cell_setting 'triclinic'
loop_
_space_group_symop_operation_xyz
x,y,z
-x,-y,-z
loop_
_atom_site_type_symbol
_atom_site_label
_atom_site_fract_x
_atom_site_fract_y
_atom_site_fract_z
Si Si1 0.662480 0.438439 0.836149
Si Si2 0.985002 0.232837 0.238385
Si Si3 0.829868 0.226457 0.941956
Si Si4 0.309584 0.174189 0.025503
Si Si5 0.789239 0.771222 0.277353
Si Si6 0.600145 0.237065 0.465092
Si Si7 0.429032 0.056293 0.225189
O O1 0.788356 0.278745 0.565859
O O2 0.500000 0.500000 0.000000
O O3 0.779904 0.649738 0.744195
O O4 0.564871 0.295204 0.064117
O O5 0.086433 0.490204 0.152099
O O6 0.053215 0.977303 0.177154
O O7 0.025546 0.232787 0.052771
O O8 0.645654 0.232135 0.273707
O O9 0.797466 0.080722 0.867668
O O10 0.398104 0.267072 0.793171
O O11 0.489603 0.146005 0.828606
O O12 0.708707 0.487056 0.363978
O O13 0.754197 0.851407 0.456520
O O14 0.683226 0.978861 0.376113
O O15 0.500000 0.000000 0.000000
#
# Coordination Sequence:
#
# PCOD9039552 Si02
#       7
#     2   2   2   2   2   2   2
#     4  12  26  45  68  94 132 181 229 278 327 395
#     4  10  25  45  68  99 140 170 221 275 339 398
#     4  10  23  42  69 102 137 175 213 278 338 398
#     4  11  23  39  68  99 135 177 224 270 333 397
#     4   9  19  40  66  94 132 174 218 274 329 386
#     4   9  18  37  65  99 132 170 220 266 327 398
#     4  11  23  42  67  96 136 179 231 273 322 394
#
# _framework density 27.803840999999998
#
# number of rings (size 3 to 8) (size 9 to 14) (size 15 to 20)
#    0.000    1.714    2.857    0.429    4.000    1.143 
#    0.000    7.143    0.000    0.000    0.000    0.000 
#    0.000    0.000    0.000    0.000    0.000    0.000 
#
# Total GULP energy -78112.975902 kJ/mol
# GULP energy per Si atom -5579.498279 kJ/mol
# Density = 2.774056 g / cm^3
# Si number density = 27.803841 Si / 1000 Ang^3
#
#
#
# Elastic Constant Matrix: (Units=GPa)
#
#
# Indices 1 2 3 4 5 6 
#
# 1 84.4031 31.6334 39.9687 18.4504 2.7567 10.7832
# 2 31.6334 135.5333 18.4644 9.3183 3.2885 2.2154
# 3 39.9687 18.4644 193.1601 13.4022 22.2990 9.4188
# 4 18.4504 9.3183 13.4022 43.2481 12.6289 18.1590
# 5 2.7567 3.2885 22.2990 12.6289 31.7180 18.9585
# 6 10.7832 2.2154 9.4188 18.1590 18.9585 55.2896
#
#
#
# Elastic Compliance Matrix: (Units=1/GPa)
#
#
# Indices 1 2 3 4 5 6 
#
# 1 0.015723 -0.002953 -0.003006 -0.005560 0.004568 -0.002176
# 2 -0.002953 0.008122 -0.000077 -0.000544 -0.000728 0.000692
# 3 -0.003006 -0.000077 0.006302 0.000328 -0.004953 0.001107
# 4 -0.005560 -0.000544 0.000328 0.030476 -0.008139 -0.006169
# 5 0.004568 -0.000728 -0.004953 -0.008139 0.045711 -0.013019
# 6 -0.002176 0.000692 0.001107 -0.006169 -0.013019 0.024785
#
#
# Mechanical properties :
#
#
# Convention : Reuss Voigt Hill
#
# Bulk Modulus (GPa) = 55.33312 65.91438 60.62375
# Shear Modulus (GPa) = 33.50853 47.58646 40.54750
#
# Velocity S-wave (km/s) = 3.47533 4.14152 3.82297
# Velocity P-wave (km/s) = 6.00403 6.82847 6.42948
#
# Compressibility (1/GPa) = 0.01807236
#
# Stress axis : x y z
#
# Youngs Moduli (GPa) = 63.60292 123.12551 158.68966
#
# Poissons Ratio (x) = 0.36360 0.47710
# Poissons Ratio (y) = 0.18782 0.01226
# Poissons Ratio (z) = 0.19122 0.00951
#
# Static dielectric constant tensor:
#      x y z
#    x 78.268080 -40.090130 11.339050 
#    y -40.090130 23.787460 -5.886740 
#    z 11.339050 -5.886740 3.928670 
# 
# From -- ./inp_files/542058.got.cif
#   From: 2010.05.17/outbox.cif.g08.bks.cpg/sg2_272_cif.got.tgz:542058.got - 2010.06.03 11:33:40.
