data_PCOD9039551
_publ_section_title
;
Structure prediction by ZEFSAII (Michael W. Deem and Ramdas Pophale) SiO2 
 PCOD9039551
Probable space group: P -1
;
_chemical_formula_sum "Si O2"
_cell_formula_units_Z 14
_cell_length_a 11.119637
_cell_length_b 12.871443
_cell_length_c 8.455576
_cell_angle_alpha 32.686211
_cell_angle_beta 64.503744
_cell_angle_gamma 57.059184
_cell_volume 547.499259
_symmetry_space_group_name_H-M "P -1"
_symmetry_group_IT_number 2
_symmetry_cell_setting 'triclinic'
loop_
_space_group_symop_operation_xyz
x,y,z
-x,-y,-z
loop_
_atom_site_type_symbol
_atom_site_label
_atom_site_fract_x
_atom_site_fract_y
_atom_site_fract_z
Si Si1 0.924863 0.792176 0.524880
Si Si2 0.467594 0.219742 0.395472
Si Si3 0.170996 0.487642 0.304453
Si Si4 0.359960 0.086770 0.077567
Si Si5 0.937103 0.839435 0.808359
Si Si6 0.766777 0.438403 0.477702
Si Si7 0.341822 0.857330 0.898136
O O1 0.874644 0.666295 0.582840
O O2 0.902006 0.747224 0.779913
O O3 0.097228 0.709575 0.510859
O O4 0.815374 0.024906 0.244679
O O5 0.340988 0.423646 0.262506
O O6 0.528899 0.258934 0.146023
O O7 0.606862 0.093321 0.579621
O O8 0.394483 0.045351 0.669963
O O9 0.163047 0.504681 0.475713
O O10 0.064193 0.696242 0.025435
O O11 0.207259 0.092197 0.094614
O O12 0.329704 0.328885 0.827084
O O13 0.500000 0.000000 0.000000
O O14 0.000000 0.000000 0.500000
O O15 0.677824 0.298654 0.761922
#
# Coordination Sequence:
#
# PCOD9039551 Si02
#       7
#     2   2   2   2   2   2   2
#     4  11  23  44  70 103 142 182 236 290 355 421
#     4  10  23  45  69  96 142 185 232 287 359 421
#     4  11  24  43  72  99 138 192 232 287 351 421
#     4  12  26  46  70 105 145 183 237 300 355 412
#     4  12  27  46  74 105 144 189 240 291 358 427
#     4  12  25  41  72 105 142 182 241 293 352 414
#     4  10  23  42  69 102 135 184 234 292 350 423
#
# _framework density 25.570810000000002
#
# number of rings (size 3 to 8) (size 9 to 14) (size 15 to 20)
#    0.000    0.857    4.286    2.143    0.000    3.429 
#    0.000    0.000    0.000    0.000    0.000    0.000 
#    0.000    0.000    0.000    0.000    0.000    0.000 
#
# Total GULP energy -78084.272804 kJ/mol
# GULP energy per Si atom -5577.448057 kJ/mol
# Density = 2.551261 g / cm^3
# Si number density = 25.570810 Si / 1000 Ang^3
#
#
#
# Elastic Constant Matrix: (Units=GPa)
#
#
# Indices 1 2 3 4 5 6 
#
# 1 394.7036 -444.2899 -95.6830 -90.6754 190.3965 242.4444
# 2 -444.2899 854.6978 247.7019 107.7379 -291.9648 -404.2460
# 3 -95.6830 247.7019 132.3064 36.3358 -99.4228 -163.3984
# 4 -90.6754 107.7379 36.3358 44.3493 -50.9885 -32.0477
# 5 190.3965 -291.9648 -99.4228 -50.9885 174.9275 139.7902
# 6 242.4444 -404.2460 -163.3984 -32.0477 139.7902 225.7754
#
#
#
# Elastic Compliance Matrix: (Units=1/GPa)
#
#
# Indices 1 2 3 4 5 6 
#
# 1 0.002020 0.004067 0.006483 -0.005181 -0.000957 0.009663
# 2 0.004067 0.005884 -0.005857 0.001450 0.001547 0.001177
# 3 0.006483 -0.005857 0.000024 0.016697 0.000167 -0.015164
# 4 -0.005181 0.001450 0.016697 0.017370 0.008837 0.017237
# 5 -0.000957 0.001547 0.000167 0.008837 0.015592 -0.004481
# 6 0.009663 0.001177 -0.015164 0.017237 -0.004481 -0.009593
#
#
# Mechanical properties :
#
#
# Convention : Reuss Voigt Hill
#
# Bulk Modulus (GPa) = 57.75523 88.57399 73.16461
# Shear Modulus (GPa) = 180.63404 200.60904 190.62154
#
# Velocity S-wave (km/s) = 8.41392 8.86694 8.64340
# Velocity P-wave (km/s) = 10.81793 11.81288 11.32633
#
# Compressibility (1/GPa) = 0.01731445
#
# Stress axis : x y z
#
# Youngs Moduli (GPa) = 495.15781 169.95632 41675.23272
#
# Poissons Ratio (x) = -0.69127 -270.17673
# Poissons Ratio (y) = -2.01398 244.08114
# Poissons Ratio (z) = -3.21006 0.99539
#
# Static dielectric constant tensor:
#      x y z
#    x 2.155400 0.060490 0.004470 
#    y 0.060490 2.082210 -0.048750 
#    z 0.004470 -0.048750 2.066720 
# 
# From -- ./inp_files/271311.got.cif
#   From: 2010.05.17/outbox.cif.g08.bks.cpg/sg2_136_cif.got.tgz:271311.got - 2010.06.03 11:33:40.
