data_PCOD9039622
_publ_section_title
;
Structure prediction by ZEFSAII (Michael W. Deem and Ramdas Pophale) SiO2 
 PCOD9039622
Probable space group: P -1
;
_chemical_formula_sum "Si O2"
_cell_formula_units_Z 16
_cell_length_a 11.618874
_cell_length_b 15.577337
_cell_length_c 8.125936
_cell_angle_alpha 85.059675
_cell_angle_beta 74.290013
_cell_angle_gamma 31.071443
_cell_volume 698.521997
_symmetry_space_group_name_H-M "P -1"
_symmetry_group_IT_number 2
_symmetry_cell_setting 'triclinic'
loop_
_space_group_symop_operation_xyz
x,y,z
-x,-y,-z
loop_
_atom_site_type_symbol
_atom_site_label
_atom_site_fract_x
_atom_site_fract_y
_atom_site_fract_z
Si Si1 0.238804 0.113442 0.216659
Si Si2 0.144649 0.861923 0.318022
Si Si3 0.293568 0.121219 0.815575
Si Si4 0.753338 0.040015 0.222903
Si Si5 0.272701 0.605824 0.473374
Si Si6 0.513798 0.214820 0.928414
Si Si7 0.989610 0.474971 0.772444
Si Si8 0.706384 0.601813 0.531227
O O1 0.971331 0.261359 0.353635
O O2 0.412396 0.061724 0.275134
O O3 0.380399 0.934467 0.178814
O O4 0.238920 0.152144 0.027107
O O5 0.202751 0.726937 0.360245
O O6 0.387366 0.762665 0.203500
O O7 0.000000 0.000000 0.500000
O O8 0.973875 0.960949 0.208005
O O9 0.168322 0.283639 0.765677
O O10 0.196141 0.093757 0.780324
O O11 0.542356 0.190505 0.410706
O O12 0.642210 0.132013 0.072463
O O13 0.500000 0.500000 0.500000
O O14 0.347120 0.464764 0.408223
O O15 0.227299 0.385517 0.035351
O O16 0.851273 0.540465 0.645675
O O17 0.136063 0.470476 0.676448
#
# Coordination Sequence:
#
# PCOD9039622 Si02
#       8
#     2   2   2   2   2   2   2   2
#     4  10  24  42  65  97 134 177 221 272 333 396
#     4  12  24  44  70  99 132 178 230 268 332 402
#     4  10  23  42  69  97 132 176 223 274 332 395
#     4  10  23  45  70  98 134 178 220 278 335 397
#     4  12  27  43  64  95 139 175 218 277 331 396
#     4  10  23  45  68  98 138 174 223 273 336 394
#     4  10  23  42  69  99 131 170 220 282 327 395
#     4  10  24  42  66  98 132 170 220 275 339 387
#
# _framework density 22.905505999999999
#
# number of rings (size 3 to 8) (size 9 to 14) (size 15 to 20)
#    0.000    1.500    1.250    1.875   12.250    2.000 
#    2.250    3.125    0.000    0.000    0.000    0.000 
#    0.000    0.000    0.000    0.000    0.000    0.000 
#
# Total GULP energy -89506.361988 kJ/mol
# GULP energy per Si atom -5594.147624 kJ/mol
# Density = 2.285337 g / cm^3
# Si number density = 22.905506 Si / 1000 Ang^3
#
#
#
# Elastic Constant Matrix: (Units=GPa)
#
#
# Indices 1 2 3 4 5 6 
#
# 1 96.9013 5.3558 12.6917 1.8717 -11.4269 7.1995
# 2 5.3558 71.9819 13.0787 1.0626 -9.3231 7.5045
# 3 12.6917 13.0787 50.9928 2.4801 -21.7448 2.1739
# 4 1.8717 1.0626 2.4801 24.6886 5.1665 -9.3466
# 5 -11.4269 -9.3231 -21.7448 5.1665 39.8920 -1.3322
# 6 7.1995 7.5045 2.1739 -9.3466 -1.3322 49.6386
#
#
#
# Elastic Compliance Matrix: (Units=1/GPa)
#
#
# Indices 1 2 3 4 5 6 
#
# 1 0.010984 -0.000003 -0.001489 -0.001898 0.002519 -0.001817
# 2 -0.000003 0.014943 -0.002730 -0.001729 0.002147 -0.002407
# 3 -0.001489 -0.002730 0.027218 -0.006037 0.014510 -0.001311
# 4 -0.001898 -0.001729 -0.006037 0.046974 -0.010009 0.009377
# 5 0.002519 0.002147 0.014510 -0.010009 0.035421 -0.002259
# 6 -0.001817 -0.002407 -0.001311 0.009377 -0.002259 0.022536
#
#
# Mechanical properties :
#
#
# Convention : Reuss Voigt Hill
#
# Bulk Modulus (GPa) = 22.37030 31.34759 26.85895
# Shear Modulus (GPa) = 27.56044 35.42717 31.49381
#
# Velocity S-wave (km/s) = 3.47251 3.93703 3.71205
# Velocity P-wave (km/s) = 5.08580 5.86364 5.48852
#
# Compressibility (1/GPa) = 0.04470212
#
# Stress axis : x y z
#
# Youngs Moduli (GPa) = 91.04407 66.92037 36.74007
#
# Poissons Ratio (x) = 0.00020 0.05471
# Poissons Ratio (y) = 0.00027 0.10028
# Poissons Ratio (z) = 0.13556 0.18266
#
# Static dielectric constant tensor:
#      x y z
#    x 1.840870 -0.017650 0.016450 
#    y -0.017650 1.874560 -0.000920 
#    z 0.016450 -0.000920 1.854520 
# 
# From -- ./inp_files/272853.got.cif
#   From: 2010.05.17/outbox.cif.g08.bks.cpg/sg2_137_cif.got.tgz:272853.got - 2010.06.03 11:33:40.
