data_PCOD9039946
_publ_section_title
;
Structure prediction by ZEFSAII (Michael W. Deem and Ramdas Pophale) SiO2 
 PCOD9039946
Probable space group: P -1
;
_chemical_formula_sum "Si O2"
_cell_formula_units_Z 12
_cell_length_a 5.239656
_cell_length_b 13.971027
_cell_length_c 14.009123
_cell_angle_alpha 32.127004
_cell_angle_beta 88.027800
_cell_angle_gamma 89.572443
_cell_volume 544.589836
_symmetry_space_group_name_H-M "P -1"
_symmetry_group_IT_number 2
_symmetry_cell_setting 'triclinic'
loop_
_space_group_symop_operation_xyz
x,y,z
-x,-y,-z
loop_
_atom_site_type_symbol
_atom_site_label
_atom_site_fract_x
_atom_site_fract_y
_atom_site_fract_z
Si Si1 0.244211 0.377204 0.092471
Si Si2 0.914169 0.759075 0.597754
Si Si3 0.777924 0.947304 0.765685
Si Si4 0.754636 0.515416 0.422383
Si Si5 0.418209 0.707103 0.564501
Si Si6 0.246521 0.079206 0.985037
O O1 0.207683 0.234475 0.301869
O O2 0.250186 0.253831 0.102795
O O3 0.500000 0.500000 0.000000
O O4 0.000000 0.500000 0.000000
O O5 0.697902 0.643958 0.638215
O O6 0.191675 0.670633 0.674202
O O7 0.990527 0.942476 0.384908
O O8 0.552592 0.076274 0.627187
O O9 0.783556 0.957221 0.871285
O O10 0.500000 0.500000 0.500000
O O11 0.712954 0.364769 0.469503
O O12 0.755177 0.707453 0.209579
O O13 0.000000 0.500000 0.500000
O O14 0.500000 0.000000 0.000000
O O15 0.000000 0.000000 0.000000
#
# Coordination Sequence:
#
# PCOD9039946 Si02
#       6
#     2   2   2   2   2   2
#     4  12  28  45  71 106 142 181 236 290 353 418
#     4  10  24  44  72  95 142 174 236 278 354 414
#     4  10  27  45  75  97 145 183 234 290 353 412
#     4  12  25  45  71  99 141 188 238 292 348 419
#     4  10  23  42  72  99 132 184 236 275 359 407
#     4  12  28  46  71 108 144 183 238 293 353 420
#
# _framework density 22.034931
#
# number of rings (size 3 to 8) (size 9 to 14) (size 15 to 20)
#    1.000    0.000    0.000    5.500   11.667    0.667 
#    0.000    0.000    0.000    0.000    0.000    0.000 
#    0.000    0.000    0.000    0.000    0.000    0.000 
#
# Total GULP energy -66938.989963 kJ/mol
# GULP energy per Si atom -5578.249164 kJ/mol
# Density = 2.198478 g / cm^3
# Si number density = 22.034931 Si / 1000 Ang^3
#
#
#
# Elastic Constant Matrix: (Units=GPa)
#
#
# Indices 1 2 3 4 5 6 
#
# 1 170.0827 51.9247 38.9984 -0.0412 -7.5755 22.5414
# 2 51.9247 135.9414 32.4434 2.6982 -12.7427 -3.8477
# 3 38.9984 32.4434 111.5860 4.5253 -15.4743 -10.5655
# 4 -0.0412 2.6982 4.5253 45.4909 -8.7749 -1.8336
# 5 -7.5755 -12.7427 -15.4743 -8.7749 33.8171 1.5209
# 6 22.5414 -3.8477 -10.5655 -1.8336 1.5209 27.1304
#
#
#
# Elastic Compliance Matrix: (Units=1/GPa)
#
#
# Indices 1 2 3 4 5 6 
#
# 1 0.008578 -0.002813 -0.003021 0.000105 -0.000103 -0.008690
# 2 -0.002813 0.008966 -0.001035 0.000111 0.002164 0.003092
# 3 -0.003021 -0.001035 0.011485 -0.000070 0.003873 0.006614
# 4 0.000105 0.000111 -0.000070 0.023186 0.005999 0.001132
# 5 -0.000103 0.002164 0.003873 0.005999 0.033673 0.000418
# 6 -0.008690 0.003092 0.006614 0.001132 0.000418 0.047147
#
#
# Mechanical properties :
#
#
# Convention : Reuss Voigt Hill
#
# Bulk Modulus (GPa) = 65.40543 73.81589 69.61066
# Shear Modulus (GPa) = 32.92279 40.90392 36.91335
#
# Velocity S-wave (km/s) = 3.86958 4.31318 4.09739
# Velocity P-wave (km/s) = 7.05066 7.64048 7.35149
#
# Compressibility (1/GPa) = 0.01528925
#
# Stress axis : x y z
#
# Youngs Moduli (GPa) = 116.57351 111.53378 87.07135
#
# Poissons Ratio (x) = 0.31377 0.26308
# Poissons Ratio (y) = 0.32794 0.09014
# Poissons Ratio (z) = 0.35222 0.11546
#
# Static dielectric constant tensor:
#      x y z
#    x 1.810000 -0.007630 0.066350 
#    y -0.007630 1.807490 -0.009360 
#    z 0.066350 -0.009360 2.683820 
# 
# From -- ./inp_files/483489.got.cif
#   From: 2010.05.17/outbox.cif.g08.bks.cpg/sg2_242_cif.got.tgz:483489.got - 2010.06.03 11:33:40.
