data_PCOD9039224
_publ_section_title
;
Structure prediction by ZEFSAII (Michael W. Deem and Ramdas Pophale) SiO2 
 PCOD9039224
Probable space group: P -1
;
_chemical_formula_sum "Si O2"
_cell_formula_units_Z 9
_cell_length_a 17.984369
_cell_length_b 4.934065
_cell_length_c 10.994640
_cell_angle_alpha 109.604096
_cell_angle_beta 23.175454
_cell_angle_gamma 103.912707
_cell_volume 355.560911
_symmetry_space_group_name_H-M "P -1"
_symmetry_group_IT_number 2
_symmetry_cell_setting 'triclinic'
loop_
_space_group_symop_operation_xyz
x,y,z
-x,-y,-z
loop_
_atom_site_type_symbol
_atom_site_label
_atom_site_fract_x
_atom_site_fract_y
_atom_site_fract_z
Si Si1 0.444808 0.492813 0.306703
Si Si2 0.503397 0.927847 0.626492
Si Si3 0.000000 0.000000 0.000000
Si Si4 0.904238 0.672746 0.315125
Si Si5 0.828815 0.656172 0.700480
O O1 0.443343 0.379022 0.430966
O O2 0.315370 0.328684 0.395730
O O3 0.366919 0.846318 0.475271
O O4 0.658128 0.464048 0.928602
O O5 0.500000 0.000000 0.500000
O O6 0.289089 0.053712 0.015224
O O7 0.976387 0.920825 0.168359
O O8 0.011219 0.346781 0.070408
O O9 0.902515 0.715725 0.467121
O O10 0.000000 0.500000 0.500000
#
# Coordination Sequence:
#
# PCOD9039224 Si02
#       5
#     2   2   1   2   2
#     4  10  23  42  71  96 128 187 222 278 326 410
#     4  10  23  42  67 102 134 178 224 275 338 400
#     4  10  26  42  70 100 138 174 222 296 326 400
#     4  11  23  47  67 102 133 180 232 271 346 398
#     4  10  26  43  69 101 141 177 222 284 338 402
#
# _framework density 25.312118000000002
#
# number of rings (size 3 to 8) (size 9 to 14) (size 15 to 20)
#    1.333    0.444    0.000    2.667    3.111    7.111 
#    4.000    0.000    0.000    0.000    0.000    0.000 
#    0.000    0.000    0.000    0.000    0.000    0.000 
#
# Total GULP energy -50134.771128 kJ/mol
# GULP energy per Si atom -5570.530125 kJ/mol
# Density = 2.525451 g / cm^3
# Si number density = 25.312118 Si / 1000 Ang^3
#
#
#
# Elastic Constant Matrix: (Units=GPa)
#
#
# Indices 1 2 3 4 5 6 
#
# 1 88.8219 31.0119 43.4822 -28.8941 16.6083 -33.6410
# 2 31.0119 211.4976 36.8781 -33.7549 15.4749 -41.9391
# 3 43.4822 36.8781 113.3758 -28.0406 14.5604 -25.8520
# 4 -28.8941 -33.7549 -28.0406 44.6608 -10.7436 16.9353
# 5 16.6083 15.4749 14.5604 -10.7436 63.4758 -25.2144
# 6 -33.6410 -41.9391 -25.8520 16.9353 -25.2144 40.4487
#
#
#
# Elastic Compliance Matrix: (Units=1/GPa)
#
#
# Indices 1 2 3 4 5 6 
#
# 1 0.019533 0.001434 -0.003342 0.006796 0.002022 0.014012
# 2 0.001434 0.006412 -0.000407 0.003150 0.001562 0.007236
# 3 -0.003342 -0.000407 0.011824 0.003925 0.000004 0.002714
# 4 0.006796 0.003150 0.003925 0.032460 0.001579 -0.001178
# 5 0.002022 0.001562 0.000004 0.001579 0.021479 0.016033
# 6 0.014012 0.007236 0.002714 -0.001178 0.016033 0.056101
#
#
# Mechanical properties :
#
#
# Convention : Reuss Voigt Hill
#
# Bulk Modulus (GPa) = 30.17616 70.71550 50.44583
# Shear Modulus (GPa) = 30.58361 49.87194 40.22777
#
# Velocity S-wave (km/s) = 3.47977 4.44360 3.99089
# Velocity P-wave (km/s) = 5.30025 7.37058 6.41943
#
# Compressibility (1/GPa) = 0.03313875
#
# Stress axis : x y z
#
# Youngs Moduli (GPa) = 51.19419 155.95177 84.57686
#
# Poissons Ratio (x) = -0.22358 0.28263
# Poissons Ratio (y) = -0.07340 0.03444
# Poissons Ratio (z) = 0.17108 0.06350
#
# Static dielectric constant tensor:
#      x y z
#    x 1.992010 0.022000 0.190250 
#    y 0.022000 2.039950 -0.052940 
#    z 0.190250 -0.052940 2.072390 
# 
# From -- ./inp_files/322577.got.cif
#   From: 2010.05.17/outbox.cif.g08.bks.cpg/sg2_162_cif.got.tgz:322577.got - 2010.06.03 11:33:40.
