data_PCOD9039858
_publ_section_title
;
Structure prediction by ZEFSAII (Michael W. Deem and Ramdas Pophale) SiO2 
 PCOD9039858
Probable space group: P -1
;
_chemical_formula_sum "Si O2"
_cell_formula_units_Z 14
_cell_length_a 16.916773
_cell_length_b 5.277762
_cell_length_c 8.692797
_cell_angle_alpha 92.767170
_cell_angle_beta 70.536985
_cell_angle_gamma 123.918223
_cell_volume 597.774046
_symmetry_space_group_name_H-M "P -1"
_symmetry_group_IT_number 2
_symmetry_cell_setting 'triclinic'
loop_
_space_group_symop_operation_xyz
x,y,z
-x,-y,-z
loop_
_atom_site_type_symbol
_atom_site_label
_atom_site_fract_x
_atom_site_fract_y
_atom_site_fract_z
Si Si1 0.795629 0.426986 0.350551
Si Si2 0.684330 0.943974 0.163790
Si Si3 0.628519 0.505710 0.435323
Si Si4 0.680601 0.112785 0.732225
Si Si5 0.763390 0.773163 0.843944
Si Si6 0.992735 0.243857 0.610421
Si Si7 0.489198 0.044558 0.750947
O O1 0.746734 0.624265 0.378794
O O2 0.728623 0.198316 0.530431
O O3 0.911872 0.598436 0.330556
O O4 0.773379 0.262249 0.194429
O O5 0.622310 0.748576 0.349861
O O6 0.602741 0.956681 0.114921
O O7 0.724137 0.772385 0.039925
O O8 0.571488 0.376743 0.628906
O O9 0.572112 0.210143 0.349720
O O10 0.736173 0.444893 0.793839
O O11 0.560258 0.973943 0.794644
O O12 0.708991 0.894158 0.779771
O O13 0.883554 0.040773 0.758853
O O14 0.000000 0.500000 0.500000
O O15 0.000000 0.000000 0.500000
#
# Coordination Sequence:
#
# PCOD9039858 Si02
#       7
#     2   2   2   2   2   2   2
#     4  10  23  42  71  96 128 178 233 270 328 406
#     4  11  25  40  69  98 143 171 222 284 338 390
#     4   9  20  40  63  99 131 177 227 272 323 401
#     4  11  25  44  70  98 136 183 229 269 330 403
#     4  12  27  45  66 105 140 171 222 289 339 388
#     4  12  24  46  73  99 129 176 227 277 334 405
#     4   9  21  39  66  95 132 183 231 263 325 401
#
# _framework density 23.420218999999999
#
# number of rings (size 3 to 8) (size 9 to 14) (size 15 to 20)
#    0.000    1.429    2.857    1.286   12.000    1.714 
#    0.000    0.714    0.000    0.000    0.000    0.000 
#    0.000    0.000    0.000    0.000    0.000    0.000 
#
# Total GULP energy -78270.871847 kJ/mol
# GULP energy per Si atom -5590.776561 kJ/mol
# Density = 2.336691 g / cm^3
# Si number density = 23.420219 Si / 1000 Ang^3
#
#
#
# Elastic Constant Matrix: (Units=GPa)
#
#
# Indices 1 2 3 4 5 6 
#
# 1 163.5833 50.9508 20.9652 -3.8669 6.1200 29.0160
# 2 50.9508 88.9831 32.0892 9.1454 -8.4752 2.6109
# 3 20.9652 32.0892 77.6426 13.7249 -5.6973 7.3948
# 4 -3.8669 9.1454 13.7249 33.9211 -7.6419 2.0724
# 5 6.1200 -8.4752 -5.6973 -7.6419 32.4143 -7.4581
# 6 29.0160 2.6109 7.3948 2.0724 -7.4581 44.3331
#
#
#
# Elastic Compliance Matrix: (Units=1/GPa)
#
#
# Indices 1 2 3 4 5 6 
#
# 1 0.009269 -0.005657 -0.000231 0.002111 -0.004270 -0.006512
# 2 -0.005657 0.016908 -0.005118 -0.002261 0.005097 0.004523
# 3 -0.000231 -0.005118 0.016139 -0.005080 -0.000121 -0.002022
# 4 0.002111 -0.002261 -0.005080 0.033764 0.005848 -0.000996
# 5 -0.004270 0.005097 -0.000121 0.005848 0.036267 0.008343
# 6 -0.006512 0.004523 -0.002022 -0.000996 0.008343 0.028340
#
#
# Mechanical properties :
#
#
# Convention : Reuss Voigt Hill
#
# Bulk Modulus (GPa) = 49.25009 59.80216 54.52612
# Shear Modulus (GPa) = 29.50441 37.21397 33.35919
#
# Velocity S-wave (km/s) = 3.55319 3.99051 3.77818
# Velocity P-wave (km/s) = 6.15696 6.84267 6.50885
#
# Compressibility (1/GPa) = 0.02030453
#
# Stress axis : x y z
#
# Youngs Moduli (GPa) = 107.88131 59.14456 61.96250
#
# Poissons Ratio (x) = 0.33457 0.01434
# Poissons Ratio (y) = 0.61026 0.31710
# Poissons Ratio (z) = 0.02496 0.30267
#
# Static dielectric constant tensor:
#      x y z
#    x 1.878050 -0.009130 0.021430 
#    y -0.009130 1.904890 -0.005100 
#    z 0.021430 -0.005100 1.919190 
# 
# From -- ./inp_files/36944.got.cif
#   From: 2010.05.17/outbox.cif.g08.bks.cpg/sg2_19_cif.got.tgz:36944.got - 2010.06.03 11:33:40.
