data_PCOD9039521
_publ_section_title
;
Structure prediction by ZEFSAII (Michael W. Deem and Ramdas Pophale) SiO2 
 PCOD9039521
Probable space group: P -1
;
_chemical_formula_sum "Si O2"
_cell_formula_units_Z 16
_cell_length_a 9.250161
_cell_length_b 7.986783
_cell_length_c 15.837708
_cell_angle_alpha 74.444538
_cell_angle_beta 143.367558
_cell_angle_gamma 100.683808
_cell_volume 671.681416
_symmetry_space_group_name_H-M "P -1"
_symmetry_group_IT_number 2
_symmetry_cell_setting 'triclinic'
loop_
_space_group_symop_operation_xyz
x,y,z
-x,-y,-z
loop_
_atom_site_type_symbol
_atom_site_label
_atom_site_fract_x
_atom_site_fract_y
_atom_site_fract_z
Si Si1 0.749278 0.491576 0.988244
Si Si2 0.685286 0.486918 0.767086
Si Si3 0.239213 0.794050 0.834258
Si Si4 0.796470 0.328787 0.515935
Si Si5 0.884415 0.038352 0.731465
Si Si6 0.529908 0.117920 0.686562
Si Si7 0.315793 0.103697 0.049044
Si Si8 0.007005 0.284500 0.441179
O O1 0.668824 0.358257 0.038943
O O2 0.040153 0.461097 0.119128
O O3 0.634510 0.460320 0.846880
O O4 0.709775 0.691549 0.969495
O O5 0.491835 0.631578 0.623482
O O6 0.644894 0.306937 0.724497
O O7 0.451903 0.923677 0.899338
O O8 0.171290 0.728681 0.718839
O O9 0.996029 0.883791 0.747438
O O10 0.883277 0.209126 0.649732
O O11 0.904626 0.519134 0.544654
O O12 0.881839 0.250740 0.476472
O O13 0.624001 0.033358 0.654817
O O14 0.077065 0.048843 0.896851
O O15 0.243576 0.156622 0.556374
O O16 0.631638 0.001604 0.826997
#
# Coordination Sequence:
#
# PCOD9039521 Si02
#       8
#     2   2   2   2   2   2   2   2
#     4  11  24  41  70 100 131 172 220 272 329 387
#     4  10  23  42  69 100 134 169 217 276 324 389
#     4  12  27  43  67 100 136 170 223 270 325 394
#     4  10  23  45  70  95 131 175 221 268 330 390
#     4  12  26  42  68  99 131 178 221 268 323 395
#     4  11  25  44  70  96 135 175 218 270 328 389
#     4  12  25  45  68  96 136 175 217 273 328 389
#     4  10  24  45  68  99 132 175 216 272 331 387
#
# _framework density 23.820819
#
# number of rings (size 3 to 8) (size 9 to 14) (size 15 to 20)
#    0.000    1.000    1.250    4.125    5.250    7.500 
#    0.000    0.000    0.000    0.000    0.000    0.000 
#    0.000    0.000    0.000    0.000    0.000    0.000 
#
# Total GULP energy -89704.589852 kJ/mol
# GULP energy per Si atom -5606.536866 kJ/mol
# Density = 2.376660 g / cm^3
# Si number density = 23.820819 Si / 1000 Ang^3
#
#
#
# Elastic Constant Matrix: (Units=GPa)
#
#
# Indices 1 2 3 4 5 6 
#
# 1 111.7208 22.0948 9.2467 -16.4001 -6.4920 -13.7085
# 2 22.0948 55.2298 8.5653 -13.5886 -4.8925 -3.1573
# 3 9.2467 8.5653 74.6201 -18.6112 -8.1817 -1.6156
# 4 -16.4001 -13.5886 -18.6112 37.1085 4.6445 -13.0735
# 5 -6.4920 -4.8925 -8.1817 4.6445 40.0172 -7.6196
# 6 -13.7085 -3.1573 -1.6156 -13.0735 -7.6196 29.6800
#
#
#
# Elastic Compliance Matrix: (Units=1/GPa)
#
#
# Indices 1 2 3 4 5 6 
#
# 1 0.011796 -0.002127 0.001325 0.008128 0.002808 0.009595
# 2 -0.002127 0.021661 0.000418 0.008983 0.002476 0.005937
# 3 0.001325 0.000418 0.016557 0.011198 0.003772 0.007459
# 4 0.008128 0.008983 0.011198 0.048730 0.004364 0.027904
# 5 0.002808 0.002476 0.003772 0.004364 0.028087 0.010899
# 6 0.009595 0.005937 0.007459 0.027904 0.010899 0.054251
#
#
# Mechanical properties :
#
#
# Convention : Reuss Voigt Hill
#
# Bulk Modulus (GPa) = 20.30650 35.70936 28.00793
# Shear Modulus (GPa) = 25.21852 34.80539 30.01196
#
# Velocity S-wave (km/s) = 3.25726 3.82662 3.55336
# Velocity P-wave (km/s) = 4.76335 5.87771 5.34962
#
# Compressibility (1/GPa) = 0.04924531
#
# Stress axis : x y z
#
# Youngs Moduli (GPa) = 84.77803 46.16503 60.39711
#
# Poissons Ratio (x) = 0.09821 -0.08004
# Poissons Ratio (y) = 0.18036 -0.02523
# Poissons Ratio (z) = -0.11235 -0.01929
#
# Static dielectric constant tensor:
#      x y z
#    x 1.922230 -0.023290 0.041170 
#    y -0.023290 1.873900 0.010850 
#    z 0.041170 0.010850 1.851030 
# 
# From -- ./inp_files/243654.got.cif
#   From: 2010.05.17/outbox.cif.g08.bks.cpg/sg2_122_cif.got.tgz:243654.got - 2010.06.03 11:33:40.
