data_PCOD9039554
_publ_section_title
;
Structure prediction by ZEFSAII (Michael W. Deem and Ramdas Pophale) SiO2 
 PCOD9039554
Probable space group: P -1
;
_chemical_formula_sum "Si O2"
_cell_formula_units_Z 12
_cell_length_a 6.154754
_cell_length_b 13.608719
_cell_length_c 11.495920
_cell_angle_alpha 35.554143
_cell_angle_beta 94.606977
_cell_angle_gamma 105.750379
_cell_volume 521.602141
_symmetry_space_group_name_H-M "P -1"
_symmetry_group_IT_number 2
_symmetry_cell_setting 'triclinic'
loop_
_space_group_symop_operation_xyz
x,y,z
-x,-y,-z
loop_
_atom_site_type_symbol
_atom_site_label
_atom_site_fract_x
_atom_site_fract_y
_atom_site_fract_z
Si Si1 0.129688 0.538283 0.633814
Si Si2 0.719842 0.601587 0.992330
Si Si3 0.120433 0.851353 0.626535
Si Si4 0.537543 0.899088 0.211221
Si Si5 0.443491 0.077065 0.254402
Si Si6 0.760762 0.636181 0.405849
O O1 0.208700 0.502541 0.799296
O O2 0.319800 0.719852 0.412144
O O3 0.115050 0.374702 0.700658
O O4 0.882462 0.562468 0.584119
O O5 0.500000 0.500000 0.000000
O O6 0.658614 0.762909 0.897487
O O7 0.926823 0.673627 0.837844
O O8 0.347131 0.879890 0.686378
O O9 0.229154 0.896716 0.459281
O O10 0.000000 0.000000 0.500000
O O11 0.744527 0.824614 0.264601
O O12 0.557902 0.039474 0.179405
O O13 0.500000 0.000000 0.000000
O O14 0.500000 0.500000 0.500000
#
# Coordination Sequence:
#
# PCOD9039554 Si02
#       6
#     2   2   2   2   2   2
#     4  10  23  42  69 102 137 178 231 287 340 414
#     4  11  25  44  70 104 138 187 234 281 347 409
#     4   9  22  42  68  95 136 183 226 283 337 405
#     4  11  24  41  69 100 133 179 226 287 348 409
#     4  10  23  45  66 100 140 178 235 278 344 413
#     4   9  21  44  68  96 135 172 227 283 349 399
#
# _framework density 23.006042999999998
#
# number of rings (size 3 to 8) (size 9 to 14) (size 15 to 20)
#    0.000    2.000    0.000    1.000    7.000   10.667 
#    3.000    0.000    0.000    0.000    0.000    0.000 
#    0.000    0.000    0.000    0.000    0.000    0.000 
#
# Total GULP energy -66995.812951 kJ/mol
# GULP energy per Si atom -5582.984413 kJ/mol
# Density = 2.295368 g / cm^3
# Si number density = 23.006043 Si / 1000 Ang^3
#
#
#
# Elastic Constant Matrix: (Units=GPa)
#
#
# Indices 1 2 3 4 5 6 
#
# 1 125.4405 26.5813 67.7387 2.6196 30.1118 3.6534
# 2 26.5813 99.2309 52.8555 9.7701 21.2717 -14.5016
# 3 67.7387 52.8555 149.4013 20.2050 21.0282 8.9438
# 4 2.6196 9.7701 20.2050 33.0714 2.1002 13.4571
# 5 30.1118 21.2717 21.0282 2.1002 47.0048 -8.6507
# 6 3.6534 -14.5016 8.9438 13.4571 -8.6507 50.5877
#
#
#
# Elastic Compliance Matrix: (Units=1/GPa)
#
#
# Indices 1 2 3 4 5 6 
#
# 1 0.012078 0.000141 -0.004996 0.003182 -0.006045 -0.001829
# 2 0.000141 0.014248 -0.004475 -0.003375 -0.003433 0.005176
# 3 -0.004996 -0.004475 0.011235 -0.004456 0.000084 -0.001708
# 4 0.003182 -0.003375 -0.004456 0.038319 -0.002252 -0.010988
# 5 -0.006045 -0.003433 0.000084 -0.002252 0.027640 0.004763
# 6 -0.001829 0.005176 -0.001708 -0.010988 0.004763 0.025423
#
#
# Mechanical properties :
#
#
# Convention : Reuss Voigt Hill
#
# Bulk Modulus (GPa) = 52.90819 74.26930 63.58874
# Shear Modulus (GPa) = 32.48818 41.25926 36.87372
#
# Velocity S-wave (km/s) = 3.76195 4.23946 4.00782
# Velocity P-wave (km/s) = 6.47434 7.50444 7.00834
#
# Compressibility (1/GPa) = 0.01890067
#
# Stress axis : x y z
#
# Youngs Moduli (GPa) = 82.79715 70.18616 89.00898
#
# Poissons Ratio (x) = -0.00990 0.44469
# Poissons Ratio (y) = -0.01168 0.39831
# Poissons Ratio (z) = 0.41366 0.31408
#
# Static dielectric constant tensor:
#      x y z
#    x 1.863900 -0.051100 -0.044660 
#    y -0.051100 1.876860 -0.042200 
#    z -0.044660 -0.042200 1.898380 
# 
# From -- ./inp_files/43155.got.cif
#   From: 2010.05.17/outbox.cif.g08.bks.cpg/sg2_22_cif.got.tgz:43155.got - 2010.06.03 11:33:40.
