data_PCOD9039427
_publ_section_title
;
Structure prediction by ZEFSAII (Michael W. Deem and Ramdas Pophale) SiO2 
 PCOD9039427
Probable space group: P -1
;
_chemical_formula_sum "Si O2"
_cell_formula_units_Z 15
_cell_length_a 11.237706
_cell_length_b 12.045281
_cell_length_c 14.317566
_cell_angle_alpha 52.322462
_cell_angle_beta 49.017825
_cell_angle_gamma 22.846008
_cell_volume 567.885264
_symmetry_space_group_name_H-M "P -1"
_symmetry_group_IT_number 2
_symmetry_cell_setting 'triclinic'
loop_
_space_group_symop_operation_xyz
x,y,z
-x,-y,-z
loop_
_atom_site_type_symbol
_atom_site_label
_atom_site_fract_x
_atom_site_fract_y
_atom_site_fract_z
Si Si1 0.500000 0.000000 0.000000
Si Si2 0.517166 0.151490 0.101854
Si Si3 0.158417 0.687420 0.079563
Si Si4 0.495106 0.116971 0.637178
Si Si5 0.803157 0.319372 0.210305
Si Si6 0.976931 0.384029 0.504335
Si Si7 0.559521 0.173380 0.765806
Si Si8 0.833194 0.227795 0.767802
O O1 0.422992 0.168189 0.041743
O O2 0.692172 0.744476 0.110481
O O3 0.565396 0.986105 0.233658
O O4 0.873643 0.946867 0.021010
O O5 0.260710 0.450434 0.128076
O O6 0.027788 0.825932 0.178678
O O7 0.500000 0.500000 0.000000
O O8 0.185665 0.442478 0.597597
O O9 0.661078 0.073946 0.658509
O O10 0.687825 0.942453 0.532579
O O11 0.579366 0.564344 0.279895
O O12 0.533547 0.549203 0.150400
O O13 0.155440 0.111446 0.163862
O O14 0.937387 0.058401 0.258164
O O15 0.789362 0.402761 0.639859
O O16 0.000000 0.500000 0.500000
#
# Coordination Sequence:
#
# PCOD9039427 Si02
#       8
#     1   2   2   2   2   2   2   2
#     4  10  26  42  74  98 132 180 236 282 342 394
#     4  11  25  45  68 103 137 173 234 283 344 409
#     4  12  27  44  69 100 140 183 223 283 342 412
#     4  11  23  43  68 101 133 171 224 289 337 395
#     4  10  23  42  68  91 139 177 218 275 334 407
#     4  12  24  42  71  97 131 176 222 283 341 403
#     4  10  23  43  67  98 131 180 222 287 330 398
#     4  11  24  44  66 101 133 182 225 268 343 417
#
# _framework density 26.413786999999999
#
# number of rings (size 3 to 8) (size 9 to 14) (size 15 to 20)
#    0.000    1.067    0.000    5.600    5.600    4.267 
#    0.000   13.333    0.000    0.000    0.000    0.000 
#    0.000    0.000    0.000    0.000    0.000    0.000 
#
# Total GULP energy -83567.903766 kJ/mol
# GULP energy per Si atom -5571.193584 kJ/mol
# Density = 2.635367 g / cm^3
# Si number density = 26.413787 Si / 1000 Ang^3
#
#
#
# Elastic Constant Matrix: (Units=GPa)
#
#
# Indices 1 2 3 4 5 6 
#
# 1 141.0548 80.5455 31.0647 1.5761 19.7081 31.5144
# 2 80.5455 181.1793 5.0013 -4.5372 -1.9833 13.2830
# 3 31.0647 5.0013 63.3070 -6.8017 2.4740 16.4767
# 4 1.5761 -4.5372 -6.8017 39.5215 2.6001 -3.2944
# 5 19.7081 -1.9833 2.4740 2.6001 28.8384 -6.0638
# 6 31.5144 13.2830 16.4767 -3.2944 -6.0638 67.0935
#
#
#
# Elastic Compliance Matrix: (Units=1/GPa)
#
#
# Indices 1 2 3 4 5 6 
#
# 1 0.014333 -0.006004 -0.004933 -0.001852 -0.010752 -0.005395
# 2 -0.006004 0.008129 0.001947 0.001304 0.004633 0.001216
# 3 -0.004933 0.001947 0.019036 0.003421 0.001042 -0.002481
# 4 -0.001852 0.001304 0.003421 0.026268 -0.001104 0.000962
# 5 -0.010752 0.004633 0.001042 -0.001104 0.043992 0.007799
# 6 -0.005395 0.001216 -0.002481 0.000962 0.007799 0.018559
#
#
# Mechanical properties :
#
#
# Convention : Reuss Voigt Hill
#
# Bulk Modulus (GPa) = 42.52510 68.75154 55.63832
# Shear Modulus (GPa) = 32.02313 45.01931 38.52122
#
# Velocity S-wave (km/s) = 3.48568 4.13290 3.82301
# Velocity P-wave (km/s) = 5.68634 6.98997 6.37158
#
# Compressibility (1/GPa) = 0.02351552
#
# Stress axis : x y z
#
# Youngs Moduli (GPa) = 69.77058 123.01417 52.53332
#
# Poissons Ratio (x) = 0.73860 0.25917
# Poissons Ratio (y) = 0.41891 -0.10227
# Poissons Ratio (z) = 0.34421 -0.23948
#
# Static dielectric constant tensor:
#      x y z
#    x 1.675130 0.245130 0.296940 
#    y 0.245130 1.868230 -0.178760 
#    z 0.296940 -0.178760 1.804520 
# 
# From -- ./inp_files/434283.got.cif
#   From: 2010.05.17/outbox.cif.g08.bks.cpg/sg2_218_cif.got.tgz:434283.got - 2010.06.03 11:33:40.
