data_PCOD9039206
_publ_section_title
;
Structure prediction by ZEFSAII (Michael W. Deem and Ramdas Pophale) SiO2 
 PCOD9039206
Probable space group: P -1
;
_chemical_formula_sum "Si O2"
_cell_formula_units_Z 14
_cell_length_a 8.693371
_cell_length_b 5.851056
_cell_length_c 12.785948
_cell_angle_alpha 71.658804
_cell_angle_beta 73.180955
_cell_angle_gamma 94.601884
_cell_volume 580.321770
_symmetry_space_group_name_H-M "P -1"
_symmetry_group_IT_number 2
_symmetry_cell_setting 'triclinic'
loop_
_space_group_symop_operation_xyz
x,y,z
-x,-y,-z
loop_
_atom_site_type_symbol
_atom_site_label
_atom_site_fract_x
_atom_site_fract_y
_atom_site_fract_z
Si Si1 0.123057 0.881599 0.920973
Si Si2 0.589374 0.676501 0.265015
Si Si3 0.140542 0.484028 0.636158
Si Si4 0.563574 0.604725 0.861219
Si Si5 0.226174 0.043768 0.552761
Si Si6 0.518848 0.977176 0.658282
Si Si7 0.094490 0.468449 0.147386
O O1 0.033824 0.736328 0.859629
O O2 0.264893 0.098166 0.825984
O O3 0.168674 0.671362 0.017331
O O4 0.000000 0.000000 0.000000
O O5 0.687414 0.508118 0.337124
O O6 0.512630 0.585489 0.184367
O O7 0.443033 0.739248 0.356482
O O8 0.129443 0.771610 0.576053
O O9 0.996954 0.411626 0.760594
O O10 0.141148 0.263578 0.582851
O O11 0.506962 0.842199 0.791232
O O12 0.758667 0.646157 0.820189
O O13 0.500000 0.500000 0.000000
O O14 0.354047 0.985359 0.624741
O O15 0.347966 0.124332 0.420266
#
# Coordination Sequence:
#
# PCOD9039206 Si02
#       7
#     2   2   2   2   2   2   2
#     4  11  22  40  66  96 131 192 231 284 332 431
#     4  11  23  41  71  97 140 174 240 280 353 415
#     4  11  22  43  71 105 129 185 240 296 341 416
#     4  12  26  43  65 104 146 180 223 293 359 422
#     4  10  23  42  77 100 134 182 248 293 340 415
#     4  10  23  42  67 101 135 181 230 293 350 412
#     4  11  25  40  66  98 143 180 238 281 359 410
#
# _framework density 24.124545999999999
#
# number of rings (size 3 to 8) (size 9 to 14) (size 15 to 20)
#    0.000    1.143    2.857    3.429    4.000    5.143 
#    0.000    1.429    0.000    0.000    0.000    0.000 
#    0.000    0.000    0.000    0.000    0.000    0.000 
#
# Total GULP energy -78107.479082 kJ/mol
# GULP energy per Si atom -5579.105649 kJ/mol
# Density = 2.406964 g / cm^3
# Si number density = 24.124546 Si / 1000 Ang^3
#
#
#
# Elastic Constant Matrix: (Units=GPa)
#
#
# Indices 1 2 3 4 5 6 
#
# 1 37.3051 14.4227 20.3390 11.4680 -4.9953 -13.5112
# 2 14.4227 138.4948 25.0880 19.0059 -16.9128 -11.2843
# 3 20.3390 25.0880 65.5132 12.8947 -7.5318 -22.7020
# 4 11.4680 19.0059 12.8947 43.8331 -10.5408 -19.0022
# 5 -4.9953 -16.9128 -7.5318 -10.5408 32.5498 6.0486
# 6 -13.5112 -11.2843 -22.7020 -19.0022 6.0486 24.3661
#
#
#
# Elastic Compliance Matrix: (Units=1/GPa)
#
#
# Indices 1 2 3 4 5 6 
#
# 1 0.035528 -0.001349 -0.005902 -0.001520 0.000619 0.012238
# 2 -0.001349 0.008417 -0.002696 -0.002747 0.003074 -0.002268
# 3 -0.005902 -0.002696 0.025100 0.005505 0.001028 0.022902
# 4 -0.001520 -0.002747 0.005505 0.037610 0.006062 0.030840
# 5 0.000619 0.003074 0.001028 0.006062 0.034838 -0.001195
# 6 0.012238 -0.002268 0.022902 0.030840 -0.001195 0.092462
#
#
# Mechanical properties :
#
#
# Convention : Reuss Voigt Hill
#
# Bulk Modulus (GPa) = 20.34603 40.11250 30.22926
# Shear Modulus (GPa) = 18.50255 32.24736 25.37495
#
# Velocity S-wave (km/s) = 2.77241 3.66006 3.24671
# Velocity P-wave (km/s) = 4.32439 5.87578 5.15874
#
# Compressibility (1/GPa) = 0.04914964
#
# Stress axis : x y z
#
# Youngs Moduli (GPa) = 28.14684 118.80638 39.84116
#
# Poissons Ratio (x) = 0.16032 0.23515
# Poissons Ratio (y) = 0.03798 0.10741
# Poissons Ratio (z) = 0.16613 0.32030
#
# Static dielectric constant tensor:
#      x y z
#    x 1.887120 -0.029200 -0.035890 
#    y -0.029200 2.172360 -0.028310 
#    z -0.035890 -0.028310 1.968150 
# 
# From -- ./inp_files/60785.got.cif
#   From: 2010.05.17/outbox.cif.g08.bks.cpg/sg2_31_cif.got.tgz:60785.got - 2010.06.03 11:33:40.
