data_PCOD9039525
_publ_section_title
;
Structure prediction by ZEFSAII (Michael W. Deem and Ramdas Pophale) SiO2 
 PCOD9039525
Probable space group: P -1
;
_chemical_formula_sum "Si O2"
_cell_formula_units_Z 16
_cell_length_a 5.306206
_cell_length_b 17.252424
_cell_length_c 9.121311
_cell_angle_alpha 132.166314
_cell_angle_beta 99.931444
_cell_angle_gamma 79.968211
_cell_volume 607.679501
_symmetry_space_group_name_H-M "P -1"
_symmetry_group_IT_number 2
_symmetry_cell_setting 'triclinic'
loop_
_space_group_symop_operation_xyz
x,y,z
-x,-y,-z
loop_
_atom_site_type_symbol
_atom_site_label
_atom_site_fract_x
_atom_site_fract_y
_atom_site_fract_z
Si Si1 0.069751 0.319391 0.258086
Si Si2 0.460642 0.989611 0.812085
Si Si3 0.676213 0.502264 0.166469
Si Si4 0.243788 0.234842 0.475828
Si Si5 0.217859 0.529995 0.384489
Si Si6 0.056090 0.875041 0.486398
Si Si7 0.419429 0.712052 0.174426
Si Si8 0.723965 0.829408 0.144929
O O1 0.220949 0.268721 0.350314
O O2 0.191157 0.420986 0.329874
O O3 0.812808 0.374095 0.379752
O O4 0.080802 0.223394 0.023237
O O5 0.634574 0.885586 0.654988
O O6 0.171585 0.964880 0.705474
O O7 0.491806 0.097081 0.867605
O O8 0.500000 0.000000 0.000000
O O9 0.471513 0.526022 0.306973
O O10 0.954908 0.545645 0.278192
O O11 0.500000 0.500000 0.000000
O O12 0.755436 0.375890 0.007790
O O13 0.418585 0.306340 0.681097
O O14 0.988871 0.219911 0.525118
O O15 0.265269 0.822191 0.329224
O O16 0.824111 0.895979 0.376711
O O17 0.618565 0.730919 0.091477
#
# Coordination Sequence:
#
# PCOD9039525 Si02
#       8
#     2   2   2   2   2   2   2   2
#     4  11  23  46  68 100 145 185 232 305 361 436
#     4  11  23  43  67 103 138 181 233 293 366 430
#     4  12  25  46  75 108 147 191 246 302 362 435
#     4  10  23  44  67 100 140 180 239 292 359 430
#     4  11  27  46  71 110 146 192 242 301 369 436
#     4  10  24  42  67 100 135 182 240 291 360 428
#     4  10  23  42  69 100 135 190 236 293 359 437
#     4  11  22  45  69  96 139 184 240 295 356 435
#
# _framework density 26.329671000000001
#
# number of rings (size 3 to 8) (size 9 to 14) (size 15 to 20)
#    0.000    1.250    2.500    2.250    3.500    8.000 
#   11.250    0.000    0.000    0.000    0.000    0.000 
#    0.000    0.000    0.000    0.000    0.000    0.000 
#
# Total GULP energy -89395.201037 kJ/mol
# GULP energy per Si atom -5587.200065 kJ/mol
# Density = 2.626974 g / cm^3
# Si number density = 26.329671 Si / 1000 Ang^3
#
#
#
# Elastic Constant Matrix: (Units=GPa)
#
#
# Indices 1 2 3 4 5 6 
#
# 1 70.7398 23.9410 29.5171 -11.2362 -1.9117 -5.3505
# 2 23.9410 111.6750 28.8163 -42.5893 -2.3704 -16.1827
# 3 29.5171 28.8163 173.9072 -14.8471 -4.0942 2.4467
# 4 -11.2362 -42.5893 -14.8471 44.2630 -5.1917 -1.4918
# 5 -1.9117 -2.3704 -4.0942 -5.1917 38.6247 0.2125
# 6 -5.3505 -16.1827 2.4467 -1.4918 0.2125 36.0048
#
#
#
# Elastic Compliance Matrix: (Units=1/GPa)
#
#
# Indices 1 2 3 4 5 6 
#
# 1 0.016166 -0.002044 -0.002286 0.001500 0.000625 0.001697
# 2 -0.002044 0.017089 -0.001150 0.016158 0.002953 0.008107
# 3 -0.002286 -0.001150 0.006401 0.000484 0.000567 -0.001275
# 4 0.001500 0.016158 0.000484 0.039739 0.006409 0.009061
# 5 0.000625 0.002953 0.000567 0.006409 0.027016 0.001488
# 6 0.001697 0.008107 -0.001275 0.009061 0.001488 0.032123
#
#
# Mechanical properties :
#
#
# Convention : Reuss Voigt Hill
#
# Bulk Modulus (GPa) = 34.84849 57.87451 46.36150
# Shear Modulus (GPa) = 31.43462 42.04835 36.74148
#
# Velocity S-wave (km/s) = 3.45901 4.00058 3.73961
# Velocity P-wave (km/s) = 5.40529 6.58543 6.02433
#
# Compressibility (1/GPa) = 0.02869565
#
# Stress axis : x y z
#
# Youngs Moduli (GPa) = 61.85953 58.51685 156.21724
#
# Poissons Ratio (x) = 0.11963 0.35713
# Poissons Ratio (y) = 0.12646 0.17961
# Poissons Ratio (z) = 0.14142 0.06728
#
# Static dielectric constant tensor:
#      x y z
#    x 2.161470 -0.039140 0.027780 
#    y -0.039140 2.309580 0.048100 
#    z 0.027780 0.048100 2.021720 
# 
# From -- ./inp_files/139601.got.cif
#   From: 2010.05.17/outbox.cif.g08.bks.cpg/sg2_70_cif.got.tgz:139601.got - 2010.06.03 11:33:40.
