data_PCOD9039747
_publ_section_title
;
Structure prediction by ZEFSAII (Michael W. Deem and Ramdas Pophale) SiO2 
 PCOD9039747
Probable space group: P -1
;
_chemical_formula_sum "Si O2"
_cell_formula_units_Z 14
_cell_length_a 15.440116
_cell_length_b 8.282241
_cell_length_c 7.231702
_cell_angle_alpha 141.590237
_cell_angle_beta 109.943384
_cell_angle_gamma 64.841517
_cell_volume 519.992563
_symmetry_space_group_name_H-M "P -1"
_symmetry_group_IT_number 2
_symmetry_cell_setting 'triclinic'
loop_
_space_group_symop_operation_xyz
x,y,z
-x,-y,-z
loop_
_atom_site_type_symbol
_atom_site_label
_atom_site_fract_x
_atom_site_fract_y
_atom_site_fract_z
Si Si1 0.939150 0.498770 0.682965
Si Si2 0.294712 0.943247 0.175666
Si Si3 0.473881 0.053809 0.240658
Si Si4 0.819291 0.462071 0.250424
Si Si5 0.777912 0.353745 0.698727
Si Si6 0.916841 0.858490 0.276921
Si Si7 0.418892 0.530981 0.193097
O O1 0.919625 0.413592 0.388477
O O2 0.848515 0.452464 0.699437
O O3 0.039925 0.369161 0.741876
O O4 0.922960 0.803597 0.012932
O O5 0.366689 0.040460 0.182507
O O6 0.230219 0.222330 0.463414
O O7 0.235313 0.742242 0.878331
O O8 0.361723 0.748089 0.199025
O O9 0.499005 0.330937 0.559838
O O10 0.500000 0.000000 0.000000
O O11 0.541349 0.773306 0.128389
O O12 0.809873 0.401173 0.973328
O O13 0.663821 0.467182 0.713239
O O14 0.811746 0.031830 0.405176
O O15 0.000000 0.000000 0.500000
#
# Coordination Sequence:
#
# PCOD9039747 Si02
#       7
#     2   2   2   2   2   2   2
#     4  10  23  42  70  96 141 178 226 291 343 404
#     4  11  25  46  66  99 140 181 236 279 348 412
#     4  12  26  41  68 101 136 178 232 280 345 409
#     4  11  26  42  72 105 136 186 233 287 340 412
#     4  10  24  41  69  98 136 180 236 273 352 415
#     4   9  21  43  66 100 134 182 223 279 352 412
#     4  11  24  43  67  94 136 184 220 287 340 401
#
# _framework density 26.923461
#
# number of rings (size 3 to 8) (size 9 to 14) (size 15 to 20)
#    0.000    1.429    0.000    3.857   14.000    0.571 
#    0.000    6.429    0.000    0.000    0.000    0.000 
#    0.000    0.000    0.000    0.000    0.000    0.000 
#
# Total GULP energy -78194.560499 kJ/mol
# GULP energy per Si atom -5585.325750 kJ/mol
# Density = 2.686218 g / cm^3
# Si number density = 26.923461 Si / 1000 Ang^3
#
#
#
# Elastic Constant Matrix: (Units=GPa)
#
#
# Indices 1 2 3 4 5 6 
#
# 1 95.4285 -8.9751 -4.4227 3.6734 30.0335 -2.8655
# 2 -8.9751 76.7386 12.0908 7.9328 -1.1628 -3.9958
# 3 -4.4227 12.0908 112.1218 -11.2245 14.3011 -5.6922
# 4 3.6734 7.9328 -11.2245 52.6075 -6.6684 -8.6983
# 5 30.0335 -1.1628 14.3011 -6.6684 53.8746 2.5656
# 6 -2.8655 -3.9958 -5.6922 -8.6983 2.5656 37.3141
#
#
#
# Elastic Compliance Matrix: (Units=1/GPa)
#
#
# Indices 1 2 3 4 5 6 
#
# 1 0.013308 0.001480 0.001302 -0.001634 -0.008009 0.001549
# 2 0.001480 0.013738 -0.001568 -0.002433 -0.000452 0.000810
# 3 0.001302 -0.001568 0.009880 0.002206 -0.003213 0.002174
# 4 -0.001634 -0.002433 0.002206 0.021071 0.002658 0.004680
# 5 -0.008009 -0.000452 -0.003213 0.002658 0.024303 -0.002205
# 6 0.001549 0.000810 0.002174 0.004680 -0.002205 0.028579
#
#
# Mechanical properties :
#
#
# Convention : Reuss Voigt Hill
#
# Bulk Modulus (GPa) = 25.41026 31.29720 28.35373
# Shear Modulus (GPa) = 41.12809 47.79896 44.46353
#
# Velocity S-wave (km/s) = 3.91268 4.21808 4.06825
# Velocity P-wave (km/s) = 5.46540 5.94749 5.71153
#
# Compressibility (1/GPa) = 0.03935418
#
# Stress axis : x y z
#
# Youngs Moduli (GPa) = 75.14016 72.79007 101.21101
#
# Poissons Ratio (x) = -0.10770 -0.13178
# Poissons Ratio (y) = -0.11117 0.15869
# Poissons Ratio (z) = -0.09783 0.11413
#
# Static dielectric constant tensor:
#      x y z
#    x 2.241330 0.124150 -0.011780 
#    y 0.124150 2.319930 0.110300 
#    z -0.011780 0.110300 2.192220 
# 
# From -- ./inp_files/332622.got.cif
#   From: 2010.05.17/outbox.cif.g08.bks.cpg/sg2_167_cif.got.tgz:332622.got - 2010.06.03 11:33:40.
