data_PCOD9039260
_publ_section_title
;
Structure prediction by ZEFSAII (Michael W. Deem and Ramdas Pophale) SiO2 
 PCOD9039260
Probable space group: P -1
;
_chemical_formula_sum "Si O2"
_cell_formula_units_Z 16
_cell_length_a 16.820921
_cell_length_b 5.947092
_cell_length_c 12.073749
_cell_angle_alpha 60.336840
_cell_angle_beta 80.662578
_cell_angle_gamma 45.918472
_cell_volume 721.150059
_symmetry_space_group_name_H-M "P -1"
_symmetry_group_IT_number 2
_symmetry_cell_setting 'triclinic'
loop_
_space_group_symop_operation_xyz
x,y,z
-x,-y,-z
loop_
_atom_site_type_symbol
_atom_site_label
_atom_site_fract_x
_atom_site_fract_y
_atom_site_fract_z
Si Si1 0.746257 0.814609 0.921602
Si Si2 0.678423 0.666362 0.579758
Si Si3 0.118907 0.985836 0.795376
Si Si4 0.685687 0.195495 0.319244
Si Si5 0.495928 0.327084 0.931520
Si Si6 0.552271 0.665874 0.431611
Si Si7 0.893269 0.831718 0.016029
Si Si8 0.863961 0.416719 0.774885
O O1 0.781996 0.972684 0.950125
O O2 0.792711 0.749365 0.800833
O O3 0.608821 0.125550 0.880886
O O4 0.804728 0.434131 0.069946
O O5 0.655836 0.500065 0.532713
O O6 0.783636 0.466389 0.689269
O O7 0.684458 0.921410 0.446403
O O8 0.560918 0.905809 0.620635
O O9 0.191127 0.953875 0.690150
O O10 0.985010 0.229923 0.741099
O O11 0.106281 0.219059 0.842561
O O12 0.623115 0.317935 0.186402
O O13 0.604918 0.563711 0.323542
O O14 0.500000 0.500000 0.000000
O O15 0.500000 0.000000 0.000000
O O16 0.500000 0.500000 0.500000
O O17 0.900880 0.115726 0.927193
O O18 0.000000 0.500000 0.000000
#
# Coordination Sequence:
#
# PCOD9039260 Si02
#       8
#     2   2   2   2   2   2   2   2
#     4  11  22  41  66  93 134 173 224 281 342 404
#     4  10  23  42  67  93 127 172 222 277 340 407
#     4  11  22  40  62  97 134 168 223 276 340 408
#     4  11  24  42  66  92 137 174 214 283 342 409
#     4  12  27  44  68 104 138 178 229 283 353 418
#     4   9  21  44  65  89 125 169 222 272 338 398
#     4  11  20  38  63  92 126 178 218 280 337 395
#     4  11  23  39  65  97 128 173 231 274 334 414
#
# _framework density 22.186782999999998
#
# number of rings (size 3 to 8) (size 9 to 14) (size 15 to 20)
#    0.000    1.250    3.750    2.250    3.500    6.500 
#    0.000    0.625    0.000    0.000    0.000    0.000 
#    0.000    0.000    0.000    0.000    0.000    0.000 
#
# Total GULP energy -89088.332267 kJ/mol
# GULP energy per Si atom -5568.020767 kJ/mol
# Density = 2.213629 g / cm^3
# Si number density = 22.186783 Si / 1000 Ang^3
#
#
#
# Elastic Constant Matrix: (Units=GPa)
#
#
# Indices 1 2 3 4 5 6 
#
# 1 140.3678 35.5155 38.1535 15.3246 20.8483 -27.2046
# 2 35.5155 65.3943 25.9640 20.1296 -2.6194 -17.4751
# 3 38.1535 25.9640 60.1457 11.2190 10.0065 1.5627
# 4 15.3246 20.1296 11.2190 33.1832 2.9665 -0.9133
# 5 20.8483 -2.6194 10.0065 2.9665 46.0736 3.9865
# 6 -27.2046 -17.4751 1.5627 -0.9133 3.9865 47.2729
#
#
#
# Elastic Compliance Matrix: (Units=1/GPa)
#
#
# Indices 1 2 3 4 5 6 
#
# 1 0.011088 -0.001948 -0.005327 -0.001574 -0.004404 0.006178
# 2 -0.001948 0.025788 -0.008581 -0.012003 0.004283 0.008103
# 3 -0.005327 -0.008581 0.024447 -0.000541 -0.002762 -0.006823
# 4 -0.001574 -0.012003 -0.000541 0.038379 -0.001941 -0.004420
# 5 -0.004404 0.004283 -0.002762 -0.001941 0.024925 -0.003000
# 6 0.006178 0.008103 -0.006823 -0.004420 -0.003000 0.028098
#
#
# Mechanical properties :
#
#
# Convention : Reuss Voigt Hill
#
# Bulk Modulus (GPa) = 33.76987 51.68598 42.72792
# Shear Modulus (GPa) = 25.73233 36.39095 31.06164
#
# Velocity S-wave (km/s) = 3.40929 4.05434 3.74573
# Velocity P-wave (km/s) = 5.54539 6.72780 6.16501
#
# Compressibility (1/GPa) = 0.02961220
#
# Stress axis : x y z
#
# Youngs Moduli (GPa) = 90.18433 38.77748 40.90399
#
# Poissons Ratio (x) = 0.07553 0.21790
# Poissons Ratio (y) = 0.17566 0.35099
# Poissons Ratio (z) = 0.48043 0.33275
#
# Static dielectric constant tensor:
#      x y z
#    x 0.737130 -0.288280 -0.054320 
#    y -0.288280 2.421800 0.047210 
#    z -0.054320 0.047210 1.849950 
# 
# From -- ./inp_files/441734.got.cif
#   From: 2010.05.17/outbox.cif.g08.bks.cpg/sg2_221_cif.got.tgz:441734.got - 2010.06.03 11:33:40.
