data_PCOD9039490
_publ_section_title
;
Structure prediction by ZEFSAII (Michael W. Deem and Ramdas Pophale) SiO2 
 PCOD9039490
Probable space group: P -1
;
_chemical_formula_sum "Si O2"
_cell_formula_units_Z 10
_cell_length_a 5.557300
_cell_length_b 14.395373
_cell_length_c 14.807055
_cell_angle_alpha 20.444255
_cell_angle_beta 100.169401
_cell_angle_gamma 99.597573
_cell_volume 407.257391
_symmetry_space_group_name_H-M "P -1"
_symmetry_group_IT_number 2
_symmetry_cell_setting 'triclinic'
loop_
_space_group_symop_operation_xyz
x,y,z
-x,-y,-z
loop_
_atom_site_type_symbol
_atom_site_label
_atom_site_fract_x
_atom_site_fract_y
_atom_site_fract_z
Si Si1 0.365406 0.930538 0.767066
Si Si2 0.838605 0.267948 0.238786
Si Si3 0.166709 0.642704 0.453590
Si Si4 0.435756 0.150802 0.951428
Si Si5 0.143645 0.763254 0.530027
O O1 0.404510 0.826866 0.966200
O O2 0.601009 0.115595 0.598425
O O3 0.093386 0.052646 0.640143
O O4 0.364518 0.770563 0.817081
O O5 0.784933 0.344736 0.268712
O O6 0.000000 0.000000 0.500000
O O7 0.000000 0.500000 0.000000
O O8 0.213488 0.951992 0.151569
O O9 0.064710 0.592398 0.593865
O O10 0.000000 0.500000 0.500000
O O11 0.403156 0.455595 0.641814
O O12 0.500000 0.000000 0.000000
#
# Coordination Sequence:
#
# PCOD9039490 Si02
#       5
#     2   2   2   2   2
#     4  10  23  45  69 100 136 178 224 276 333 397
#     4  10  23  42  68  98 134 176 222 274 332 394
#     4  11  24  42  67  99 134 176 222 275 333 396
#     4  11  24  42  67  99 134 176 222 275 333 396
#     4  10  23  45  69 100 136 178 224 276 333 397
#
# _framework density 24.554499
#
# number of rings (size 3 to 8) (size 9 to 14) (size 15 to 20)
#    0.000    1.600    0.000    3.000    0.000   17.600 
#    0.000    9.000    0.000    0.000    0.000    0.000 
#    0.000    0.000    0.000    0.000    0.000    0.000 
#
# Total GULP energy -55673.745175 kJ/mol
# GULP energy per Si atom -5567.374518 kJ/mol
# Density = 2.449861 g / cm^3
# Si number density = 24.554499 Si / 1000 Ang^3
#
#
#
# Elastic Constant Matrix: (Units=GPa)
#
#
# Indices 1 2 3 4 5 6 
#
# 1 -153.4436 84.4250 39.0893 -147.5389 75.9060 -49.9706
# 2 84.4250 243.5083 23.8134 108.9312 -28.6234 31.4698
# 3 39.0893 23.8134 97.9131 17.5960 -6.2237 5.3360
# 4 -147.5389 108.9312 17.5960 -75.5415 58.0518 -48.8540
# 5 75.9060 -28.6234 -6.2237 58.0518 5.6894 29.6682
# 6 -49.9706 31.4698 5.3360 -48.8540 29.6682 31.5086
#
#
#
# Elastic Compliance Matrix: (Units=1/GPa)
#
#
# Indices 1 2 3 4 5 6 
#
# 1 0.015987 0.003760 -0.003564 -0.015685 0.006953 -0.008665
# 2 0.003760 0.004106 -0.002081 -0.002686 -0.001481 -0.000556
# 3 -0.003564 -0.002081 0.011218 0.003902 -0.001668 0.002148
# 4 -0.015685 -0.002686 0.003902 0.018747 0.006048 0.000517
# 5 0.006953 -0.001481 -0.001668 0.006048 0.026490 -0.002776
# 6 -0.008665 -0.000556 0.002148 0.000517 -0.002776 0.021603
#
#
# Mechanical properties :
#
#
# Convention : Reuss Voigt Hill
#
# Bulk Modulus (GPa) = 36.31003 53.62591 44.96797
# Shear Modulus (GPa) = 45.00478 -4.95868 20.02305
#
# Velocity S-wave (km/s) = 4.28583 -1.42262 2.85871
# Velocity P-wave (km/s) = 6.26983 4.38047 5.40829
#
# Compressibility (1/GPa) = 0.02754060
#
# Stress axis : x y z
#
# Youngs Moduli (GPa) = 62.55129 243.56073 89.14584
#
# Poissons Ratio (x) = -0.91570 0.31769
# Poissons Ratio (y) = -0.23517 0.18549
# Poissons Ratio (z) = 0.22292 0.50678
#
# Static dielectric constant tensor:
#      x y z
#    x 2.028180 0.133360 0.196850 
#    y 0.133360 2.430730 0.035410 
#    z 0.196850 0.035410 1.955290 
# 
# From -- ./inp_files/2843.got.cif
#   From: 2010.05.17/outbox.cif.g08.bks.cpg/sg2_2_cif.got.tgz:2843.got - 2010.06.03 11:33:40.
