data_PCOD9039353
_publ_section_title
;
Structure prediction by ZEFSAII (Michael W. Deem and Ramdas Pophale) SiO2 
 PCOD9039353
Probable space group: P -1
;
_chemical_formula_sum "Si O2"
_cell_formula_units_Z 14
_cell_length_a 24.967672
_cell_length_b 5.699317
_cell_length_c 15.647846
_cell_angle_alpha 123.691903
_cell_angle_beta 19.666856
_cell_angle_gamma 122.060580
_cell_volume 623.229963
_symmetry_space_group_name_H-M "P -1"
_symmetry_group_IT_number 2
_symmetry_cell_setting 'triclinic'
loop_
_space_group_symop_operation_xyz
x,y,z
-x,-y,-z
loop_
_atom_site_type_symbol
_atom_site_label
_atom_site_fract_x
_atom_site_fract_y
_atom_site_fract_z
Si Si1 0.936728 0.618062 0.707261
Si Si2 0.450328 0.169440 0.192096
Si Si3 0.127446 0.943483 0.869835
Si Si4 0.474017 0.828029 0.263373
Si Si5 0.361431 0.014891 0.781249
Si Si6 0.909032 0.830727 0.321497
Si Si7 0.099930 0.549689 0.097772
O O1 0.932848 0.389607 0.742074
O O2 0.000000 0.500000 0.500000
O O3 0.756052 0.722342 0.992838
O O4 0.045810 0.878217 0.636008
O O5 0.512663 0.494699 0.149291
O O6 0.258185 0.166328 0.473372
O O7 0.498323 0.997294 0.171216
O O8 0.500000 0.000000 0.000000
O O9 0.287362 0.834325 0.568540
O O10 0.160545 0.240687 0.927607
O O11 0.000000 0.000000 0.000000
O O12 0.041304 0.769723 0.039123
O O13 0.565203 0.990229 0.235616
O O14 0.500000 0.000000 0.500000
O O15 0.238509 0.756619 0.898978
O O16 0.934989 0.591857 0.304585
#
# Coordination Sequence:
#
# PCOD9039353 Si02
#       7
#     2   2   2   2   2   2   2
#     4  10  24  42  69  99 131 187 241 290 350 425
#     4  12  29  48  69 104 145 191 239 294 355 428
#     4  11  22  41  70 103 135 179 233 289 356 426
#     4  12  28  45  74 106 140 195 234 292 365 428
#     4  11  26  44  68 105 145 185 238 302 362 432
#     4  10  23  42  68 100 136 177 231 298 346 421
#     4  10  23  42  69 100 142 181 231 299 355 418
#
# _framework density 22.463618
#
# number of rings (size 3 to 8) (size 9 to 14) (size 15 to 20)
#    0.000    1.143    1.429    3.857   10.000    5.714 
#    0.000    0.000    0.000    0.000    0.000    0.000 
#    0.000    0.000    0.000    0.000    0.000    0.000 
#
# Total GULP energy -78198.937228 kJ/mol
# GULP energy per Si atom -5585.638373 kJ/mol
# Density = 2.241249 g / cm^3
# Si number density = 22.463618 Si / 1000 Ang^3
#
#
#
# Elastic Constant Matrix: (Units=GPa)
#
#
# Indices 1 2 3 4 5 6 
#
# 1 183.6938 35.8045 39.2099 -1.1719 13.5587 -18.4826
# 2 35.8045 82.1122 15.9003 8.2714 14.1376 -0.5811
# 3 39.2099 15.9003 44.3702 4.6460 17.0309 -10.1498
# 4 -1.1719 8.2714 4.6460 20.7844 7.0870 0.7680
# 5 13.5587 14.1376 17.0309 7.0870 47.2488 -4.1987
# 6 -18.4826 -0.5811 -10.1498 0.7680 -4.1987 39.0095
#
#
#
# Elastic Compliance Matrix: (Units=1/GPa)
#
#
# Indices 1 2 3 4 5 6 
#
# 1 0.007275 -0.002402 -0.005537 0.002379 0.000445 0.001971
# 2 -0.002402 0.014479 -0.002051 -0.004574 -0.002362 -0.001620
# 3 -0.005537 -0.002051 0.033086 -0.004131 -0.008650 0.005105
# 4 0.002379 -0.004574 -0.004131 0.053078 -0.005938 -0.001700
# 5 0.000445 -0.002362 -0.008650 -0.005938 0.025825 0.000822
# 6 0.001971 -0.001620 0.005105 -0.001700 0.000822 0.027995
#
#
# Mechanical properties :
#
#
# Convention : Reuss Voigt Hill
#
# Bulk Modulus (GPa) = 28.68649 54.66729 41.67689
# Shear Modulus (GPa) = 25.86150 36.02596 30.94373
#
# Velocity S-wave (km/s) = 3.39671 4.00903 3.71550
# Velocity P-wave (km/s) = 5.30862 6.76893 6.08276
#
# Compressibility (1/GPa) = 0.03485961
#
# Stress axis : x y z
#
# Youngs Moduli (GPa) = 137.46510 69.06559 30.22421
#
# Poissons Ratio (x) = 0.16591 0.16734
# Poissons Ratio (y) = 0.33023 0.06199
# Poissons Ratio (z) = 0.76111 0.14165
#
# Static dielectric constant tensor:
#      x y z
#    x 1.875030 -0.033320 -0.024610 
#    y -0.033320 1.939660 0.027470 
#    z -0.024610 0.027470 1.838380 
# 
# From -- ./inp_files/68752.got.cif
#   From: 2010.05.17/outbox.cif.g08.bks.cpg/sg2_35_cif.got.tgz:68752.got - 2010.06.03 11:33:40.
