data_PCOD9039335
_publ_section_title
;
Structure prediction by ZEFSAII (Michael W. Deem and Ramdas Pophale) SiO2 
 PCOD9039335
Probable space group: P -1
;
_chemical_formula_sum "Si O2"
_cell_formula_units_Z 14
_cell_length_a 7.243481
_cell_length_b 13.132859
_cell_length_c 18.531279
_cell_angle_alpha 158.932176
_cell_angle_beta 64.404732
_cell_angle_gamma 122.328890
_cell_volume 522.268122
_symmetry_space_group_name_H-M "P -1"
_symmetry_group_IT_number 2
_symmetry_cell_setting 'triclinic'
loop_
_space_group_symop_operation_xyz
x,y,z
-x,-y,-z
loop_
_atom_site_type_symbol
_atom_site_label
_atom_site_fract_x
_atom_site_fract_y
_atom_site_fract_z
Si Si1 0.568137 0.652191 0.224145
Si Si2 0.484033 0.199758 0.062048
Si Si3 0.977256 0.799405 0.172353
Si Si4 0.976414 0.165051 0.540900
Si Si5 0.296174 0.609326 0.601003
Si Si6 0.047988 0.249929 0.019323
Si Si7 0.164315 0.444543 0.354309
O O1 0.711215 0.701996 0.159452
O O2 0.941555 0.471247 0.219302
O O3 0.289774 0.994562 0.537702
O O4 0.631461 0.449974 0.140476
O O5 0.373756 0.912549 0.836766
O O6 0.729943 0.375928 0.471439
O O7 0.500000 0.000000 0.000000
O O8 0.092717 0.056731 0.384990
O O9 0.042413 0.846845 0.110020
O O10 0.000000 0.500000 0.000000
O O11 0.000000 0.000000 0.500000
O O12 0.500000 0.500000 0.500000
O O13 0.028675 0.438059 0.555813
O O14 0.310934 0.458859 0.119835
O O15 0.352902 0.414320 0.251882
O O16 0.976699 0.922812 0.852447
#
# Coordination Sequence:
#
# PCOD9039335 Si02
#       7
#     2   2   2   2   2   2   2
#     4  10  25  45  68 102 141 182 240 285 356 430
#     4  12  25  48  74 107 151 195 233 303 368 438
#     4  10  23  42  67  98 138 184 233 287 353 415
#     4  10  23  42  68 102 136 187 233 285 355 427
#     4  11  24  49  70 107 142 191 253 293 368 435
#     4  12  22  47  71 100 146 178 238 301 349 430
#     4  11  27  45  75 107 149 191 243 303 368 434
#
# _framework density 26.806151
#
# number of rings (size 3 to 8) (size 9 to 14) (size 15 to 20)
#    0.857    0.286    4.286    1.286    4.000    1.143 
#    5.143    0.000    0.000    0.000    0.000    0.000 
#    0.000    0.000    0.000    0.000    0.000    0.000 
#
# Total GULP energy -77990.194523 kJ/mol
# GULP energy per Si atom -5570.728180 kJ/mol
# Density = 2.674514 g / cm^3
# Si number density = 26.806151 Si / 1000 Ang^3
#
#
#
# Elastic Constant Matrix: (Units=GPa)
#
#
# Indices 1 2 3 4 5 6 
#
# 1 60.2832 4.7144 33.6807 -11.0776 7.1391 -9.1986
# 2 4.7144 81.0860 53.2597 -3.3054 8.0408 -13.7256
# 3 33.6807 53.2597 163.2502 -26.0716 23.6176 -42.2302
# 4 -11.0776 -3.3054 -26.0716 36.8453 -1.7548 5.0938
# 5 7.1391 8.0408 23.6176 -1.7548 52.2627 -4.1538
# 6 -9.1986 -13.7256 -42.2302 5.0938 -4.1538 37.5178
#
#
#
# Elastic Compliance Matrix: (Units=1/GPa)
#
#
# Indices 1 2 3 4 5 6 
#
# 1 0.019337 0.001648 -0.003698 0.003207 -0.001066 0.000628
# 2 0.001648 0.016044 -0.005959 -0.002267 -0.000088 -0.000135
# 3 -0.003698 -0.005959 0.012932 0.005920 -0.003406 0.010289
# 4 0.003207 -0.002267 0.005920 0.031721 -0.001529 0.002144
# 5 -0.001066 -0.000088 -0.003406 -0.001529 0.020651 -0.001633
# 6 0.000628 -0.000135 0.010289 0.002144 -0.001633 0.037868
#
#
# Mechanical properties :
#
#
# Convention : Reuss Voigt Hill
#
# Bulk Modulus (GPa) = 30.96479 54.21433 42.58956
# Shear Modulus (GPa) = 30.24131 39.52282 34.88206
#
# Velocity S-wave (km/s) = 3.36244 3.84395 3.61123
# Velocity P-wave (km/s) = 5.16247 6.32216 5.77152
#
# Compressibility (1/GPa) = 0.03229475
#
# Stress axis : x y z
#
# Youngs Moduli (GPa) = 51.71399 62.32887 77.32590
#
# Poissons Ratio (x) = -0.10269 0.28597
# Poissons Ratio (y) = -0.08520 0.46075
# Poissons Ratio (z) = 0.19125 0.37139
#
# Static dielectric constant tensor:
#      x y z
#    x 1.649430 0.439650 -0.182790 
#    y 0.439650 1.925140 -0.019400 
#    z -0.182790 -0.019400 2.200910 
# 
# From -- ./inp_files/559365.got.cif
#   From: 2010.05.17/outbox.cif.g08.bks.cpg/sg2_280_cif.got.tgz:559365.got - 2010.06.03 11:33:40.
