data_PCOD9039921
_publ_section_title
;
Structure prediction by ZEFSAII (Michael W. Deem and Ramdas Pophale) SiO2 
 PCOD9039921
Probable space group: P -1
;
_chemical_formula_sum "Si O2"
_cell_formula_units_Z 16
_cell_length_a 14.078749
_cell_length_b 4.971537
_cell_length_c 11.333728
_cell_angle_alpha 104.601252
_cell_angle_beta 122.831970
_cell_angle_gamma 68.379962
_cell_volume 618.280072
_symmetry_space_group_name_H-M "P -1"
_symmetry_group_IT_number 2
_symmetry_cell_setting 'triclinic'
loop_
_space_group_symop_operation_xyz
x,y,z
-x,-y,-z
loop_
_atom_site_type_symbol
_atom_site_label
_atom_site_fract_x
_atom_site_fract_y
_atom_site_fract_z
Si Si1 0.200958 0.313868 0.104640
Si Si2 0.151060 0.083329 0.271076
Si Si3 0.378669 0.744203 0.472552
Si Si4 0.594471 0.679062 0.112507
Si Si5 0.993384 0.799788 0.587164
Si Si6 0.387597 0.364491 0.638028
Si Si7 0.425925 0.305666 0.145332
Si Si8 0.897594 0.184729 0.093027
O O1 0.132543 0.545780 0.987550
O O2 0.186027 0.009018 0.016490
O O3 0.157078 0.339397 0.213701
O O4 0.339684 0.281729 0.187997
O O5 0.123201 0.136583 0.397510
O O6 0.034749 0.004209 0.144008
O O7 0.277390 0.851461 0.319834
O O8 0.500000 0.500000 0.500000
O O9 0.325448 0.594102 0.524631
O O10 0.595751 0.958510 0.433538
O O11 0.672256 0.572974 0.267552
O O12 0.524319 0.006543 0.142524
O O13 0.500000 0.500000 0.000000
O O14 0.653674 0.652696 0.022656
O O15 0.000000 0.500000 0.500000
O O16 0.092759 0.769645 0.753971
O O17 0.000000 0.000000 0.500000
O O18 0.509302 0.450822 0.755714
#
# Coordination Sequence:
#
# PCOD9039921 Si02
#       8
#     2   2   2   2   2   2   2   2
#     4  12  25  47  76 117 142 202 255 317 388 457
#     4  10  28  50  78 109 158 199 253 331 379 451
#     4  12  28  47  73 110 146 207 263 308 395 467
#     4   9  20  43  70 102 153 197 247 320 378 449
#     4  10  23  48  76 106 153 199 248 316 379 455
#     4  11  24  47  68 102 150 201 255 315 376 467
#     4  10  23  42  72 109 152 192 255 319 384 451
#     4  10  26  46  78 108 152 192 255 314 387 453
#
# _framework density 25.878239000000001
#
# number of rings (size 3 to 8) (size 9 to 14) (size 15 to 20)
#    0.750    0.750    1.250    1.875    5.250    5.000 
#    6.750    0.000    0.000    0.000    0.000    0.000 
#    0.000    0.000    0.000    0.000    0.000    0.000 
#
# Total GULP energy -89297.496630 kJ/mol
# GULP energy per Si atom -5581.093539 kJ/mol
# Density = 2.581934 g / cm^3
# Si number density = 25.878239 Si / 1000 Ang^3
#
#
#
# Elastic Constant Matrix: (Units=GPa)
#
#
# Indices 1 2 3 4 5 6 
#
# 1 118.2335 43.4972 42.1724 1.0102 -19.4742 -6.4283
# 2 43.4972 185.6411 66.4960 0.7929 -13.1427 14.9647
# 3 42.1724 66.4960 180.4477 -18.6842 -24.8186 1.5568
# 4 1.0102 0.7929 -18.6842 55.2950 11.9970 -2.9227
# 5 -19.4742 -13.1427 -24.8186 11.9970 53.1150 -6.5154
# 6 -6.4283 14.9647 1.5568 -2.9227 -6.5154 32.2175
#
#
#
# Elastic Compliance Matrix: (Units=1/GPa)
#
#
# Indices 1 2 3 4 5 6 
#
# 1 0.010461 -0.002002 -0.001392 -0.001178 0.003405 0.003666
# 2 -0.002002 0.006916 -0.002185 -0.000933 -0.000280 -0.003648
# 3 -0.001392 -0.002185 0.007148 0.002104 0.001933 0.000973
# 4 -0.001178 -0.000933 0.002104 0.019758 -0.004010 0.001078
# 5 0.003405 -0.000280 0.001933 -0.004010 0.022414 0.004885
# 6 0.003666 -0.003648 0.000973 0.001078 0.004885 0.034504
#
#
# Mechanical properties :
#
#
# Convention : Reuss Voigt Hill
#
# Bulk Modulus (GPa) = 74.80758 87.62818 81.21788
# Shear Modulus (GPa) = 42.80287 50.26927 46.53607
#
# Velocity S-wave (km/s) = 4.07136 4.41220 4.24520
# Velocity P-wave (km/s) = 7.14644 7.73898 7.44861
#
# Compressibility (1/GPa) = 0.01336763
#
# Stress axis : x y z
#
# Youngs Moduli (GPa) = 95.59086 144.58212 139.90858
#
# Poissons Ratio (x) = 0.28943 0.19482
# Poissons Ratio (y) = 0.19135 0.30564
# Poissons Ratio (z) = 0.13311 0.31585
#
# Static dielectric constant tensor:
#      x y z
#    x 2.104820 -0.034370 0.005120 
#    y -0.034370 1.974090 0.000710 
#    z 0.005120 0.000710 2.047030 
# 
# From -- ./inp_files/441831.got.cif
#   From: 2010.05.17/outbox.cif.g08.bks.cpg/sg2_221_cif.got.tgz:441831.got - 2010.06.03 11:33:40.
