data_PCOD9039501
_publ_section_title
;
Structure prediction by ZEFSAII (Michael W. Deem and Ramdas Pophale) SiO2 
 PCOD9039501
Probable space group: P -1
;
_chemical_formula_sum "Si O2"
_cell_formula_units_Z 15
_cell_length_a 10.736469
_cell_length_b 7.349970
_cell_length_c 8.129028
_cell_angle_alpha 93.145464
_cell_angle_beta 118.969742
_cell_angle_gamma 98.885432
_cell_volume 548.207386
_symmetry_space_group_name_H-M "P -1"
_symmetry_group_IT_number 2
_symmetry_cell_setting 'triclinic'
loop_
_space_group_symop_operation_xyz
x,y,z
-x,-y,-z
loop_
_atom_site_type_symbol
_atom_site_label
_atom_site_fract_x
_atom_site_fract_y
_atom_site_fract_z
Si Si1 0.500000 0.000000 0.500000
Si Si2 0.494702 0.264676 0.833329
Si Si3 0.756847 0.363821 0.246272
Si Si4 0.751255 0.165149 0.776937
Si Si5 0.048749 0.874782 0.794947
Si Si6 0.789293 0.531439 0.635114
Si Si7 0.211538 0.240075 0.847064
Si Si8 0.431451 0.343732 0.279067
O O1 0.317883 0.989805 0.403502
O O2 0.484477 0.808492 0.608421
O O3 0.579504 0.164163 0.741957
O O4 0.329165 0.199988 0.783842
O O5 0.507893 0.475096 0.788316
O O6 0.601461 0.271115 0.059782
O O7 0.858484 0.219388 0.278580
O O8 0.771859 0.440668 0.441592
O O9 0.811945 0.551757 0.183557
O O10 0.817887 0.370372 0.767632
O O11 0.860195 0.119108 0.977238
O O12 0.903258 0.724409 0.715829
O O13 0.064149 0.085891 0.756401
O O14 0.641764 0.576409 0.609871
O O15 0.299922 0.240406 0.072587
#
# Coordination Sequence:
#
# PCOD9039501 Si02
#       8
#     1   2   2   2   2   2   2   2
#     4  12  24  40  66 108 134 158 234 276 342 396
#     4   9  22  43  66  93 135 176 215 272 349 390
#     4  10  23  42  68  99 130 180 222 282 327 389
#     4  10  24  41  68  97 133 172 218 284 328 395
#     4  11  24  48  67  96 136 184 228 262 335 402
#     4  11  25  44  69  95 135 182 222 276 327 395
#     4  11  23  44  67  97 136 180 220 274 338 404
#     4  10  23  44  65 101 135 172 217 281 341 391
#
# _framework density 27.361910000000002
#
# number of rings (size 3 to 8) (size 9 to 14) (size 15 to 20)
#    0.000    1.600    1.333    3.200    5.600    5.333 
#    2.400    0.000    0.000    0.000    0.000    0.000 
#    0.000    0.000    0.000    0.000    0.000    0.000 
#
# Total GULP energy -83866.666977 kJ/mol
# GULP energy per Si atom -5591.111132 kJ/mol
# Density = 2.729963 g / cm^3
# Si number density = 27.361910 Si / 1000 Ang^3
#
#
#
# Elastic Constant Matrix: (Units=GPa)
#
#
# Indices 1 2 3 4 5 6 
#
# 1 44.3338 17.0836 9.0523 11.7775 -7.3945 14.5035
# 2 17.0836 158.9827 13.7352 -3.4425 11.1133 31.2180
# 3 9.0523 13.7352 103.1382 -0.5908 -22.3948 2.3544
# 4 11.7775 -3.4425 -0.5908 26.1628 4.9059 17.7007
# 5 -7.3945 11.1133 -22.3948 4.9059 27.2124 8.9777
# 6 14.5035 31.2180 2.3544 17.7007 8.9777 54.5174
#
#
#
# Elastic Compliance Matrix: (Units=1/GPa)
#
#
# Indices 1 2 3 4 5 6 
#
# 1 0.031687 -0.004160 0.001052 -0.015142 0.015114 -0.003665
# 2 -0.004160 0.008477 -0.001857 0.007518 -0.005774 -0.005157
# 3 0.001052 -0.001857 0.012476 -0.001944 0.012026 -0.001105
# 4 -0.015142 0.007518 -0.001944 0.060451 -0.013899 -0.017531
# 5 0.015114 -0.005774 0.012026 -0.013899 0.057667 -0.006217
# 6 -0.003665 -0.005157 -0.001105 -0.017531 -0.006217 0.029034
#
#
# Mechanical properties :
#
#
# Convention : Reuss Voigt Hill
#
# Bulk Modulus (GPa) = 23.41437 42.91078 33.16258
# Shear Modulus (GPa) = 22.32542 39.35078 30.83810
#
# Velocity S-wave (km/s) = 2.85955 3.79642 3.36079
# Velocity P-wave (km/s) = 4.41345 5.91048 5.21595
#
# Compressibility (1/GPa) = 0.04270881
#
# Stress axis : x y z
#
# Youngs Moduli (GPa) = 31.55841 117.97294 80.15349
#
# Poissons Ratio (x) = 0.49082 -0.08429
# Poissons Ratio (y) = 0.13130 0.14882
# Poissons Ratio (z) = -0.03319 0.21904
#
# Static dielectric constant tensor:
#      x y z
#    x 2.228380 0.023290 -0.089920 
#    y 0.023290 2.270300 0.207050 
#    z -0.089920 0.207050 2.398440 
# 
# From -- ./inp_files/234452.got.cif
#   From: 2010.05.17/outbox.cif.g08.bks.cpg/sg2_118_cif.got.tgz:234452.got - 2010.06.03 11:33:40.
