data_PCOD9039470
_publ_section_title
;
Structure prediction by ZEFSAII (Michael W. Deem and Ramdas Pophale) SiO2 
 PCOD9039470
Probable space group: P -1
;
_chemical_formula_sum "Si O2"
_cell_formula_units_Z 16
_cell_length_a 6.938878
_cell_length_b 11.163635
_cell_length_c 25.794268
_cell_angle_alpha 30.066985
_cell_angle_beta 134.340226
_cell_angle_gamma 121.748751
_cell_volume 698.499209
_symmetry_space_group_name_H-M "P -1"
_symmetry_group_IT_number 2
_symmetry_cell_setting 'triclinic'
loop_
_space_group_symop_operation_xyz
x,y,z
-x,-y,-z
loop_
_atom_site_type_symbol
_atom_site_label
_atom_site_fract_x
_atom_site_fract_y
_atom_site_fract_z
Si Si1 0.118279 0.500371 0.080314
Si Si2 0.273136 0.142054 0.465079
Si Si3 0.583484 0.413892 0.490413
Si Si4 0.737183 0.369866 0.213602
Si Si5 0.023689 0.743531 0.071919
Si Si6 0.289468 0.758512 0.853316
Si Si7 0.413345 0.623424 0.650424
Si Si8 0.772768 0.733136 0.322080
O O1 0.444230 0.446165 0.156782
O O2 0.009341 0.735034 0.009517
O O3 0.006874 0.288569 0.168373
O O4 0.000000 0.500000 0.000000
O O5 0.365606 0.252435 0.493463
O O6 0.496253 0.228027 0.436771
O O7 0.986192 0.264444 0.338170
O O8 0.704377 0.148099 0.420486
O O9 0.500000 0.500000 0.500000
O O10 0.591261 0.635782 0.368569
O O11 0.908446 0.280347 0.598170
O O12 0.716851 0.189865 0.228674
O O13 0.809911 0.604800 0.110789
O O14 0.319404 0.562166 0.207618
O O15 0.000000 0.000000 0.000000
O O16 0.354216 0.979837 0.815775
O O17 0.500000 0.500000 0.000000
O O18 0.226913 0.447357 0.658738
#
# Coordination Sequence:
#
# PCOD9039470 Si02
#       8
#     2   2   2   2   2   2   2   2
#     4  11  24  43  66 101 131 178 239 287 347 415
#     4   9  20  41  68  95 135 175 223 273 344 411
#     4  10  23  44  68 104 136 175 224 282 342 409
#     4  10  23  42  68  97 132 181 231 284 349 414
#     4  10  24  41  69  97 138 181 230 285 350 414
#     4  11  24  43  69  98 136 181 229 287 354 408
#     4   9  20  40  68  98 131 180 223 274 339 412
#     4  10  24  41  69  99 136 175 228 282 338 405
#
# _framework density 22.906254000000001
#
# number of rings (size 3 to 8) (size 9 to 14) (size 15 to 20)
#    0.000    2.000    1.250    0.000   14.000    2.500 
#    0.000    2.500    0.000    0.000    0.000    0.000 
#    0.000    0.000    0.000    0.000    0.000    0.000 
#
# Total GULP energy -89362.034323 kJ/mol
# GULP energy per Si atom -5585.127145 kJ/mol
# Density = 2.285412 g / cm^3
# Si number density = 22.906254 Si / 1000 Ang^3
#
#
#
# Elastic Constant Matrix: (Units=GPa)
#
#
# Indices 1 2 3 4 5 6 
#
# 1 118.9706 53.7095 23.5840 -7.8366 9.6883 -11.1128
# 2 53.7095 207.1175 82.2360 -15.4787 17.6375 -23.7933
# 3 23.5840 82.2360 101.7332 -14.6354 17.1098 -2.6523
# 4 -7.8366 -15.4787 -14.6354 38.4864 -0.9845 5.6859
# 5 9.6883 17.6375 17.1098 -0.9845 19.3171 10.1884
# 6 -11.1128 -23.7933 -2.6523 5.6859 10.1884 43.6636
#
#
#
# Elastic Compliance Matrix: (Units=1/GPa)
#
#
# Indices 1 2 3 4 5 6 
#
# 1 0.009890 -0.001907 0.000222 0.000846 -0.004676 0.002472
# 2 -0.001907 0.008439 -0.005502 0.000093 -0.004400 0.004794
# 3 0.000222 -0.005502 0.016315 0.003847 -0.009179 -0.000310
# 4 0.000846 0.000093 0.003847 0.028066 -0.000938 -0.002936
# 5 -0.004676 -0.004400 -0.009179 -0.000938 0.077924 -0.022206
# 6 0.002472 0.004794 -0.000310 -0.002936 -0.022206 0.031689
#
#
# Mechanical properties :
#
#
# Convention : Reuss Voigt Hill
#
# Bulk Modulus (GPa) = 49.33500 82.98672 66.16086
# Shear Modulus (GPa) = 25.84592 38.17952 32.01272
#
# Velocity S-wave (km/s) = 3.36271 4.08704 3.74244
# Velocity P-wave (km/s) = 6.05489 7.65372 6.90076
#
# Compressibility (1/GPa) = 0.02026959
#
# Stress axis : x y z
#
# Youngs Moduli (GPa) = 101.11272 118.49043 61.29472
#
# Poissons Ratio (x) = 0.22599 -0.01358
# Poissons Ratio (y) = 0.19284 0.33722
# Poissons Ratio (z) = -0.02240 0.65188
#
# Static dielectric constant tensor:
#      x y z
#    x 1.887470 -0.045830 0.013760 
#    y -0.045830 1.945420 0.041020 
#    z 0.013760 0.041020 1.894640 
# 
# From -- ./inp_files/615505.got.cif
#   From: 2010.05.17/outbox.cif.g08.bks.cpg/sg2_308_cif.got.tgz:615505.got - 2010.06.03 11:33:40.
