data_PCOD9039697
_publ_section_title
;
Structure prediction by ZEFSAII (Michael W. Deem and Ramdas Pophale) SiO2 
 PCOD9039697
Probable space group: P -1
;
_chemical_formula_sum "Si O2"
_cell_formula_units_Z 16
_cell_length_a 11.744357
_cell_length_b 12.057139
_cell_length_c 11.091780
_cell_angle_alpha 101.273740
_cell_angle_beta 116.974877
_cell_angle_gamma 131.165332
_cell_volume 712.893450
_symmetry_space_group_name_H-M "P -1"
_symmetry_group_IT_number 2
_symmetry_cell_setting 'triclinic'
loop_
_space_group_symop_operation_xyz
x,y,z
-x,-y,-z
loop_
_atom_site_type_symbol
_atom_site_label
_atom_site_fract_x
_atom_site_fract_y
_atom_site_fract_z
Si Si1 0.567460 0.788398 0.388952
Si Si2 0.342695 0.284271 0.811252
Si Si3 0.765324 0.736402 0.630036
Si Si4 0.419842 0.987814 0.087613
Si Si5 0.065551 0.508360 0.167583
Si Si6 0.820922 0.213742 0.523210
Si Si7 0.214165 0.376827 0.608824
Si Si8 0.277742 0.134981 0.003447
O O1 0.525199 0.694451 0.219762
O O2 0.721246 0.817405 0.549780
O O3 0.311953 0.621151 0.296509
O O4 0.705208 0.011001 0.479145
O O5 0.159994 0.224536 0.632099
O O6 0.262461 0.145969 0.854052
O O7 0.500000 0.500000 0.000000
O O8 0.500000 0.500000 0.500000
O O9 0.849850 0.698056 0.574525
O O10 0.996979 0.931916 0.868684
O O11 0.622944 0.113780 0.313285
O O12 0.164791 0.736484 0.948180
O O13 0.500000 0.000000 0.000000
O O14 0.379349 0.090046 0.076578
O O15 0.117263 0.651508 0.313139
O O16 0.000000 0.500000 0.000000
O O17 0.065000 0.363746 0.597317
O O18 0.508696 0.618437 0.799053
#
# Coordination Sequence:
#
# PCOD9039697 Si02
#       8
#     2   2   2   2   2   2   2   2
#     4  11  23  44  71 103 140 184 239 300 357 432
#     4   9  20  40  71 102 136 178 234 290 355 430
#     4  11  24  44  66 100 144 180 228 298 360 427
#     4  12  26  44  71 104 148 192 243 298 361 433
#     4  12  28  48  72 104 146 194 248 304 366 426
#     4  12  26  46  73 106 144 191 249 299 358 436
#     4  10  23  42  70 102 135 182 237 291 359 426
#     4  11  23  41  67 100 136 185 230 285 357 427
#
# _framework density 22.443745
#
# number of rings (size 3 to 8) (size 9 to 14) (size 15 to 20)
#    0.000    1.000    1.250    4.875    3.500    6.500 
#    2.250    0.000    0.000    0.000    0.000    0.000 
#    0.000    0.000    0.000    0.000    0.000    0.000 
#
# Total GULP energy -89478.395497 kJ/mol
# GULP energy per Si atom -5592.399719 kJ/mol
# Density = 2.239266 g / cm^3
# Si number density = 22.443745 Si / 1000 Ang^3
#
#
#
# Elastic Constant Matrix: (Units=GPa)
#
#
# Indices 1 2 3 4 5 6 
#
# 1 132.0757 22.1872 52.9346 2.2572 -14.7193 11.8860
# 2 22.1872 114.4635 36.9649 13.1229 -3.2172 -10.3278
# 3 52.9346 36.9649 116.9942 14.7363 -3.6931 4.8088
# 4 2.2572 13.1229 14.7363 40.5419 1.5399 11.7943
# 5 -14.7193 -3.2172 -3.6931 1.5399 45.3424 -0.3354
# 6 11.8860 -10.3278 4.8088 11.7943 -0.3354 36.5551
#
#
#
# Elastic Compliance Matrix: (Units=1/GPa)
#
#
# Indices 1 2 3 4 5 6 
#
# 1 0.010067 -0.001105 -0.004259 0.002333 0.002736 -0.003753
# 2 -0.001105 0.010694 -0.002578 -0.003929 0.000360 0.004991
# 3 -0.004259 -0.002578 0.011669 -0.003194 -0.000505 0.000147
# 4 0.002333 -0.003929 -0.003194 0.030267 -0.000892 -0.011222
# 5 0.002736 0.000360 -0.000505 -0.000892 0.022956 -0.000223
# 6 -0.003753 0.004991 0.000147 -0.011222 -0.000223 0.033585
#
#
# Mechanical properties :
#
#
# Convention : Reuss Voigt Hill
#
# Bulk Modulus (GPa) = 60.43641 65.30076 62.86859
# Shear Modulus (GPa) = 35.55271 41.25099 38.40185
#
# Velocity S-wave (km/s) = 3.98437 4.29181 4.14094
# Velocity P-wave (km/s) = 6.93926 7.32925 7.13692
#
# Compressibility (1/GPa) = 0.01654632
#
# Stress axis : x y z
#
# Youngs Moduli (GPa) = 99.33759 93.51151 85.69694
#
# Poissons Ratio (x) = 0.10334 0.36497
# Poissons Ratio (y) = 0.10978 0.22090
# Poissons Ratio (z) = 0.42306 0.24104
#
# Static dielectric constant tensor:
#      x y z
#    x 2.218700 -0.301500 -1.068970 
#    y -0.301500 2.116370 0.895040 
#    z -1.068970 0.895040 4.741070 
# 
# From -- ./inp_files/428438.got.cif
#   From: 2010.05.17/outbox.cif.g08.bks.cpg/sg2_215_cif.got.tgz:428438.got - 2010.06.03 11:33:40.
