data_PCOD9039233
_publ_section_title
;
Structure prediction by ZEFSAII (Michael W. Deem and Ramdas Pophale) SiO2 
 PCOD9039233
Probable space group: P -1
;
_chemical_formula_sum "Si O2"
_cell_formula_units_Z 16
_cell_length_a 22.865073
_cell_length_b 17.423913
_cell_length_c 11.589742
_cell_angle_alpha 148.368814
_cell_angle_beta 148.292290
_cell_angle_gamma 19.054095
_cell_volume 761.544017
_symmetry_space_group_name_H-M "P -1"
_symmetry_group_IT_number 2
_symmetry_cell_setting 'triclinic'
loop_
_space_group_symop_operation_xyz
x,y,z
-x,-y,-z
loop_
_atom_site_type_symbol
_atom_site_label
_atom_site_fract_x
_atom_site_fract_y
_atom_site_fract_z
Si Si1 0.868155 0.909450 0.474845
Si Si2 0.149170 0.372957 0.370880
Si Si3 0.995264 0.264031 0.110390
Si Si4 0.135705 0.852288 0.925779
Si Si5 0.131231 0.731102 0.337907
Si Si6 0.896795 0.741206 0.076650
Si Si7 0.662296 0.576001 0.136146
Si Si8 0.485121 0.528962 0.374344
O O1 0.798843 0.923505 0.252988
O O2 0.979619 0.664370 0.419754
O O3 0.025578 0.867229 0.669163
O O4 0.697045 0.180575 0.589230
O O5 0.322606 0.286333 0.595316
O O6 0.069446 0.342476 0.292446
O O7 0.204201 0.217136 0.152091
O O8 0.835691 0.424325 0.144937
O O9 0.906378 0.278250 0.868371
O O10 0.155977 0.990328 0.082676
O O11 0.303653 0.580138 0.905733
O O12 0.000000 0.000000 0.000000
O O13 0.338217 0.567307 0.494218
O O14 0.061718 0.668974 0.215430
O O15 0.000000 0.000000 0.500000
O O16 0.000000 0.500000 0.000000
O O17 0.521666 0.628708 0.890279
O O18 0.500000 0.500000 0.500000
#
# Coordination Sequence:
#
# PCOD9039233 Si02
#       8
#     2   2   2   2   2   2   2   2
#     4  10  18  35  59  83 114 151 191 235 280 333
#     4   9  20  32  57  87 116 155 188 228 281 347
#     4  10  17  33  54  85 114 149 190 226 278 342
#     4   9  15  28  53  82 110 149 183 229 277 332
#     4  11  22  36  60  85 110 149 195 238 287 346
#     4   9  19  37  57  81 113 155 188 225 281 342
#     4  10  19  33  54  86 116 149 187 236 282 337
#     4  12  21  35  59  87 115 145 194 246 285 329
#
# _framework density 21.009948000000001
#
# number of rings (size 3 to 8) (size 9 to 14) (size 15 to 20)
#    0.000    2.000    3.750    1.875    0.000    0.000 
#    0.000    5.625    0.000   18.750    0.000    0.000 
#    0.000    0.000    0.000    0.000    0.000    0.000 
#
# Total GULP energy -89077.793433 kJ/mol
# GULP energy per Si atom -5567.362090 kJ/mol
# Density = 2.096213 g / cm^3
# Si number density = 21.009948 Si / 1000 Ang^3
#
#
#
# Elastic Constant Matrix: (Units=GPa)
#
#
# Indices 1 2 3 4 5 6 
#
# 1 84.7827 25.3332 46.0346 11.9991 21.0458 29.6778
# 2 25.3332 60.7967 31.5178 4.7073 5.7837 12.0050
# 3 46.0346 31.5178 171.8820 -9.8676 2.5297 5.3947
# 4 11.9991 4.7073 -9.8676 26.6615 3.6861 1.5693
# 5 21.0458 5.7837 2.5297 3.6861 39.1998 14.0685
# 6 29.6778 12.0050 5.3947 1.5693 14.0685 24.6740
#
#
#
# Elastic Compliance Matrix: (Units=1/GPa)
#
#
# Indices 1 2 3 4 5 6 
#
# 1 0.029766 -0.000990 -0.007562 -0.013790 -0.002869 -0.031154
# 2 -0.000990 0.020548 -0.003492 -0.004136 0.001140 -0.008429
# 3 -0.007562 -0.003492 0.008601 0.006658 0.000436 0.008242
# 4 -0.013790 -0.004136 0.006658 0.046318 -0.002347 0.015535
# 5 -0.002869 0.001140 0.000436 -0.002347 0.032710 -0.015700
# 6 -0.031154 -0.008429 0.008242 0.015535 -0.015700 0.088263
#
#
# Mechanical properties :
#
#
# Convention : Reuss Voigt Hill
#
# Bulk Modulus (GPa) = 28.71507 58.13695 43.42601
# Shear Modulus (GPa) = 19.09104 32.41213 25.75158
#
# Velocity S-wave (km/s) = 3.01768 3.93199 3.50478
# Velocity P-wave (km/s) = 5.08320 6.95308 6.09033
#
# Compressibility (1/GPa) = 0.03482492
#
# Stress axis : x y z
#
# Youngs Moduli (GPa) = 33.59523 48.66744 116.26888
#
# Poissons Ratio (x) = 0.04820 0.87925
# Poissons Ratio (y) = 0.03327 0.40603
# Poissons Ratio (z) = 0.25405 0.16996
#
# Static dielectric constant tensor:
#      x y z
#    x 1.735890 0.020740 -0.070630 
#    y 0.020740 1.802980 0.010860 
#    z -0.070630 0.010860 1.853450 
# 
# From -- ./inp_files/417195.got.cif
#   From: 2010.05.17/outbox.cif.g08.bks.cpg/sg2_209_cif.got.tgz:417195.got - 2010.06.03 11:33:40.
