data_PCOD9039043
_publ_section_title
;
Structure prediction by ZEFSAII (Michael W. Deem and Ramdas Pophale) SiO2 
 PCOD9039043
Probable space group: P -1
;
_chemical_formula_sum "Si O2"
_cell_formula_units_Z 14
_cell_length_a 6.645604
_cell_length_b 10.182559
_cell_length_c 22.663956
_cell_angle_alpha 145.974447
_cell_angle_beta 122.513537
_cell_angle_gamma 48.535435
_cell_volume 642.853428
_symmetry_space_group_name_H-M "P -1"
_symmetry_group_IT_number 2
_symmetry_cell_setting 'triclinic'
loop_
_space_group_symop_operation_xyz
x,y,z
-x,-y,-z
loop_
_atom_site_type_symbol
_atom_site_label
_atom_site_fract_x
_atom_site_fract_y
_atom_site_fract_z
Si Si1 0.553341 0.120441 0.824838
Si Si2 0.042011 0.584579 0.192753
Si Si3 0.343728 0.320071 0.416644
Si Si4 0.721688 0.996436 0.940611
Si Si5 0.772794 0.450192 0.913497
Si Si6 0.829005 0.136634 0.582400
Si Si7 0.282418 0.297605 0.530007
O O1 0.250547 0.354404 0.855320
O O2 0.648318 0.020483 0.868465
O O3 0.728962 0.246975 0.871973
O O4 0.572506 0.881465 0.698729
O O5 0.160459 0.664478 0.184655
O O6 0.016049 0.761159 0.311417
O O7 0.228703 0.282176 0.127698
O O8 0.500000 0.500000 0.500000
O O9 0.392693 0.196830 0.443898
O O10 0.017987 0.469926 0.424408
O O11 0.482601 0.264026 0.027393
O O12 0.000000 0.000000 0.000000
O O13 0.000000 0.500000 0.000000
O O14 0.520666 0.366512 0.612736
O O15 0.762777 0.922193 0.523953
O O16 0.000000 0.000000 0.500000
#
# Coordination Sequence:
#
# PCOD9039043 Si02
#       7
#     2   2   2   2   2   2   2
#     4  12  26  46  73 105 147 187 238 298 370 426
#     4  12  26  45  75 105 140 192 240 286 375 424
#     4  11  24  43  70 101 144 191 233 293 358 434
#     4  12  26  47  74 103 141 184 239 303 358 423
#     4  12  25  49  74 101 145 188 239 308 359 423
#     4  11  24  43  69 102 145 185 233 297 352 430
#     4  10  23  42  65  98 147 180 239 285 348 422
#
# _framework density 21.777902999999998
#
# number of rings (size 3 to 8) (size 9 to 14) (size 15 to 20)
#    0.000    0.571    2.857    5.143    4.000    4.571 
#    0.000    0.000    0.000    0.000    0.000    0.000 
#    0.000    0.000    0.000    0.000    0.000    0.000 
#
# Total GULP energy -78111.604007 kJ/mol
# GULP energy per Si atom -5579.400286 kJ/mol
# Density = 2.172834 g / cm^3
# Si number density = 21.777903 Si / 1000 Ang^3
#
#
#
# Elastic Constant Matrix: (Units=GPa)
#
#
# Indices 1 2 3 4 5 6 
#
# 1 100.9363 37.6932 25.1007 -10.9474 2.8937 7.8058
# 2 37.6932 90.4673 14.7433 -17.8097 2.2356 0.3831
# 3 25.1007 14.7433 83.5710 -16.1959 -4.5941 8.8331
# 4 -10.9474 -17.8097 -16.1959 30.6787 2.2056 -3.0408
# 5 2.8937 2.2356 -4.5941 2.2056 35.3854 -8.8999
# 6 7.8058 0.3831 8.8331 -3.0408 -8.8999 55.5722
#
#
#
# Elastic Compliance Matrix: (Units=1/GPa)
#
#
# Indices 1 2 3 4 5 6 
#
# 1 0.012539 -0.004677 -0.002819 0.000229 -0.001489 -0.001507
# 2 -0.004677 0.014350 0.000072 0.006832 -0.000739 0.000802
# 3 -0.002819 0.000072 0.014238 0.006326 0.001352 -0.001305
# 4 0.000229 0.006832 0.006326 0.040202 -0.001932 0.000806
# 5 -0.001489 -0.000739 0.001352 -0.001932 0.029902 0.004682
# 6 -0.001507 0.000802 -0.001305 0.000806 0.004682 0.019202
#
#
# Mechanical properties :
#
#
# Convention : Reuss Voigt Hill
#
# Bulk Modulus (GPa) = 38.05319 47.78321 42.91820
# Shear Modulus (GPa) = 32.45865 37.48975 34.97420
#
# Velocity S-wave (km/s) = 3.86481 4.15355 4.01178
# Velocity P-wave (km/s) = 6.11775 6.70756 6.41944
#
# Compressibility (1/GPa) = 0.02627900
#
# Stress axis : x y z
#
# Youngs Moduli (GPa) = 79.75262 69.68417 70.23388
#
# Poissons Ratio (x) = 0.32588 0.19801
# Poissons Ratio (y) = 0.37297 -0.00503
# Poissons Ratio (z) = 0.22484 -0.00499
#
# Static dielectric constant tensor:
#      x y z
#    x 1.823380 -0.081270 -0.012080 
#    y -0.081270 1.988410 -0.012450 
#    z -0.012080 -0.012450 1.784880 
# 
# From -- ./inp_files/582673.got.cif
#   From: 2010.05.17/outbox.cif.g08.bks.cpg/sg2_292_cif.got.tgz:582673.got - 2010.06.03 11:33:40.
