data_PCOD9039283
_publ_section_title
;
Structure prediction by ZEFSAII (Michael W. Deem and Ramdas Pophale) SiO2 
 PCOD9039283
Probable space group: P -1
;
_chemical_formula_sum "Si O2"
_cell_formula_units_Z 16
_cell_length_a 21.934033
_cell_length_b 13.251468
_cell_length_c 19.052768
_cell_angle_alpha 24.303192
_cell_angle_beta 18.450523
_cell_angle_gamma 26.472140
_cell_volume 701.116669
_symmetry_space_group_name_H-M "P -1"
_symmetry_group_IT_number 2
_symmetry_cell_setting 'triclinic'
loop_
_space_group_symop_operation_xyz
x,y,z
-x,-y,-z
loop_
_atom_site_type_symbol
_atom_site_label
_atom_site_fract_x
_atom_site_fract_y
_atom_site_fract_z
Si Si1 0.017411 0.220330 0.937944
Si Si2 0.086652 0.093228 0.099273
Si Si3 0.152998 0.045337 0.208728
Si Si4 0.177369 0.227130 0.216566
Si Si5 0.677248 0.060216 0.323621
Si Si6 0.537761 0.615535 0.089214
Si Si7 0.158059 0.303974 0.405313
Si Si8 0.516745 0.782927 0.787335
O O1 0.974417 0.503203 0.776683
O O2 0.213937 0.046742 0.799242
O O3 0.007151 0.235260 0.024115
O O4 0.844724 0.106992 0.164756
O O5 0.118641 0.192258 0.079208
O O6 0.957138 0.885534 0.383723
O O7 0.304768 0.953817 0.925705
O O8 0.335158 0.791861 0.167974
O O9 0.943453 0.977323 0.498812
O O10 0.210631 0.192353 0.119181
O O11 0.374895 0.238622 0.036121
O O12 0.531582 0.337634 0.298931
O O13 0.588778 0.846106 0.592645
O O14 0.718230 0.572436 0.863193
O O15 0.325420 0.158802 0.367070
O O16 0.000000 0.500000 0.500000
O O17 0.500000 0.500000 0.000000
#
# Coordination Sequence:
#
# PCOD9039283 Si02
#       8
#     2   2   2   2   2   2   2   2
#     4  10  23  42  67  94 136 176 208 272 333 388
#     4  12  24  40  65  94 130 173 217 273 323 386
#     4  11  24  43  68  97 126 173 232 271 323 386
#     4  10  24  44  67  94 131 174 222 280 323 378
#     4  10  24  41  65 100 135 170 214 262 334 402
#     4  11  23  43  70  96 134 174 214 275 324 393
#     4  12  23  40  62  96 137 173 212 260 330 396
#     4  12  26  39  63  96 135 177 214 259 325 404
#
# _framework density 22.820736
#
# number of rings (size 3 to 8) (size 9 to 14) (size 15 to 20)
#    0.000    1.000    5.000    1.125    7.000    1.000 
#    0.000    0.000    0.000    2.250    0.000    0.000 
#    0.000    0.000    0.000    0.000    0.000    0.000 
#
# Total GULP energy -89391.019897 kJ/mol
# GULP energy per Si atom -5586.938744 kJ/mol
# Density = 2.276880 g / cm^3
# Si number density = 22.820736 Si / 1000 Ang^3
#
#
#
# Elastic Constant Matrix: (Units=GPa)
#
#
# Indices 1 2 3 4 5 6 
#
# 1 165.1138 8.9926 31.5528 4.5791 -0.1617 7.2109
# 2 8.9926 53.0656 8.4408 4.1220 4.6280 -7.2156
# 3 31.5528 8.4408 74.1631 -2.8585 0.8434 -0.3967
# 4 4.5791 4.1220 -2.8585 19.6273 -6.0673 1.3787
# 5 -0.1617 4.6280 0.8434 -6.0673 42.9081 6.9144
# 6 7.2109 -7.2156 -0.3967 1.3787 6.9144 32.8629
#
#
#
# Elastic Compliance Matrix: (Units=1/GPa)
#
#
# Indices 1 2 3 4 5 6 
#
# 1 0.006766 -0.000809 -0.002861 -0.001644 0.000206 -0.001671
# 2 -0.000809 0.020963 -0.002203 -0.006196 -0.004042 0.005864
# 3 -0.002861 -0.002203 0.015081 0.003444 0.000402 0.000097
# 4 -0.001644 -0.006196 0.003444 0.056423 0.009428 -0.005309
# 5 0.000206 -0.004042 0.000402 0.009428 0.026168 -0.006829
# 6 -0.001671 0.005864 0.000097 -0.005309 -0.006829 0.033744
#
#
# Mechanical properties :
#
#
# Convention : Reuss Voigt Hill
#
# Bulk Modulus (GPa) = 32.19247 43.36833 37.78040
# Shear Modulus (GPa) = 27.58665 35.30341 31.44503
#
# Velocity S-wave (km/s) = 3.48061 3.93744 3.71605
# Velocity P-wave (km/s) = 5.50365 6.30210 5.91636
#
# Compressibility (1/GPa) = 0.03106316
#
# Stress axis : x y z
#
# Youngs Moduli (GPa) = 147.79697 47.70234 66.31057
#
# Poissons Ratio (x) = 0.03859 0.18973
# Poissons Ratio (y) = 0.11955 0.14610
# Poissons Ratio (z) = 0.42288 0.10510
#
# Static dielectric constant tensor:
#      x y z
#    x 1.933730 0.004770 -0.001930 
#    y 0.004770 1.834260 -0.015620 
#    z -0.001930 -0.015620 1.826360 
# 
# From -- ./inp_files/283203.got.cif
#   From: 2010.05.17/outbox.cif.g08.bks.cpg/sg2_142_cif.got.tgz:283203.got - 2010.06.03 11:33:40.
