data_PCOD9039618
_publ_section_title
;
Structure prediction by ZEFSAII (Michael W. Deem and Ramdas Pophale) SiO2 
 PCOD9039618
Probable space group: P -1
;
_chemical_formula_sum "Si O2"
_cell_formula_units_Z 16
_cell_length_a 5.185982
_cell_length_b 10.030179
_cell_length_c 13.345818
_cell_angle_alpha 72.057632
_cell_angle_beta 89.635430
_cell_angle_gamma 109.710756
_cell_volume 617.012531
_symmetry_space_group_name_H-M "P -1"
_symmetry_group_IT_number 2
_symmetry_cell_setting 'triclinic'
loop_
_space_group_symop_operation_xyz
x,y,z
-x,-y,-z
loop_
_atom_site_type_symbol
_atom_site_label
_atom_site_fract_x
_atom_site_fract_y
_atom_site_fract_z
Si Si1 0.901227 0.394078 0.725278
Si Si2 0.913946 0.660519 0.559881
Si Si3 0.727648 0.043138 0.803295
Si Si4 0.406714 0.653765 0.675596
Si Si5 0.953166 0.941997 0.399539
Si Si6 0.172111 0.209985 0.047041
Si Si7 0.191953 0.618407 0.052496
Si Si8 0.784426 0.156066 0.225225
O O1 0.791072 0.217787 0.763830
O O2 0.826245 0.479959 0.610536
O O3 0.803051 0.438920 0.821140
O O4 0.233363 0.476180 0.712012
O O5 0.235530 0.712994 0.578647
O O6 0.868215 0.760884 0.447747
O O7 0.000000 0.000000 0.500000
O O8 0.720928 0.692614 0.638515
O O9 0.812288 0.013344 0.696684
O O10 0.408463 0.944425 0.837439
O O11 0.865461 0.965267 0.900845
O O12 0.336127 0.724287 0.758985
O O13 0.766585 0.028730 0.335756
O O14 0.077100 0.237448 0.153418
O O15 0.490649 0.307345 0.000319
O O16 0.970622 0.263784 0.966652
O O17 0.000000 0.500000 0.000000
#
# Coordination Sequence:
#
# PCOD9039618 Si02
#       8
#     2   2   2   2   2   2   2   2
#     4  10  27  46  70 102 146 189 234 295 358 422
#     4  10  24  41  68 101 140 183 240 290 348 413
#     4  11  26  47  70 106 148 187 234 294 360 422
#     4  10  23  42  69  96 139 184 233 292 345 410
#     4  11  22  41  71 108 140 190 239 294 351 421
#     4  11  26  46  70 109 140 183 237 295 351 424
#     4  12  26  46  78 106 141 187 240 292 357 424
#     4  11  23  42  74 102 147 181 241 295 358 414
#
# _framework density 25.931401999999999
#
# number of rings (size 3 to 8) (size 9 to 14) (size 15 to 20)
#    0.750    0.500    2.500    1.875    5.250    4.500 
#    0.000    1.250    0.000    0.000    0.000    0.000 
#    0.000    0.000    0.000    0.000    0.000    0.000 
#
# Total GULP energy -89212.561792 kJ/mol
# GULP energy per Si atom -5575.785112 kJ/mol
# Density = 2.587238 g / cm^3
# Si number density = 25.931402 Si / 1000 Ang^3
#
#
#
# Elastic Constant Matrix: (Units=GPa)
#
#
# Indices 1 2 3 4 5 6 
#
# 1 107.5597 23.0355 43.6930 -10.8684 -2.2922 -8.3318
# 2 23.0355 88.7289 -2.3622 -20.1603 -2.5692 5.1259
# 3 43.6930 -2.3622 111.5847 -12.5494 -4.3405 -3.7869
# 4 -10.8684 -20.1603 -12.5494 42.5241 -4.7380 -3.4347
# 5 -2.2922 -2.5692 -4.3405 -4.7380 37.0481 -10.4828
# 6 -8.3318 5.1259 -3.7869 -3.4347 -10.4828 15.6330
#
#
#
# Elastic Compliance Matrix: (Units=1/GPa)
#
#
# Indices 1 2 3 4 5 6 
#
# 1 0.012790 -0.003597 -0.004532 0.001255 0.002717 0.008996
# 2 -0.003597 0.013903 0.002266 0.006068 0.000597 -0.004193
# 3 -0.004532 0.002266 0.011345 0.003661 0.002204 0.001872
# 4 0.001255 0.006068 0.003661 0.029598 0.007936 0.011390
# 5 0.002717 0.000597 0.002204 0.007936 0.036375 0.027921
# 6 0.008996 -0.004193 0.001872 0.011390 0.027921 0.091815
#
#
# Mechanical properties :
#
#
# Convention : Reuss Voigt Hill
#
# Bulk Modulus (GPa) = 38.00495 48.51176 43.25835
# Shear Modulus (GPa) = 23.11351 35.27483 29.19417
#
# Velocity S-wave (km/s) = 2.98876 3.69224 3.35897
# Velocity P-wave (km/s) = 5.15733 6.07661 5.63574
#
# Compressibility (1/GPa) = 0.02631237
#
# Stress axis : x y z
#
# Youngs Moduli (GPa) = 78.18503 71.92791 88.14129
#
# Poissons Ratio (x) = 0.25872 0.39947
# Poissons Ratio (y) = 0.28123 -0.19974
# Poissons Ratio (z) = 0.35435 -0.16300
#
# Static dielectric constant tensor:
#      x y z
#    x 2.046760 -0.011340 0.032560 
#    y -0.011340 2.114320 -0.012430 
#    z 0.032560 -0.012430 2.106780 
# 
# From -- ./inp_files/581555.got.cif
#   From: 2010.05.17/outbox.cif.g08.bks.cpg/sg2_291_cif.got.tgz:581555.got - 2010.06.03 11:33:40.
