data_PCOD9039101
_publ_section_title
;
Structure prediction by ZEFSAII (Michael W. Deem and Ramdas Pophale) SiO2 
 PCOD9039101
Probable space group: P -1
;
_chemical_formula_sum "Si O2"
_cell_formula_units_Z 16
_cell_length_a 11.116570
_cell_length_b 10.164233
_cell_length_c 7.566403
_cell_angle_alpha 106.001711
_cell_angle_beta 102.287832
_cell_angle_gamma 48.675404
_cell_volume 616.603667
_symmetry_space_group_name_H-M "P -1"
_symmetry_group_IT_number 2
_symmetry_cell_setting 'triclinic'
loop_
_space_group_symop_operation_xyz
x,y,z
-x,-y,-z
loop_
_atom_site_type_symbol
_atom_site_label
_atom_site_fract_x
_atom_site_fract_y
_atom_site_fract_z
Si Si1 0.552333 0.417396 0.240324
Si Si2 0.573675 0.664052 0.554993
Si Si3 0.364981 0.981727 0.333226
Si Si4 0.674349 0.860958 0.254651
Si Si5 0.895257 0.480080 0.192382
Si Si6 0.239798 0.789327 0.108135
Si Si7 0.961621 0.812478 0.165504
Si Si8 0.913099 0.401769 0.555230
O O1 0.613688 0.485305 0.422967
O O2 0.525845 0.294758 0.287661
O O3 0.377872 0.603583 0.193534
O O4 0.686963 0.299401 0.092351
O O5 0.485689 0.805007 0.425855
O O6 0.746786 0.593195 0.624672
O O7 0.478858 0.990956 0.244243
O O8 0.257261 0.940924 0.197213
O O9 0.288712 0.123464 0.521123
O O10 0.723311 0.667418 0.158622
O O11 0.777653 0.894461 0.180610
O O12 0.910752 0.379333 0.337101
O O13 0.970937 0.565069 0.320174
O O14 0.974863 0.354019 0.004198
O O15 0.059521 0.868480 0.125891
O O16 0.042798 0.755302 0.364597
#
# Coordination Sequence:
#
# PCOD9039101 Si02
#       8
#     2   2   2   2   2   2   2   2
#     4   9  19  30  54  84 117 140 185 242 291 331
#     4  10  17  33  54  82 115 147 187 236 286 338
#     4  10  22  37  59  79 116 158 190 225 279 353
#     4  10  21  38  57  80 117 156 191 227 280 346
#     4  10  21  35  58  87 116 145 188 245 287 333
#     4  10  20  34  56  88 110 148 188 236 288 339
#     4  11  22  37  62  90 114 146 190 247 290 331
#     4  10  18  32  56  86 113 147 183 238 295 333
#
# _framework density 25.948595000000001
#
# number of rings (size 3 to 8) (size 9 to 14) (size 15 to 20)
#    0.000    2.000    2.500    2.250    3.500    1.500 
#    0.000    0.000   11.000    5.250    0.000    0.000 
#    0.000    0.000    0.000    0.000    0.000    0.000 
#
# Total GULP energy -89164.159799 kJ/mol
# GULP energy per Si atom -5572.759987 kJ/mol
# Density = 2.588953 g / cm^3
# Si number density = 25.948595 Si / 1000 Ang^3
#
#
#
# Elastic Constant Matrix: (Units=GPa)
#
#
# Indices 1 2 3 4 5 6 
#
# 1 169.1288 28.9941 62.0714 11.3958 -32.9706 1.9034
# 2 28.9941 49.4666 16.2701 13.1549 -15.0384 -4.5522
# 3 62.0714 16.2701 104.6591 26.3584 -24.9424 -1.9882
# 4 11.3958 13.1549 26.3584 33.3060 10.2661 -3.4775
# 5 -32.9706 -15.0384 -24.9424 10.2661 45.0962 -1.9208
# 6 1.9034 -4.5522 -1.9882 -3.4775 -1.9208 16.0235
#
#
#
# Elastic Compliance Matrix: (Units=1/GPa)
#
#
# Indices 1 2 3 4 5 6 
#
# 1 0.008446 -0.003113 -0.004046 0.000505 0.002701 -0.001956
# 2 -0.003113 0.031172 0.006264 -0.020528 0.016578 0.007535
# 3 -0.004046 0.006264 0.020021 -0.021407 0.015160 0.001916
# 4 0.000505 -0.020528 -0.021407 0.065279 -0.033107 0.001650
# 5 0.002701 0.016578 0.015160 -0.033107 0.045794 0.004575
# 6 -0.001956 0.007535 0.001916 0.001650 0.004575 0.065926
#
#
# Mechanical properties :
#
#
# Convention : Reuss Voigt Hill
#
# Bulk Modulus (GPa) = 17.28603 59.76952 38.52777
# Shear Modulus (GPa) = 19.40171 33.27973 26.34072
#
# Velocity S-wave (km/s) = 2.73737 3.58512 3.18954
# Velocity P-wave (km/s) = 4.08253 6.34203 5.33331
#
# Compressibility (1/GPa) = 0.05785020
#
# Stress axis : x y z
#
# Youngs Moduli (GPa) = 118.40528 32.07986 49.94744
#
# Poissons Ratio (x) = 0.09986 0.20207
# Poissons Ratio (y) = 0.36857 -0.31287
# Poissons Ratio (z) = 0.47902 -0.20095
#
# Static dielectric constant tensor:
#      x y z
#    x 2.208230 0.011240 -0.010610 
#    y 0.011240 2.219190 0.018520 
#    z -0.010610 0.018520 1.995360 
# 
# From -- ./inp_files/260113.got.cif
#   From: 2010.05.17/outbox.cif.g08.bks.cpg/sg2_131_cif.got.tgz:260113.got - 2010.06.03 11:33:40.
