data_PCOD9039445
_publ_section_title
;
Structure prediction by ZEFSAII (Michael W. Deem and Ramdas Pophale) SiO2 
 PCOD9039445
Probable space group: P -1
;
_chemical_formula_sum "Si O2"
_cell_formula_units_Z 16
_cell_length_a 15.107659
_cell_length_b 11.648230
_cell_length_c 9.142186
_cell_angle_alpha 61.446352
_cell_angle_beta 116.070167
_cell_angle_gamma 65.618148
_cell_volume 779.156724
_symmetry_space_group_name_H-M "P -1"
_symmetry_group_IT_number 2
_symmetry_cell_setting 'triclinic'
loop_
_space_group_symop_operation_xyz
x,y,z
-x,-y,-z
loop_
_atom_site_type_symbol
_atom_site_label
_atom_site_fract_x
_atom_site_fract_y
_atom_site_fract_z
Si Si1 0.042184 0.588604 0.313050
Si Si2 0.458379 0.417621 0.624473
Si Si3 0.081763 0.803437 0.086689
Si Si4 0.489896 0.106681 0.288908
Si Si5 0.598520 0.813305 0.300903
Si Si6 0.108683 0.525733 0.736517
Si Si7 0.977118 0.889333 0.633666
Si Si8 0.406209 0.724719 0.857477
O O1 0.983108 0.778314 0.075207
O O2 0.226316 0.386104 0.518764
O O3 0.036530 0.619722 0.463730
O O4 0.951894 0.554660 0.218012
O O5 0.500000 0.500000 0.500000
O O6 0.266596 0.619690 0.381343
O O7 0.480949 0.244771 0.684665
O O8 0.542737 0.325150 0.902026
O O9 0.073201 0.808574 0.903223
O O10 0.000000 0.000000 0.000000
O O11 0.545393 0.198579 0.250254
O O12 0.500000 0.000000 0.500000
O O13 0.598591 0.908712 0.378881
O O14 0.300223 0.318055 0.987027
O O15 0.500000 0.000000 0.000000
O O16 0.046966 0.698162 0.701468
O O17 0.786804 0.077326 0.409653
O O18 0.000000 0.000000 0.500000
O O19 0.500000 0.500000 0.000000
#
# Coordination Sequence:
#
# PCOD9039445 Si02
#       8
#     2   2   2   2   2   2   2   2
#     4  10  23  42  68  95 132 178 218 278 330 409
#     4  11  25  42  71  98 128 176 227 276 330 408
#     4  11  24  44  66  93 133 175 220 269 337 396
#     4  12  27  41  68  99 137 179 225 280 335 407
#     4  11  21  45  66  94 133 177 224 273 339 397
#     4  11  24  42  66 100 134 170 229 272 341 400
#     4  12  26  43  70 100 138 176 222 285 339 404
#     4  12  26  47  69  99 141 179 225 282 344 402
#
# _framework density 20.535018999999998
#
# number of rings (size 3 to 8) (size 9 to 14) (size 15 to 20)
#    0.000    0.750    2.500    4.500    7.000    1.500 
#    0.000    0.000    0.000    0.000    0.000    0.000 
#    0.000    0.000    0.000    0.000    0.000    0.000 
#
# Total GULP energy -89209.963904 kJ/mol
# GULP energy per Si atom -5575.622744 kJ/mol
# Density = 2.048828 g / cm^3
# Si number density = 20.535019 Si / 1000 Ang^3
#
#
#
# Elastic Constant Matrix: (Units=GPa)
#
#
# Indices 1 2 3 4 5 6 
#
# 1 152.1501 11.1974 0.5982 -16.9705 -19.8462 22.4953
# 2 11.1974 118.4946 -9.7301 -23.9985 -11.3118 16.6362
# 3 0.5982 -9.7301 30.1717 -8.6557 4.1367 7.3319
# 4 -16.9705 -23.9985 -8.6557 28.0290 -1.0717 -6.1336
# 5 -19.8462 -11.3118 4.1367 -1.0717 49.3489 -7.6352
# 6 22.4953 16.6362 7.3319 -6.1336 -7.6352 26.1245
#
#
#
# Elastic Compliance Matrix: (Units=1/GPa)
#
#
# Indices 1 2 3 4 5 6 
#
# 1 0.008608 0.002190 0.003955 0.006752 0.002608 -0.007570
# 2 0.002190 0.013442 0.010359 0.014030 0.001929 -0.009495
# 3 0.003955 0.010359 0.047590 0.021710 -0.002491 -0.018989
# 4 0.006752 0.014030 0.021710 0.057317 0.004413 -0.006094
# 5 0.002608 0.001929 -0.002491 0.004413 0.022822 0.004931
# 6 -0.007570 -0.009495 -0.018989 -0.006094 0.004931 0.056183
#
#
# Mechanical properties :
#
#
# Convention : Reuss Voigt Hill
#
# Bulk Modulus (GPa) = 9.74203 33.88305 21.81254
# Shear Modulus (GPa) = 24.13482 40.61721 32.37601
#
# Velocity S-wave (km/s) = 3.43198 4.45224 3.97498
# Velocity P-wave (km/s) = 4.52317 6.55483 5.63138
#
# Compressibility (1/GPa) = 0.10264805
#
# Stress axis : x y z
#
# Youngs Moduli (GPa) = 116.16932 74.39627 21.01279
#
# Poissons Ratio (x) = -0.16296 -0.08310
# Poissons Ratio (y) = -0.25446 -0.21767
# Poissons Ratio (z) = -0.45940 -0.77068
#
# Static dielectric constant tensor:
#      x y z
#    x 1.743020 0.027420 -0.012450 
#    y 0.027420 1.676660 0.013970 
#    z -0.012450 0.013970 1.700440 
# 
# From -- ./inp_files/306775.got.cif
#   From: 2010.05.17/outbox.cif.g08.bks.cpg/sg2_154_cif.got.tgz:306775.got - 2010.06.03 11:33:40.
