data_PCOD9039982
_publ_section_title
;
Structure prediction by ZEFSAII (Michael W. Deem and Ramdas Pophale) SiO2 
 PCOD9039982
Probable space group: P -1
;
_chemical_formula_sum "Si O2"
_cell_formula_units_Z 14
_cell_length_a 19.149041
_cell_length_b 6.919592
_cell_length_c 10.076312
_cell_angle_alpha 67.891439
_cell_angle_beta 27.841635
_cell_angle_gamma 59.001614
_cell_volume 523.978372
_symmetry_space_group_name_H-M "P -1"
_symmetry_group_IT_number 2
_symmetry_cell_setting 'triclinic'
loop_
_space_group_symop_operation_xyz
x,y,z
-x,-y,-z
loop_
_atom_site_type_symbol
_atom_site_label
_atom_site_fract_x
_atom_site_fract_y
_atom_site_fract_z
Si Si1 0.744590 0.842508 0.645000
Si Si2 0.909534 0.501217 0.789227
Si Si3 0.151349 0.572629 0.737156
Si Si4 0.718460 0.149640 0.372789
Si Si5 0.328278 0.705965 0.187532
Si Si6 0.689549 0.868636 0.261861
Si Si7 0.361105 0.502589 0.926137
O O1 0.808226 0.355976 0.492862
O O2 0.671233 0.675263 0.873296
O O3 0.939882 0.692643 0.338336
O O4 0.699561 0.049132 0.771579
O O5 0.760878 0.444300 0.005426
O O6 0.000000 0.500000 0.500000
O O7 0.818705 0.736303 0.961950
O O8 0.295406 0.342172 0.613168
O O9 0.313400 0.030476 0.429487
O O10 0.000000 0.500000 0.000000
O O11 0.841692 0.230601 0.225938
O O12 0.750622 0.024789 0.209576
O O13 0.545910 0.372667 0.601627
O O14 0.322248 0.711231 0.037828
O O15 0.500000 0.500000 0.000000
O O16 0.500000 0.000000 0.500000
#
# Coordination Sequence:
#
# PCOD9039982 Si02
#       7
#     2   2   2   2   2   2   2
#     4  10  23  42  73 110 149 189 245 317 369 440
#     4  10  25  46  70 109 151 196 244 308 379 447
#     4  11  28  48  71 112 153 194 251 320 371 442
#     4  11  24  46  76 111 144 203 251 305 380 451
#     4  11  23  43  77 112 140 195 259 300 374 452
#     4  12  27  49  74 107 151 203 246 312 381 453
#     4  11  21  43  74 108 152 189 251 307 370 449
#
# _framework density 26.71866
#
# number of rings (size 3 to 8) (size 9 to 14) (size 15 to 20)
#    0.000    1.143    4.286    1.286    8.000    1.714 
#    2.571    0.000    0.000    0.000    0.000    0.000 
#    0.000    0.000    0.000    0.000    0.000    0.000 
#
# Total GULP energy -78441.501327 kJ/mol
# GULP energy per Si atom -5602.964381 kJ/mol
# Density = 2.665785 g / cm^3
# Si number density = 26.718660 Si / 1000 Ang^3
#
#
#
# Elastic Constant Matrix: (Units=GPa)
#
#
# Indices 1 2 3 4 5 6 
#
# 1 149.7582 24.8414 81.1850 30.2530 15.4733 35.8275
# 2 24.8414 117.1759 43.5325 9.9187 12.3347 24.1347
# 3 81.1850 43.5325 193.1815 27.3535 20.2467 27.3501
# 4 30.2530 9.9187 27.3535 56.4044 7.1528 5.8682
# 5 15.4733 12.3347 20.2467 7.1528 70.0724 16.6773
# 6 35.8275 24.1347 27.3501 5.8682 16.6773 41.9438
#
#
#
# Elastic Compliance Matrix: (Units=1/GPa)
#
#
# Indices 1 2 3 4 5 6 
#
# 1 0.010665 0.000629 -0.003158 -0.003625 0.000508 -0.007108
# 2 0.000629 0.010167 -0.001712 -0.000746 -0.000142 -0.005111
# 3 -0.003158 -0.001712 0.007242 -0.001358 -0.000832 -0.000520
# 4 -0.003625 -0.000746 -0.001358 0.020408 -0.001247 0.002052
# 5 0.000508 -0.000142 -0.000832 -0.001247 0.015976 -0.005988
# 6 -0.007108 -0.005111 -0.000520 0.002052 -0.005988 0.035287
#
#
# Mechanical properties :
#
#
# Convention : Reuss Voigt Hill
#
# Bulk Modulus (GPa) = 51.03308 84.35926 67.69617
# Shear Modulus (GPa) = 43.57049 54.38792 48.97921
#
# Velocity S-wave (km/s) = 4.04259 4.51663 4.28617
# Velocity P-wave (km/s) = 6.39779 7.67083 7.06305
#
# Compressibility (1/GPa) = 0.01959513
#
# Stress axis : x y z
#
# Youngs Moduli (GPa) = 93.76542 98.35322 138.08016
#
# Poissons Ratio (x) = -0.06191 0.43599
# Poissons Ratio (y) = -0.05902 0.23634
# Poissons Ratio (z) = 0.29606 0.16834
#
# Static dielectric constant tensor:
#      x y z
#    x 2.685350 -0.165800 0.223570 
#    y -0.165800 2.154690 -0.085530 
#    z 0.223570 -0.085530 2.142030 
# 
# From -- ./inp_files/468961.got.cif
#   From: 2010.05.17/outbox.cif.g08.bks.cpg/sg2_235_cif.got.tgz:468961.got - 2010.06.03 11:33:40.
