data_PCOD9039014
_publ_section_title
;
Structure prediction by ZEFSAII (Michael W. Deem and Ramdas Pophale) SiO2 
 PCOD9039014
Probable space group: P -1
;
_chemical_formula_sum "Si O2"
_cell_formula_units_Z 14
_cell_length_a 11.560627
_cell_length_b 9.563833
_cell_length_c 9.864931
_cell_angle_alpha 122.582506
_cell_angle_beta 100.712630
_cell_angle_gamma 49.701301
_cell_volume 678.187755
_symmetry_space_group_name_H-M "P -1"
_symmetry_group_IT_number 2
_symmetry_cell_setting 'triclinic'
loop_
_space_group_symop_operation_xyz
x,y,z
-x,-y,-z
loop_
_atom_site_type_symbol
_atom_site_label
_atom_site_fract_x
_atom_site_fract_y
_atom_site_fract_z
Si Si1 0.642911 0.416324 0.893041
Si Si2 0.766446 0.978011 0.126612
Si Si3 0.816858 0.562597 0.016167
Si Si4 0.019825 0.317307 0.202264
Si Si5 0.102995 0.602506 0.357065
Si Si6 0.006962 0.051050 0.278979
Si Si7 0.561868 0.561407 0.661263
O O1 0.605095 0.416386 0.728432
O O2 0.817387 0.179558 0.833510
O O3 0.500000 0.500000 0.000000
O O4 0.661266 0.598282 0.004487
O O5 0.794198 0.778829 0.106294
O O6 0.585211 0.187892 0.204821
O O7 0.818809 0.896680 0.941147
O O8 0.876693 0.027162 0.227401
O O9 0.907774 0.436568 0.108227
O O10 0.896767 0.424040 0.820027
O O11 0.047718 0.478747 0.341244
O O12 0.966661 0.231356 0.253915
O O13 0.282870 0.481286 0.366490
O O14 0.002357 0.845378 0.524924
O O15 0.500000 0.500000 0.500000
#
# Coordination Sequence:
#
# PCOD9039014 Si02
#       7
#     2   2   2   2   2   2   2
#     4  11  26  42  65  99 132 166 220 271 322 383
#     4  11  22  41  70  94 128 179 216 255 334 383
#     4  10  24  42  67  98 131 170 217 274 313 391
#     4  11  23  41  67 100 129 171 221 268 316 390
#     4  10  23  42  65  96 134 168 220 265 325 381
#     4  12  24  41  72  94 132 176 215 265 330 385
#     4  11  24  41  64  98 133 166 214 275 313 384
#
# _framework density 20.643252
#
# number of rings (size 3 to 8) (size 9 to 14) (size 15 to 20)
#    0.000    1.143    2.857    3.429    4.000   10.857 
#    0.000    0.000    0.000    3.429    0.000    0.000 
#    0.000    0.000    0.000    0.000    0.000    0.000 
#
# Total GULP energy -78162.225177 kJ/mol
# GULP energy per Si atom -5583.016084 kJ/mol
# Density = 2.059627 g / cm^3
# Si number density = 20.643252 Si / 1000 Ang^3
#
#
#
# Elastic Constant Matrix: (Units=GPa)
#
#
# Indices 1 2 3 4 5 6 
#
# 1 156.7052 56.5517 46.9267 -0.5567 10.4164 16.3052
# 2 56.5517 95.4731 30.2303 -10.1809 0.3310 13.8880
# 3 46.9267 30.2303 71.8882 7.8413 12.3372 8.6386
# 4 -0.5567 -10.1809 7.8413 37.5393 -3.2086 -4.0234
# 5 10.4164 0.3310 12.3372 -3.2086 33.6060 3.6860
# 6 16.3052 13.8880 8.6386 -4.0234 3.6860 43.9415
#
#
#
# Elastic Compliance Matrix: (Units=1/GPa)
#
#
# Indices 1 2 3 4 5 6 
#
# 1 0.009243 -0.004094 -0.003889 -0.000411 -0.001293 -0.001301
# 2 -0.004094 0.015217 -0.004626 0.005098 0.003546 -0.002212
# 3 -0.003889 -0.004626 0.020360 -0.006256 -0.006699 -0.001108
# 4 -0.000411 0.005098 -0.006256 0.029975 0.005006 0.002096
# 5 -0.001293 0.003546 -0.006699 0.005006 0.033241 -0.001654
# 6 -0.001301 -0.002212 -0.001108 0.002096 -0.001654 0.024488
#
#
# Mechanical properties :
#
#
# Convention : Reuss Voigt Hill
#
# Bulk Modulus (GPa) = 51.01372 65.72042 58.36707
# Shear Modulus (GPa) = 30.43684 35.70787 33.07235
#
# Velocity S-wave (km/s) = 3.84398 4.16355 4.00695
# Velocity P-wave (km/s) = 6.66838 7.41747 7.05288
#
# Compressibility (1/GPa) = 0.01960257
#
# Stress axis : x y z
#
# Youngs Moduli (GPa) = 108.18716 65.71711 49.11662
#
# Poissons Ratio (x) = 0.26903 0.19102
# Poissons Ratio (y) = 0.44289 0.22720
# Poissons Ratio (z) = 0.42076 0.30398
#
# Static dielectric constant tensor:
#      x y z
#    x 1.749430 0.002260 0.003350 
#    y 0.002260 1.774720 0.005400 
#    z 0.003350 0.005400 1.772160 
# 
# From -- ./inp_files/245537.got.cif
#   From: 2010.05.17/outbox.cif.g08.bks.cpg/sg2_123_cif.got.tgz:245537.got - 2010.06.03 11:33:40.
