data_PCOD9039607
_publ_section_title
;
Structure prediction by ZEFSAII (Michael W. Deem and Ramdas Pophale) SiO2 
 PCOD9039607
Probable space group: P -1
;
_chemical_formula_sum "Si O2"
_cell_formula_units_Z 16
_cell_length_a 9.993157
_cell_length_b 16.371649
_cell_length_c 23.233108
_cell_angle_alpha 16.780658
_cell_angle_beta 45.546314
_cell_angle_gamma 40.821132
_cell_volume 711.445256
_symmetry_space_group_name_H-M "P -1"
_symmetry_group_IT_number 2
_symmetry_cell_setting 'triclinic'
loop_
_space_group_symop_operation_xyz
x,y,z
-x,-y,-z
loop_
_atom_site_type_symbol
_atom_site_label
_atom_site_fract_x
_atom_site_fract_y
_atom_site_fract_z
Si Si1 0.978962 0.422626 0.677050
Si Si2 0.718354 0.303332 0.332620
Si Si3 0.918700 0.586200 0.788922
Si Si4 0.298747 0.672890 0.404098
Si Si5 0.558906 0.724402 0.889942
Si Si6 0.231183 0.310244 0.037298
Si Si7 0.325662 0.383674 0.465148
Si Si8 0.793587 0.302009 0.923128
O O1 0.870324 0.512262 0.587491
O O2 0.813248 0.456722 0.753375
O O3 0.106411 0.618438 0.524124
O O4 0.139602 0.059743 0.868325
O O5 0.503974 0.430295 0.344708
O O6 0.883103 0.403069 0.247715
O O7 0.807007 0.929058 0.561906
O O8 0.695811 0.451320 0.176760
O O9 0.762164 0.551466 0.906914
O O10 0.954754 0.335564 0.897307
O O11 0.500000 0.500000 0.500000
O O12 0.309810 0.549044 0.419490
O O13 0.251704 0.033662 0.175614
O O14 0.638074 0.841572 0.842961
O O15 0.406159 0.017363 0.702024
O O16 0.422920 0.562137 0.068800
O O17 0.000000 0.500000 0.000000
#
# Coordination Sequence:
#
# PCOD9039607 Si02
#       8
#     2   2   2   2   2   2   2   2
#     4  11  26  44  69 101 141 176 228 289 338 414
#     4  10  24  43  66 101 136 175 232 284 341 403
#     4  10  23  42  69  95 137 183 219 290 342 406
#     4  12  26  45  75 101 137 186 224 288 349 405
#     4  11  22  45  66 101 138 178 230 284 341 413
#     4  12  25  43  69 103 137 178 232 288 339 411
#     4  11  24  45  70  98 142 177 230 282 344 411
#     4  11  24  43  69  98 136 179 233 275 348 408
#
# _framework density 22.489432999999998
#
# number of rings (size 3 to 8) (size 9 to 14) (size 15 to 20)
#    0.000    1.000    3.750    1.500    5.250    1.500 
#    4.500    3.125    0.000    0.000    0.000    0.000 
#    0.000    0.000    0.000    0.000    0.000    0.000 
#
# Total GULP energy -89447.818560 kJ/mol
# GULP energy per Si atom -5590.488660 kJ/mol
# Density = 2.243825 g / cm^3
# Si number density = 22.489433 Si / 1000 Ang^3
#
#
#
# Elastic Constant Matrix: (Units=GPa)
#
#
# Indices 1 2 3 4 5 6 
#
# 1 109.5311 20.8405 25.7668 12.2351 3.9397 0.5730
# 2 20.8405 71.2875 29.7491 35.6261 -3.4849 -1.8289
# 3 25.7668 29.7491 75.6210 30.4439 8.7767 -7.7310
# 4 12.2351 35.6261 30.4439 41.7855 3.7923 -3.9510
# 5 3.9397 -3.4849 8.7767 3.7923 31.8379 3.1732
# 6 0.5730 -1.8289 -7.7310 -3.9510 3.1732 33.5825
#
#
#
# Elastic Compliance Matrix: (Units=1/GPa)
#
#
# Indices 1 2 3 4 5 6 
#
# 1 0.010190 -0.002408 -0.003027 0.001270 -0.000763 -0.000780
# 2 -0.002408 0.026383 -0.002030 -0.021094 0.006465 -0.002082
# 3 -0.003027 -0.002030 0.020661 -0.011671 -0.004527 0.003752
# 4 0.001270 -0.021094 -0.011671 0.050802 -0.005564 0.002645
# 5 -0.000763 0.006465 -0.004527 -0.005564 0.034580 -0.004599
# 6 -0.000780 -0.002082 0.003752 0.002645 -0.004599 0.031287
#
#
# Mechanical properties :
#
#
# Convention : Reuss Voigt Hill
#
# Bulk Modulus (GPa) = 23.63837 45.46138 34.54987
# Shear Modulus (GPa) = 24.63846 33.44673 29.04260
#
# Velocity S-wave (km/s) = 3.31351 3.86063 3.59749
# Velocity P-wave (km/s) = 5.01725 6.33491 5.71419
#
# Compressibility (1/GPa) = 0.04230411
#
# Stress axis : x y z
#
# Youngs Moduli (GPa) = 98.13754 37.90336 48.39946
#
# Poissons Ratio (x) = 0.09126 0.14653
# Poissons Ratio (y) = 0.23629 0.09824
# Poissons Ratio (z) = 0.29711 0.07693
#
# Static dielectric constant tensor:
#      x y z
#    x 1.836310 -0.009300 -0.001890 
#    y -0.009300 1.830700 0.029520 
#    z -0.001890 0.029520 1.824020 
# 
# From -- ./inp_files/560131.got.cif
#   From: 2010.05.17/outbox.cif.g08.bks.cpg/sg2_281_cif.got.tgz:560131.got - 2010.06.03 11:33:40.
