data_PCOD9039757
_publ_section_title
;
Structure prediction by ZEFSAII (Michael W. Deem and Ramdas Pophale) SiO2 
 PCOD9039757
Probable space group: P -1
;
_chemical_formula_sum "Si O2"
_cell_formula_units_Z 12
_cell_length_a 14.657335
_cell_length_b 14.308016
_cell_length_c 8.526506
_cell_angle_alpha 144.051396
_cell_angle_beta 44.047699
_cell_angle_gamma 150.615357
_cell_volume 514.527949
_symmetry_space_group_name_H-M "P -1"
_symmetry_group_IT_number 2
_symmetry_cell_setting 'triclinic'
loop_
_space_group_symop_operation_xyz
x,y,z
-x,-y,-z
loop_
_atom_site_type_symbol
_atom_site_label
_atom_site_fract_x
_atom_site_fract_y
_atom_site_fract_z
Si Si1 0.507734 0.197525 0.266751
Si Si2 0.335800 0.669123 0.403815
Si Si3 0.140600 0.983412 0.258047
Si Si4 0.904568 0.583330 0.188462
Si Si5 0.995438 0.183659 0.291019
Si Si6 0.330001 0.030499 0.800329
O O1 0.561671 0.283760 0.495251
O O2 0.682345 0.391924 0.204141
O O3 0.316381 0.110045 0.327713
O O4 0.500000 0.000000 0.000000
O O5 0.143349 0.409606 0.308785
O O6 0.466283 0.738807 0.190273
O O7 0.325690 0.853183 0.647322
O O8 0.003903 0.715894 0.085421
O O9 0.000000 0.000000 0.500000
O O10 0.230457 0.065429 0.088421
O O11 0.961491 0.745192 0.484005
O O12 0.000000 0.500000 0.000000
O O13 0.795242 0.082060 0.353374
O O14 0.000000 0.000000 0.000000
#
# Coordination Sequence:
#
# PCOD9039757 Si02
#       6
#     2   2   2   2   2   2
#     4  11  21  43  71  97 131 179 235 281 335 407
#     4  10  23  42  70  98 127 180 236 282 333 415
#     4  12  25  42  65 103 140 175 226 288 347 405
#     4  11  23  42  74  98 129 187 239 275 335 419
#     4  11  24  43  65  99 141 178 217 284 356 408
#     4  11  23  41  67 101 136 173 232 286 343 402
#
# _framework density 23.322347000000001
#
# number of rings (size 3 to 8) (size 9 to 14) (size 15 to 20)
#    0.000    1.000    3.333    3.500    0.000    2.667 
#    0.000    3.333    0.000    0.000    0.000    0.000 
#    0.000    0.000    0.000    0.000    0.000    0.000 
#
# Total GULP energy -67102.808060 kJ/mol
# GULP energy per Si atom -5591.900672 kJ/mol
# Density = 2.326926 g / cm^3
# Si number density = 23.322347 Si / 1000 Ang^3
#
#
#
# Elastic Constant Matrix: (Units=GPa)
#
#
# Indices 1 2 3 4 5 6 
#
# 1 83.7443 12.0296 -1.2317 -7.8533 -10.9745 20.9205
# 2 12.0296 138.1721 5.0207 -30.4293 -4.5651 7.4474
# 3 -1.2317 5.0207 73.6949 -22.8491 -5.8941 3.1478
# 4 -7.8533 -30.4293 -22.8491 39.9310 4.9039 -1.5747
# 5 -10.9745 -4.5651 -5.8941 4.9039 28.1394 -7.1703
# 6 20.9205 7.4474 3.1478 -1.5747 -7.1703 39.3712
#
#
#
# Elastic Compliance Matrix: (Units=1/GPa)
#
#
# Indices 1 2 3 4 5 6 
#
# 1 0.014514 -0.000162 0.001786 0.003023 0.003690 -0.007032
# 2 -0.000162 0.008986 0.001878 0.007827 0.000057 -0.001441
# 3 0.001786 0.001878 0.017227 0.011301 0.002173 -0.001834
# 4 0.003023 0.007827 0.011301 0.038273 -0.002601 -0.002933
# 5 0.003690 0.000057 0.002173 -0.002601 0.039137 0.004878
# 6 -0.007032 -0.001441 -0.001834 -0.002933 0.004878 0.030326
#
#
# Mechanical properties :
#
#
# Convention : Reuss Voigt Hill
#
# Bulk Modulus (GPa) = 20.94997 36.36096 28.65546
# Shear Modulus (GPa) = 31.77219 40.14116 35.95668
#
# Velocity S-wave (km/s) = 3.69495 4.15317 3.93074
# Velocity P-wave (km/s) = 5.21592 6.21473 5.73710
#
# Compressibility (1/GPa) = 0.04773276
#
# Stress axis : x y z
#
# Youngs Moduli (GPa) = 68.89765 111.27838 58.04715
#
# Poissons Ratio (x) = 0.01802 -0.10369
# Poissons Ratio (y) = 0.01116 -0.10901
# Poissons Ratio (z) = -0.12307 -0.20897
#
# Static dielectric constant tensor:
#      x y z
#    x 1.855110 -0.006520 0.032600 
#    y -0.006520 1.890330 -0.001710 
#    z 0.032600 -0.001710 1.880480 
# 
# From -- ./inp_files/156428.got.cif
#   From: 2010.05.17/outbox.cif.g08.bks.cpg/sg2_79_cif.got.tgz:156428.got - 2010.06.03 11:33:40.
