data_PCOD9039249
_publ_section_title
;
Structure prediction by ZEFSAII (Michael W. Deem and Ramdas Pophale) SiO2 
 PCOD9039249
Probable space group: P -1
;
_chemical_formula_sum "Si O2"
_cell_formula_units_Z 14
_cell_length_a 9.316033
_cell_length_b 8.724908
_cell_length_c 8.787154
_cell_angle_alpha 121.917836
_cell_angle_beta 96.036576
_cell_angle_gamma 73.584104
_cell_volume 580.673552
_symmetry_space_group_name_H-M "P -1"
_symmetry_group_IT_number 2
_symmetry_cell_setting 'triclinic'
loop_
_space_group_symop_operation_xyz
x,y,z
-x,-y,-z
loop_
_atom_site_type_symbol
_atom_site_label
_atom_site_fract_x
_atom_site_fract_y
_atom_site_fract_z
Si Si1 0.900399 0.588510 0.259357
Si Si2 0.959636 0.800297 0.079494
Si Si3 0.331799 0.108998 0.094028
Si Si4 0.858018 0.913525 0.645802
Si Si5 0.386186 0.889226 0.494596
Si Si6 0.473711 0.683908 0.692677
Si Si7 0.420605 0.467760 0.822448
O O1 0.918944 0.699014 0.476061
O O2 0.723062 0.612088 0.225653
O O3 0.960665 0.690299 0.180600
O O4 0.967893 0.364041 0.123223
O O5 0.034435 0.969531 0.210201
O O6 0.794950 0.883058 0.037758
O O7 0.270718 0.065264 0.228086
O O8 0.363431 0.309965 0.227559
O O9 0.500000 0.000000 0.000000
O O10 0.777122 0.016976 0.539241
O O11 0.405482 0.850851 0.655299
O O12 0.447690 0.686224 0.323093
O O13 0.500000 0.000000 0.500000
O O14 0.500000 0.500000 0.500000
O O15 0.378488 0.655242 0.812749
O O16 0.500000 0.500000 0.000000
#
# Coordination Sequence:
#
# PCOD9039249 Si02
#       7
#     2   2   2   2   2   2   2
#     4  11  25  48  75 104 152 203 253 307 384 462
#     4  11  28  50  72 110 154 199 252 317 388 457
#     4  12  28  47  73 113 153 189 257 324 380 457
#     4  12  25  49  77 111 146 208 248 314 391 454
#     4  11  21  41  69 105 147 186 253 307 368 452
#     4  10  23  42  67 109 142 191 250 306 376 443
#     4  11  22  39  70 108 147 195 248 312 375 446
#
# _framework density 24.109929999999999
#
# number of rings (size 3 to 8) (size 9 to 14) (size 15 to 20)
#    0.000    0.857    2.857    3.429    8.000    4.000 
#    2.571    0.000    0.000    0.000    0.000    0.000 
#    0.000    0.000    0.000    0.000    0.000    0.000 
#
# Total GULP energy -78158.968297 kJ/mol
# GULP energy per Si atom -5582.783450 kJ/mol
# Density = 2.405506 g / cm^3
# Si number density = 24.109930 Si / 1000 Ang^3
#
#
#
# Elastic Constant Matrix: (Units=GPa)
#
#
# Indices 1 2 3 4 5 6 
#
# 1 110.4962 31.6899 78.6282 27.0681 22.3388 7.4464
# 2 31.6899 86.1663 58.5734 3.3556 2.4630 10.7940
# 3 78.6282 58.5734 206.3634 26.7876 12.7678 0.1908
# 4 27.0681 3.3556 26.7876 28.4573 7.4895 -1.2501
# 5 22.3388 2.4630 12.7678 7.4895 54.5129 9.1398
# 6 7.4464 10.7940 0.1908 -1.2501 9.1398 45.8195
#
#
#
# Elastic Compliance Matrix: (Units=1/GPa)
#
#
# Indices 1 2 3 4 5 6 
#
# 1 0.015847 -0.002604 -0.003720 -0.010317 -0.003842 -0.001461
# 2 -0.002604 0.015513 -0.003998 0.003913 0.001331 -0.003373
# 3 -0.003720 -0.003998 0.007821 -0.003315 0.000093 0.001405
# 4 -0.010317 0.003913 -0.003315 0.048312 -0.002235 0.002533
# 5 -0.003842 0.001331 0.000093 -0.002235 0.020798 -0.003899
# 6 -0.001461 -0.003373 0.001405 0.002533 -0.003899 0.023698
#
#
# Mechanical properties :
#
#
# Convention : Reuss Voigt Hill
#
# Bulk Modulus (GPa) = 53.94937 82.31210 68.13073
# Shear Modulus (GPa) = 31.48328 41.36691 36.42510
#
# Velocity S-wave (km/s) = 3.61754 4.14667 3.89111
# Velocity P-wave (km/s) = 6.31457 7.55916 6.96472
#
# Compressibility (1/GPa) = 0.01853590
#
# Stress axis : x y z
#
# Youngs Moduli (GPa) = 63.10261 64.46118 127.85375
#
# Poissons Ratio (x) = 0.16789 0.47568
# Poissons Ratio (y) = 0.16435 0.51116
# Poissons Ratio (z) = 0.23477 0.25772
#
# Static dielectric constant tensor:
#      x y z
#    x 1.936470 0.042820 0.017420 
#    y 0.042820 2.100370 0.145870 
#    z 0.017420 0.145870 2.370310 
# 
# From -- ./inp_files/160221.got.cif
#   From: 2010.05.17/outbox.cif.g08.bks.cpg/sg2_81_cif.got.tgz:160221.got - 2010.06.03 11:33:40.
