data_PCOD9039475
_publ_section_title
;
Structure prediction by ZEFSAII (Michael W. Deem and Ramdas Pophale) SiO2 
 PCOD9039475
Probable space group: P -1
;
_chemical_formula_sum "Si O2"
_cell_formula_units_Z 16
_cell_length_a 19.631718
_cell_length_b 11.427320
_cell_length_c 7.850385
_cell_angle_alpha 105.148197
_cell_angle_beta 80.541605
_cell_angle_gamma 156.312897
_cell_volume 670.054236
_symmetry_space_group_name_H-M "P -1"
_symmetry_group_IT_number 2
_symmetry_cell_setting 'triclinic'
loop_
_space_group_symop_operation_xyz
x,y,z
-x,-y,-z
loop_
_atom_site_type_symbol
_atom_site_label
_atom_site_fract_x
_atom_site_fract_y
_atom_site_fract_z
Si Si1 0.345033 0.274301 0.109913
Si Si2 0.688792 0.254601 0.236471
Si Si3 0.936846 0.754017 0.628776
Si Si4 0.995804 0.354453 0.897054
Si Si5 0.567009 0.736345 0.616557
Si Si6 0.284620 0.443438 0.769480
Si Si7 0.349090 0.551726 0.174580
Si Si8 0.106606 0.784606 0.503357
O O1 0.364875 0.189554 0.195057
O O2 0.364088 0.445920 0.224502
O O3 0.500000 0.500000 0.000000
O O4 0.137825 0.930002 0.033615
O O5 0.806515 0.494875 0.436660
O O6 0.809460 0.378527 0.099058
O O7 0.646010 0.308968 0.178123
O O8 0.528668 0.916085 0.235866
O O9 0.804837 0.608480 0.756838
O O10 0.054495 0.821738 0.642478
O O11 0.088017 0.096981 0.664158
O O12 0.930878 0.236922 0.684010
O O13 0.000000 0.500000 0.000000
O O14 0.500000 0.500000 0.500000
O O15 0.412283 0.577483 0.644951
O O16 0.707576 0.980543 0.505891
O O17 0.304387 0.440208 0.957244
O O18 0.000000 0.500000 0.500000
#
# Coordination Sequence:
#
# PCOD9039475 Si02
#       8
#     2   2   2   2   2   2   2   2
#     4  11  23  44  68 100 140 179 233 282 341 412
#     4  11  26  45  67 101 138 182 230 284 348 405
#     4  11  25  46  66 101 134 184 229 278 352 405
#     4  10  23  42  68  97 136 182 226 280 341 404
#     4  11  24  42  69 100 133 181 229 282 342 401
#     4  12  25  45  70 100 140 179 232 282 343 414
#     4  12  26  44  71 103 138 182 230 285 345 407
#     4  10  24  42  66  98 136 174 225 281 340 406
#
# _framework density 23.878661999999998
#
# number of rings (size 3 to 8) (size 9 to 14) (size 15 to 20)
#    0.000    1.000    2.500    3.000    5.250    5.000 
#    0.000    0.000    0.000    0.000    0.000    0.000 
#    0.000    0.000    0.000    0.000    0.000    0.000 
#
# Total GULP energy -89176.237010 kJ/mol
# GULP energy per Si atom -5573.514813 kJ/mol
# Density = 2.382431 g / cm^3
# Si number density = 23.878662 Si / 1000 Ang^3
#
#
#
# Elastic Constant Matrix: (Units=GPa)
#
#
# Indices 1 2 3 4 5 6 
#
# 1 92.2944 64.2510 39.8081 -23.8343 -47.6821 6.1790
# 2 64.2510 247.0242 39.5681 -27.1914 -39.3195 -0.3539
# 3 39.8081 39.5681 79.5239 -4.8388 -29.5268 16.3081
# 4 -23.8343 -27.1914 -4.8388 44.6973 18.5243 -17.0060
# 5 -47.6821 -39.3195 -29.5268 18.5243 55.8775 -8.7175
# 6 6.1790 -0.3539 16.3081 -17.0060 -8.7175 44.8757
#
#
#
# Elastic Compliance Matrix: (Units=1/GPa)
#
#
# Indices 1 2 3 4 5 6 
#
# 1 0.023465 -0.002256 -0.005912 0.006268 0.013853 0.003966
# 2 -0.002256 0.005213 -0.001542 0.002332 0.000449 0.001883
# 3 -0.005912 -0.001542 0.019468 -0.007217 0.005305 -0.007977
# 4 0.006268 0.002332 -0.007217 0.033961 -0.005979 0.013486
# 5 0.013853 0.000449 0.005305 -0.005979 0.034926 0.000687
# 6 0.003966 0.001883 -0.007977 0.013486 0.000687 0.029896
#
#
# Mechanical properties :
#
#
# Convention : Reuss Voigt Hill
#
# Bulk Modulus (GPa) = 34.81129 78.45521 56.63325
# Shear Modulus (GPa) = 28.42120 47.43778 37.92949
#
# Velocity S-wave (km/s) = 3.45372 4.46198 3.98983
# Velocity P-wave (km/s) = 5.52397 7.71186 6.70773
#
# Compressibility (1/GPa) = 0.02872631
#
# Stress axis : x y z
#
# Youngs Moduli (GPa) = 42.61614 191.83818 51.36572
#
# Poissons Ratio (x) = 0.43271 0.30369
# Poissons Ratio (y) = 0.09612 0.07921
# Poissons Ratio (z) = 0.25196 0.29582
#
# Static dielectric constant tensor:
#      x y z
#    x 1.995900 0.112890 0.101980 
#    y 0.112890 1.897830 0.068110 
#    z 0.101980 0.068110 1.971910 
# 
# From -- ./inp_files/346227.got.cif
#   From: 2010.05.17/outbox.cif.g08.bks.cpg/sg2_174_cif.got.tgz:346227.got - 2010.06.03 11:33:40.
