data_PCOD9039709
_publ_section_title
;
Structure prediction by ZEFSAII (Michael W. Deem and Ramdas Pophale) SiO2 
 PCOD9039709
Probable space group: P -1
;
_chemical_formula_sum "Si O2"
_cell_formula_units_Z 12
_cell_length_a 16.503920
_cell_length_b 7.553084
_cell_length_c 10.081188
_cell_angle_alpha 85.038626
_cell_angle_beta 43.298707
_cell_angle_gamma 119.465575
_cell_volume 501.027701
_symmetry_space_group_name_H-M "P -1"
_symmetry_group_IT_number 2
_symmetry_cell_setting 'triclinic'
loop_
_space_group_symop_operation_xyz
x,y,z
-x,-y,-z
loop_
_atom_site_type_symbol
_atom_site_label
_atom_site_fract_x
_atom_site_fract_y
_atom_site_fract_z
Si Si1 0.558774 0.307190 0.208715
Si Si2 0.870871 0.600464 0.231046
Si Si3 0.143169 0.824933 0.641707
Si Si4 0.469392 0.257387 0.600407
Si Si5 0.890130 0.006764 0.837781
Si Si6 0.914064 0.573883 0.659661
O O1 0.462955 0.142567 0.476869
O O2 0.375941 0.168305 0.354049
O O3 0.738416 0.664888 0.001004
O O4 0.676641 0.293913 0.996130
O O5 0.844860 0.375601 0.345669
O O6 0.659989 0.425315 0.445863
O O7 0.982484 0.861315 0.188224
O O8 0.012558 0.736266 0.926559
O O9 0.038584 0.752021 0.635285
O O10 0.500000 0.500000 0.500000
O O11 0.259734 0.011114 0.945099
O O12 0.035059 0.223214 0.528856
O O13 0.000000 0.500000 0.500000
#
# Coordination Sequence:
#
# PCOD9039709 Si02
#       6
#     2   2   2   2   2   2
#     4  11  25  44  70 101 143 179 235 286 342 415
#     4  11  23  43  73 105 139 180 235 284 346 417
#     4  11  25  42  72 105 137 187 230 285 351 410
#     4  10  23  42  70 104 134 179 229 286 338 409
#     4  11  25  45  70 107 138 183 229 287 352 406
#     4  12  26  46  69 102 145 185 228 290 350 409
#
# _framework density 23.950769999999999
#
# number of rings (size 3 to 8) (size 9 to 14) (size 15 to 20)
#    0.000    1.000    5.000    0.500    2.333    8.667 
#    0.000    0.000    0.000    0.000    0.000    0.000 
#    0.000    0.000    0.000    0.000    0.000    0.000 
#
# Total GULP energy -67204.533175 kJ/mol
# GULP energy per Si atom -5600.377765 kJ/mol
# Density = 2.389626 g / cm^3
# Si number density = 23.950770 Si / 1000 Ang^3
#
#
#
# Elastic Constant Matrix: (Units=GPa)
#
#
# Indices 1 2 3 4 5 6 
#
# 1 98.6912 21.5954 49.1125 0.4138 -22.5727 24.7275
# 2 21.5954 65.3725 36.3668 -3.5592 5.0369 23.1398
# 3 49.1125 36.3668 140.7254 24.8280 -36.1024 26.7860
# 4 0.4138 -3.5592 24.8280 40.5861 12.3108 -5.0723
# 5 -22.5727 5.0369 -36.1024 12.3108 44.2308 -8.3207
# 6 24.7275 23.1398 26.7860 -5.0723 -8.3207 53.2196
#
#
#
# Elastic Compliance Matrix: (Units=1/GPa)
#
#
# Indices 1 2 3 4 5 6 
#
# 1 0.013816 -0.002985 -0.001549 -0.001700 0.005926 -0.003577
# 2 -0.002985 0.028713 -0.013870 0.016949 -0.021947 -0.005932
# 3 -0.001549 -0.013870 0.021937 -0.022355 0.024427 -0.002602
# 4 -0.001700 0.016949 -0.022355 0.050768 -0.034397 0.004133
# 5 0.005926 -0.021947 0.024427 -0.034397 0.057688 0.000236
# 6 -0.003577 -0.005932 -0.002602 0.004133 0.000236 0.024772
#
#
# Mechanical properties :
#
#
# Convention : Reuss Voigt Hill
#
# Bulk Modulus (GPa) = 36.15732 57.65984 46.90858
# Shear Modulus (GPa) = 20.51537 40.78827 30.65182
#
# Velocity S-wave (km/s) = 2.92989 4.13122 3.58129
# Velocity P-wave (km/s) = 5.15509 6.84709 6.06043
#
# Compressibility (1/GPa) = 0.02765692
#
# Stress axis : x y z
#
# Youngs Moduli (GPa) = 72.38244 34.82801 45.58552
#
# Poissons Ratio (x) = 0.10397 0.07061
# Poissons Ratio (y) = 0.21608 0.63226
# Poissons Ratio (z) = 0.11212 0.48306
#
# Static dielectric constant tensor:
#      x y z
#    x 1.945310 -0.093630 0.011900 
#    y -0.093630 2.023940 0.026080 
#    z 0.011900 0.026080 1.907440 
# 
# From -- ./inp_files/40319.got.cif
#   From: 2010.05.17/outbox.cif.g08.bks.cpg/sg2_21_cif.got.tgz:40319.got - 2010.06.03 11:33:40.
