data_PCOD9039277
_publ_section_title
;
Structure prediction by ZEFSAII (Michael W. Deem and Ramdas Pophale) SiO2 
 PCOD9039277
Probable space group: P -1
;
_chemical_formula_sum "Si O2"
_cell_formula_units_Z 16
_cell_length_a 9.115626
_cell_length_b 9.281440
_cell_length_c 16.932104
_cell_angle_alpha 111.920321
_cell_angle_beta 125.154526
_cell_angle_gamma 113.334888
_cell_volume 643.733998
_symmetry_space_group_name_H-M "P -1"
_symmetry_group_IT_number 2
_symmetry_cell_setting 'triclinic'
loop_
_space_group_symop_operation_xyz
x,y,z
-x,-y,-z
loop_
_atom_site_type_symbol
_atom_site_label
_atom_site_fract_x
_atom_site_fract_y
_atom_site_fract_z
Si Si1 0.109991 0.975449 0.724001
Si Si2 0.643208 0.930192 0.010027
Si Si3 0.252566 0.406579 0.846573
Si Si4 0.345676 0.688651 0.159171
Si Si5 0.182988 0.347496 0.161389
Si Si6 0.339058 0.550534 0.612594
Si Si7 0.224609 0.691217 0.337386
Si Si8 0.238737 0.772032 0.531492
O O1 0.156744 0.976907 0.831630
O O2 0.057363 0.117499 0.708911
O O3 0.424308 0.148937 0.810833
O O4 0.829546 0.679332 0.548470
O O5 0.424188 0.627624 0.879518
O O6 0.831958 0.077748 0.018473
O O7 0.500000 0.000000 0.000000
O O8 0.027759 0.383983 0.803542
O O9 0.500000 0.500000 0.000000
O O10 0.293952 0.482221 0.138044
O O11 0.528192 0.921323 0.327672
O O12 0.000000 0.500000 0.000000
O O13 0.366360 0.326655 0.239961
O O14 0.260326 0.547917 0.283148
O O15 0.396072 0.754417 0.631878
O O16 0.075210 0.391603 0.561959
O O17 0.144466 0.621863 0.391020
O O18 0.500000 0.000000 0.500000
#
# Coordination Sequence:
#
# PCOD9039277 Si02
#       8
#     2   2   2   2   2   2   2   2
#     4  10  23  42  67  94 133 185 217 281 339 409
#     4  11  22  42  64  98 138 178 227 276 340 399
#     4  10  24  41  66  97 140 182 228 272 350 410
#     4  11  25  44  67  97 139 178 225 277 345 414
#     4  12  25  42  70 103 134 173 232 291 329 409
#     4  10  24  45  66 102 132 174 229 280 351 406
#     4  12  23  40  71 103 132 176 233 287 333 403
#     4  10  24  45  70  94 139 182 219 283 351 411
#
# _framework density 24.854987999999999
#
# number of rings (size 3 to 8) (size 9 to 14) (size 15 to 20)
#    0.000    1.250    2.500    2.250    3.500    6.000 
#    2.250    1.250    0.000    0.000    0.000    0.000 
#    0.000    0.000    0.000    0.000    0.000    0.000 
#
# Total GULP energy -89387.976860 kJ/mol
# GULP energy per Si atom -5586.748554 kJ/mol
# Density = 2.479842 g / cm^3
# Si number density = 24.854988 Si / 1000 Ang^3
#
#
#
# Elastic Constant Matrix: (Units=GPa)
#
#
# Indices 1 2 3 4 5 6 
#
# 1 13.3376 101.9282 -70.7803 -41.4012 -24.1899 -53.8358
# 2 101.9282 1.5167 144.1358 67.4113 50.4607 15.7395
# 3 -70.7803 144.1358 -81.3371 -54.3281 -31.8258 -42.7722
# 4 -41.4012 67.4113 -54.3281 25.9722 -23.3384 -10.0024
# 5 -24.1899 50.4607 -31.8258 -23.3384 34.8736 -16.2943
# 6 -53.8358 15.7395 -42.7722 -10.0024 -16.2943 27.9125
#
#
#
# Elastic Compliance Matrix: (Units=1/GPa)
#
#
# Indices 1 2 3 4 5 6 
#
# 1 0.017482 0.003930 -0.011744 -0.003349 -0.001058 0.011688
# 2 0.003930 0.006322 0.003010 -0.000065 0.000417 0.008848
# 3 -0.011744 0.003010 0.014497 -0.005940 -0.007202 -0.008466
# 4 -0.003349 -0.000065 -0.005940 0.018807 0.001143 -0.008119
# 5 -0.001058 0.000417 -0.007202 0.001143 0.021315 -0.000460
# 6 0.011688 0.008848 -0.008466 -0.008119 -0.000460 0.037229
#
#
# Mechanical properties :
#
#
# Convention : Reuss Voigt Hill
#
# Bulk Modulus (GPa) = 34.84912 31.56496 33.20704
# Shear Modulus (GPa) = 37.08528 1.63390 19.35959
#
# Velocity S-wave (km/s) = 3.86692 0.81166 2.79391
# Velocity P-wave (km/s) = 5.82999 3.68858 4.87824
#
# Compressibility (1/GPa) = 0.02869513
#
# Stress axis : x y z
#
# Youngs Moduli (GPa) = 57.20165 158.17678 68.97748
#
# Poissons Ratio (x) = -0.62169 0.81006
# Poissons Ratio (y) = -0.22482 -0.20764
# Poissons Ratio (z) = 0.67177 -0.47615
#
# Static dielectric constant tensor:
#      x y z
#    x 2.075720 0.113480 -0.011130 
#    y 0.113480 2.042270 0.018330 
#    z -0.011130 0.018330 1.992520 
# 
# From -- ./inp_files/321037.got.cif
#   From: 2010.05.17/outbox.cif.g08.bks.cpg/sg2_161_cif.got.tgz:321037.got - 2010.06.03 11:33:40.
