data_PCOD9039751
_publ_section_title
;
Structure prediction by ZEFSAII (Michael W. Deem and Ramdas Pophale) SiO2 
 PCOD9039751
Probable space group: P -1
;
_chemical_formula_sum "Si O2"
_cell_formula_units_Z 14
_cell_length_a 8.243267
_cell_length_b 9.691663
_cell_length_c 11.667844
_cell_angle_alpha 106.647444
_cell_angle_beta 115.124650
_cell_angle_gamma 46.992541
_cell_volume 617.151873
_symmetry_space_group_name_H-M "P -1"
_symmetry_group_IT_number 2
_symmetry_cell_setting 'triclinic'
loop_
_space_group_symop_operation_xyz
x,y,z
-x,-y,-z
loop_
_atom_site_type_symbol
_atom_site_label
_atom_site_fract_x
_atom_site_fract_y
_atom_site_fract_z
Si Si1 0.463559 0.943180 0.628875
Si Si2 0.989157 0.669606 0.773579
Si Si3 0.239609 0.779457 0.522969
Si Si4 0.963071 0.630456 0.412659
Si Si5 0.319960 0.007444 0.868870
Si Si6 0.927573 0.370349 0.951140
Si Si7 0.392189 0.653070 0.794935
O O1 0.400837 0.966902 0.752000
O O2 0.281963 0.159349 0.585743
O O3 0.737374 0.837688 0.683886
O O4 0.411978 0.811601 0.526307
O O5 0.031052 0.478032 0.720975
O O6 0.205402 0.632302 0.768322
O O7 0.996907 0.712564 0.917989
O O8 0.146456 0.665182 0.446017
O O9 0.368640 0.685171 0.659872
O O10 0.000000 0.000000 0.500000
O O11 0.000000 0.500000 0.500000
O O12 0.069630 0.207709 0.861437
O O13 0.315406 0.845751 0.869384
O O14 0.500000 0.000000 0.000000
O O15 0.653770 0.490127 0.876319
O O16 0.000000 0.500000 0.000000
#
# Coordination Sequence:
#
# PCOD9039751 Si02
#       7
#     2   2   2   2   2   2   2
#     4  10  23  42  70  97 134 175 222 272 335 399
#     4  12  25  41  66 103 136 173 218 279 337 398
#     4   9  20  45  67  93 131 179 228 268 322 394
#     4  11  23  43  68  94 135 176 223 277 331 388
#     4  11  21  43  67  91 131 175 215 266 331 402
#     4  12  23  41  69  97 130 174 221 270 330 401
#     4  11  24  41  65 100 136 168 223 278 331 393
#
# _framework density 22.684854000000001
#
# number of rings (size 3 to 8) (size 9 to 14) (size 15 to 20)
#    0.000    1.143    4.286    2.143    0.000    2.857 
#    0.000    2.857    0.000    0.000    0.000    0.000 
#    0.000    0.000    0.000    0.000    0.000    0.000 
#
# Total GULP energy -78163.790565 kJ/mol
# GULP energy per Si atom -5583.127897 kJ/mol
# Density = 2.263322 g / cm^3
# Si number density = 22.684854 Si / 1000 Ang^3
#
#
#
# Elastic Constant Matrix: (Units=GPa)
#
#
# Indices 1 2 3 4 5 6 
#
# 1 108.0283 57.9504 46.8173 -1.5771 39.7179 -10.3512
# 2 57.9504 129.8079 39.1411 5.4203 30.1303 -3.9607
# 3 46.8173 39.1411 83.1006 -8.4553 21.1166 4.1767
# 4 -1.5771 5.4203 -8.4553 42.5896 2.0803 8.7397
# 5 39.7179 30.1303 21.1166 2.0803 49.0134 -0.0648
# 6 -10.3512 -3.9607 4.1767 8.7397 -0.0648 40.1690
#
#
#
# Elastic Compliance Matrix: (Units=1/GPa)
#
#
# Indices 1 2 3 4 5 6 
#
# 1 0.017940 -0.003734 -0.006252 -0.000670 -0.009513 0.005035
# 2 -0.003734 0.010840 -0.002646 -0.002097 -0.002408 0.000834
# 3 -0.006252 -0.002646 0.017818 0.004674 -0.001189 -0.004743
# 4 -0.000670 -0.002097 0.004674 0.026054 -0.001296 -0.006536
# 5 -0.009513 -0.002408 -0.001189 -0.001296 0.030156 -0.002235
# 6 0.005035 0.000834 -0.004743 -0.006536 -0.002235 0.028186
#
#
# Mechanical properties :
#
#
# Convention : Reuss Voigt Hill
#
# Bulk Modulus (GPa) = 46.87122 67.63938 57.25530
# Shear Modulus (GPa) = 30.60539 38.15628 34.38083
#
# Velocity S-wave (km/s) = 3.67707 4.10569 3.89728
# Velocity P-wave (km/s) = 6.22371 7.23583 6.74877
#
# Compressibility (1/GPa) = 0.02133505
#
# Stress axis : x y z
#
# Youngs Moduli (GPa) = 55.74213 92.24813 56.12301
#
# Poissons Ratio (x) = 0.34444 0.35089
# Poissons Ratio (y) = 0.20813 0.14848
# Poissons Ratio (z) = 0.34850 0.24405
#
# Static dielectric constant tensor:
#      x y z
#    x 1.837340 -0.015590 -0.082840 
#    y -0.015590 1.862410 0.020080 
#    z -0.082840 0.020080 1.912290 
# 
# From -- ./inp_files/342495.got.cif
#   From: 2010.05.17/outbox.cif.g08.bks.cpg/sg2_172_cif.got.tgz:342495.got - 2010.06.03 11:33:40.
