data_PCOD9039502
_publ_section_title
;
Structure prediction by ZEFSAII (Michael W. Deem and Ramdas Pophale) SiO2 
 PCOD9039502
Probable space group: P -1
;
_chemical_formula_sum "Si O2"
_cell_formula_units_Z 12
_cell_length_a 6.613587
_cell_length_b 15.235232
_cell_length_c 9.139925
_cell_angle_alpha 117.806375
_cell_angle_beta 103.765402
_cell_angle_gamma 120.947817
_cell_volume 542.608433
_symmetry_space_group_name_H-M "P -1"
_symmetry_group_IT_number 2
_symmetry_cell_setting 'triclinic'
loop_
_space_group_symop_operation_xyz
x,y,z
-x,-y,-z
loop_
_atom_site_type_symbol
_atom_site_label
_atom_site_fract_x
_atom_site_fract_y
_atom_site_fract_z
Si Si1 0.339835 0.649477 0.854351
Si Si2 0.752420 0.310374 0.455882
Si Si3 0.240652 0.151236 0.486638
Si Si4 0.372247 0.837148 0.238872
Si Si5 0.329824 0.943126 0.772463
Si Si6 0.257070 0.331230 0.866348
O O1 0.354944 0.696744 0.730522
O O2 0.046298 0.476639 0.675041
O O3 0.308572 0.726577 0.026801
O O4 0.626176 0.683693 0.979050
O O5 0.489617 0.240790 0.472355
O O6 0.820584 0.216848 0.393260
O O7 0.333619 0.090659 0.557646
O O8 0.266203 0.253654 0.679237
O O9 0.912340 0.051248 0.279112
O O10 0.079522 0.746748 0.220102
O O11 0.443664 0.957236 0.245602
O O12 0.500000 0.000000 0.000000
O O13 0.500000 0.500000 0.000000
#
# Coordination Sequence:
#
# PCOD9039502 Si02
#       6
#     2   2   2   2   2   2
#     4  10  23  42  68  99 132 173 221 270 331 385
#     4  11  24  43  67  99 135 172 219 277 326 390
#     4  11  25  42  68  96 134 173 220 271 329 386
#     4  11  24  45  68  99 134 173 219 272 325 394
#     4  12  26  44  66  99 133 176 222 269 331 389
#     4  11  23  43  70 100 132 175 220 269 328 396
#
# _framework density 22.115396
#
# number of rings (size 3 to 8) (size 9 to 14) (size 15 to 20)
#    0.000    1.000    1.667    4.500    2.333    8.667 
#    0.000    4.167    0.000    0.000    0.000    0.000 
#    0.000    0.000    0.000    0.000    0.000    0.000 
#
# Total GULP energy -67187.551897 kJ/mol
# GULP energy per Si atom -5598.962658 kJ/mol
# Density = 2.206506 g / cm^3
# Si number density = 22.115396 Si / 1000 Ang^3
#
#
#
# Elastic Constant Matrix: (Units=GPa)
#
#
# Indices 1 2 3 4 5 6 
#
# 1 92.3843 37.3498 42.6360 -19.2538 13.3011 2.7665
# 2 37.3498 131.7411 38.3504 -16.2456 3.6369 -7.7369
# 3 42.6360 38.3504 110.4924 -23.6475 5.7394 -12.2206
# 4 -19.2538 -16.2456 -23.6475 40.0568 -11.0203 -2.3827
# 5 13.3011 3.6369 5.7394 -11.0203 38.9885 -0.3700
# 6 2.7665 -7.7369 -12.2206 -2.3827 -0.3700 37.9635
#
#
#
# Elastic Compliance Matrix: (Units=1/GPa)
#
#
# Indices 1 2 3 4 5 6 
#
# 1 0.015121 -0.002762 -0.004529 0.002301 -0.003613 -0.003014
# 2 -0.002762 0.009128 -0.001582 0.001771 0.000840 0.001672
# 3 -0.004529 -0.001582 0.012949 0.005474 0.001377 0.004533
# 4 0.002301 0.001771 0.005474 0.032301 0.007412 0.004055
# 5 -0.003613 0.000840 0.001377 0.007412 0.028711 0.001623
# 6 -0.003014 0.001672 0.004533 0.004055 0.001623 0.028631
#
#
# Mechanical properties :
#
#
# Convention : Reuss Voigt Hill
#
# Bulk Modulus (GPa) = 51.41258 63.47667 57.44463
# Shear Modulus (GPa) = 33.09725 37.82055 35.45890
#
# Velocity S-wave (km/s) = 3.87275 4.13988 4.00854
# Velocity P-wave (km/s) = 6.57993 7.18444 6.88882
#
# Compressibility (1/GPa) = 0.01945049
#
# Stress axis : x y z
#
# Youngs Moduli (GPa) = 66.13199 109.55811 77.22830
#
# Poissons Ratio (x) = 0.30260 0.34980
# Poissons Ratio (y) = 0.18266 0.12218
# Poissons Ratio (z) = 0.29954 0.17333
#
# Static dielectric constant tensor:
#      x y z
#    x 1.807700 -0.032250 0.029150 
#    y -0.032250 1.795010 -0.001730 
#    z 0.029150 -0.001730 1.816780 
# 
# From -- ./inp_files/17865.got.cif
#   From: 2010.05.17/outbox.cif.g08.bks.cpg/sg2_9_cif.got.tgz:17865.got - 2010.06.03 11:33:40.
