data_PCOD9039799
_publ_section_title
;
Structure prediction by ZEFSAII (Michael W. Deem and Ramdas Pophale) SiO2 
 PCOD9039799
Probable space group: P -1
;
_chemical_formula_sum "Si O2"
_cell_formula_units_Z 16
_cell_length_a 18.280410
_cell_length_b 13.719144
_cell_length_c 8.246261
_cell_angle_alpha 99.316853
_cell_angle_beta 89.595116
_cell_angle_gamma 159.099920
_cell_volume 664.179214
_symmetry_space_group_name_H-M "P -1"
_symmetry_group_IT_number 2
_symmetry_cell_setting 'triclinic'
loop_
_space_group_symop_operation_xyz
x,y,z
-x,-y,-z
loop_
_atom_site_type_symbol
_atom_site_label
_atom_site_fract_x
_atom_site_fract_y
_atom_site_fract_z
Si Si1 0.669756 0.143419 0.624148
Si Si2 0.437916 0.690911 0.349109
Si Si3 0.168762 0.810741 0.770866
Si Si4 0.877013 0.751812 0.025050
Si Si5 0.568564 0.642290 0.371437
Si Si6 0.878775 0.102419 0.732211
Si Si7 0.261989 0.744698 0.971784
Si Si8 0.452301 0.308233 0.093644
O O1 0.914864 0.471194 0.628200
O O2 0.500000 0.000000 0.500000
O O3 0.512481 0.844510 0.547045
O O4 0.741368 0.255373 0.835922
O O5 0.423441 0.555323 0.333215
O O6 0.658939 0.993918 0.321102
O O7 0.229771 0.451499 0.172811
O O8 0.227708 0.807543 0.910052
O O9 0.253221 0.025523 0.894283
O O10 0.669372 0.527370 0.078765
O O11 0.032663 0.881766 0.169358
O O12 0.000000 0.000000 0.000000
O O13 0.500000 0.500000 0.500000
O O14 0.534779 0.525215 0.191158
O O15 0.813374 0.992933 0.518592
O O16 0.067175 0.425622 0.822489
O O17 0.666324 0.869192 0.780013
O O18 0.500000 0.000000 0.000000
#
# Coordination Sequence:
#
# PCOD9039799 Si02
#       8
#     2   2   2   2   2   2   2   2
#     4  12  25  43  69 105 139 181 235 296 354 420
#     4  11  25  45  69 102 141 179 234 291 352 417
#     4  11  24  44  73  97 139 188 235 284 360 430
#     4  11  24  44  68 103 140 185 237 289 347 432
#     4  10  23  42  71 102 136 180 237 291 344 427
#     4  11  23  44  69  98 142 180 235 293 351 416
#     4  12  25  45  70 102 142 188 239 288 357 432
#     4  10  23  44  71  95 137 185 235 275 366 401
#
# _framework density 24.089881999999999
#
# number of rings (size 3 to 8) (size 9 to 14) (size 15 to 20)
#    0.000    1.000    1.250    6.000    3.500    6.000 
#    2.250    0.000    0.000    0.000    0.000    0.000 
#    0.000    0.000    0.000    0.000    0.000    0.000 
#
# Total GULP energy -89368.228112 kJ/mol
# GULP energy per Si atom -5585.514257 kJ/mol
# Density = 2.403505 g / cm^3
# Si number density = 24.089882 Si / 1000 Ang^3
#
#
#
# Elastic Constant Matrix: (Units=GPa)
#
#
# Indices 1 2 3 4 5 6 
#
# 1 100.8317 30.3458 41.5603 13.6867 12.5757 -10.6640
# 2 30.3458 103.7015 12.6583 20.6009 2.1189 2.3784
# 3 41.5603 12.6583 129.0047 49.8219 -8.8278 -13.5543
# 4 13.6867 20.6009 49.8219 39.4382 -13.2477 -2.6235
# 5 12.5757 2.1189 -8.8278 -13.2477 50.8220 8.5498
# 6 -10.6640 2.3784 -13.5543 -2.6235 8.5498 40.4408
#
#
#
# Elastic Compliance Matrix: (Units=1/GPa)
#
#
# Indices 1 2 3 4 5 6 
#
# 1 0.013576 -0.003817 -0.004788 0.002201 -0.003994 0.003187
# 2 -0.003817 0.012470 0.003994 -0.010814 -0.001571 -0.000771
# 3 -0.004788 0.003994 0.018617 -0.024635 -0.002798 0.003736
# 4 0.002201 -0.010814 -0.024635 0.065579 0.013677 -0.005678
# 5 -0.003994 -0.001571 -0.002798 0.013677 0.024864 -0.006268
# 6 0.003187 -0.000771 0.003736 -0.005678 -0.006268 0.027822
#
#
# Mechanical properties :
#
#
# Convention : Reuss Voigt Hill
#
# Bulk Modulus (GPa) = 28.21457 55.85184 42.03320
# Shear Modulus (GPa) = 27.17909 42.73843 34.95876
#
# Velocity S-wave (km/s) = 3.36257 4.21660 3.81357
# Velocity P-wave (km/s) = 5.17817 6.85138 6.07268
#
# Compressibility (1/GPa) = 0.03544268
#
# Stress axis : x y z
#
# Youngs Moduli (GPa) = 73.65891 80.18925 53.71310
#
# Poissons Ratio (x) = 0.30608 0.25715
# Poissons Ratio (y) = 0.28116 -0.21452
# Poissons Ratio (z) = 0.35265 -0.32027
#
# Static dielectric constant tensor:
#      x y z
#    x 2.007400 -0.117320 -0.026090 
#    y -0.117320 1.524880 0.454960 
#    z -0.026090 0.454960 1.650360 
# 
# From -- ./inp_files/347605.got.cif
#   From: 2010.05.17/outbox.cif.g08.bks.cpg/sg2_174_cif.got.tgz:347605.got - 2010.06.03 11:33:40.
