data_PCOD9039520
_publ_section_title
;
Structure prediction by ZEFSAII (Michael W. Deem and Ramdas Pophale) SiO2 
 PCOD9039520
Probable space group: P -1
;
_chemical_formula_sum "Si O2"
_cell_formula_units_Z 10
_cell_length_a 7.210751
_cell_length_b 5.009750
_cell_length_c 11.403976
_cell_angle_alpha 84.760482
_cell_angle_beta 109.519096
_cell_angle_gamma 97.392878
_cell_volume 384.540010
_symmetry_space_group_name_H-M "P -1"
_symmetry_group_IT_number 2
_symmetry_cell_setting 'triclinic'
loop_
_space_group_symop_operation_xyz
x,y,z
-x,-y,-z
loop_
_atom_site_type_symbol
_atom_site_label
_atom_site_fract_x
_atom_site_fract_y
_atom_site_fract_z
Si Si1 0.787816 0.968860 0.521723
Si Si2 0.244013 0.450893 0.150842
Si Si3 0.274867 0.982124 0.996373
Si Si4 0.648293 0.481166 0.372835
Si Si5 0.019178 0.278877 0.747655
O O1 0.655112 0.173337 0.422352
O O2 0.844989 0.084015 0.656596
O O3 0.688496 0.670500 0.487939
O O4 0.853920 0.900094 0.136848
O O5 0.249691 0.170762 0.096214
O O6 0.452781 0.519672 0.258030
O O7 0.077776 0.496464 0.208321
O O8 0.220381 0.677339 0.037885
O O9 0.500000 0.000000 0.000000
O O10 0.834199 0.572817 0.323460
O O11 0.000000 0.000000 0.500000
#
# Coordination Sequence:
#
# PCOD9039520 Si02
#       5
#     2   2   2   2   2
#     4  10  23  42  69 100 132 181 218 269 335 397
#     4  12  27  44  70 104 131 178 226 275 333 399
#     4  12  26  47  70  97 137 179 222 278 338 395
#     4  11  24  44  69  98 139 173 223 269 337 394
#     4  11  25  44  72  98 139 175 225 278 328 396
#
# _framework density 26.005098
#
# number of rings (size 3 to 8) (size 9 to 14) (size 15 to 20)
#    0.000    0.800    2.000    5.400    2.800    8.000 
#    0.000    0.000    0.000    0.000    0.000    0.000 
#    0.000    0.000    0.000    0.000    0.000    0.000 
#
# Total GULP energy -56207.553994 kJ/mol
# GULP energy per Si atom -5620.755399 kJ/mol
# Density = 2.594591 g / cm^3
# Si number density = 26.005098 Si / 1000 Ang^3
#
#
#
# Elastic Constant Matrix: (Units=GPa)
#
#
# Indices 1 2 3 4 5 6 
#
# 1 121.6001 34.2288 44.9866 6.2894 -10.1614 -16.3147
# 2 34.2288 125.0751 27.1000 4.1340 -3.4565 -10.7076
# 3 44.9866 27.1000 129.4828 1.7872 7.5280 -8.2770
# 4 6.2894 4.1340 1.7872 38.7267 -4.3439 6.1153
# 5 -10.1614 -3.4565 7.5280 -4.3439 45.2788 4.2991
# 6 -16.3147 -10.7076 -8.2770 6.1153 4.2991 40.3181
#
#
#
# Elastic Compliance Matrix: (Units=1/GPa)
#
#
# Indices 1 2 3 4 5 6 
#
# 1 0.010631 -0.001823 -0.003223 -0.001620 0.002328 0.003153
# 2 -0.001823 0.008901 -0.001137 -0.000810 0.000240 0.001490
# 3 -0.003223 -0.001137 0.009260 -0.000144 -0.002418 0.000575
# 4 -0.001620 -0.000810 -0.000144 0.027327 0.002727 -0.005336
# 5 0.002328 0.000240 -0.002418 0.002727 0.023519 -0.002412
# 6 0.003153 0.001490 0.000575 -0.005336 -0.002412 0.027659
#
#
# Mechanical properties :
#
#
# Convention : Reuss Voigt Hill
#
# Bulk Modulus (GPa) = 60.88144 65.42097 63.15120
# Shear Modulus (GPa) = 39.95560 42.85424 41.40492
#
# Velocity S-wave (km/s) = 3.92401 4.06386 3.99455
# Velocity P-wave (km/s) = 6.63270 6.87252 6.75367
#
# Compressibility (1/GPa) = 0.01642537
#
# Stress axis : x y z
#
# Youngs Moduli (GPa) = 94.06732 112.34091 107.98872
#
# Poissons Ratio (x) = 0.20480 0.34808
# Poissons Ratio (y) = 0.17149 0.12280
# Poissons Ratio (z) = 0.30321 0.12775
#
# Static dielectric constant tensor:
#      x y z
#    x 2.057620 0.045880 -0.022020 
#    y 0.045880 1.969610 -0.001700 
#    z -0.022020 -0.001700 2.013590 
# 
# From -- ./inp_files/129075.got.cif
#   From: 2010.05.17/outbox.cif.g08.bks.cpg/sg2_65_cif.got.tgz:129075.got - 2010.06.03 11:33:40.
