data_PCOD9039801
_publ_section_title
;
Structure prediction by ZEFSAII (Michael W. Deem and Ramdas Pophale) SiO2 
 PCOD9039801
Probable space group: P -1
;
_chemical_formula_sum "Si O2"
_cell_formula_units_Z 15
_cell_length_a 12.157197
_cell_length_b 7.993463
_cell_length_c 10.764220
_cell_angle_alpha 68.134967
_cell_angle_beta 141.890667
_cell_angle_gamma 122.860628
_cell_volume 539.278146
_symmetry_space_group_name_H-M "P -1"
_symmetry_group_IT_number 2
_symmetry_cell_setting 'triclinic'
loop_
_space_group_symop_operation_xyz
x,y,z
-x,-y,-z
loop_
_atom_site_type_symbol
_atom_site_label
_atom_site_fract_x
_atom_site_fract_y
_atom_site_fract_z
Si Si1 0.004015 0.953499 0.821178
Si Si2 0.527350 0.432309 0.337653
Si Si3 0.228597 0.533706 0.677519
Si Si4 0.360323 0.174938 0.931794
Si Si5 0.694319 0.901920 0.366526
Si Si6 0.000000 0.500000 0.000000
Si Si7 0.444366 0.844008 0.378834
Si Si8 0.099559 0.313205 0.971511
O O1 0.233164 0.032960 0.969586
O O2 0.969160 0.109810 0.839421
O O3 0.903173 0.960657 0.601066
O O4 0.924550 0.740090 0.883232
O O5 0.690783 0.403640 0.408510
O O6 0.599129 0.663344 0.355036
O O7 0.473909 0.305846 0.449268
O O8 0.316406 0.363455 0.103402
O O9 0.263300 0.334142 0.784827
O O10 0.000000 0.500000 0.500000
O O11 0.404794 0.696905 0.872672
O O12 0.314612 0.051043 0.797246
O O13 0.567943 0.956851 0.337777
O O14 0.223821 0.683399 0.193425
O O15 0.071161 0.510566 0.909421
O O16 0.500000 0.000000 0.500000
#
# Coordination Sequence:
#
# PCOD9039801 Si02
#       8
#     2   2   2   2   2   1   2   2
#     4  11  22  41  72 102 139 192 233 290 375 423
#     4  11  22  47  69  97 141 186 235 291 360 429
#     4  10  23  43  72 102 139 189 241 296 357 430
#     4  10  23  42  71 102 141 191 237 291 360 445
#     4  11  22  42  70  97 142 192 229 287 370 429
#     4  12  26  40  66 110 142 176 242 298 360 428
#     4  12  26  42  67 105 141 181 236 303 356 425
#     4  11  23  42  73 100 140 189 233 299 354 429
#
# _framework density 27.814959000000002
#
# number of rings (size 3 to 8) (size 9 to 14) (size 15 to 20)
#    0.000    1.067    4.000    2.400    1.867    3.200 
#    0.000    0.000    0.000    7.200    0.000    0.000 
#    0.000    0.000    0.000    0.000    0.000    0.000 
#
# Total GULP energy -83657.443720 kJ/mol
# GULP energy per Si atom -5577.162915 kJ/mol
# Density = 2.775165 g / cm^3
# Si number density = 27.814959 Si / 1000 Ang^3
#
#
#
# Elastic Constant Matrix: (Units=GPa)
#
#
# Indices 1 2 3 4 5 6 
#
# 1 163.1592 13.0978 46.5866 2.1909 6.0088 2.1954
# 2 13.0978 98.0963 8.6855 10.2211 -5.7319 1.1498
# 3 46.5866 8.6855 133.9089 19.1471 30.1003 -13.0266
# 4 2.1909 10.2211 19.1471 38.1957 -9.3354 4.2587
# 5 6.0088 -5.7319 30.1003 -9.3354 65.4113 3.2545
# 6 2.1954 1.1498 -13.0266 4.2587 3.2545 35.3588
#
#
#
# Elastic Compliance Matrix: (Units=1/GPa)
#
#
# Indices 1 2 3 4 5 6 
#
# 1 0.007030 -0.000772 -0.003070 0.001806 0.001050 -0.001857
# 2 -0.000772 0.010624 -0.000261 -0.002459 0.000779 -0.000169
# 3 -0.003070 -0.000261 0.011763 -0.007941 -0.006590 0.006096
# 4 0.001806 -0.002459 -0.007941 0.033653 0.008463 -0.007790
# 5 0.001050 0.000779 -0.006590 0.008463 0.019767 -0.005357
# 6 -0.001857 -0.000169 0.006096 -0.007790 -0.005357 0.032079
#
#
# Mechanical properties :
#
#
# Convention : Reuss Voigt Hill
#
# Bulk Modulus (GPa) = 47.14625 59.10048 53.12337
# Shear Modulus (GPa) = 38.40507 49.57945 43.99226
#
# Velocity S-wave (km/s) = 3.71985 4.22652 3.98125
# Velocity P-wave (km/s) = 5.95286 6.71653 6.34619
#
# Compressibility (1/GPa) = 0.02121060
#
# Stress axis : x y z
#
# Youngs Moduli (GPa) = 142.25389 94.12738 85.01523
#
# Poissons Ratio (x) = 0.07265 0.26102
# Poissons Ratio (y) = 0.10980 0.02216
# Poissons Ratio (z) = 0.43677 0.02453
#
# Static dielectric constant tensor:
#      x y z
#    x 0.520190 2.809350 -0.654160 
#    y 2.809350 -2.710980 1.067870 
#    z -0.654160 1.067870 1.975000 
# 
# From -- ./inp_files/417476.got.cif
#   From: 2010.05.17/outbox.cif.g08.bks.cpg/sg2_209_cif.got.tgz:417476.got - 2010.06.03 11:33:40.
