data_PCOD9039028
_publ_section_title
;
Structure prediction by ZEFSAII (Michael W. Deem and Ramdas Pophale) SiO2 
 PCOD9039028
Probable space group: P -1
;
_chemical_formula_sum "Si O2"
_cell_formula_units_Z 14
_cell_length_a 20.755698
_cell_length_b 9.293764
_cell_length_c 15.375165
_cell_angle_alpha 51.446875
_cell_angle_beta 32.537689
_cell_angle_gamma 27.899330
_cell_volume 653.165249
_symmetry_space_group_name_H-M "P -1"
_symmetry_group_IT_number 2
_symmetry_cell_setting 'triclinic'
loop_
_space_group_symop_operation_xyz
x,y,z
-x,-y,-z
loop_
_atom_site_type_symbol
_atom_site_label
_atom_site_fract_x
_atom_site_fract_y
_atom_site_fract_z
Si Si1 0.798442 0.215449 0.915417
Si Si2 0.995215 0.226062 0.423528
Si Si3 0.628095 0.122973 0.739861
Si Si4 0.383405 0.591641 0.688099
Si Si5 0.315348 0.336077 0.242959
Si Si6 0.948812 0.291962 0.023892
Si Si7 0.771808 0.907323 0.950760
O O1 0.851439 0.295541 0.751073
O O2 0.984968 0.892175 0.891286
O O3 0.614087 0.560938 0.054365
O O4 0.694055 0.172966 0.002497
O O5 0.763162 0.593779 0.595354
O O6 0.188639 0.045547 0.337190
O O7 0.043898 0.246944 0.266445
O O8 0.000000 0.000000 0.500000
O O9 0.580770 0.317982 0.638741
O O10 0.688878 0.843782 0.739089
O O11 0.500000 0.500000 0.500000
O O12 0.263589 0.547775 0.831789
O O13 0.168735 0.988334 0.822823
O O14 0.562942 0.105329 0.055976
O O15 0.876442 0.597357 0.998667
#
# Coordination Sequence:
#
# PCOD9039028 Si02
#       7
#     2   2   2   2   2   2   2
#     4  11  23  43  68  96 135 173 215 275 328 389
#     4  12  26  42  66 101 133 175 220 272 337 388
#     4  11  24  43  66 101 129 173 227 269 332 390
#     4  10  23  42  65  97 134 172 216 277 323 389
#     4  12  24  43  69  98 132 174 222 276 326 391
#     4  10  24  42  67  96 131 174 223 262 332 393
#     4  12  24  45  68  97 138 175 217 275 328 397
#
# _framework density 21.434085
#
# number of rings (size 3 to 8) (size 9 to 14) (size 15 to 20)
#    0.000    0.857    4.286    2.571    4.000    0.000 
#    0.000    0.000    0.000    6.000    0.000    0.000 
#    0.000    0.000    0.000    0.000    0.000    0.000 
#
# Total GULP energy -78241.134842 kJ/mol
# GULP energy per Si atom -5588.652489 kJ/mol
# Density = 2.138530 g / cm^3
# Si number density = 21.434085 Si / 1000 Ang^3
#
#
#
# Elastic Constant Matrix: (Units=GPa)
#
#
# Indices 1 2 3 4 5 6 
#
# 1 74.6414 17.7479 -1.7107 3.3672 0.1658 18.8159
# 2 17.7479 89.4186 14.3747 4.2568 1.0044 11.6835
# 3 -1.7107 14.3747 74.5322 -0.4542 16.2120 -0.0512
# 4 3.3672 4.2568 -0.4542 4.7133 -2.7015 9.1976
# 5 0.1658 1.0044 16.2120 -2.7015 33.2695 -6.0050
# 6 18.8159 11.6835 -0.0512 9.1976 -6.0050 41.1372
#
#
#
# Elastic Compliance Matrix: (Units=1/GPa)
#
#
# Indices 1 2 3 4 5 6 
#
# 1 0.015798 -0.002545 0.001226 0.005970 -0.001570 -0.008065
# 2 -0.002545 0.012577 -0.002556 -0.008975 0.000079 -0.000393
# 3 0.001226 -0.002556 0.015612 0.000644 -0.007679 -0.001080
# 4 0.005970 -0.008975 0.000644 0.392290 0.016349 -0.085504
# 5 -0.001570 0.000079 -0.007679 0.016349 0.035533 0.002218
# 6 -0.008065 -0.000393 -0.001080 -0.085504 0.002218 0.047549
#
#
# Mechanical properties :
#
#
# Convention : Reuss Voigt Hill
#
# Bulk Modulus (GPa) = 27.59727 33.26845 30.43286
# Shear Modulus (GPa) = 9.27319 29.70267 19.48793
#
# Velocity S-wave (km/s) = 2.08225 3.72663 3.01857
# Velocity P-wave (km/s) = 4.32254 5.83712 5.13597
#
# Compressibility (1/GPa) = 0.03623547
#
# Stress axis : x y z
#
# Youngs Moduli (GPa) = 63.29885 79.50891 64.05451
#
# Poissons Ratio (x) = 0.20238 -0.07853
# Poissons Ratio (y) = 0.16112 0.16374
# Poissons Ratio (z) = -0.07760 0.20325
#
# Static dielectric constant tensor:
#      x y z
#    x 1.778860 -0.028620 0.029660 
#    y -0.028620 1.775970 0.007060 
#    z 0.029660 0.007060 1.805630 
# 
# From -- ./inp_files/187561.got.cif
#   From: 2010.05.17/outbox.cif.g08.bks.cpg/sg2_94_cif.got.tgz:187561.got - 2010.06.03 11:33:40.
