data_PCOD9039616
_publ_section_title
;
Structure prediction by ZEFSAII (Michael W. Deem and Ramdas Pophale) SiO2 
 PCOD9039616
Probable space group: P -1
;
_chemical_formula_sum "Si O2"
_cell_formula_units_Z 14
_cell_length_a 12.037039
_cell_length_b 13.226500
_cell_length_c 8.499604
_cell_angle_alpha 115.414290
_cell_angle_beta 38.002857
_cell_angle_gamma 125.615719
_cell_volume 676.122311
_symmetry_space_group_name_H-M "P -1"
_symmetry_group_IT_number 2
_symmetry_cell_setting 'triclinic'
loop_
_space_group_symop_operation_xyz
x,y,z
-x,-y,-z
loop_
_atom_site_type_symbol
_atom_site_label
_atom_site_fract_x
_atom_site_fract_y
_atom_site_fract_z
Si Si1 0.455376 0.607415 0.200942
Si Si2 0.290071 0.937375 0.523565
Si Si3 0.428983 0.835139 0.819928
Si Si4 0.878361 0.221409 0.125888
Si Si5 0.755254 0.285993 0.745928
Si Si6 0.739447 0.816664 0.245949
Si Si7 0.063700 0.514303 0.755397
O O1 0.350932 0.662220 0.227676
O O2 0.646052 0.724598 0.141328
O O3 0.292762 0.544323 0.480174
O O4 0.500000 0.500000 0.000000
O O5 0.310422 0.875465 0.623874
O O6 0.165191 0.808485 0.483154
O O7 0.459571 0.021455 0.266035
O O8 0.212876 0.038113 0.730745
O O9 0.210172 0.785245 0.952443
O O10 0.559667 0.775525 0.547016
O O11 0.406232 0.796813 0.998863
O O12 0.951435 0.360860 0.197724
O O13 0.063727 0.189467 0.912891
O O14 0.923124 0.399951 0.728131
O O15 0.000000 0.500000 0.000000
#
# Coordination Sequence:
#
# PCOD9039616 Si02
#       7
#     2   2   2   2   2   2   2
#     4  12  26  44  68 105 139 176 233 284 336 407
#     4  10  23  42  69  96 137 177 232 271 339 407
#     4  10  23  43  66 102 132 180 223 277 345 398
#     4  12  21  44  72  94 133 184 227 277 336 412
#     4  12  23  43  70  98 138 176 223 287 340 401
#     4  10  24  43  68 101 132 180 226 274 342 403
#     4  12  24  45  70  96 136 182 228 277 346 403
#
# _framework density 20.706313000000002
#
# number of rings (size 3 to 8) (size 9 to 14) (size 15 to 20)
#    0.857    0.000    4.286    2.571    4.000    1.143 
#    0.000    3.571    0.000    0.000    0.000    0.000 
#    0.000    0.000    0.000    0.000    0.000    0.000 
#
# Total GULP energy -77945.760082 kJ/mol
# GULP energy per Si atom -5567.554292 kJ/mol
# Density = 2.065918 g / cm^3
# Si number density = 20.706313 Si / 1000 Ang^3
#
#
#
# Elastic Constant Matrix: (Units=GPa)
#
#
# Indices 1 2 3 4 5 6 
#
# 1 70.3930 41.5550 45.3770 -4.0719 -2.7884 2.2555
# 2 41.5550 163.5678 53.7552 23.5255 -0.2277 9.5802
# 3 45.3770 53.7552 90.8774 6.1633 8.0072 -3.7174
# 4 -4.0719 23.5255 6.1633 39.5249 -5.6699 10.9049
# 5 -2.7884 -0.2277 8.0072 -5.6699 31.8607 -5.6367
# 6 2.2555 9.5802 -3.7174 10.9049 -5.6367 29.6752
#
#
#
# Elastic Compliance Matrix: (Units=1/GPa)
#
#
# Indices 1 2 3 4 5 6 
#
# 1 0.024402 -0.003387 -0.011416 0.008274 0.005720 -0.004146
# 2 -0.003387 0.008788 -0.003190 -0.004794 -0.000518 -0.001316
# 3 -0.011416 -0.003190 0.019618 -0.004534 -0.005892 0.004902
# 4 0.008274 -0.004794 -0.004534 0.033553 0.005879 -0.010863
# 5 0.005720 -0.000518 -0.005892 0.005879 0.035027 0.003487
# 6 -0.004146 -0.001316 0.004902 -0.010863 0.003487 0.039707
#
#
# Mechanical properties :
#
#
# Convention : Reuss Voigt Hill
#
# Bulk Modulus (GPa) = 59.44385 67.35696 63.40040
# Shear Modulus (GPa) = 24.66810 32.48888 28.57849
#
# Velocity S-wave (km/s) = 3.45531 3.96540 3.71911
# Velocity P-wave (km/s) = 6.68501 7.31889 7.00912
#
# Compressibility (1/GPa) = 0.01682260
#
# Stress axis : x y z
#
# Youngs Moduli (GPa) = 40.97955 113.78522 50.97274
#
# Poissons Ratio (x) = 0.38540 0.58190
# Poissons Ratio (y) = 0.13880 0.16262
# Poissons Ratio (z) = 0.46782 0.36302
#
# Static dielectric constant tensor:
#      x y z
#    x 1.725580 0.028410 0.026130 
#    y 0.028410 1.785330 -0.029830 
#    z 0.026130 -0.029830 1.790200 
# 
# From -- ./inp_files/259324.got.cif
#   From: 2010.05.17/outbox.cif.g08.bks.cpg/sg2_130_cif.got.tgz:259324.got - 2010.06.03 11:33:40.
