data_PCOD9039659
_publ_section_title
;
Structure prediction by ZEFSAII (Michael W. Deem and Ramdas Pophale) SiO2 
 PCOD9039659
Probable space group: P -1
;
_chemical_formula_sum "Si O2"
_cell_formula_units_Z 14
_cell_length_a 5.329547
_cell_length_b 18.728970
_cell_length_c 9.257661
_cell_angle_alpha 46.683873
_cell_angle_beta 56.038102
_cell_angle_gamma 56.262976
_cell_volume 534.472050
_symmetry_space_group_name_H-M "P -1"
_symmetry_group_IT_number 2
_symmetry_cell_setting 'triclinic'
loop_
_space_group_symop_operation_xyz
x,y,z
-x,-y,-z
loop_
_atom_site_type_symbol
_atom_site_label
_atom_site_fract_x
_atom_site_fract_y
_atom_site_fract_z
Si Si1 0.637637 0.445392 0.744642
Si Si2 0.017741 0.934040 0.226839
Si Si3 0.835394 0.677557 0.027383
Si Si4 0.209386 0.246744 0.365258
Si Si5 0.178579 0.377772 0.450898
Si Si6 0.335157 0.179177 0.872088
Si Si7 0.160810 0.921846 0.683237
O O1 0.352338 0.399306 0.866199
O O2 0.579285 0.559483 0.667049
O O3 0.874994 0.376677 0.885018
O O4 0.840113 0.440630 0.538386
O O5 0.387759 0.902462 0.186725
O O6 0.958318 0.823935 0.393776
O O7 0.771624 0.002580 0.322007
O O8 0.000000 0.000000 0.000000
O O9 0.594605 0.765568 0.079228
O O10 0.934891 0.727835 0.783261
O O11 0.192916 0.347885 0.321325
O O12 0.560768 0.172939 0.329213
O O13 0.239076 0.272719 0.663744
O O14 0.078649 0.127232 0.085402
O O15 0.000000 0.000000 0.500000
#
# Coordination Sequence:
#
# PCOD9039659 Si02
#       7
#     2   2   2   2   2   2   2
#     4  10  24  46  70 101 139 185 230 284 343 421
#     4  12  24  40  64  95 134 182 234 283 339 412
#     4  11  24  44  70 101 142 180 227 286 353 410
#     4  12  24  41  67 102 140 179 228 290 351 409
#     4  10  23  42  69  99 136 181 233 281 343 415
#     4  11  23  43  69  96 136 186 234 281 340 418
#     4  12  24  42  65  97 138 180 228 288 348 406
#
# _framework density 26.194072999999999
#
# number of rings (size 3 to 8) (size 9 to 14) (size 15 to 20)
#    0.000    0.857    0.000    7.714    0.000    8.571 
#    0.000    0.000    0.000    0.000    0.000    0.000 
#    0.000    0.000    0.000    0.000    0.000    0.000 
#
# Total GULP energy -78426.796227 kJ/mol
# GULP energy per Si atom -5601.914016 kJ/mol
# Density = 2.613445 g / cm^3
# Si number density = 26.194073 Si / 1000 Ang^3
#
#
#
# Elastic Constant Matrix: (Units=GPa)
#
#
# Indices 1 2 3 4 5 6 
#
# 1 82.2957 36.8626 28.8751 -5.8308 4.2746 9.4436
# 2 36.8626 129.2696 38.1411 15.5340 5.5025 19.8447
# 3 28.8751 38.1411 102.6947 -5.4458 16.4236 1.2061
# 4 -5.8308 15.5340 -5.4458 47.7572 10.7669 -0.2594
# 5 4.2746 5.5025 16.4236 10.7669 53.0546 -1.3973
# 6 9.4436 19.8447 1.2061 -0.2594 -1.3973 52.7392
#
#
#
# Elastic Compliance Matrix: (Units=1/GPa)
#
#
# Indices 1 2 3 4 5 6 
#
# 1 0.015088 -0.003653 -0.002616 0.002870 -0.000643 -0.001270
# 2 -0.003653 0.010783 -0.003351 -0.004592 0.001058 -0.003321
# 3 -0.002616 -0.003351 0.012488 0.003081 -0.003897 0.001356
# 4 0.002870 -0.004592 0.003081 0.024411 -0.005633 0.001114
# 5 -0.000643 0.001058 -0.003897 -0.005633 0.021149 0.000339
# 6 -0.001270 -0.003321 0.001356 0.001114 0.000339 0.020422
#
#
# Mechanical properties :
#
#
# Convention : Reuss Voigt Hill
#
# Bulk Modulus (GPa) = 52.30393 58.00195 55.15294
# Shear Modulus (GPa) = 38.47502 44.73562 41.60532
#
# Velocity S-wave (km/s) = 3.83671 4.13710 3.98973
# Velocity P-wave (km/s) = 6.29590 6.70910 6.50578
#
# Compressibility (1/GPa) = 0.01911902
#
# Stress axis : x y z
#
# Youngs Moduli (GPa) = 66.27798 92.73849 80.07424
#
# Poissons Ratio (x) = 0.33881 0.20944
# Poissons Ratio (y) = 0.24214 0.26835
# Poissons Ratio (z) = 0.17335 0.31080
#
# Static dielectric constant tensor:
#      x y z
#    x 2.053740 0.035980 0.016150 
#    y 0.035980 2.103740 -0.044560 
#    z 0.016150 -0.044560 2.001970 
# 
# From -- ./inp_files/138440.got.cif
#   From: 2010.05.17/outbox.cif.g08.bks.cpg/sg2_70_cif.got.tgz:138440.got - 2010.06.03 11:33:40.
