data_PCOD9039225
_publ_section_title
;
Structure prediction by ZEFSAII (Michael W. Deem and Ramdas Pophale) SiO2 
 PCOD9039225
Probable space group: P -1
;
_chemical_formula_sum "Si O2"
_cell_formula_units_Z 16
_cell_length_a 12.646397
_cell_length_b 10.628926
_cell_length_c 5.934924
_cell_angle_alpha 66.310625
_cell_angle_beta 66.280315
_cell_angle_gamma 84.205319
_cell_volume 667.071660
_symmetry_space_group_name_H-M "P -1"
_symmetry_group_IT_number 2
_symmetry_cell_setting 'triclinic'
loop_
_space_group_symop_operation_xyz
x,y,z
-x,-y,-z
loop_
_atom_site_type_symbol
_atom_site_label
_atom_site_fract_x
_atom_site_fract_y
_atom_site_fract_z
Si Si1 0.479732 0.426771 0.324012
Si Si2 0.104162 0.634644 0.412465
Si Si3 0.336819 0.049034 0.427749
Si Si4 0.102066 0.492155 0.103944
Si Si5 0.750207 0.128123 0.772684
Si Si6 0.430960 0.809477 0.802174
Si Si7 0.219113 0.377159 0.708150
Si Si8 0.875212 0.917273 0.129750
O O1 0.500000 0.500000 0.500000
O O2 0.562260 0.301545 0.318545
O O3 0.347248 0.363002 0.514633
O O4 0.500000 0.500000 0.000000
O O5 0.125643 0.632976 0.124714
O O6 0.143500 0.762549 0.443542
O O7 0.174179 0.508231 0.525855
O O8 0.967350 0.608792 0.587925
O O9 0.440186 0.165866 0.224118
O O10 0.209693 0.090459 0.573812
O O11 0.321520 0.951407 0.298345
O O12 0.386113 0.952185 0.648363
O O13 0.208734 0.426179 0.942577
O O14 0.000000 0.500000 0.000000
O O15 0.664040 0.226279 0.902706
O O16 0.808560 0.012477 0.948515
O O17 0.137094 0.237536 0.846187
O O18 0.000000 0.000000 0.000000
#
# Coordination Sequence:
#
# PCOD9039225 Si02
#       8
#     2   2   2   2   2   2   2   2
#     4  12  29  47  75 114 151 194 247 319 387 454
#     4  10  23  42  67 102 134 185 246 295 362 444
#     4  10  23  46  69  95 134 193 241 300 365 446
#     4   9  22  40  67  93 135 185 232 292 369 435
#     4  11  25  41  73  99 138 190 252 300 364 455
#     4  10  23  45  69  99 140 184 248 300 370 440
#     4  11  25  45  69 100 146 190 236 309 381 436
#     4  11  27  44  65 103 146 184 242 300 371 446
#
# _framework density 23.985427999999999
#
# number of rings (size 3 to 8) (size 9 to 14) (size 15 to 20)
#    0.000    1.500    1.250    1.125   14.000    4.500 
#    0.000    0.000    0.000    0.000    0.000    0.000 
#    0.000    0.000    0.000    0.000    0.000    0.000 
#
# Total GULP energy -89153.050553 kJ/mol
# GULP energy per Si atom -5572.065660 kJ/mol
# Density = 2.393084 g / cm^3
# Si number density = 23.985428 Si / 1000 Ang^3
#
#
#
# Elastic Constant Matrix: (Units=GPa)
#
#
# Indices 1 2 3 4 5 6 
#
# 1 73.2113 18.8700 31.5768 -0.7592 -7.3417 17.9232
# 2 18.8700 99.8129 21.3322 8.0054 -0.6850 19.2167
# 3 31.5768 21.3322 65.9098 16.1921 -18.6880 7.0576
# 4 -0.7592 8.0054 16.1921 43.2384 -0.5502 -1.4614
# 5 -7.3417 -0.6850 -18.6880 -0.5502 22.2383 4.9918
# 6 17.9232 19.2167 7.0576 -1.4614 4.9918 45.6302
#
#
#
# Elastic Compliance Matrix: (Units=1/GPa)
#
#
# Indices 1 2 3 4 5 6 
#
# 1 0.019321 -0.000877 -0.009345 0.003809 -0.000142 -0.005637
# 2 -0.000877 0.011697 -0.003145 -0.001158 -0.001715 -0.003945
# 3 -0.009345 -0.003145 0.029778 -0.010532 0.022113 -0.002367
# 4 0.003809 -0.001158 -0.010532 0.027336 -0.007472 0.002314
# 5 -0.000142 -0.001715 0.022113 -0.007472 0.065521 -0.010049
# 6 -0.005637 -0.003945 -0.002367 0.002314 -0.010049 0.027330
#
#
# Mechanical properties :
#
#
# Convention : Reuss Voigt Hill
#
# Bulk Modulus (GPa) = 29.35822 42.49912 35.92867
# Shear Modulus (GPa) = 22.82351 33.36503 28.09427
#
# Velocity S-wave (km/s) = 3.08808 3.73373 3.42615
# Velocity P-wave (km/s) = 4.99816 6.02867 5.53744
#
# Compressibility (1/GPa) = 0.03406201
#
# Stress axis : x y z
#
# Youngs Moduli (GPa) = 51.75715 85.48960 33.58174
#
# Poissons Ratio (x) = 0.07494 0.31383
# Poissons Ratio (y) = 0.04537 0.10563
# Poissons Ratio (z) = 0.48368 0.26889
#
# Static dielectric constant tensor:
#      x y z
#    x 1.959630 -0.039430 0.015150 
#    y -0.039430 2.201070 -0.064760 
#    z 0.015150 -0.064760 2.148290 
# 
# From -- ./inp_files/69046.got.cif
#   From: 2010.05.17/outbox.cif.g08.bks.cpg/sg2_35_cif.got.tgz:69046.got - 2010.06.03 11:33:40.
