data_PCOD9039644
_publ_section_title
;
Structure prediction by ZEFSAII (Michael W. Deem and Ramdas Pophale) SiO2 
 PCOD9039644
Probable space group: P -1
;
_chemical_formula_sum "Si O2"
_cell_formula_units_Z 14
_cell_length_a 13.748445
_cell_length_b 13.444526
_cell_length_c 8.410718
_cell_angle_alpha 76.464238
_cell_angle_beta 121.875830
_cell_angle_gamma 148.559309
_cell_volume 600.781008
_symmetry_space_group_name_H-M "P -1"
_symmetry_group_IT_number 2
_symmetry_cell_setting 'triclinic'
loop_
_space_group_symop_operation_xyz
x,y,z
-x,-y,-z
loop_
_atom_site_type_symbol
_atom_site_label
_atom_site_fract_x
_atom_site_fract_y
_atom_site_fract_z
Si Si1 0.328782 0.047217 0.120920
Si Si2 0.167566 0.597294 0.439154
Si Si3 0.569611 0.259195 0.694294
Si Si4 0.721918 0.095553 0.194643
Si Si5 0.257928 0.324420 0.962306
Si Si6 0.267485 0.173636 0.272023
Si Si7 0.943121 0.619542 0.152845
O O1 0.614731 0.250395 0.308496
O O2 0.286195 0.121561 0.143533
O O3 0.171422 0.846404 0.168783
O O4 0.255747 0.967444 0.907467
O O5 0.304631 0.708220 0.345241
O O6 0.969273 0.352990 0.332933
O O7 0.039391 0.604375 0.350244
O O8 0.471202 0.285767 0.519629
O O9 0.346279 0.020200 0.663898
O O10 0.757535 0.426802 0.935409
O O11 0.500000 0.000000 0.000000
O O12 0.303005 0.316185 0.184183
O O13 0.500000 0.500000 0.000000
O O14 0.191952 0.391899 0.878850
O O15 0.000011 0.063001 0.797071
#
# Coordination Sequence:
#
# PCOD9039644 Si02
#       7
#     2   2   2   2   2   2   2
#     4  10  23  42  69  98 135 183 218 275 343 399
#     4  11  23  45  66 100 144 178 217 276 338 407
#     4  11  23  42  68 101 139 174 218 281 340 403
#     4  12  24  39  63 101 140 176 224 269 326 409
#     4  10  23  43  69  95 127 177 231 279 328 395
#     4   9  23  45  66  96 134 171 227 279 335 398
#     4  11  21  42  70  96 136 179 223 276 339 397
#
# _framework density 23.303001999999999
#
# number of rings (size 3 to 8) (size 9 to 14) (size 15 to 20)
#    0.000    1.429    2.857    1.714    2.000    5.714 
#    5.143    0.714    0.000    0.000    0.000    0.000 
#    0.000    0.000    0.000    0.000    0.000    0.000 
#
# Total GULP energy -78370.493614 kJ/mol
# GULP energy per Si atom -5597.892401 kJ/mol
# Density = 2.324996 g / cm^3
# Si number density = 23.303002 Si / 1000 Ang^3
#
#
#
# Elastic Constant Matrix: (Units=GPa)
#
#
# Indices 1 2 3 4 5 6 
#
# 1 73.7725 57.3691 40.2822 18.7751 13.2413 11.0886
# 2 57.3691 115.9216 20.3040 9.2061 3.7342 21.1075
# 3 40.2822 20.3040 87.4095 6.3255 10.2030 -6.0665
# 4 18.7751 9.2061 6.3255 20.8497 -2.8932 11.6757
# 5 13.2413 3.7342 10.2030 -2.8932 45.3226 -4.9963
# 6 11.0886 21.1075 -6.0665 11.6757 -4.9963 46.2555
#
#
#
# Elastic Compliance Matrix: (Units=1/GPa)
#
#
# Indices 1 2 3 4 5 6 
#
# 1 0.041594 -0.016250 -0.011990 -0.029224 -0.009737 0.002196
# 2 -0.016250 0.016385 0.002212 0.010249 0.002941 -0.005561
# 3 -0.011990 0.002212 0.016441 0.003021 0.000174 0.003277
# 4 -0.029224 0.010249 0.003021 0.079329 0.010293 -0.016187
# 5 -0.009737 0.002941 0.000174 0.010293 0.025413 0.001162
# 6 0.002196 -0.005561 0.003277 -0.016187 0.001162 0.028271
#
#
# Mechanical properties :
#
#
# Convention : Reuss Voigt Hill
#
# Bulk Modulus (GPa) = 44.71583 57.00159 50.85871
# Shear Modulus (GPa) = 18.73061 33.09545 25.91303
#
# Velocity S-wave (km/s) = 2.83819 3.77267 3.33829
# Velocity P-wave (km/s) = 5.47457 6.59481 6.06063
#
# Compressibility (1/GPa) = 0.02236344
#
# Stress axis : x y z
#
# Youngs Moduli (GPa) = 24.04208 61.03162 60.82495
#
# Poissons Ratio (x) = 0.99176 0.72928
# Poissons Ratio (y) = 0.39068 -0.13453
# Poissons Ratio (z) = 0.28826 -0.13499
#
# Static dielectric constant tensor:
#      x y z
#    x 1.892360 -0.010160 0.008480 
#    y -0.010160 1.899920 -0.016110 
#    z 0.008480 -0.016110 1.863940 
# 
# From -- ./inp_files/313199.got.cif
#   From: 2010.05.17/outbox.cif.g08.bks.cpg/sg2_157_cif.got.tgz:313199.got - 2010.06.03 11:33:40.
