data_PCOD9039797
_publ_section_title
;
Structure prediction by ZEFSAII (Michael W. Deem and Ramdas Pophale) SiO2 
 PCOD9039797
Probable space group: P -1
;
_chemical_formula_sum "Si O2"
_cell_formula_units_Z 16
_cell_length_a 12.611727
_cell_length_b 11.111966
_cell_length_c 18.829740
_cell_angle_alpha 56.021147
_cell_angle_beta 160.953663
_cell_angle_gamma 121.470932
_cell_volume 713.900642
_symmetry_space_group_name_H-M "P -1"
_symmetry_group_IT_number 2
_symmetry_cell_setting 'triclinic'
loop_
_space_group_symop_operation_xyz
x,y,z
-x,-y,-z
loop_
_atom_site_type_symbol
_atom_site_label
_atom_site_fract_x
_atom_site_fract_y
_atom_site_fract_z
Si Si1 0.383852 0.477670 0.761721
Si Si2 0.414038 0.184895 0.967668
Si Si3 0.715360 0.072088 0.514413
Si Si4 0.659417 0.627553 0.012321
Si Si5 0.484111 0.690066 0.229865
Si Si6 0.943651 0.947359 0.401692
Si Si7 0.597313 0.472060 0.490304
Si Si8 0.243458 0.215993 0.274801
O O1 0.460364 0.330578 0.903316
O O2 0.537032 0.445210 0.793178
O O3 0.000000 0.500000 0.500000
O O4 0.518892 0.607443 0.851470
O O5 0.417963 0.229011 0.038743
O O6 0.061260 0.128963 0.742606
O O7 0.694150 0.066368 0.170409
O O8 0.441272 0.175889 0.341773
O O9 0.753498 0.064446 0.456209
O O10 0.677208 0.913448 0.576704
O O11 0.043139 0.597841 0.263852
O O12 0.500000 0.500000 0.000000
O O13 0.758304 0.795953 0.339649
O O14 0.588351 0.623693 0.392624
O O15 0.139413 0.772464 0.986364
O O16 0.000000 0.000000 0.500000
O O17 0.500000 0.500000 0.500000
O O18 0.358216 0.362830 0.335829
#
# Coordination Sequence:
#
# PCOD9039797 Si02
#       8
#     2   2   2   2   2   2   2   2
#     4  11  24  40  74 106 138 180 232 296 354 417
#     4  11  21  45  70 104 141 176 231 295 357 408
#     4  11  23  48  73 101 144 188 237 291 354 431
#     4  10  23  42  71 102 136 177 232 289 352 412
#     4  12  25  46  70 104 140 187 247 286 358 427
#     4  12  28  43  74 109 141 185 244 304 352 416
#     4  12  27  47  68 100 146 186 234 296 354 428
#     4  11  25  46  73 102 140 198 235 278 367 434
#
# _framework density 22.412081000000001
#
# number of rings (size 3 to 8) (size 9 to 14) (size 15 to 20)
#    0.000    0.750    3.750    3.750    7.000    0.000 
#    2.250    0.625    0.000    0.000    0.000    0.000 
#    0.000    0.000    0.000    0.000    0.000    0.000 
#
# Total GULP energy -89599.665659 kJ/mol
# GULP energy per Si atom -5599.979104 kJ/mol
# Density = 2.236107 g / cm^3
# Si number density = 22.412081 Si / 1000 Ang^3
#
#
#
# Elastic Constant Matrix: (Units=GPa)
#
#
# Indices 1 2 3 4 5 6 
#
# 1 186.1177 35.1105 27.7096 -9.2354 0.5415 -15.1914
# 2 35.1105 70.6228 -5.8675 -11.9223 -6.2642 0.7988
# 3 27.7096 -5.8675 51.8741 -9.8043 2.9180 -1.4437
# 4 -9.2354 -11.9223 -9.8043 37.6626 -5.0272 -4.7734
# 5 0.5415 -6.2642 2.9180 -5.0272 41.0016 0.8924
# 6 -15.1914 0.7988 -1.4437 -4.7734 0.8924 35.1270
#
#
#
# Elastic Compliance Matrix: (Units=1/GPa)
#
#
# Indices 1 2 3 4 5 6 
#
# 1 0.006947 -0.003923 -0.004104 -0.000306 -0.000500 0.002896
# 2 -0.003923 0.017900 0.005103 0.006321 0.003223 -0.001117
# 3 -0.004104 0.005103 0.023307 0.006672 -0.000006 -0.000026
# 4 -0.000306 0.006321 0.006672 0.031306 0.004243 0.004144
# 5 -0.000500 0.003223 -0.000006 0.004243 0.025417 -0.000359
# 6 0.002896 -0.001117 -0.000026 0.004144 -0.000359 0.030317
#
#
# Mechanical properties :
#
#
# Convention : Reuss Voigt Hill
#
# Bulk Modulus (GPa) = 23.63774 46.94664 35.29219
# Shear Modulus (GPa) = 32.22816 39.53573 35.88194
#
# Velocity S-wave (km/s) = 3.79619 4.20460 4.00560
# Velocity P-wave (km/s) = 5.45752 6.67563 6.09707
#
# Compressibility (1/GPa) = 0.04230523
#
# Stress axis : x y z
#
# Youngs Moduli (GPa) = 143.95455 55.86665 42.90487
#
# Poissons Ratio (x) = 0.21918 0.17607
# Poissons Ratio (y) = 0.56478 -0.21893
# Poissons Ratio (z) = 0.59074 -0.28507
#
# Static dielectric constant tensor:
#      x y z
#    x 1.859420 -0.015050 -0.018670 
#    y -0.015050 1.840130 -0.003690 
#    z -0.018670 -0.003690 1.783730 
# 
# From -- ./inp_files/569161.got.cif
#   From: 2010.05.17/outbox.cif.g08.bks.cpg/sg2_285_cif.got.tgz:569161.got - 2010.06.03 11:33:40.
