data_PCOD9039744
_publ_section_title
;
Structure prediction by ZEFSAII (Michael W. Deem and Ramdas Pophale) SiO2 
 PCOD9039744
Probable space group: P -1
;
_chemical_formula_sum "Si O2"
_cell_formula_units_Z 15
_cell_length_a 5.855662
_cell_length_b 9.367894
_cell_length_c 13.960955
_cell_angle_alpha 106.727606
_cell_angle_beta 85.874335
_cell_angle_gamma 72.766176
_cell_volume 690.071172
_symmetry_space_group_name_H-M "P -1"
_symmetry_group_IT_number 2
_symmetry_cell_setting 'triclinic'
loop_
_space_group_symop_operation_xyz
x,y,z
-x,-y,-z
loop_
_atom_site_type_symbol
_atom_site_label
_atom_site_fract_x
_atom_site_fract_y
_atom_site_fract_z
Si Si1 0.529436 0.576379 0.913234
Si Si2 0.305917 0.537904 0.428583
Si Si3 0.982186 0.684079 0.185851
Si Si4 0.159062 0.977968 0.207388
Si Si5 0.358363 0.164696 0.942338
Si Si6 0.000000 0.000000 0.000000
Si Si7 0.955409 0.695632 0.627353
Si Si8 0.683032 0.536292 0.277612
O O1 0.348180 0.552578 0.835437
O O2 0.799920 0.481644 0.852627
O O3 0.500000 0.500000 0.000000
O O4 0.497557 0.754654 0.975259
O O5 0.500000 0.500000 0.500000
O O6 0.264248 0.374463 0.370933
O O7 0.421326 0.601186 0.349148
O O8 0.063932 0.652512 0.508556
O O9 0.841673 0.708248 0.093003
O O10 0.797974 0.668695 0.269918
O O11 0.095661 0.824959 0.217213
O O12 0.099235 0.123910 0.309215
O O13 0.440465 0.930224 0.158129
O O14 0.009380 0.023884 0.122188
O O15 0.210310 0.081831 0.993286
O O16 0.146026 0.588664 0.678212
#
# Coordination Sequence:
#
# PCOD9039744 Si02
#       8
#     2   2   2   2   2   1   2   2
#     4  12  23  39  64  91 129 178 220 257 307 377
#     4   9  21  44  67  96 124 159 217 277 324 382
#     4  11  23  41  59  90 131 171 216 257 308 375
#     4  11  24  41  61  92 134 172 209 260 321 383
#     4  11  24  41  58  87 133 174 217 257 307 376
#     4  10  26  38  56  88 134 170 210 252 314 378
#     4  10  23  42  70  96 126 165 214 271 329 378
#     4  11  23  38  68  97 126 166 219 266 318 377
#
# _framework density 21.736888
#
# number of rings (size 3 to 8) (size 9 to 14) (size 15 to 20)
#    0.000    1.333    2.667    1.600    5.600    4.267 
#    0.000    0.667    0.000   13.600    0.000    0.000 
#    0.000    0.000    0.000    0.000    0.000    0.000 
#
# Total GULP energy -83603.779312 kJ/mol
# GULP energy per Si atom -5573.585287 kJ/mol
# Density = 2.168741 g / cm^3
# Si number density = 21.736888 Si / 1000 Ang^3
#
#
#
# Elastic Constant Matrix: (Units=GPa)
#
#
# Indices 1 2 3 4 5 6 
#
# 1 50.9948 7.1222 20.8817 -13.4370 -6.9532 30.6784
# 2 7.1222 73.8495 41.4111 -2.8439 -21.4627 27.7081
# 3 20.8817 41.4111 90.6228 -0.9859 -6.2864 26.6814
# 4 -13.4370 -2.8439 -0.9859 35.4042 10.2499 -2.8416
# 5 -6.9532 -21.4627 -6.2864 10.2499 42.8492 -21.7514
# 6 30.6784 27.7081 26.6814 -2.8416 -21.7514 48.2466
#
#
#
# Elastic Compliance Matrix: (Units=1/GPa)
#
#
# Indices 1 2 3 4 5 6 
#
# 1 0.044159 0.008774 -0.004615 0.017706 -0.010813 -0.034399
# 2 0.008774 0.023860 -0.009098 0.002451 0.005567 -0.011597
# 3 -0.004615 -0.009098 0.016870 -0.001059 -0.004154 -0.003105
# 4 0.017706 0.002451 -0.001059 0.037648 -0.013055 -0.015749
# 5 -0.010813 0.005567 -0.004154 -0.013055 0.038291 0.022470
# 6 -0.034399 -0.011597 -0.003105 -0.015749 0.022470 0.060180
#
#
# Mechanical properties :
#
#
# Convention : Reuss Voigt Hill
#
# Bulk Modulus (GPa) = 13.33099 39.36637 26.34868
# Shear Modulus (GPa) = 19.53974 35.03682 27.28828
#
# Velocity S-wave (km/s) = 3.00145 4.01915 3.54699
# Velocity P-wave (km/s) = 4.26120 6.29983 5.37800
#
# Compressibility (1/GPa) = 0.07501319
#
# Stress axis : x y z
#
# Youngs Moduli (GPa) = 22.64526 41.91174 59.27687
#
# Poissons Ratio (x) = -0.36775 0.27354
# Poissons Ratio (y) = -0.19870 0.53928
# Poissons Ratio (z) = 0.10450 0.38130
#
# Static dielectric constant tensor:
#      x y z
#    x 1.920920 -0.060110 -0.050570 
#    y -0.060110 1.791920 0.025160 
#    z -0.050570 0.025160 1.791660 
# 
# From -- ./inp_files/42858.got.cif
#   From: 2010.05.17/outbox.cif.g08.bks.cpg/sg2_22_cif.got.tgz:42858.got - 2010.06.03 11:33:40.
