data_PCOD9039232
_publ_section_title
;
Structure prediction by ZEFSAII (Michael W. Deem and Ramdas Pophale) SiO2 
 PCOD9039232
Probable space group: P -1
;
_chemical_formula_sum "Si O2"
_cell_formula_units_Z 16
_cell_length_a 5.104979
_cell_length_b 10.819270
_cell_length_c 20.546058
_cell_angle_alpha 134.639637
_cell_angle_beta 119.724967
_cell_angle_gamma 73.231130
_cell_volume 697.907935
_symmetry_space_group_name_H-M "P -1"
_symmetry_group_IT_number 2
_symmetry_cell_setting 'triclinic'
loop_
_space_group_symop_operation_xyz
x,y,z
-x,-y,-z
loop_
_atom_site_type_symbol
_atom_site_label
_atom_site_fract_x
_atom_site_fract_y
_atom_site_fract_z
Si Si1 0.920412 0.377732 0.382882
Si Si2 0.265889 0.052532 0.602202
Si Si3 0.143465 0.339645 0.876557
Si Si4 0.793383 0.620677 0.717320
Si Si5 0.136615 0.985143 0.940209
Si Si6 0.246194 0.430903 0.775687
Si Si7 0.742848 0.656899 0.969349
Si Si8 0.916828 0.975322 0.664628
O O1 0.565096 0.373637 0.320779
O O2 0.000000 0.500000 0.500000
O O3 0.112721 0.435986 0.364286
O O4 0.002561 0.187160 0.343666
O O5 0.331574 0.263335 0.685146
O O6 0.569410 0.961302 0.593139
O O7 0.000000 0.000000 0.500000
O O8 0.137204 0.000469 0.638808
O O9 0.268180 0.375281 0.833068
O O10 0.940372 0.495674 0.924099
O O11 0.354954 0.332345 0.963086
O O12 0.957241 0.151163 0.777543
O O13 0.922879 0.485855 0.734088
O O14 0.972832 0.811126 0.823063
O O15 0.080312 0.159169 0.957999
O O16 0.500000 0.000000 0.000000
O O17 0.000000 0.000000 0.000000
O O18 0.471546 0.606782 0.866890
#
# Coordination Sequence:
#
# PCOD9039232 Si02
#       8
#     2   2   2   2   2   2   2   2
#     4  12  29  49  75 103 139 193 248 299 366 424
#     4  11  25  42  73 103 134 182 225 302 360 413
#     4  10  23  42  67 103 138 188 224 295 353 422
#     4  12  27  47  74 104 146 191 238 305 356 428
#     4  12  25  44  70 106 148 191 240 291 356 432
#     4  11  24  42  71 103 145 177 248 281 365 419
#     4  11  22  42  69 100 145 184 236 284 354 428
#     4  11  24  47  68  98 144 172 241 285 353 430
#
# _framework density 22.925661000000002
#
# number of rings (size 3 to 8) (size 9 to 14) (size 15 to 20)
#    0.000    0.750    2.500    4.125    5.250    0.000 
#    2.250    0.000    0.000    0.000    0.000    0.000 
#    0.000    0.000    0.000    0.000    0.000    0.000 
#
# Total GULP energy -89519.636343 kJ/mol
# GULP energy per Si atom -5594.977271 kJ/mol
# Density = 2.287348 g / cm^3
# Si number density = 22.925661 Si / 1000 Ang^3
#
#
#
# Elastic Constant Matrix: (Units=GPa)
#
#
# Indices 1 2 3 4 5 6 
#
# 1 66.7929 14.5684 -13.5075 2.8895 0.6342 -7.0740
# 2 14.5684 97.4536 7.8371 3.1346 5.8617 -4.5727
# 3 -13.5075 7.8371 73.4672 -3.7989 -6.0533 4.6123
# 4 2.8895 3.1346 -3.7989 22.2617 -5.3480 0.6562
# 5 0.6342 5.8617 -6.0533 -5.3480 35.5769 -14.4957
# 6 -7.0740 -4.5727 4.6123 0.6562 -14.4957 38.3804
#
#
#
# Elastic Compliance Matrix: (Units=1/GPa)
#
#
# Indices 1 2 3 4 5 6 
#
# 1 0.016553 -0.002673 0.003241 -0.000875 0.001803 0.003039
# 2 -0.002673 0.011039 -0.001985 -0.002114 -0.002340 0.000214
# 3 0.003241 -0.001985 0.014861 0.003161 0.003156 -0.000287
# 4 -0.000875 -0.002114 0.003161 0.047936 0.008806 0.001713
# 5 0.001803 -0.002340 0.003156 0.008806 0.035608 0.012972
# 6 0.003039 0.000214 -0.000287 0.001713 0.012972 0.031545
#
#
# Mechanical properties :
#
#
# Convention : Reuss Voigt Hill
#
# Bulk Modulus (GPa) = 25.23995 28.38996 26.81496
# Shear Modulus (GPa) = 28.80507 34.49818 31.65163
#
# Velocity S-wave (km/s) = 3.54850 3.88336 3.71970
# Velocity P-wave (km/s) = 5.27470 5.70243 5.49273
#
# Compressibility (1/GPa) = 0.03961973
#
# Stress axis : x y z
#
# Youngs Moduli (GPa) = 60.41325 90.58615 67.29192
#
# Poissons Ratio (x) = 0.24212 -0.21809
# Poissons Ratio (y) = 0.16147 0.13354
# Poissons Ratio (z) = -0.19580 0.17977
#
# Static dielectric constant tensor:
#      x y z
#    x 1.983950 0.004800 0.097200 
#    y 0.004800 1.888740 -0.017210 
#    z 0.097200 -0.017210 1.914410 
# 
# From -- ./inp_files/583333.got.cif
#   From: 2010.05.17/outbox.cif.g08.bks.cpg/sg2_292_cif.got.tgz:583333.got - 2010.06.03 11:33:40.
