data_PCOD9039589
_publ_section_title
;
Structure prediction by ZEFSAII (Michael W. Deem and Ramdas Pophale) SiO2 
 PCOD9039589
Probable space group: P -1
;
_chemical_formula_sum "Si O2"
_cell_formula_units_Z 14
_cell_length_a 14.318424
_cell_length_b 8.048454
_cell_length_c 14.232352
_cell_angle_alpha 109.164589
_cell_angle_beta 149.765871
_cell_angle_gamma 55.434105
_cell_volume 626.105394
_symmetry_space_group_name_H-M "P -1"
_symmetry_group_IT_number 2
_symmetry_cell_setting 'triclinic'
loop_
_space_group_symop_operation_xyz
x,y,z
-x,-y,-z
loop_
_atom_site_type_symbol
_atom_site_label
_atom_site_fract_x
_atom_site_fract_y
_atom_site_fract_z
Si Si1 0.862384 0.302244 0.842624
Si Si2 0.905963 0.316845 0.500357
Si Si3 0.471447 0.353608 0.636042
Si Si4 0.188321 0.872699 0.938288
Si Si5 0.871207 0.628344 0.776853
Si Si6 0.159547 0.476278 0.824140
Si Si7 0.316059 0.841486 0.835757
O O1 0.635433 0.361449 0.707622
O O2 0.827217 0.501321 0.791322
O O3 0.967640 0.102237 0.825952
O O4 0.051725 0.241340 0.076959
O O5 0.731993 0.406533 0.455103
O O6 0.767307 0.309198 0.292729
O O7 0.992367 0.468376 0.605491
O O8 0.135989 0.072871 0.671706
O O9 0.348419 0.257924 0.461456
O O10 0.620724 0.221029 0.831841
O O11 0.129154 0.702034 0.840143
O O12 0.288350 0.885466 0.930072
O O13 0.084291 0.461073 0.861209
O O14 0.423985 0.283568 0.996125
#
# Coordination Sequence:
#
# PCOD9039589 Si02
#       7
#     2   2   2   2   2   2   2
#     4  11  23  44  64  92 125 167 204 261 302 370
#     4  10  23  42  69  89 121 165 220 244 307 367
#     4  11  22  42  64  92 127 161 203 264 302 369
#     4  12  24  40  64  92 134 162 200 252 328 358
#     4  10  23  42  69  89 121 165 220 244 307 367
#     4  11  22  42  64  92 127 161 203 264 302 369
#     4  11  23  44  64  92 125 167 204 261 302 370
#
# _framework density 22.360453
#
# number of rings (size 3 to 8) (size 9 to 14) (size 15 to 20)
#    0.000    1.143    2.857    3.429    0.000    1.143 
#    5.143    0.000    0.000    0.000    0.000    0.000 
#    0.000    0.000    0.000    0.000    0.000    0.000 
#
# Total GULP energy -78281.433099 kJ/mol
# GULP energy per Si atom -5591.530936 kJ/mol
# Density = 2.230956 g / cm^3
# Si number density = 22.360453 Si / 1000 Ang^3
#
#
#
# Elastic Constant Matrix: (Units=GPa)
#
#
# Indices 1 2 3 4 5 6 
#
# 1 113.3278 13.1980 48.2511 6.1494 21.3492 -34.2664
# 2 13.1980 83.6953 36.2258 10.5873 18.7058 -26.9293
# 3 48.2511 36.2258 87.1465 29.2655 28.3673 -7.0692
# 4 6.1494 10.5873 29.2655 31.0513 -8.8275 1.7428
# 5 21.3492 18.7058 28.3673 -8.8275 37.4767 -5.4304
# 6 -34.2664 -26.9293 -7.0692 1.7428 -5.4304 28.6293
#
#
#
# Elastic Compliance Matrix: (Units=1/GPa)
#
#
# Indices 1 2 3 4 5 6 
#
# 1 0.032955 0.022680 -0.023150 0.003406 -0.003928 0.054108
# 2 0.022680 0.037781 -0.016317 -0.008964 -0.013326 0.056672
# 3 -0.023150 -0.016317 0.064757 -0.062457 -0.047061 -0.032191
# 4 0.003406 -0.008964 -0.062457 0.115536 0.075206 -0.012545
# 5 -0.003928 -0.013326 -0.047061 0.075206 0.086440 -0.017039
# 6 0.054108 0.056672 -0.032191 -0.012545 -0.017039 0.142581
#
#
# Mechanical properties :
#
#
# Convention : Reuss Voigt Hill
#
# Bulk Modulus (GPa) = 9.81184 53.27993 31.54588
# Shear Modulus (GPa) = 9.13081 31.86443 20.49762
#
# Velocity S-wave (km/s) = 2.02295 3.77906 3.03097
# Velocity P-wave (km/s) = 3.13911 6.55143 5.13689
#
# Compressibility (1/GPa) = 0.10191771
#
# Stress axis : x y z
#
# Youngs Moduli (GPa) = 30.34467 26.46842 15.44228
#
# Poissons Ratio (x) = -0.60030 0.35749
# Poissons Ratio (y) = -0.68821 0.25198
# Poissons Ratio (z) = 0.70248 0.43189
#
# Static dielectric constant tensor:
#      x y z
#    x 1.823410 0.003200 -0.019100 
#    y 0.003200 1.850950 0.012530 
#    z -0.019100 0.012530 1.838580 
# 
# From -- ./inp_files/293860.got.cif
#   From: 2010.05.17/outbox.cif.g08.bks.cpg/sg2_147_cif.got.tgz:293860.got - 2010.06.03 11:33:40.
