data_PCOD9039960
_publ_section_title
;
Structure prediction by ZEFSAII (Michael W. Deem and Ramdas Pophale) SiO2 
 PCOD9039960
Probable space group: P -1
;
_chemical_formula_sum "Si O2"
_cell_formula_units_Z 16
_cell_length_a 9.149202
_cell_length_b 15.406123
_cell_length_c 9.369637
_cell_angle_alpha 146.520836
_cell_angle_beta 77.770590
_cell_angle_gamma 105.110271
_cell_volume 703.307203
_symmetry_space_group_name_H-M "P -1"
_symmetry_group_IT_number 2
_symmetry_cell_setting 'triclinic'
loop_
_space_group_symop_operation_xyz
x,y,z
-x,-y,-z
loop_
_atom_site_type_symbol
_atom_site_label
_atom_site_fract_x
_atom_site_fract_y
_atom_site_fract_z
Si Si1 0.161310 0.006639 0.648967
Si Si2 0.674944 0.014254 0.937079
Si Si3 0.047959 0.493632 0.646330
Si Si4 0.203836 0.784888 0.576804
Si Si5 0.606551 0.472892 0.305848
Si Si6 0.542299 0.710728 0.400466
Si Si7 0.879982 0.151177 0.861385
Si Si8 0.538141 0.819352 0.226417
O O1 0.186365 0.850528 0.514133
O O2 0.163153 0.956958 0.415175
O O3 0.298813 0.148530 0.838586
O O4 0.005736 0.066737 0.799481
O O5 0.667418 0.852000 0.630101
O O6 0.741779 0.151074 0.999450
O O7 0.500000 0.000000 0.000000
O O8 0.779901 0.057276 0.110712
O O9 0.221168 0.471571 0.605197
O O10 0.000000 0.500000 0.500000
O O11 0.930523 0.353567 0.547366
O O12 0.044929 0.671138 0.951335
O O13 0.366395 0.728904 0.487198
O O14 0.500000 0.500000 0.500000
O O15 0.569875 0.566727 0.298742
O O16 0.575418 0.291529 0.004996
O O17 0.553483 0.732667 0.256718
O O18 0.500000 0.000000 0.500000
#
# Coordination Sequence:
#
# PCOD9039960 Si02
#       8
#     2   2   2   2   2   2   2   2
#     4  11  26  44  74 109 141 195 246 313 369 452
#     4  10  23  42  73 101 141 192 245 302 366 439
#     4  12  27  48  71 103 151 194 241 309 374 449
#     4  11  25  43  73 106 145 190 245 303 379 438
#     4  12  31  46  76 113 148 196 254 310 379 444
#     4  11  25  47  73 108 149 189 247 311 371 445
#     4  11  25  47  71 104 150 191 249 304 375 444
#     4  12  25  49  78 107 150 199 253 306 376 449
#
# _framework density 22.749659999999999
#
# number of rings (size 3 to 8) (size 9 to 14) (size 15 to 20)
#    0.000    0.750    3.750    1.875    8.750    1.000 
#    0.000    0.000    0.000    0.000    0.000    0.000 
#    0.000    0.000    0.000    0.000    0.000    0.000 
#
# Total GULP energy -89363.917584 kJ/mol
# GULP energy per Si atom -5585.244849 kJ/mol
# Density = 2.269788 g / cm^3
# Si number density = 22.749660 Si / 1000 Ang^3
#
#
#
# Elastic Constant Matrix: (Units=GPa)
#
#
# Indices 1 2 3 4 5 6 
#
# 1 138.7408 66.1911 21.6441 19.1988 16.8736 0.8736
# 2 66.1911 132.8349 27.5785 4.9749 11.4260 10.1139
# 3 21.6441 27.5785 78.4655 13.5733 20.4573 11.0827
# 4 19.1988 4.9749 13.5733 20.1078 10.1539 6.8243
# 5 16.8736 11.4260 20.4573 10.1539 28.5025 11.0138
# 6 0.8736 10.1139 11.0827 6.8243 11.0138 46.8315
#
#
#
# Elastic Compliance Matrix: (Units=1/GPa)
#
#
# Indices 1 2 3 4 5 6 
#
# 1 0.011309 -0.005411 0.000753 -0.009529 -0.002759 0.002817
# 2 -0.005411 0.010804 -0.002875 0.005236 -0.000039 -0.002306
# 3 0.000753 -0.002875 0.017137 -0.006919 -0.009003 -0.000323
# 4 -0.009529 0.005236 -0.006919 0.071726 -0.014596 -0.006335
# 5 -0.002759 -0.000039 -0.009003 -0.014596 0.051398 -0.007770
# 6 0.002817 -0.002306 -0.000323 -0.006335 -0.007770 0.024626
#
#
# Mechanical properties :
#
#
# Convention : Reuss Voigt Hill
#
# Bulk Modulus (GPa) = 41.35222 64.54097 52.94660
# Shear Modulus (GPa) = 23.79506 34.73018 29.26262
#
# Velocity S-wave (km/s) = 3.23763 3.91144 3.59038
# Velocity P-wave (km/s) = 5.67387 6.98791 6.36489
#
# Compressibility (1/GPa) = 0.02418250
#
# Stress axis : x y z
#
# Youngs Moduli (GPa) = 88.42905 92.55595 58.35291
#
# Poissons Ratio (x) = 0.50086 -0.04391
# Poissons Ratio (y) = 0.47853 0.16775
# Poissons Ratio (z) = -0.06654 0.26607
#
# Static dielectric constant tensor:
#      x y z
#    x 1.880260 0.013210 -0.040070 
#    y 0.013210 1.841050 -0.003880 
#    z -0.040070 -0.003880 1.890230 
# 
# From -- ./inp_files/209308.got.cif
#   From: 2010.05.17/outbox.cif.g08.bks.cpg/sg2_105_cif.got.tgz:209308.got - 2010.06.03 11:33:40.
