data_PCOD9039662
_publ_section_title
;
Structure prediction by ZEFSAII (Michael W. Deem and Ramdas Pophale) SiO2 
 PCOD9039662
Probable space group: P -1
;
_chemical_formula_sum "Si O2"
_cell_formula_units_Z 16
_cell_length_a 8.311023
_cell_length_b 18.943149
_cell_length_c 5.357768
_cell_angle_alpha 87.601325
_cell_angle_beta 56.522390
_cell_angle_gamma 83.373687
_cell_volume 698.631531
_symmetry_space_group_name_H-M "P -1"
_symmetry_group_IT_number 2
_symmetry_cell_setting 'triclinic'
loop_
_space_group_symop_operation_xyz
x,y,z
-x,-y,-z
loop_
_atom_site_type_symbol
_atom_site_label
_atom_site_fract_x
_atom_site_fract_y
_atom_site_fract_z
Si Si1 0.048583 0.599058 0.689739
Si Si2 0.281316 0.058760 0.893088
Si Si3 0.282996 0.348648 0.702702
Si Si4 0.979624 0.274529 0.699666
Si Si5 0.383616 0.481522 0.349472
Si Si6 0.973632 0.162469 0.347080
Si Si7 0.730339 0.030719 0.571514
Si Si8 0.297448 0.707734 0.680045
O O1 0.018302 0.657575 0.491175
O O2 0.170988 0.526389 0.517717
O O3 0.199153 0.635260 0.733571
O O4 0.842937 0.598984 0.004373
O O5 0.510959 0.063327 0.688686
O O6 0.215638 0.019388 0.707256
O O7 0.154390 0.133610 0.026779
O O8 0.260230 0.013304 0.172238
O O9 0.346973 0.399394 0.420080
O O10 0.487090 0.306007 0.605550
O O11 0.135948 0.292160 0.767727
O O12 0.043994 0.199642 0.527957
O O13 0.758708 0.275244 0.987050
O O14 0.500000 0.500000 0.500000
O O15 0.500000 0.500000 0.000000
O O16 0.860216 0.094184 0.486690
O O17 0.825592 0.225954 0.355030
#
# Coordination Sequence:
#
# PCOD9039662 Si02
#       8
#     2   2   2   2   2   2   2   2
#     4  10  23  44  66  99 134 177 233 278 349 405
#     4  10  23  43  67 103 134 173 227 279 333 403
#     4  11  24  44  70  96 140 178 231 288 340 407
#     4  10  25  41  65  98 134 180 230 282 337 418
#     4  12  26  44  77 102 136 181 231 288 352 407
#     4  11  24  40  69  94 134 178 227 269 347 398
#     4  10  23  42  69  99 138 172 223 282 336 396
#     4  10  23  43  63  96 136 178 228 281 337 410
#
# _framework density 22.901916
#
# number of rings (size 3 to 8) (size 9 to 14) (size 15 to 20)
#    0.000    1.500    1.250    1.875    7.000    6.500 
#    2.250    0.000    0.000    0.000    0.000    0.000 
#    0.000    0.000    0.000    0.000    0.000    0.000 
#
# Total GULP energy -89348.976870 kJ/mol
# GULP energy per Si atom -5584.311054 kJ/mol
# Density = 2.284979 g / cm^3
# Si number density = 22.901916 Si / 1000 Ang^3
#
#
#
# Elastic Constant Matrix: (Units=GPa)
#
#
# Indices 1 2 3 4 5 6 
#
# 1 72.9193 26.4494 45.0316 12.7298 -15.8634 4.9372
# 2 26.4494 56.8395 9.8646 31.3350 -15.2436 -4.1571
# 3 45.0316 9.8646 115.1593 18.2228 -17.8290 -18.1304
# 4 12.7298 31.3350 18.2228 36.7101 -11.4479 -7.6340
# 5 -15.8634 -15.2436 -17.8290 -11.4479 43.5888 9.3661
# 6 4.9372 -4.1571 -18.1304 -7.6340 9.3661 29.2058
#
#
#
# Elastic Compliance Matrix: (Units=1/GPa)
#
#
# Indices 1 2 3 4 5 6 
#
# 1 0.026847 -0.014207 -0.011833 0.007378 0.004805 -0.013519
# 2 -0.014207 0.042509 0.008365 -0.033650 0.003477 0.003735
# 3 -0.011833 0.008365 0.015676 -0.008457 0.000546 0.010537
# 4 0.007378 -0.033650 -0.008457 0.059007 0.002219 0.003425
# 5 0.004805 0.003477 0.000546 0.002219 0.028550 -0.008555
# 6 -0.013519 0.003735 0.010537 0.003425 -0.008555 0.047237
#
#
# Mechanical properties :
#
#
# Convention : Reuss Voigt Hill
#
# Bulk Modulus (GPa) = 20.12804 45.28993 32.70898
# Shear Modulus (GPa) = 18.40014 32.80575 25.60294
#
# Velocity S-wave (km/s) = 2.83756 3.78887 3.34719
# Velocity P-wave (km/s) = 4.42081 6.24174 5.40846
#
# Compressibility (1/GPa) = 0.04968194
#
# Stress axis : x y z
#
# Youngs Moduli (GPa) = 37.24779 23.52446 63.79198
#
# Poissons Ratio (x) = 0.33421 0.75487
# Poissons Ratio (y) = 0.52917 -0.53363
# Poissons Ratio (z) = 0.44077 -0.19678
#
# Static dielectric constant tensor:
#      x y z
#    x 1.939470 0.000100 0.062680 
#    y 0.000100 1.813830 0.035750 
#    z 0.062680 0.035750 1.961310 
# 
# From -- ./inp_files/47698.got.cif
#   From: 2010.05.17/outbox.cif.g08.bks.cpg/sg2_24_cif.got.tgz:47698.got - 2010.06.03 11:33:40.
