data_PCOD9039857
_publ_section_title
;
Structure prediction by ZEFSAII (Michael W. Deem and Ramdas Pophale) SiO2 
 PCOD9039857
Probable space group: P -1
;
_chemical_formula_sum "Si O2"
_cell_formula_units_Z 10
_cell_length_a 8.195065
_cell_length_b 7.049675
_cell_length_c 8.456035
_cell_angle_alpha 103.591708
_cell_angle_beta 77.497083
_cell_angle_gamma 76.805467
_cell_volume 443.074993
_symmetry_space_group_name_H-M "P -1"
_symmetry_group_IT_number 2
_symmetry_cell_setting 'triclinic'
loop_
_space_group_symop_operation_xyz
x,y,z
-x,-y,-z
loop_
_atom_site_type_symbol
_atom_site_label
_atom_site_fract_x
_atom_site_fract_y
_atom_site_fract_z
Si Si1 0.902997 0.380709 0.877374
Si Si2 0.820962 0.025337 0.948366
Si Si3 0.467260 0.290537 0.513813
Si Si4 0.838952 0.659627 0.655034
Si Si5 0.277876 0.105027 0.737753
O O1 0.076924 0.205480 0.749817
O O2 0.811954 0.530033 0.787124
O O3 0.775261 0.260596 0.952383
O O4 0.000000 0.500000 0.000000
O O5 0.862745 0.865257 0.765390
O O6 0.705493 0.957717 0.093087
O O7 0.000000 0.000000 0.000000
O O8 0.500000 0.500000 0.500000
O O9 0.322211 0.271438 0.415164
O O10 0.384239 0.261918 0.694631
O O11 0.638907 0.102586 0.415867
O O12 0.000000 0.500000 0.500000
#
# Coordination Sequence:
#
# PCOD9039857 Si02
#       5
#     2   2   2   2   2
#     4  11  22  42  73 101 129 178 228 279 332 397
#     4  10  23  42  71  95 135 177 224 280 331 395
#     4  11  27  43  67 100 142 179 215 285 338 392
#     4  12  25  42  70 105 131 176 235 272 336 402
#     4  10  23  44  67  93 140 178 224 266 347 393
#
# _framework density 22.569542999999999
#
# number of rings (size 3 to 8) (size 9 to 14) (size 15 to 20)
#    0.000    1.200    6.000    0.000    8.400    4.800 
#    0.000    2.000    0.000    0.000    0.000    0.000 
#    0.000    0.000    0.000    0.000    0.000    0.000 
#
# Total GULP energy -55810.130802 kJ/mol
# GULP energy per Si atom -5581.013080 kJ/mol
# Density = 2.251817 g / cm^3
# Si number density = 22.569543 Si / 1000 Ang^3
#
#
#
# Elastic Constant Matrix: (Units=GPa)
#
#
# Indices 1 2 3 4 5 6 
#
# 1 50.8135 32.1062 37.0823 8.7766 1.0975 13.8926
# 2 32.1062 152.6828 40.8516 -19.5124 -7.6578 39.3073
# 3 37.0823 40.8516 93.0973 -9.4298 2.7085 31.2008
# 4 8.7766 -19.5124 -9.4298 38.4794 7.5283 -6.1202
# 5 1.0975 -7.6578 2.7085 7.5283 34.1925 -3.8884
# 6 13.8926 39.3073 31.2008 -6.1202 -3.8884 54.0895
#
#
#
# Elastic Compliance Matrix: (Units=1/GPa)
#
#
# Indices 1 2 3 4 5 6 
#
# 1 0.035368 -0.005982 -0.013515 -0.014552 0.001976 0.001555
# 2 -0.005982 0.009753 0.000348 0.005475 0.000564 -0.005092
# 3 -0.013515 0.000348 0.019283 0.007507 -0.003500 -0.007307
# 4 -0.014552 0.005475 0.007507 0.035070 -0.006747 -0.001088
# 5 0.001976 0.000564 -0.003500 -0.006747 0.031367 0.002592
# 6 0.001555 -0.005092 -0.007307 -0.001088 0.002592 0.026067
#
#
# Mechanical properties :
#
#
# Convention : Reuss Voigt Hill
#
# Bulk Modulus (GPa) = 38.30634 57.40821 47.85728
# Shear Modulus (GPa) = 24.52068 37.78917 31.15493
#
# Velocity S-wave (km/s) = 3.29971 4.09631 3.71940
# Velocity P-wave (km/s) = 5.61488 6.91841 6.30045
#
# Compressibility (1/GPa) = 0.02610534
#
# Stress axis : x y z
#
# Youngs Moduli (GPa) = 28.27391 102.52971 51.85818
#
# Poissons Ratio (x) = 0.61332 0.70088
# Poissons Ratio (y) = 0.16913 -0.01802
# Poissons Ratio (z) = 0.38213 -0.03563
#
# Static dielectric constant tensor:
#      x y z
#    x 1.840460 0.055940 -0.068280 
#    y 0.055940 1.800260 0.007710 
#    z -0.068280 0.007710 1.897890 
# 
# From -- ./inp_files/147873.got.cif
#   From: 2010.05.17/outbox.cif.g08.bks.cpg/sg2_74_cif.got.tgz:147873.got - 2010.06.03 11:33:40.
