data_PCOD9039311
_publ_section_title
;
Structure prediction by ZEFSAII (Michael W. Deem and Ramdas Pophale) SiO2 
 PCOD9039311
Probable space group: P -1
;
_chemical_formula_sum "Si O2"
_cell_formula_units_Z 14
_cell_length_a 9.076180
_cell_length_b 12.427748
_cell_length_c 8.114393
_cell_angle_alpha 133.803656
_cell_angle_beta 111.592507
_cell_angle_gamma 82.758699
_cell_volume 602.815203
_symmetry_space_group_name_H-M "P -1"
_symmetry_group_IT_number 2
_symmetry_cell_setting 'triclinic'
loop_
_space_group_symop_operation_xyz
x,y,z
-x,-y,-z
loop_
_atom_site_type_symbol
_atom_site_label
_atom_site_fract_x
_atom_site_fract_y
_atom_site_fract_z
Si Si1 0.359884 0.326078 0.179584
Si Si2 0.850004 0.870725 0.341630
Si Si3 0.935428 0.329046 0.653136
Si Si4 0.612484 0.917335 0.573693
Si Si5 0.417526 0.641454 0.393729
Si Si6 0.874643 0.114386 0.074866
Si Si7 0.969615 0.604590 0.750923
O O1 0.410169 0.459005 0.203896
O O2 0.506862 0.315752 0.348249
O O3 0.215780 0.374546 0.281211
O O4 0.282610 0.168177 0.896038
O O5 0.761973 0.898777 0.501012
O O6 0.931945 0.725437 0.239948
O O7 0.000000 0.000000 0.500000
O O8 0.761201 0.325174 0.654703
O O9 0.902603 0.213390 0.358954
O O10 0.003593 0.499038 0.801274
O O11 0.525055 0.752157 0.426615
O O12 0.500000 0.000000 0.500000
O O13 0.694844 0.021013 0.869234
O O14 0.921441 0.233119 0.068831
O O15 0.000000 0.000000 0.000000
O O16 0.000000 0.500000 0.500000
#
# Coordination Sequence:
#
# PCOD9039311 Si02
#       7
#     2   2   2   2   2   2   2
#     4  10  23  43  70  96 134 177 218 280 331 401
#     4  12  26  43  67 102 134 172 229 282 334 387
#     4  10  23  42  67  97 128 180 221 274 332 397
#     4  12  27  42  63 100 137 173 222 277 338 396
#     4  10  24  45  67  95 135 178 222 264 346 403
#     4  11  21  40  68  98 131 175 222 275 327 397
#     4   9  20  39  67  98 127 169 227 267 323 398
#
# _framework density 23.224366
#
# number of rings (size 3 to 8) (size 9 to 14) (size 15 to 20)
#    0.000    1.429    1.429    2.571    6.000    4.571 
#    0.000    0.000    0.000    0.000    0.000    0.000 
#    0.000    0.000    0.000    0.000    0.000    0.000 
#
# Total GULP energy -78304.222705 kJ/mol
# GULP energy per Si atom -5593.158765 kJ/mol
# Density = 2.317151 g / cm^3
# Si number density = 23.224366 Si / 1000 Ang^3
#
#
#
# Elastic Constant Matrix: (Units=GPa)
#
#
# Indices 1 2 3 4 5 6 
#
# 1 79.6641 37.8848 17.5756 13.5582 7.5145 18.8693
# 2 37.8848 97.9620 13.0605 20.6026 14.2381 13.2021
# 3 17.5756 13.0605 120.5540 3.0448 10.4863 3.6802
# 4 13.5582 20.6026 3.0448 37.2416 -2.7331 18.1664
# 5 7.5145 14.2381 10.4863 -2.7331 37.5040 3.9859
# 6 18.8693 13.2021 3.6802 18.1664 3.9859 43.4771
#
#
#
# Elastic Compliance Matrix: (Units=1/GPa)
#
#
# Indices 1 2 3 4 5 6 
#
# 1 0.016876 -0.005454 -0.001670 -0.000415 -0.000308 -0.005325
# 2 -0.005454 0.014343 -0.000194 -0.006979 -0.004955 0.001399
# 3 -0.001670 -0.000194 0.008739 -0.000337 -0.002100 0.000377
# 4 -0.000415 -0.006979 -0.000337 0.038435 0.007157 -0.014388
# 5 -0.000308 -0.004955 -0.002100 0.007157 0.030134 -0.003937
# 6 -0.005325 0.001399 0.000377 -0.014388 -0.003937 0.031228
#
#
# Mechanical properties :
#
#
# Convention : Reuss Voigt Hill
#
# Bulk Modulus (GPa) = 39.49116 48.35800 43.92458
# Shear Modulus (GPa) = 30.70686 38.95519 34.83103
#
# Velocity S-wave (km/s) = 3.64013 4.09998 3.87688
# Velocity P-wave (km/s) = 5.89139 6.57878 6.24455
#
# Compressibility (1/GPa) = 0.02532212
#
# Stress axis : x y z
#
# Youngs Moduli (GPa) = 59.25667 69.72219 114.42769
#
# Poissons Ratio (x) = 0.38027 0.19105
# Poissons Ratio (y) = 0.32319 0.02221
# Poissons Ratio (z) = 0.09893 0.01353
#
# Static dielectric constant tensor:
#      x y z
#    x 1.838610 0.029240 -0.037220 
#    y 0.029240 1.877780 -0.002720 
#    z -0.037220 -0.002720 1.926860 
# 
# From -- ./inp_files/156657.got.cif
#   From: 2010.05.17/outbox.cif.g08.bks.cpg/sg2_79_cif.got.tgz:156657.got - 2010.06.03 11:33:40.
