data_PCOD9039817
_publ_section_title
;
Structure prediction by ZEFSAII (Michael W. Deem and Ramdas Pophale) SiO2 
 PCOD9039817
Probable space group: P -1
;
_chemical_formula_sum "Si O2"
_cell_formula_units_Z 10
_cell_length_a 13.489841
_cell_length_b 13.983905
_cell_length_c 7.715157
_cell_angle_alpha 109.620625
_cell_angle_beta 39.226493
_cell_angle_gamma 143.776917
_cell_volume 344.557922
_symmetry_space_group_name_H-M "P -1"
_symmetry_group_IT_number 2
_symmetry_cell_setting 'triclinic'
loop_
_space_group_symop_operation_xyz
x,y,z
-x,-y,-z
loop_
_atom_site_type_symbol
_atom_site_label
_atom_site_fract_x
_atom_site_fract_y
_atom_site_fract_z
Si Si1 0.141850 0.990264 0.415298
Si Si2 0.922803 0.130833 0.198869
Si Si3 0.535157 0.270223 0.636042
Si Si4 0.186459 0.801314 0.148259
Si Si5 0.173983 0.500770 0.005259
O O1 0.956501 0.850435 0.770896
O O2 0.572287 0.281433 0.073373
O O3 0.000000 0.000000 0.500000
O O4 0.081391 0.855531 0.298378
O O5 0.163018 0.375345 0.984679
O O6 0.890224 0.029101 0.027265
O O7 0.471818 0.907832 0.698451
O O8 0.746280 0.297852 0.453601
O O9 0.668718 0.386876 0.333675
O O10 0.779325 0.501095 0.553562
O O11 0.500000 0.000000 0.000000
#
# Coordination Sequence:
#
# PCOD9039817 Si02
#       5
#     2   2   2   2   2
#     4  10  22  38  51  73 112 142 171 212 257 308
#     4  10  19  33  59  79 103 135 174 216 256 310
#     4  10  17  33  55  84 106 127 170 226 257 302
#     4  10  17  34  53  80 104 135 172 215 263 296
#     4  10  18  33  56  80 106 134 172 211 266 300
#
# _framework density 29.022697000000001
#
# number of rings (size 3 to 8) (size 9 to 14) (size 15 to 20)
#    0.000    2.000    8.000    0.600    0.000    1.600 
#    0.000    4.000    0.000    2.400    0.000    0.000 
#    0.000    0.000    0.000    0.000    0.000    0.000 
#
# Total GULP energy -55856.501084 kJ/mol
# GULP energy per Si atom -5585.650108 kJ/mol
# Density = 2.895664 g / cm^3
# Si number density = 29.022697 Si / 1000 Ang^3
#
#
#
# Elastic Constant Matrix: (Units=GPa)
#
#
# Indices 1 2 3 4 5 6 
#
# 1 199.6031 73.3186 26.9497 -19.9117 11.3040 -27.7394
# 2 73.3186 219.4469 37.2303 -32.7391 11.0209 -33.2973
# 3 26.9497 37.2303 76.1382 -17.3923 -0.7369 0.2914
# 4 -19.9117 -32.7391 -17.3923 48.9792 -1.4418 -1.8565
# 5 11.3040 11.0209 -0.7369 -1.4418 54.1046 -7.6661
# 6 -27.7394 -33.2973 0.2914 -1.8565 -7.6661 65.3221
#
#
#
# Elastic Compliance Matrix: (Units=1/GPa)
#
#
# Indices 1 2 3 4 5 6 
#
# 1 0.006084 -0.001324 -0.001247 0.001195 -0.000723 0.001863
# 2 -0.001324 0.006196 -0.001888 0.003016 -0.000559 0.002625
# 3 -0.001247 -0.001888 0.015345 0.003651 0.000758 -0.001368
# 4 0.001195 0.003016 0.003651 0.024326 0.000223 0.002746
# 5 -0.000723 -0.000559 0.000758 0.000223 0.018996 0.001641
# 6 0.001863 0.002625 -0.001368 0.002746 0.001641 0.017715
#
#
# Mechanical properties :
#
#
# Convention : Reuss Voigt Hill
#
# Bulk Modulus (GPa) = 53.45520 85.57616 69.51568
# Shear Modulus (GPa) = 48.16330 57.52716 52.84523
#
# Velocity S-wave (km/s) = 4.07812 4.45696 4.27174
# Velocity P-wave (km/s) = 6.37441 7.48571 6.95230
#
# Compressibility (1/GPa) = 0.01870725
#
# Stress axis : x y z
#
# Youngs Moduli (GPa) = 164.37511 161.40333 65.16793
#
# Poissons Ratio (x) = 0.21365 0.08128
# Poissons Ratio (y) = 0.21758 0.12301
# Poissons Ratio (z) = 0.20502 0.30466
#
# Static dielectric constant tensor:
#      x y z
#    x 2.206190 -0.020640 0.006490 
#    y -0.020640 2.519340 0.355420 
#    z 0.006490 0.355420 2.593830 
# 
# From -- ./inp_files/38667.got.cif
#   From: 2010.05.17/outbox.cif.g08.bks.cpg/sg2_20_cif.got.tgz:38667.got - 2010.06.03 11:33:40.
