data_PCOD9039684
_publ_section_title
;
Structure prediction by ZEFSAII (Michael W. Deem and Ramdas Pophale) SiO2 
 PCOD9039684
Probable space group: P -1
;
_chemical_formula_sum "Si O2"
_cell_formula_units_Z 12
_cell_length_a 7.204429
_cell_length_b 8.865896
_cell_length_c 18.085781
_cell_angle_alpha 52.757122
_cell_angle_beta 145.200236
_cell_angle_gamma 116.934693
_cell_volume 522.378971
_symmetry_space_group_name_H-M "P -1"
_symmetry_group_IT_number 2
_symmetry_cell_setting 'triclinic'
loop_
_space_group_symop_operation_xyz
x,y,z
-x,-y,-z
loop_
_atom_site_type_symbol
_atom_site_label
_atom_site_fract_x
_atom_site_fract_y
_atom_site_fract_z
Si Si1 0.274928 0.171599 0.341350
Si Si2 0.675253 0.521794 0.336581
Si Si3 0.486384 0.593478 0.095781
Si Si4 0.707561 0.112984 0.824951
Si Si5 0.876645 0.046942 0.115272
Si Si6 0.605928 0.249977 0.144884
O O1 0.495036 0.328172 0.335058
O O2 0.044539 0.064083 0.243187
O O3 0.989087 0.282402 0.264118
O O4 0.500000 0.000000 0.500000
O O5 0.726894 0.574374 0.251094
O O6 0.434550 0.688735 0.246800
O O7 0.000000 0.500000 0.500000
O O8 0.432078 0.386524 0.109198
O O9 0.182030 0.727589 0.990356
O O10 0.538189 0.691613 0.001786
O O11 0.433445 0.966314 0.783264
O O12 0.877552 0.099962 0.805028
O O13 0.000000 0.000000 0.000000
O O14 0.500000 0.000000 0.000000
#
# Coordination Sequence:
#
# PCOD9039684 Si02
#       6
#     2   2   2   2   2   2
#     4  11  26  47  70  99 146 194 240 297 368 429
#     4  12  28  45  70 107 152 193 239 300 369 439
#     4  10  23  42  70 100 142 180 248 289 361 417
#     4  12  24  42  72 108 143 184 245 298 364 430
#     4  11  25  43  76 104 143 188 247 302 357 428
#     4  10  24  42  73 101 139 188 247 300 358 427
#
# _framework density 22.971827000000001
#
# number of rings (size 3 to 8) (size 9 to 14) (size 15 to 20)
#    0.000    1.000    1.667    4.000   11.667    4.667 
#    0.000    5.000    0.000    0.000    0.000    0.000 
#    0.000    0.000    0.000    0.000    0.000    0.000 
#
# Total GULP energy -66847.754668 kJ/mol
# GULP energy per Si atom -5570.646222 kJ/mol
# Density = 2.291954 g / cm^3
# Si number density = 22.971827 Si / 1000 Ang^3
#
#
#
# Elastic Constant Matrix: (Units=GPa)
#
#
# Indices 1 2 3 4 5 6 
#
# 1 116.6773 65.0292 51.6881 6.6853 5.8695 -9.1832
# 2 65.0292 119.0919 49.4937 -6.1233 -0.1722 -17.3842
# 3 51.6881 49.4937 157.1423 10.2045 -0.9890 -8.9561
# 4 6.6853 -6.1233 10.2045 42.4896 -1.3197 7.8467
# 5 5.8695 -0.1722 -0.9890 -1.3197 22.8662 1.5581
# 6 -9.1832 -17.3842 -8.9561 7.8467 1.5581 48.4168
#
#
#
# Elastic Compliance Matrix: (Units=1/GPa)
#
#
# Indices 1 2 3 4 5 6 
#
# 1 0.013614 -0.006603 -0.002223 -0.002747 -0.003824 0.000368
# 2 -0.006603 0.013414 -0.002090 0.003041 0.001702 0.002630
# 3 -0.002223 -0.002090 0.007917 -0.001937 0.000746 0.000582
# 4 -0.002747 0.003041 -0.001937 0.025689 0.002401 -0.004028
# 5 -0.003824 0.001702 0.000746 0.002401 0.045022 -0.001814
# 6 0.000368 0.002630 0.000582 -0.004028 -0.001814 0.022487
#
#
# Mechanical properties :
#
#
# Convention : Reuss Voigt Hill
#
# Bulk Modulus (GPa) = 76.26112 80.59262 78.42687
# Shear Modulus (GPa) = 32.39486 37.86789 35.13137
#
# Velocity S-wave (km/s) = 3.75934 4.06451 3.91490
# Velocity P-wave (km/s) = 7.21895 7.56217 7.39255
#
# Compressibility (1/GPa) = 0.01311284
#
# Stress axis : x y z
#
# Youngs Moduli (GPa) = 73.45152 74.55112 126.31423
#
# Poissons Ratio (x) = 0.49227 0.28081
# Poissons Ratio (y) = 0.48501 0.26396
# Poissons Ratio (z) = 0.16329 0.15579
#
# Static dielectric constant tensor:
#      x y z
#    x 2.146580 -0.046790 -0.000370 
#    y -0.046790 2.016120 0.002790 
#    z -0.000370 0.002790 1.885280 
# 
# From -- ./inp_files/586644.got.cif
#   From: 2010.05.17/outbox.cif.g08.bks.cpg/sg2_294_cif.got.tgz:586644.got - 2010.06.03 11:33:40.
