data_PCOD9039503
_publ_section_title
;
Structure prediction by ZEFSAII (Michael W. Deem and Ramdas Pophale) SiO2 
 PCOD9039503
Probable space group: P -1
;
_chemical_formula_sum "Si O2"
_cell_formula_units_Z 10
_cell_length_a 9.634452
_cell_length_b 5.676376
_cell_length_c 9.958719
_cell_angle_alpha 102.780732
_cell_angle_beta 66.272738
_cell_angle_gamma 90.232626
_cell_volume 484.033527
_symmetry_space_group_name_H-M "P -1"
_symmetry_group_IT_number 2
_symmetry_cell_setting 'triclinic'
loop_
_space_group_symop_operation_xyz
x,y,z
-x,-y,-z
loop_
_atom_site_type_symbol
_atom_site_label
_atom_site_fract_x
_atom_site_fract_y
_atom_site_fract_z
Si Si1 0.505627 0.178062 0.669707
Si Si2 0.647147 0.645866 0.572661
Si Si3 0.899763 0.176705 0.962621
Si Si4 0.351839 0.004639 0.151010
Si Si5 0.187393 0.394303 0.765059
O O1 0.556633 0.411584 0.600377
O O2 0.442298 0.104478 0.420111
O O3 0.593545 0.190572 0.779771
O O4 0.322944 0.210300 0.750684
O O5 0.777361 0.580357 0.403153
O O6 0.688014 0.748732 0.716065
O O7 0.789009 0.052715 0.891184
O O8 0.021451 0.311539 0.845980
O O9 0.803555 0.363375 0.121777
O O10 0.000000 0.000000 0.000000
O O11 0.500000 0.000000 0.000000
#
# Coordination Sequence:
#
# PCOD9039503 Si02
#       5
#     2   2   2   2   2
#     4  10  23  42  73  99 127 173 224 274 324 388
#     4  10  24  41  73 100 130 172 223 273 327 389
#     4  11  26  42  65  97 136 179 216 274 333 392
#     4  10  23  42  68  99 134 171 224 272 329 390
#     4  11  24  42  66  98 135 174 221 271 331 394
#
# _framework density 20.659725999999999
#
# number of rings (size 3 to 8) (size 9 to 14) (size 15 to 20)
#    1.200    0.400    0.000    3.600    5.600    7.200 
#    0.000    2.000    0.000    0.000    0.000    0.000 
#    0.000    0.000    0.000    0.000    0.000    0.000 
#
# Total GULP energy -55723.145273 kJ/mol
# GULP energy per Si atom -5572.314527 kJ/mol
# Density = 2.061270 g / cm^3
# Si number density = 20.659726 Si / 1000 Ang^3
#
#
#
# Elastic Constant Matrix: (Units=GPa)
#
#
# Indices 1 2 3 4 5 6 
#
# 1 110.2257 30.1992 60.7039 14.0917 27.1820 17.3084
# 2 30.1992 111.1606 60.2724 0.1683 7.6246 11.4313
# 3 60.7039 60.2724 161.1409 22.5436 5.0767 19.2458
# 4 14.0917 0.1683 22.5436 42.5372 3.0578 5.4824
# 5 27.1820 7.6246 5.0767 3.0578 37.6168 9.2360
# 6 17.3084 11.4313 19.2458 5.4824 9.2360 30.2925
#
#
#
# Elastic Compliance Matrix: (Units=1/GPa)
#
#
# Indices 1 2 3 4 5 6 
#
# 1 0.014473 -0.000676 -0.004446 -0.001506 -0.009071 -0.002152
# 2 -0.000676 0.011741 -0.004310 0.002732 -0.001178 -0.001442
# 3 -0.004446 -0.004310 0.010246 -0.003848 0.003697 -0.002774
# 4 -0.001506 0.002732 -0.003848 0.026375 -0.000515 -0.002342
# 5 -0.009071 -0.001178 0.003697 -0.000515 0.034689 -0.007205
# 6 -0.002152 -0.001442 -0.002774 -0.002342 -0.007205 0.039168
#
#
# Mechanical properties :
#
#
# Convention : Reuss Voigt Hill
#
# Bulk Modulus (GPa) = 56.82745 76.09757 66.46251
# Shear Modulus (GPa) = 30.97469 37.51276 34.24373
#
# Velocity S-wave (km/s) = 3.87625 4.26578 4.07567
# Velocity P-wave (km/s) = 6.89927 7.82152 7.37483
#
# Compressibility (1/GPa) = 0.01759713
#
# Stress axis : x y z
#
# Youngs Moduli (GPa) = 69.09298 85.16829 97.59933
#
# Poissons Ratio (x) = 0.05753 0.43394
# Poissons Ratio (y) = 0.04667 0.42067
# Poissons Ratio (z) = 0.30719 0.36709
#
# Static dielectric constant tensor:
#      x y z
#    x 1.735820 -0.003490 0.056160 
#    y -0.003490 1.787510 0.012510 
#    z 0.056160 0.012510 1.870090 
# 
# From -- ./inp_files/15769.got.cif
#   From: 2010.05.17/outbox.cif.g08.bks.cpg/sg2_8_cif.got.tgz:15769.got - 2010.06.03 11:33:40.
