data_PCOD9039836
_publ_section_title
;
Structure prediction by ZEFSAII (Michael W. Deem and Ramdas Pophale) SiO2 
 PCOD9039836
Probable space group: P -1
;
_chemical_formula_sum "Si O2"
_cell_formula_units_Z 14
_cell_length_a 15.622837
_cell_length_b 23.435883
_cell_length_c 5.509689
_cell_angle_alpha 93.428707
_cell_angle_beta 84.294872
_cell_angle_gamma 19.464739
_cell_volume 592.857036
_symmetry_space_group_name_H-M "P -1"
_symmetry_group_IT_number 2
_symmetry_cell_setting 'triclinic'
loop_
_space_group_symop_operation_xyz
x,y,z
-x,-y,-z
loop_
_atom_site_type_symbol
_atom_site_label
_atom_site_fract_x
_atom_site_fract_y
_atom_site_fract_z
Si Si1 0.818879 0.895488 0.339979
Si Si2 0.070231 0.622153 0.232326
Si Si3 0.870941 0.208715 0.544956
Si Si4 0.412657 0.421392 0.591194
Si Si5 0.779924 0.692110 0.140691
Si Si6 0.648044 0.075341 0.037741
Si Si7 0.158730 0.942903 0.755132
O O1 0.816702 0.830450 0.375997
O O2 0.093853 0.749383 0.360052
O O3 0.514924 0.117792 0.565118
O O4 0.843093 0.902586 0.062475
O O5 0.240042 0.516932 0.414854
O O6 0.958214 0.631590 0.183207
O O7 0.240059 0.534521 0.920240
O O8 0.596628 0.362938 0.510187
O O9 0.158987 0.019741 0.253539
O O10 0.922612 0.132369 0.734986
O O11 0.647972 0.221088 0.505300
O O12 0.629624 0.783265 0.940847
O O13 0.000000 0.500000 0.000000
O O14 0.616651 0.152129 0.226941
O O15 0.000000 0.000000 0.000000
#
# Coordination Sequence:
#
# PCOD9039836 Si02
#       7
#     2   2   2   2   2   2   2
#     4  10  26  48  72 100 142 197 237 298 365 430
#     4  12  30  47  72 107 149 196 240 294 361 433
#     4  10  23  42  71 107 143 190 239 299 363 424
#     4  12  27  43  71 109 150 188 243 293 358 439
#     4  11  26  47  75 104 139 184 249 305 357 426
#     4  10  23  42  74 100 143 185 243 294 368 416
#     4  11  21  40  71 106 149 187 238 298 368 418
#
# _framework density 23.614462
#
# number of rings (size 3 to 8) (size 9 to 14) (size 15 to 20)
#    0.000    1.143    1.429    2.571   16.000    2.286 
#    0.000    0.000    0.000    0.000    0.000    0.000 
#    0.000    0.000    0.000    0.000    0.000    0.000 
#
# Total GULP energy -78013.649047 kJ/mol
# GULP energy per Si atom -5572.403503 kJ/mol
# Density = 2.356071 g / cm^3
# Si number density = 23.614462 Si / 1000 Ang^3
#
#
#
# Elastic Constant Matrix: (Units=GPa)
#
#
# Indices 1 2 3 4 5 6 
#
# 1 134.7917 55.1210 19.6276 -25.7625 -17.1252 -39.3924
# 2 55.1210 73.6455 35.1150 -29.7077 -27.8512 -48.6198
# 3 19.6276 35.1150 45.6842 6.1729 25.2050 7.4484
# 4 -25.7625 -29.7077 6.1729 8.8036 -44.9997 -7.0014
# 5 -17.1252 -27.8512 25.2050 -44.9997 -56.4244 -48.8837
# 6 -39.3924 -48.6198 7.4484 -7.0014 -48.8837 31.6195
#
#
#
# Elastic Compliance Matrix: (Units=1/GPa)
#
#
# Indices 1 2 3 4 5 6 
#
# 1 0.010894 -0.008009 0.001441 0.001688 -0.000502 0.000515
# 2 -0.008009 0.019722 -0.006008 -0.003863 -0.010695 0.004373
# 3 0.001441 -0.006008 0.021111 0.005944 0.007197 0.000025
# 4 0.001688 -0.003863 0.005944 0.034355 -0.010858 -0.014418
# 5 -0.000502 -0.010695 0.007197 -0.010858 0.007661 -0.009325
# 6 0.000515 0.004373 0.000025 -0.014418 -0.009325 0.021377
#
#
# Mechanical properties :
#
#
# Convention : Reuss Voigt Hill
#
# Bulk Modulus (GPa) = 37.63277 52.64984 45.14131
# Shear Modulus (GPa) = 33.52743 6.41692 19.97217
#
# Velocity S-wave (km/s) = 3.77209 1.65023 2.91135
# Velocity P-wave (km/s) = 5.91122 5.09657 5.51894
#
# Compressibility (1/GPa) = 0.02657258
#
# Stress axis : x y z
#
# Youngs Moduli (GPa) = 91.79596 50.70529 47.36879
#
# Poissons Ratio (x) = 0.40611 -0.06824
# Poissons Ratio (y) = 0.73522 0.28461
# Poissons Ratio (z) = -0.13225 0.30465
#
# Static dielectric constant tensor:
#      x y z
#    x 1.924810 -0.038810 0.023730 
#    y -0.038810 2.002150 -0.083720 
#    z 0.023730 -0.083720 2.034110 
# 
# From -- ./inp_files/101211.got.cif
#   From: 2010.05.17/outbox.cif.g08.bks.cpg/sg2_51_cif.got.tgz:101211.got - 2010.06.03 11:33:40.
