data_PCOD9039264
_publ_section_title
;
Structure prediction by ZEFSAII (Michael W. Deem and Ramdas Pophale) SiO2 
 PCOD9039264
Probable space group: P -1
;
_chemical_formula_sum "Si O2"
_cell_formula_units_Z 15
_cell_length_a 6.973466
_cell_length_b 8.765248
_cell_length_c 21.541134
_cell_angle_alpha 120.899286
_cell_angle_beta 137.869445
_cell_angle_gamma 56.732685
_cell_volume 725.021317
_symmetry_space_group_name_H-M "P -1"
_symmetry_group_IT_number 2
_symmetry_cell_setting 'triclinic'
loop_
_space_group_symop_operation_xyz
x,y,z
-x,-y,-z
loop_
_atom_site_type_symbol
_atom_site_label
_atom_site_fract_x
_atom_site_fract_y
_atom_site_fract_z
Si Si1 0.347797 0.942242 0.553393
Si Si2 0.682193 0.251205 0.870456
Si Si3 0.667876 0.848914 0.742995
Si Si4 0.500000 0.500000 0.000000
Si Si5 0.262981 0.593814 0.782496
Si Si6 0.409004 0.260448 0.549693
Si Si7 0.763535 0.352143 0.354005
Si Si8 0.635978 0.776405 0.984813
O O1 0.532072 0.877757 0.646788
O O2 0.399167 0.795858 0.478370
O O3 0.464093 0.103647 0.582970
O O4 0.000000 0.000000 0.500000
O O5 0.426028 0.380052 0.791751
O O6 0.705912 0.037726 0.819189
O O7 0.592216 0.335793 0.934339
O O8 0.007670 0.271810 0.938639
O O9 0.431668 0.787071 0.714993
O O10 0.982893 0.689563 0.779427
O O11 0.456616 0.343772 0.008404
O O12 0.162109 0.619247 0.692847
O O13 0.508576 0.702194 0.877300
O O14 0.425869 0.452092 0.621852
O O15 0.067907 0.285883 0.451899
O O16 0.500000 0.000000 0.000000
#
# Coordination Sequence:
#
# PCOD9039264 Si02
#       8
#     2   2   2   1   2   2   2   2
#     4  11  22  43  66  96 133 178 228 278 343 411
#     4  11  26  47  70 102 142 180 232 289 345 419
#     4  12  25  41  68 104 134 182 232 279 349 412
#     4  10  24  44  72 104 136 188 236 272 362 414
#     4  11  24  45  65 102 141 172 232 285 344 412
#     4  10  23  42  67  93 135 178 225 283 344 405
#     4  11  24  42  65 101 132 176 230 284 342 411
#     4  11  24  47  74 101 141 188 226 295 350 418
#
# _framework density 20.689046000000001
#
# number of rings (size 3 to 8) (size 9 to 14) (size 15 to 20)
#    0.000    1.067    4.000    2.400    1.867    7.467 
#    0.000    0.000    0.000    0.000    0.000    0.000 
#    0.000    0.000    0.000    0.000    0.000    0.000 
#
# Total GULP energy -83553.029593 kJ/mol
# GULP energy per Si atom -5570.201973 kJ/mol
# Density = 2.064196 g / cm^3
# Si number density = 20.689046 Si / 1000 Ang^3
#
#
#
# Elastic Constant Matrix: (Units=GPa)
#
#
# Indices 1 2 3 4 5 6 
#
# 1 76.6655 17.3699 22.6701 4.0237 -14.9568 -10.3845
# 2 17.3699 69.8879 6.3212 7.7491 2.2950 -14.0179
# 3 22.6701 6.3212 34.5111 1.3598 8.0802 3.8643
# 4 4.0237 7.7491 1.3598 34.8005 -2.1976 -0.6627
# 5 -14.9568 2.2950 8.0802 -2.1976 30.8600 -0.7780
# 6 -10.3845 -14.0179 3.8643 -0.6627 -0.7780 26.1239
#
#
#
# Elastic Compliance Matrix: (Units=1/GPa)
#
#
# Indices 1 2 3 4 5 6 
#
# 1 0.025452 -0.002391 -0.022046 -0.000134 0.018595 0.012646
# 2 -0.002391 0.017214 -0.001929 -0.003445 -0.001967 0.008426
# 3 -0.022046 -0.001929 0.051643 -0.000939 -0.024589 -0.018194
# 4 -0.000134 -0.003445 -0.000939 0.029696 0.002528 -0.000934
# 5 0.018595 -0.001967 -0.024589 0.002528 0.048471 0.011481
# 6 0.012646 0.008426 -0.018194 -0.000934 0.011481 0.050837
#
#
# Mechanical properties :
#
#
# Convention : Reuss Voigt Hill
#
# Bulk Modulus (GPa) = 24.05243 30.42075 27.23659
# Shear Modulus (GPa) = 17.24707 27.33710 22.29209
#
# Velocity S-wave (km/s) = 2.89040 3.63896 3.28606
# Velocity P-wave (km/s) = 4.77390 5.69137 5.25271
#
# Compressibility (1/GPa) = 0.04157584
#
# Stress axis : x y z
#
# Youngs Moduli (GPa) = 39.28943 58.09213 19.36384
#
# Poissons Ratio (x) = 0.13891 0.42689
# Poissons Ratio (y) = 0.09395 0.03736
# Poissons Ratio (z) = 0.86617 0.11208
#
# Static dielectric constant tensor:
#      x y z
#    x 1.703550 -0.013240 0.012040 
#    y -0.013240 1.768780 -0.015230 
#    z 0.012040 -0.015230 1.730760 
# 
# From -- ./inp_files/52122.got.cif
#   From: 2010.05.17/outbox.cif.g08.bks.cpg/sg2_27_cif.got.tgz:52122.got - 2010.06.03 11:33:40.
