data_PCOD9039995
_publ_section_title
;
Structure prediction by ZEFSAII (Michael W. Deem and Ramdas Pophale) SiO2 
 PCOD9039995
Probable space group: P -1
;
_chemical_formula_sum "Si O2"
_cell_formula_units_Z 14
_cell_length_a 5.110217
_cell_length_b 16.546982
_cell_length_c 9.087487
_cell_angle_alpha 59.017778
_cell_angle_beta 83.937229
_cell_angle_gamma 64.181291
_cell_volume 585.987404
_symmetry_space_group_name_H-M "P -1"
_symmetry_group_IT_number 2
_symmetry_cell_setting 'triclinic'
loop_
_space_group_symop_operation_xyz
x,y,z
-x,-y,-z
loop_
_atom_site_type_symbol
_atom_site_label
_atom_site_fract_x
_atom_site_fract_y
_atom_site_fract_z
Si Si1 0.390276 0.858918 0.602222
Si Si2 0.207961 0.718093 0.366888
Si Si3 0.844114 0.928333 0.040928
Si Si4 0.629568 0.346659 0.266280
Si Si5 0.130542 0.385406 0.673009
Si Si6 0.770364 0.926565 0.718249
Si Si7 0.096086 0.561516 0.056794
O O1 0.506769 0.735820 0.673412
O O2 0.552062 0.882685 0.708087
O O3 0.050282 0.890608 0.628862
O O4 0.384345 0.944701 0.402147
O O5 0.182521 0.690691 0.562195
O O6 0.547412 0.688858 0.340824
O O7 0.981680 0.836563 0.236089
O O8 0.106979 0.653821 0.322171
O O9 0.891782 0.886795 0.909905
O O10 0.500000 0.000000 0.000000
O O11 0.000000 0.000000 0.000000
O O12 0.385248 0.465797 0.197607
O O13 0.811351 0.357326 0.106666
O O14 0.000000 0.500000 0.500000
O O15 0.136572 0.390429 0.844427
O O16 0.000000 0.500000 0.000000
#
# Coordination Sequence:
#
# PCOD9039995 Si02
#       7
#     2   2   2   2   2   2   2
#     4  10  23  42  73  98 143 182 240 298 363 429
#     4  12  28  47  78 108 144 202 246 295 384 438
#     4  12  26  47  73 104 149 188 246 302 359 436
#     4  11  26  45  71 110 145 196 247 306 371 442
#     4  12  26  49  75 106 150 194 246 308 364 447
#     4  10  23  44  67 107 136 188 239 300 356 429
#     4  11  27  45  72 107 150 193 247 312 368 437
#
# _framework density 23.891300999999999
#
# number of rings (size 3 to 8) (size 9 to 14) (size 15 to 20)
#    0.000    0.857    1.429    3.857    8.000    2.286 
#    0.000    0.000    0.000    0.000    0.000    0.000 
#    0.000    0.000    0.000    0.000    0.000    0.000 
#
# Total GULP energy -78403.094966 kJ/mol
# GULP energy per Si atom -5600.221069 kJ/mol
# Density = 2.383692 g / cm^3
# Si number density = 23.891301 Si / 1000 Ang^3
#
#
#
# Elastic Constant Matrix: (Units=GPa)
#
#
# Indices 1 2 3 4 5 6 
#
# 1 93.1908 21.2494 34.8670 -2.1865 7.7441 6.5819
# 2 21.2494 71.9891 48.3554 -6.1277 -6.8821 11.7744
# 3 34.8670 48.3554 154.7591 -10.9256 16.1430 -7.1561
# 4 -2.1865 -6.1277 -10.9256 40.6661 -4.9165 4.7404
# 5 7.7441 -6.8821 16.1430 -4.9165 34.3001 3.0252
# 6 6.5819 11.7744 -7.1561 4.7404 3.0252 50.9328
#
#
#
# Elastic Compliance Matrix: (Units=1/GPa)
#
#
# Indices 1 2 3 4 5 6 
#
# 1 0.012238 -0.002471 -0.001815 -0.000360 -0.002360 -0.001092
# 2 -0.002471 0.021769 -0.007311 0.003086 0.009390 -0.006585
# 3 -0.001815 -0.007311 0.009976 0.000326 -0.006028 0.003654
# 4 -0.000360 0.003086 0.000326 0.026064 0.004576 -0.003319
# 5 -0.002360 0.009390 -0.006028 0.004576 0.035527 -0.005249
# 6 -0.001092 -0.006585 0.003654 -0.003319 -0.005249 0.022431
#
#
# Mechanical properties :
#
#
# Convention : Reuss Voigt Hill
#
# Bulk Modulus (GPa) = 48.10401 58.76474 53.43437
# Shear Modulus (GPa) = 31.62012 39.54426 35.58219
#
# Velocity S-wave (km/s) = 3.64194 4.07280 3.86338
# Velocity P-wave (km/s) = 6.15331 6.83864 6.50501
#
# Compressibility (1/GPa) = 0.02078829
#
# Stress axis : x y z
#
# Youngs Moduli (GPa) = 81.71344 45.93770 100.24404
#
# Poissons Ratio (x) = 0.11351 0.18192
# Poissons Ratio (y) = 0.20192 0.73289
# Poissons Ratio (z) = 0.14829 0.33585
#
# Static dielectric constant tensor:
#      x y z
#    x 1.890660 -0.021130 -0.001090 
#    y -0.021130 1.960600 -0.014540 
#    z -0.001090 -0.014540 1.911960 
# 
# From -- ./inp_files/132889.got.cif
#   From: 2010.05.17/outbox.cif.g08.bks.cpg/sg2_67_cif.got.tgz:132889.got - 2010.06.03 11:33:40.
