data_PCOD9039631
_publ_section_title
;
Structure prediction by ZEFSAII (Michael W. Deem and Ramdas Pophale) SiO2 
 PCOD9039631
Probable space group: P -1
;
_chemical_formula_sum "Si O2"
_cell_formula_units_Z 14
_cell_length_a 11.732947
_cell_length_b 11.536659
_cell_length_c 20.104873
_cell_angle_alpha 157.342566
_cell_angle_beta 136.254157
_cell_angle_gamma 56.318038
_cell_volume 657.585602
_symmetry_space_group_name_H-M "P -1"
_symmetry_group_IT_number 2
_symmetry_cell_setting 'triclinic'
loop_
_space_group_symop_operation_xyz
x,y,z
-x,-y,-z
loop_
_atom_site_type_symbol
_atom_site_label
_atom_site_fract_x
_atom_site_fract_y
_atom_site_fract_z
Si Si1 0.342642 0.138808 0.723839
Si Si2 0.496446 0.657358 0.846407
Si Si3 0.114547 0.787319 0.569642
Si Si4 0.902703 0.749719 0.086801
Si Si5 0.790066 0.702997 0.573173
Si Si6 0.599292 0.851730 0.692409
Si Si7 0.739714 0.418538 0.163898
O O1 0.221473 0.236164 0.674478
O O2 0.236517 0.940165 0.637943
O O3 0.449877 0.934680 0.634065
O O4 0.500000 0.500000 0.000000
O O5 0.356704 0.377300 0.590255
O O6 0.412025 0.630133 0.870360
O O7 0.689148 0.630459 0.916299
O O8 0.500000 0.000000 0.000000
O O9 0.208541 0.642941 0.586361
O O10 0.927729 0.478489 0.309217
O O11 0.075792 0.073799 0.739399
O O12 0.019088 0.039600 0.238260
O O13 0.000000 0.500000 0.000000
O O14 0.739647 0.845809 0.693935
O O15 0.500000 0.500000 0.500000
O O16 0.681269 0.124108 0.929588
#
# Coordination Sequence:
#
# PCOD9039631 Si02
#       7
#     2   2   2   2   2   2   2
#     4  10  23  42  69  97 141 187 237 292 366 427
#     4  12  24  48  77 102 142 199 238 288 371 430
#     4  12  23  49  70 104 143 194 244 294 362 442
#     4  12  28  44  74 112 148 184 243 309 356 424
#     4  12  26  46  75 104 148 186 247 296 356 439
#     4  11  23  45  68 106 139 186 243 299 352 433
#     4  11  25  43  75 100 143 192 240 295 369 426
#
# _framework density 21.290002999999999
#
# number of rings (size 3 to 8) (size 9 to 14) (size 15 to 20)
#    0.000    0.571    4.286    4.286    6.000    2.286 
#    2.571    0.000    0.000    0.000    0.000    0.000 
#    0.000    0.000    0.000    0.000    0.000    0.000 
#
# Total GULP energy -78224.754855 kJ/mol
# GULP energy per Si atom -5587.482490 kJ/mol
# Density = 2.124155 g / cm^3
# Si number density = 21.290003 Si / 1000 Ang^3
#
#
#
# Elastic Constant Matrix: (Units=GPa)
#
#
# Indices 1 2 3 4 5 6 
#
# 1 127.9949 20.8051 38.1900 -14.2402 6.5753 -13.9584
# 2 20.8051 86.6339 39.3110 -0.8806 -5.3639 -10.6431
# 3 38.1900 39.3110 79.6922 -20.7891 -1.7223 -11.6395
# 4 -14.2402 -0.8806 -20.7891 42.0740 2.4581 -0.8492
# 5 6.5753 -5.3639 -1.7223 2.4581 40.5532 5.5527
# 6 -13.9584 -10.6431 -11.6395 -0.8492 5.5527 32.7240
#
#
#
# Elastic Compliance Matrix: (Units=1/GPa)
#
#
# Indices 1 2 3 4 5 6 
#
# 1 0.009583 -0.000442 -0.003528 0.001688 -0.002292 0.003122
# 2 -0.000442 0.015677 -0.008299 -0.003997 0.001823 0.001545
# 3 -0.003528 -0.008299 0.021277 0.009261 -0.000693 0.003722
# 4 0.001688 -0.003997 0.009261 0.029069 -0.002709 0.003928
# 5 -0.002292 0.001823 -0.000693 -0.002709 0.026109 -0.005132
# 6 0.003122 0.001545 0.003722 0.003928 -0.005132 0.034689
#
#
# Mechanical properties :
#
#
# Convention : Reuss Voigt Hill
#
# Bulk Modulus (GPa) = 45.45466 54.54813 50.00139
# Shear Modulus (GPa) = 29.71323 36.13792 32.92558
#
# Velocity S-wave (km/s) = 3.73988 4.12444 3.93686
# Velocity P-wave (km/s) = 6.32816 6.95402 6.64846
#
# Compressibility (1/GPa) = 0.02199995
#
# Stress axis : x y z
#
# Youngs Moduli (GPa) = 104.34931 63.78843 46.99871
#
# Poissons Ratio (x) = 0.02819 0.16579
# Poissons Ratio (y) = 0.04611 0.39005
# Poissons Ratio (z) = 0.36811 0.52939
#
# Static dielectric constant tensor:
#      x y z
#    x 1.769320 -0.032590 0.064640 
#    y -0.032590 1.856270 -0.033220 
#    z 0.064640 -0.033220 1.862850 
# 
# From -- ./inp_files/280001.got.cif
#   From: 2010.05.17/outbox.cif.g08.bks.cpg/sg2_141_cif.got.tgz:280001.got - 2010.06.03 11:33:40.
