data_PCOD9039340
_publ_section_title
;
Structure prediction by ZEFSAII (Michael W. Deem and Ramdas Pophale) SiO2 
 PCOD9039340
Probable space group: P -1
;
_chemical_formula_sum "Si O2"
_cell_formula_units_Z 16
_cell_length_a 7.252279
_cell_length_b 13.664866
_cell_length_c 12.915317
_cell_angle_alpha 136.980714
_cell_angle_beta 121.465562
_cell_angle_gamma 48.824524
_cell_volume 655.210600
_symmetry_space_group_name_H-M "P -1"
_symmetry_group_IT_number 2
_symmetry_cell_setting 'triclinic'
loop_
_space_group_symop_operation_xyz
x,y,z
-x,-y,-z
loop_
_atom_site_type_symbol
_atom_site_label
_atom_site_fract_x
_atom_site_fract_y
_atom_site_fract_z
Si Si1 0.302866 0.690764 0.590388
Si Si2 0.620627 0.814962 0.355808
Si Si3 0.034701 0.648275 0.083869
Si Si4 0.277315 0.971346 0.947670
Si Si5 0.083322 0.425380 0.580859
Si Si6 0.150991 0.673967 0.917489
Si Si7 0.478039 0.802049 0.074331
Si Si8 0.893778 0.188575 0.586836
O O1 0.500000 0.500000 0.500000
O O2 0.317236 0.809659 0.772518
O O3 0.056267 0.680746 0.531993
O O4 0.291297 0.759787 0.524158
O O5 0.664757 0.697339 0.377075
O O6 0.477964 0.814885 0.208981
O O7 0.888106 0.774488 0.358996
O O8 0.500000 0.000000 0.500000
O O9 0.742249 0.775816 0.090296
O O10 0.171810 0.713061 0.250031
O O11 0.000000 0.500000 0.000000
O O12 0.178475 0.601242 0.982794
O O13 0.293533 0.945466 0.056331
O O14 0.500000 0.000000 0.000000
O O15 0.028526 0.132897 0.972498
O O16 0.014972 0.591310 0.751729
O O17 0.000000 0.500000 0.500000
O O18 0.394572 0.661920 0.926118
O O19 0.000000 0.000000 0.500000
#
# Coordination Sequence:
#
# PCOD9039340 Si02
#       8
#     2   2   2   2   2   2   2   2
#     4  11  25  44  69 104 139 183 236 289 355 429
#     4  10  25  43  69 100 142 180 228 294 351 424
#     4  11  24  44  71  97 142 183 235 297 352 423
#     4  12  25  44  75 104 143 190 239 290 366 428
#     4  11  26  48  68 103 143 180 238 290 359 422
#     4  12  25  46  75 104 143 191 236 299 357 430
#     4  11  26  44  70 107 142 181 244 292 357 425
#     4  10  23  42  67  99 133 179 232 282 350 415
#
# _framework density 24.419626999999998
#
# number of rings (size 3 to 8) (size 9 to 14) (size 15 to 20)
#    0.000    1.000    1.250    4.875   10.500    3.000 
#    0.000    0.000    0.000    0.000    0.000    0.000 
#    0.000    0.000    0.000    0.000    0.000    0.000 
#
# Total GULP energy -89273.908340 kJ/mol
# GULP energy per Si atom -5579.619271 kJ/mol
# Density = 2.436405 g / cm^3
# Si number density = 24.419627 Si / 1000 Ang^3
#
#
#
# Elastic Constant Matrix: (Units=GPa)
#
#
# Indices 1 2 3 4 5 6 
#
# 1 79.2509 4.6641 24.8242 -14.2394 19.6448 19.5632
# 2 4.6641 167.6060 59.3840 -19.0850 -9.6959 26.4156
# 3 24.8242 59.3840 167.4974 -4.2745 -2.0879 15.1435
# 4 -14.2394 -19.0850 -4.2745 47.6838 10.6315 -10.4396
# 5 19.6448 -9.6959 -2.0879 10.6315 37.9724 -5.2442
# 6 19.5632 26.4156 15.1435 -10.4396 -5.2442 47.0504
#
#
#
# Elastic Compliance Matrix: (Units=1/GPa)
#
#
# Indices 1 2 3 4 5 6 
#
# 1 0.020158 0.001862 -0.002869 0.007681 -0.013407 -0.008293
# 2 0.001862 0.007706 -0.002609 0.002684 -0.000403 -0.003710
# 3 -0.002869 -0.002609 0.007288 -0.001591 0.001684 0.000147
# 4 0.007681 0.002684 -0.001591 0.026719 -0.010782 0.000538
# 5 -0.013407 -0.000403 0.001684 -0.010782 0.037249 0.007018
# 6 -0.008293 -0.003710 0.000147 0.000538 0.007018 0.027639
#
#
# Mechanical properties :
#
#
# Convention : Reuss Voigt Hill
#
# Bulk Modulus (GPa) = 35.81815 65.78878 50.80347
# Shear Modulus (GPa) = 34.89260 48.24011 41.56635
#
# Velocity S-wave (km/s) = 3.78415 4.44944 4.13021
# Velocity P-wave (km/s) = 5.81314 7.30727 6.60260
#
# Compressibility (1/GPa) = 0.02791881
#
# Stress axis : x y z
#
# Youngs Moduli (GPa) = 49.60857 129.76874 137.22029
#
# Poissons Ratio (x) = -0.24158 0.39366
# Poissons Ratio (y) = -0.09235 0.35802
# Poissons Ratio (z) = 0.14232 0.33858
#
# Static dielectric constant tensor:
#      x y z
#    x 2.061530 -0.102930 -0.005600 
#    y -0.102930 2.059740 -0.077570 
#    z -0.005600 -0.077570 1.998310 
# 
# From -- ./inp_files/399863.got.cif
#   From: 2010.05.17/outbox.cif.g08.bks.cpg/sg2_200_cif.got.tgz:399863.got - 2010.06.03 11:33:40.
