data_PCOD9039590
_publ_section_title
;
Structure prediction by ZEFSAII (Michael W. Deem and Ramdas Pophale) SiO2 
 PCOD9039590
Probable space group: P -1
;
_chemical_formula_sum "Si O2"
_cell_formula_units_Z 16
_cell_length_a 19.180337
_cell_length_b 9.645288
_cell_length_c 7.969339
_cell_angle_alpha 62.814470
_cell_angle_beta 47.280102
_cell_angle_gamma 43.642406
_cell_volume 745.857117
_symmetry_space_group_name_H-M "P -1"
_symmetry_group_IT_number 2
_symmetry_cell_setting 'triclinic'
loop_
_space_group_symop_operation_xyz
x,y,z
-x,-y,-z
loop_
_atom_site_type_symbol
_atom_site_label
_atom_site_fract_x
_atom_site_fract_y
_atom_site_fract_z
Si Si1 0.658269 0.097203 0.772827
Si Si2 0.400123 0.418587 0.146857
Si Si3 0.480094 0.199380 0.482789
Si Si4 0.853587 0.307190 0.997919
Si Si5 0.367391 0.717656 0.635862
Si Si6 0.336705 0.273545 0.017686
Si Si7 0.808170 0.117170 0.766345
Si Si8 0.017188 0.909341 0.759706
O O1 0.674666 0.142064 0.535360
O O2 0.768011 0.027271 0.753689
O O3 0.539101 0.307831 0.926298
O O4 0.640636 0.932139 0.895242
O O5 0.403553 0.360512 0.367481
O O6 0.308801 0.654548 0.127678
O O7 0.366362 0.318578 0.124094
O O8 0.598666 0.187354 0.330220
O O9 0.415292 0.253720 0.740649
O O10 0.500000 0.000000 0.500000
O O11 0.738087 0.305970 0.167783
O O12 0.800625 0.527761 0.909094
O O13 0.907483 0.250417 0.128135
O O14 0.962479 0.126567 0.805858
O O15 0.500000 0.500000 0.500000
O O16 0.892374 0.150118 0.506631
O O17 0.893053 0.962252 0.860947
#
# Coordination Sequence:
#
# PCOD9039590 Si02
#       8
#     2   2   2   2   2   2   2   2
#     4  12  24  41  67 103 142 167 214 283 342 403
#     4  12  23  41  70  98 136 178 213 273 339 402
#     4  12  24  39  62  99 145 174 206 264 338 409
#     4  11  22  44  70  94 128 181 224 277 328 393
#     4  12  23  41  69 102 132 173 225 271 330 407
#     4  12  24  45  64 102 142 178 211 270 353 403
#     4  11  23  42  65 101 123 174 234 277 321 395
#     4  10  23  42  69  90 128 174 238 278 317 379
#
# _framework density 21.451830000000001
#
# number of rings (size 3 to 8) (size 9 to 14) (size 15 to 20)
#    0.000    0.500    6.250    3.000    1.750    0.000 
#    0.000    1.250    0.000    0.000    0.000    0.000 
#    0.000    0.000    0.000    0.000    0.000    0.000 
#
# Total GULP energy -89363.469961 kJ/mol
# GULP energy per Si atom -5585.216873 kJ/mol
# Density = 2.140300 g / cm^3
# Si number density = 21.451830 Si / 1000 Ang^3
#
#
#
# Elastic Constant Matrix: (Units=GPa)
#
#
# Indices 1 2 3 4 5 6 
#
# 1 172.2808 35.9144 14.3929 -5.7654 9.6240 -3.7478
# 2 35.9144 78.3716 19.6922 -3.6895 -7.8790 -0.3920
# 3 14.3929 19.6922 43.5722 -11.9919 11.3571 3.6053
# 4 -5.7654 -3.6895 -11.9919 24.4379 -7.0040 -1.8858
# 5 9.6240 -7.8790 11.3571 -7.0040 29.9302 -1.6271
# 6 -3.7478 -0.3920 3.6053 -1.8858 -1.6271 32.7121
#
#
#
# Elastic Compliance Matrix: (Units=1/GPa)
#
#
# Indices 1 2 3 4 5 6 
#
# 1 0.006688 -0.003382 0.000139 0.000324 -0.002986 0.000581
# 2 -0.003382 0.017618 -0.009385 0.000044 0.009369 0.001327
# 3 0.000139 -0.009385 0.033942 0.011259 -0.012968 -0.003833
# 4 0.000324 0.000044 0.011259 0.048727 0.007144 0.001961
# 5 -0.002986 0.009369 -0.012968 0.007144 0.043636 0.003782
# 6 0.000581 0.001327 -0.003833 0.001961 0.003782 0.031376
#
#
# Mechanical properties :
#
#
# Convention : Reuss Voigt Hill
#
# Bulk Modulus (GPa) = 30.31005 48.24707 39.27856
# Shear Modulus (GPa) = 22.91044 32.36437 27.63741
#
# Velocity S-wave (km/s) = 3.27156 3.88841 3.59325
# Velocity P-wave (km/s) = 5.33206 6.53448 5.96365
#
# Compressibility (1/GPa) = 0.03299236
#
# Stress axis : x y z
#
# Youngs Moduli (GPa) = 149.51806 56.75954 29.46181
#
# Poissons Ratio (x) = 0.19195 -0.00408
# Poissons Ratio (y) = 0.50563 0.27650
# Poissons Ratio (z) = -0.02072 0.53269
#
# Static dielectric constant tensor:
#      x y z
#    x 1.865330 -0.012810 0.020480 
#    y -0.012810 1.756390 0.049760 
#    z 0.020480 0.049760 1.836470 
# 
# From -- ./inp_files/327406.got.cif
#   From: 2010.05.17/outbox.cif.g08.bks.cpg/sg2_164_cif.got.tgz:327406.got - 2010.06.03 11:33:40.
