data_PCOD9039763
_publ_section_title
;
Structure prediction by ZEFSAII (Michael W. Deem and Ramdas Pophale) SiO2 
 PCOD9039763
Probable space group: P -1
;
_chemical_formula_sum "Si O2"
_cell_formula_units_Z 15
_cell_length_a 19.259197
_cell_length_b 14.232065
_cell_length_c 11.491994
_cell_angle_alpha 30.141625
_cell_angle_beta 143.962801
_cell_angle_gamma 157.374347
_cell_volume 607.612509
_symmetry_space_group_name_H-M "P -1"
_symmetry_group_IT_number 2
_symmetry_cell_setting 'triclinic'
loop_
_space_group_symop_operation_xyz
x,y,z
-x,-y,-z
loop_
_atom_site_type_symbol
_atom_site_label
_atom_site_fract_x
_atom_site_fract_y
_atom_site_fract_z
Si Si1 0.883004 0.739373 0.214081
Si Si2 0.317691 0.850115 0.530289
Si Si3 0.385450 0.112933 0.106431
Si Si4 0.682887 0.449549 0.794218
Si Si5 0.844501 0.991782 0.494581
Si Si6 0.395453 0.016368 0.707353
Si Si7 0.048537 0.741808 0.880939
Si Si8 0.500000 0.500000 0.000000
O O1 0.831701 0.474681 0.370857
O O2 0.695981 0.612088 0.136268
O O3 0.001162 0.852713 0.368565
O O4 0.000000 0.000000 0.000000
O O5 0.346310 0.053132 0.259388
O O6 0.302850 0.923343 0.556971
O O7 0.493091 0.925870 0.700188
O O8 0.472266 0.420279 0.903900
O O9 0.216315 0.902097 0.020490
O O10 0.692750 0.650639 0.663537
O O11 0.885575 0.621523 0.866249
O O12 0.584130 0.334943 0.658695
O O13 0.582115 0.175708 0.029386
O O14 0.746495 0.067932 0.304846
O O15 0.905274 0.057977 0.373058
O O16 0.000000 0.500000 0.000000
#
# Coordination Sequence:
#
# PCOD9039763 Si02
#       8
#     2   2   2   2   2   2   2   1
#     4  11  25  47  70 106 142 180 239 289 353 426
#     4  10  23  43  69 100 139 185 231 288 353 422
#     4  10  23  42  70  99 135 186 234 284 352 417
#     4  11  25  45  68 102 140 183 228 287 351 420
#     4  12  26  45  72 106 134 185 233 286 355 416
#     4  11  25  45  69 102 142 178 230 290 352 415
#     4  12  23  44  70  99 139 180 234 288 342 422
#     4  10  24  46  70 100 142 182 226 298 344 412
#
# _framework density 24.686785
#
# number of rings (size 3 to 8) (size 9 to 14) (size 15 to 20)
#    0.000    1.067    1.333    4.000    3.733    3.733 
#    2.400    0.000    0.000    0.000    0.000    0.000 
#    0.000    0.000    0.000    0.000    0.000    0.000 
#
# Total GULP energy -83685.745123 kJ/mol
# GULP energy per Si atom -5579.049675 kJ/mol
# Density = 2.463060 g / cm^3
# Si number density = 24.686785 Si / 1000 Ang^3
#
#
#
# Elastic Constant Matrix: (Units=GPa)
#
#
# Indices 1 2 3 4 5 6 
#
# 1 60.4184 18.9980 17.7770 11.0112 -2.2490 -16.4637
# 2 18.9980 147.1167 48.4804 38.3490 -8.7321 -29.9842
# 3 17.7770 48.4804 81.6292 18.1511 -7.4871 -9.6208
# 4 11.0112 38.3490 18.1511 39.0629 -15.4205 -3.6826
# 5 -2.2490 -8.7321 -7.4871 -15.4205 37.8264 5.4323
# 6 -16.4637 -29.9842 -9.6208 -3.6826 5.4323 35.9399
#
#
#
# Elastic Compliance Matrix: (Units=1/GPa)
#
#
# Indices 1 2 3 4 5 6 
#
# 1 0.020720 0.001987 -0.003344 -0.006500 -0.003064 0.010052
# 2 0.001987 0.012906 -0.004706 -0.011703 -0.004016 0.009826
# 3 -0.003344 -0.004706 0.016052 -0.001439 0.001527 -0.001539
# 4 -0.006500 -0.011703 -0.001439 0.045103 0.016596 -0.011013
# 5 -0.003064 -0.004016 0.001527 0.016596 0.033502 -0.007709
# 6 0.010052 0.009826 -0.001539 -0.011013 -0.007709 0.040251
#
#
# Mechanical properties :
#
#
# Convention : Reuss Voigt Hill
#
# Bulk Modulus (GPa) = 26.62849 51.07501 38.85175
# Shear Modulus (GPa) = 25.88300 36.15977 31.02139
#
# Velocity S-wave (km/s) = 3.24150 3.83135 3.54870
# Velocity P-wave (km/s) = 4.98194 6.34873 5.70641
#
# Compressibility (1/GPa) = 0.03755376
#
# Stress axis : x y z
#
# Youngs Moduli (GPa) = 48.26320 77.48040 62.29673
#
# Poissons Ratio (x) = -0.15398 0.20830
# Poissons Ratio (y) = -0.09591 0.29317
# Poissons Ratio (z) = 0.16137 0.36462
#
# Static dielectric constant tensor:
#      x y z
#    x 1.904800 -0.011640 -0.007910 
#    y -0.011640 1.319550 0.574420 
#    z -0.007910 0.574420 1.396170 
# 
# From -- ./inp_files/471884.got.cif
#   From: 2010.05.17/outbox.cif.g08.bks.cpg/sg2_236_cif.got.tgz:471884.got - 2010.06.03 11:33:40.
