data_PCOD9039592
_publ_section_title
;
Structure prediction by ZEFSAII (Michael W. Deem and Ramdas Pophale) SiO2 
 PCOD9039592
Probable space group: P -1
;
_chemical_formula_sum "Si O2"
_cell_formula_units_Z 16
_cell_length_a 9.269489
_cell_length_b 10.511034
_cell_length_c 13.132444
_cell_angle_alpha 146.678284
_cell_angle_beta 107.407468
_cell_angle_gamma 78.592978
_cell_volume 667.364512
_symmetry_space_group_name_H-M "P -1"
_symmetry_group_IT_number 2
_symmetry_cell_setting 'triclinic'
loop_
_space_group_symop_operation_xyz
x,y,z
-x,-y,-z
loop_
_atom_site_type_symbol
_atom_site_label
_atom_site_fract_x
_atom_site_fract_y
_atom_site_fract_z
Si Si1 0.838167 0.415169 0.858648
Si Si2 0.537761 0.438080 0.735916
Si Si3 0.725650 0.078639 0.781893
Si Si4 0.453287 0.198453 0.197100
Si Si5 0.594316 0.069865 0.345779
Si Si6 0.153356 0.885239 0.963908
Si Si7 0.209901 0.393738 0.606125
Si Si8 0.926685 0.173406 0.524680
O O1 0.680171 0.538759 0.902079
O O2 0.876090 0.374625 0.721813
O O3 0.779328 0.186259 0.758050
O O4 0.000000 0.500000 0.000000
O O5 0.534998 0.582731 0.727367
O O6 0.574805 0.190825 0.533039
O O7 0.364285 0.417462 0.723868
O O8 0.552876 0.118348 0.802771
O O9 0.747114 0.801808 0.596323
O O10 0.830191 0.197395 0.971637
O O11 0.553243 0.208562 0.327264
O O12 0.500000 0.000000 0.000000
O O13 0.283451 0.097131 0.120276
O O14 0.772591 0.043562 0.358280
O O15 0.180295 0.659528 0.750226
O O16 0.000000 0.000000 0.000000
O O17 0.054562 0.280761 0.547335
O O18 0.000000 0.000000 0.500000
#
# Coordination Sequence:
#
# PCOD9039592 Si02
#       8
#     2   2   2   2   2   2   2   2
#     4  11  24  42  67  99 133 173 220 276 338 393
#     4  10  23  42  69  91 133 180 218 273 328 406
#     4  10  23  45  67  95 132 175 223 269 339 397
#     4  11  22  43  64  93 130 171 227 267 334 393
#     4   9  23  40  65  93 128 174 219 272 330 391
#     4  11  26  43  67  96 137 173 220 282 327 397
#     4  11  23  45  64 100 131 172 228 264 339 391
#     4  11  23  40  65  97 132 169 220 279 327 395
#
# _framework density 23.974903000000001
#
# number of rings (size 3 to 8) (size 9 to 14) (size 15 to 20)
#    0.000    1.500    2.500    1.125    7.000    4.000 
#    0.000    1.250    0.000    0.000    0.000    0.000 
#    0.000    0.000    0.000    0.000    0.000    0.000 
#
# Total GULP energy -89182.263379 kJ/mol
# GULP energy per Si atom -5573.891461 kJ/mol
# Density = 2.392034 g / cm^3
# Si number density = 23.974903 Si / 1000 Ang^3
#
#
#
# Elastic Constant Matrix: (Units=GPa)
#
#
# Indices 1 2 3 4 5 6 
#
# 1 191.2479 38.5489 39.2159 -11.4875 37.3494 -28.9180
# 2 38.5489 66.6711 18.6051 -6.0989 22.1635 -9.9967
# 3 39.2159 18.6051 81.5093 -7.7152 8.9243 -11.6489
# 4 -11.4875 -6.0989 -7.7152 27.4912 -1.3684 8.2500
# 5 37.3494 22.1635 8.9243 -1.3684 40.9422 -9.7678
# 6 -28.9180 -9.9967 -11.6489 8.2500 -9.7678 42.1830
#
#
#
# Elastic Compliance Matrix: (Units=1/GPa)
#
#
# Indices 1 2 3 4 5 6 
#
# 1 0.007404 -0.001588 -0.002184 0.001054 -0.004716 0.002798
# 2 -0.001588 0.019735 -0.002514 0.002452 -0.008498 0.000447
# 3 -0.002184 -0.002514 0.014242 0.002083 0.000699 0.001594
# 4 0.001054 0.002452 0.002083 0.039774 -0.002986 -0.006591
# 5 -0.004716 -0.008498 0.000699 -0.002986 0.033880 0.003375
# 6 0.002798 0.000447 0.001594 -0.006591 0.003375 0.028241
#
#
# Mechanical properties :
#
#
# Convention : Reuss Voigt Hill
#
# Bulk Modulus (GPa) = 34.71163 59.12977 46.92070
# Shear Modulus (GPa) = 30.22042 38.32718 34.27380
#
# Velocity S-wave (km/s) = 3.55421 4.00263 3.78507
# Velocity P-wave (km/s) = 5.59937 6.78809 6.22218
#
# Compressibility (1/GPa) = 0.02880879
#
# Stress axis : x y z
#
# Youngs Moduli (GPa) = 135.06033 50.67124 70.21683
#
# Poissons Ratio (x) = 0.08046 0.15334
# Poissons Ratio (y) = 0.21446 0.17655
# Poissons Ratio (z) = 0.29494 0.12740
#
# Static dielectric constant tensor:
#      x y z
#    x 2.031820 0.005680 0.071520 
#    y 0.005680 2.010430 0.166080 
#    z 0.071520 0.166080 2.250360 
# 
# From -- ./inp_files/242998.got.cif
#   From: 2010.05.17/outbox.cif.g08.bks.cpg/sg2_122_cif.got.tgz:242998.got - 2010.06.03 11:33:40.
