data_PCOD9039387
_publ_section_title
;
Structure prediction by ZEFSAII (Michael W. Deem and Ramdas Pophale) SiO2 
 PCOD9039387
Probable space group: P -1
;
_chemical_formula_sum "Si O2"
_cell_formula_units_Z 14
_cell_length_a 12.881340
_cell_length_b 8.564962
_cell_length_c 9.455910
_cell_angle_alpha 71.015818
_cell_angle_beta 132.945612
_cell_angle_gamma 119.158863
_cell_volume 666.848941
_symmetry_space_group_name_H-M "P -1"
_symmetry_group_IT_number 2
_symmetry_cell_setting 'triclinic'
loop_
_space_group_symop_operation_xyz
x,y,z
-x,-y,-z
loop_
_atom_site_type_symbol
_atom_site_label
_atom_site_fract_x
_atom_site_fract_y
_atom_site_fract_z
Si Si1 0.220165 0.477783 0.632131
Si Si2 0.957599 0.143501 0.832992
Si Si3 0.645800 0.119718 0.693297
Si Si4 0.649548 0.130684 0.019974
Si Si5 0.553808 0.432052 0.430877
Si Si6 0.121406 0.787106 0.553771
Si Si7 0.716006 0.552308 0.989300
O O1 0.315706 0.458512 0.592735
O O2 0.212392 0.673351 0.596422
O O3 0.042271 0.349441 0.502375
O O4 0.292563 0.435117 0.853607
O O5 0.806397 0.142310 0.768455
O O6 0.912668 0.101950 0.637872
O O7 0.106092 0.330983 0.918747
O O8 0.000000 0.000000 0.000000
O O9 0.628257 0.305533 0.605473
O O10 0.500000 0.000000 0.500000
O O11 0.642495 0.069459 0.869412
O O12 0.785065 0.121316 0.248030
O O13 0.669288 0.340803 0.974880
O O14 0.500000 0.000000 0.000000
O O15 0.500000 0.500000 0.500000
O O16 0.397336 0.366932 0.212365
#
# Coordination Sequence:
#
# PCOD9039387 Si02
#       7
#     2   2   2   2   2   2   2
#     4   9  19  38  69  94 133 176 223 281 344 410
#     4  11  23  45  71 101 138 180 232 287 349 417
#     4  12  26  44  69  98 141 188 228 288 356 403
#     4  11  24  42  66  97 138 181 233 283 338 411
#     4  12  23  41  65 105 138 175 230 286 340 410
#     4   9  19  41  66  98 127 179 231 278 343 410
#     4  10  23  42  68 102 135 180 234 277 346 417
#
# _framework density 20.994261000000002
#
# number of rings (size 3 to 8) (size 9 to 14) (size 15 to 20)
#    0.000    1.429    2.857    3.000    2.000    1.714 
#    5.143    0.714    0.000    0.000    0.000    0.000 
#    0.000    0.000    0.000    0.000    0.000    0.000 
#
# Total GULP energy -78081.065833 kJ/mol
# GULP energy per Si atom -5577.218988 kJ/mol
# Density = 2.094648 g / cm^3
# Si number density = 20.994261 Si / 1000 Ang^3
#
#
#
# Elastic Constant Matrix: (Units=GPa)
#
#
# Indices 1 2 3 4 5 6 
#
# 1 179.9546 46.7008 69.4936 3.3785 -8.8841 24.1150
# 2 46.7008 57.8173 37.9482 0.2973 -8.7479 18.4804
# 3 69.4936 37.9482 193.9161 -2.7372 -15.2366 14.7246
# 4 3.3785 0.2973 -2.7372 30.3790 -1.2489 4.2368
# 5 -8.8841 -8.7479 -15.2366 -1.2489 45.9565 -8.5767
# 6 24.1150 18.4804 14.7246 4.2368 -8.5767 24.8933
#
#
#
# Elastic Compliance Matrix: (Units=1/GPa)
#
#
# Indices 1 2 3 4 5 6 
#
# 1 0.007747 -0.004040 -0.001765 -0.000507 -0.000535 -0.003560
# 2 -0.004040 0.027113 -0.002648 0.002031 0.000811 -0.014714
# 3 -0.001765 -0.002648 0.006409 0.000826 0.001340 0.000206
# 4 -0.000507 0.002031 0.000826 0.034045 0.000134 -0.007254
# 5 -0.000535 0.000811 0.001340 0.000134 0.023609 0.007234
# 6 -0.003560 -0.014714 0.000206 -0.007254 0.007234 0.058149
#
#
# Mechanical properties :
#
#
# Convention : Reuss Voigt Hill
#
# Bulk Modulus (GPa) = 41.04562 82.21922 61.63242
# Shear Modulus (GPa) = 27.45775 38.74878 33.10326
#
# Velocity S-wave (km/s) = 3.62037 4.30080 3.97517
# Velocity P-wave (km/s) = 6.08847 7.99439 7.10562
#
# Compressibility (1/GPa) = 0.02436313
#
# Stress axis : x y z
#
# Youngs Moduli (GPa) = 129.08397 36.88332 156.03416
#
# Poissons Ratio (x) = 0.14900 0.27533
# Poissons Ratio (y) = 0.52145 0.41324
# Poissons Ratio (z) = 0.22778 0.09768
#
# Static dielectric constant tensor:
#      x y z
#    x 1.688560 -0.026880 0.003950 
#    y -0.026880 1.795560 0.038900 
#    z 0.003950 0.038900 1.777820 
# 
# From -- ./inp_files/243231.got.cif
#   From: 2010.05.17/outbox.cif.g08.bks.cpg/sg2_122_cif.got.tgz:243231.got - 2010.06.03 11:33:40.
