data_PCOD9039116
_publ_section_title
;
Structure prediction by ZEFSAII (Michael W. Deem and Ramdas Pophale) SiO2 
 PCOD9039116
Probable space group: P -1
;
_chemical_formula_sum "Si O2"
_cell_formula_units_Z 14
_cell_length_a 7.673973
_cell_length_b 8.747438
_cell_length_c 14.860078
_cell_angle_alpha 127.735730
_cell_angle_beta 86.855723
_cell_angle_gamma 120.391184
_cell_volume 631.244646
_symmetry_space_group_name_H-M "P -1"
_symmetry_group_IT_number 2
_symmetry_cell_setting 'triclinic'
loop_
_space_group_symop_operation_xyz
x,y,z
-x,-y,-z
loop_
_atom_site_type_symbol
_atom_site_label
_atom_site_fract_x
_atom_site_fract_y
_atom_site_fract_z
Si Si1 0.515176 0.848563 0.018899
Si Si2 0.404503 0.041579 0.604717
Si Si3 0.750323 0.582834 0.024145
Si Si4 0.714334 0.597654 0.836765
Si Si5 0.561523 0.157771 0.279152
Si Si6 0.925557 0.648647 0.507157
Si Si7 0.136441 0.117674 0.242066
O O1 0.284676 0.619965 0.982051
O O2 0.635627 0.751911 0.932375
O O3 0.500000 0.000000 0.000000
O O4 0.628015 0.025640 0.164911
O O5 0.451127 0.941510 0.656219
O O6 0.144045 0.882312 0.543812
O O7 0.500000 0.000000 0.500000
O O8 0.520421 0.324380 0.717066
O O9 0.500000 0.500000 0.000000
O O10 0.817063 0.576707 0.917639
O O11 0.914509 0.849717 0.152409
O O12 0.850823 0.739052 0.795398
O O13 0.734568 0.447427 0.376024
O O14 0.334581 0.096884 0.230997
O O15 0.841630 0.736283 0.617804
O O16 0.000000 0.500000 0.500000
#
# Coordination Sequence:
#
# PCOD9039116 Si02
#       7
#     2   2   2   2   2   2   2
#     4  11  22  44  67  99 143 174 224 280 345 400
#     4  11  24  49  71 100 132 183 236 282 339 412
#     4  10  23  42  66  94 136 178 226 275 330 407
#     4  11  22  41  71  99 134 183 231 273 337 413
#     4  11  24  45  66 101 142 177 225 287 341 402
#     4  10  23  42  71  93 136 180 229 284 335 405
#     4  12  24  44  69 103 136 181 229 287 344 396
#
# _framework density 22.178405000000001
#
# number of rings (size 3 to 8) (size 9 to 14) (size 15 to 20)
#    0.000    1.143    2.857    4.286    6.000    0.571 
#    5.143    1.429    0.000    0.000    0.000    0.000 
#    0.000    0.000    0.000    0.000    0.000    0.000 
#
# Total GULP energy -78239.676354 kJ/mol
# GULP energy per Si atom -5588.548311 kJ/mol
# Density = 2.212793 g / cm^3
# Si number density = 22.178405 Si / 1000 Ang^3
#
#
#
# Elastic Constant Matrix: (Units=GPa)
#
#
# Indices 1 2 3 4 5 6 
#
# 1 73.1602 16.6574 30.8977 8.1412 -2.0058 6.5473
# 2 16.6574 149.4364 46.3483 6.3328 2.9546 2.6762
# 3 30.8977 46.3483 166.9835 23.6694 -20.0779 17.8631
# 4 8.1412 6.3328 23.6694 51.1660 9.9268 0.9949
# 5 -2.0058 2.9546 -20.0779 9.9268 37.4072 -3.1558
# 6 6.5473 2.6762 17.8631 0.9949 -3.1558 18.9679
#
#
#
# Elastic Compliance Matrix: (Units=1/GPa)
#
#
# Indices 1 2 3 4 5 6 
#
# 1 0.015165 -0.000943 -0.002048 -0.001261 -0.000141 -0.003130
# 2 -0.000943 0.007523 -0.002372 0.000683 -0.002004 0.001129
# 3 -0.002048 -0.002372 0.009007 -0.004508 0.005579 -0.006276
# 4 -0.001261 0.000683 -0.004508 0.023373 -0.008581 0.001930
# 5 -0.000141 -0.002004 0.005579 -0.008581 0.032230 0.000890
# 6 -0.003130 0.001129 -0.006276 0.001930 0.000890 0.059600
#
#
# Mechanical properties :
#
#
# Convention : Reuss Voigt Hill
#
# Bulk Modulus (GPa) = 47.68901 64.15412 55.92156
# Shear Modulus (GPa) = 30.37435 41.22000 35.79717
#
# Velocity S-wave (km/s) = 3.70475 4.31578 4.02189
# Velocity P-wave (km/s) = 6.31264 7.33647 6.84373
#
# Compressibility (1/GPa) = 0.02096919
#
# Stress axis : x y z
#
# Youngs Moduli (GPa) = 65.94264 132.92330 111.02408
#
# Poissons Ratio (x) = 0.12535 0.22733
# Poissons Ratio (y) = 0.06219 0.26337
# Poissons Ratio (z) = 0.13502 0.31532
#
# Static dielectric constant tensor:
#      x y z
#    x 1.830970 0.014200 0.017060 
#    y 0.014200 1.833930 -0.003100 
#    z 0.017060 -0.003100 1.840870 
# 
# From -- ./inp_files/493891.got.cif
#   From: 2010.05.17/outbox.cif.g08.bks.cpg/sg2_247_cif.got.tgz:493891.got - 2010.06.03 11:33:40.
