data_PCOD9039929
_publ_section_title
;
Structure prediction by ZEFSAII (Michael W. Deem and Ramdas Pophale) SiO2 
 PCOD9039929
Probable space group: P -1
;
_chemical_formula_sum "Si O2"
_cell_formula_units_Z 10
_cell_length_a 9.214201
_cell_length_b 8.275579
_cell_length_c 11.865145
_cell_angle_alpha 52.168611
_cell_angle_beta 140.919982
_cell_angle_gamma 109.831870
_cell_volume 433.130566
_symmetry_space_group_name_H-M "P -1"
_symmetry_group_IT_number 2
_symmetry_cell_setting 'triclinic'
loop_
_space_group_symop_operation_xyz
x,y,z
-x,-y,-z
loop_
_atom_site_type_symbol
_atom_site_label
_atom_site_fract_x
_atom_site_fract_y
_atom_site_fract_z
Si Si1 0.425062 0.452105 0.318329
Si Si2 0.632035 0.027674 0.181637
Si Si3 0.275127 0.870303 0.188595
Si Si4 0.911744 0.575083 0.538243
Si Si5 0.705133 0.476194 0.038669
O O1 0.261643 0.662390 0.193729
O O2 0.533490 0.243033 0.549203
O O3 0.661035 0.528084 0.412032
O O4 0.339757 0.414092 0.157607
O O5 0.732973 0.228547 0.138086
O O6 0.427585 0.014155 0.156016
O O7 0.859200 0.825407 0.416857
O O8 0.500000 0.000000 0.000000
O O9 0.000000 0.000000 0.000000
O O10 0.000000 0.500000 0.500000
O O11 0.082543 0.472525 0.786402
O O12 0.500000 0.500000 0.000000
#
# Coordination Sequence:
#
# PCOD9039929 Si02
#       5
#     2   2   2   2   2
#     4  10  23  44  65 101 135 175 228 275 336 408
#     4  11  22  43  67 101 131 174 232 275 328 410
#     4  10  23  42  72  94 139 182 215 280 346 393
#     4  11  22  40  71  97 134 175 222 284 336 389
#     4  12  23  40  71  99 134 177 229 276 336 397
#
# _framework density 23.087726
#
# number of rings (size 3 to 8) (size 9 to 14) (size 15 to 20)
#    0.000    1.200    6.000    0.600    5.600    0.000 
#    3.600   10.000    0.000    0.000    0.000    0.000 
#    0.000    0.000    0.000    0.000    0.000    0.000 
#
# Total GULP energy -55744.892884 kJ/mol
# GULP energy per Si atom -5574.489288 kJ/mol
# Density = 2.303518 g / cm^3
# Si number density = 23.087726 Si / 1000 Ang^3
#
#
#
# Elastic Constant Matrix: (Units=GPa)
#
#
# Indices 1 2 3 4 5 6 
#
# 1 136.5264 19.7236 66.6603 -4.1013 -3.0338 -19.9263
# 2 19.7236 38.3174 37.4059 10.6547 -4.7443 -12.4036
# 3 66.6603 37.4059 153.3830 18.9098 -23.6116 -33.0780
# 4 -4.1013 10.6547 18.9098 47.7244 -9.1169 -15.7833
# 5 -3.0338 -4.7443 -23.6116 -9.1169 52.9056 -0.7099
# 6 -19.9263 -12.4036 -33.0780 -15.7833 -0.7099 32.2185
#
#
#
# Elastic Compliance Matrix: (Units=1/GPa)
#
#
# Indices 1 2 3 4 5 6 
#
# 1 0.009995 -0.001411 -0.003771 0.003753 -0.000541 0.003594
# 2 -0.001411 0.035884 -0.006899 -0.004279 -0.000629 0.003749
# 3 -0.003771 -0.006899 0.012216 -0.000237 0.004678 0.007542
# 4 0.003753 -0.004279 -0.000237 0.027931 0.004730 0.014218
# 5 -0.000541 -0.000629 0.004678 0.004730 0.021811 0.007023
# 6 0.003594 0.003749 0.007542 0.014218 0.007023 0.049567
#
#
# Mechanical properties :
#
#
# Convention : Reuss Voigt Hill
#
# Bulk Modulus (GPa) = 29.46831 63.97849 46.72340
# Shear Modulus (GPa) = 25.92337 40.19885 33.06111
#
# Velocity S-wave (km/s) = 3.35449 4.17722 3.78825
# Velocity P-wave (km/s) = 5.27207 7.14400 6.27820
#
# Compressibility (1/GPa) = 0.03393476
#
# Stress axis : x y z
#
# Youngs Moduli (GPa) = 100.05324 27.86727 81.85761
#
# Poissons Ratio (x) = 0.03932 0.30865
# Poissons Ratio (y) = 0.14119 0.56471
# Poissons Ratio (z) = 0.37726 0.19225
#
# Static dielectric constant tensor:
#      x y z
#    x 5.938640 -1.535280 -0.365760 
#    y -1.535280 2.525920 0.091970 
#    z -0.365760 0.091970 1.919080 
# 
# From -- ./inp_files/145231.got.cif
#   From: 2010.05.17/outbox.cif.g08.bks.cpg/sg2_73_cif.got.tgz:145231.got - 2010.06.03 11:33:40.
