data_PCOD9039029
_publ_section_title
;
Structure prediction by ZEFSAII (Michael W. Deem and Ramdas Pophale) SiO2 
 PCOD9039029
Probable space group: P -1
;
_chemical_formula_sum "Si O2"
_cell_formula_units_Z 16
_cell_length_a 8.837768
_cell_length_b 8.576271
_cell_length_c 13.904838
_cell_angle_alpha 41.735532
_cell_angle_beta 85.982043
_cell_angle_gamma 75.625323
_cell_volume 668.690999
_symmetry_space_group_name_H-M "P -1"
_symmetry_group_IT_number 2
_symmetry_cell_setting 'triclinic'
loop_
_space_group_symop_operation_xyz
x,y,z
-x,-y,-z
loop_
_atom_site_type_symbol
_atom_site_label
_atom_site_fract_x
_atom_site_fract_y
_atom_site_fract_z
Si Si1 0.911619 0.427475 0.785204
Si Si2 0.235881 0.039359 0.515202
Si Si3 0.451320 0.319536 0.693079
Si Si4 0.655133 0.169046 0.914109
Si Si5 0.860382 0.739871 0.967195
Si Si6 0.190475 0.134419 0.779651
Si Si7 0.481659 0.845019 0.431190
Si Si8 0.112651 0.781928 0.793718
O O1 0.884798 0.694620 0.620601
O O2 0.742492 0.378109 0.819149
O O3 0.996141 0.373266 0.909748
O O4 0.027285 0.231654 0.799490
O O5 0.378910 0.067514 0.565883
O O6 0.323491 0.951386 0.451053
O O7 0.147774 0.858143 0.650062
O O8 0.483884 0.264234 0.830281
O O9 0.266974 0.355527 0.659948
O O10 0.516593 0.551492 0.571652
O O11 0.531787 0.117816 0.700371
O O12 0.748715 0.967840 0.924309
O O13 0.682824 0.047904 0.072194
O O14 0.796181 0.505998 0.061603
O O15 0.939341 0.806821 0.836275
O O16 0.168259 0.978511 0.763019
#
# Coordination Sequence:
#
# PCOD9039029 Si02
#       8
#     2   2   2   2   2   2   2   2
#     4  11  22  43  69  96 134 173 218 273 329 386
#     4  11  24  44  66  97 132 180 212 276 328 389
#     4  11  23  44  67  95 128 178 219 272 323 395
#     4  11  21  42  68  96 128 176 219 270 330 390
#     4  10  23  42  65  97 134 172 218 275 323 391
#     4  11  22  42  66 100 131 172 222 272 322 394
#     4  10  24  43  65  91 138 171 221 265 333 389
#     4  11  22  41  66  94 139 169 217 268 331 380
#
# _framework density 23.927346
#
# number of rings (size 3 to 8) (size 9 to 14) (size 15 to 20)
#    0.000    1.250    5.000    1.125    3.500    3.000 
#    4.500    0.625    0.000    0.000    0.000    0.000 
#    0.000    0.000    0.000    0.000    0.000    0.000 
#
# Total GULP energy -89332.314227 kJ/mol
# GULP energy per Si atom -5583.269639 kJ/mol
# Density = 2.387289 g / cm^3
# Si number density = 23.927346 Si / 1000 Ang^3
#
#
#
# Elastic Constant Matrix: (Units=GPa)
#
#
# Indices 1 2 3 4 5 6 
#
# 1 65.1277 2.0105 20.0119 7.8628 -20.2667 13.2414
# 2 2.0105 84.8039 -3.1835 15.3180 -0.6260 0.1475
# 3 20.0119 -3.1835 75.3305 12.3902 -19.8563 -8.3914
# 4 7.8628 15.3180 12.3902 24.0699 4.7969 -7.8882
# 5 -20.2667 -0.6260 -19.8563 4.7969 41.9333 8.1106
# 6 13.2414 0.1475 -8.3914 -7.8882 8.1106 16.8821
#
#
#
# Elastic Compliance Matrix: (Units=1/GPa)
#
#
# Indices 1 2 3 4 5 6 
#
# 1 0.091513 0.019946 0.000861 -0.116897 0.091177 -0.169948
# 2 0.019946 0.018956 0.003677 -0.040068 0.024886 -0.044660
# 3 0.000861 0.003677 0.018474 -0.016096 0.011990 -0.004806
# 4 -0.116897 -0.040068 -0.016096 0.225620 -0.140199 0.256813
# 5 0.091177 0.024886 0.011990 -0.140199 0.127214 -0.192397
# 6 -0.169948 -0.044660 -0.004806 0.256813 -0.192397 0.402961
#
#
# Mechanical properties :
#
#
# Convention : Reuss Voigt Hill
#
# Bulk Modulus (GPa) = 5.62074 29.21554 17.41814
# Shear Modulus (GPa) = 5.58615 30.33859 17.96237
#
# Velocity S-wave (km/s) = 1.52961 3.56469 2.74287
# Velocity P-wave (km/s) = 2.33961 5.40178 4.16251
#
# Compressibility (1/GPa) = 0.17791259
#
# Stress axis : x y z
#
# Youngs Moduli (GPa) = 10.92746 52.75420 54.13072
#
# Poissons Ratio (x) = -1.05226 -0.04663
# Poissons Ratio (y) = -0.21796 -0.19905
# Poissons Ratio (z) = -0.00941 -0.19399
#
# Static dielectric constant tensor:
#      x y z
#    x 1.950560 -0.010700 -0.041650 
#    y -0.010700 1.904470 0.016640 
#    z -0.041650 0.016640 2.041220 
# 
# From -- ./inp_files/263149.got.cif
#   From: 2010.05.17/outbox.cif.g08.bks.cpg/sg2_132_cif.got.tgz:263149.got - 2010.06.03 11:33:40.
