data_PCOD9039468
_publ_section_title
;
Structure prediction by ZEFSAII (Michael W. Deem and Ramdas Pophale) SiO2 
 PCOD9039468
Probable space group: P -1
;
_chemical_formula_sum "Si O2"
_cell_formula_units_Z 16
_cell_length_a 5.381230
_cell_length_b 9.105915
_cell_length_c 18.847187
_cell_angle_alpha 50.622321
_cell_angle_beta 63.861248
_cell_angle_gamma 81.781220
_cell_volume 628.335489
_symmetry_space_group_name_H-M "P -1"
_symmetry_group_IT_number 2
_symmetry_cell_setting 'triclinic'
loop_
_space_group_symop_operation_xyz
x,y,z
-x,-y,-z
loop_
_atom_site_type_symbol
_atom_site_label
_atom_site_fract_x
_atom_site_fract_y
_atom_site_fract_z
Si Si1 0.456417 0.960456 0.817778
Si Si2 0.432440 0.806983 0.021997
Si Si3 0.904919 0.743851 0.190645
Si Si4 0.335027 0.116203 0.580683
Si Si5 0.942967 0.314697 0.654661
Si Si6 0.663872 0.463438 0.063824
Si Si7 0.375850 0.395853 0.365195
Si Si8 0.830251 0.910466 0.618676
O O1 0.422982 0.764797 0.835694
O O2 0.182508 0.051612 0.841718
O O3 0.693716 0.144078 0.711207
O O4 0.525891 0.881381 0.909607
O O5 0.579165 0.626310 0.075209
O O6 0.098641 0.742418 0.098169
O O7 0.500000 0.000000 0.000000
O O8 0.628577 0.577425 0.270801
O O9 0.063528 0.698683 0.255273
O O10 0.454283 0.235938 0.458310
O O11 0.225307 0.262397 0.603939
O O12 0.566607 0.018537 0.618580
O O13 0.060833 0.957844 0.637509
O O14 0.877373 0.526556 0.586162
O O15 0.500000 0.500000 0.000000
O O16 0.000000 0.500000 0.000000
O O17 0.281594 0.306443 0.328177
O O18 0.000000 0.000000 0.500000
#
# Coordination Sequence:
#
# PCOD9039468 Si02
#       8
#     2   2   2   2   2   2   2   2
#     4  10  23  44  64  94 137 172 225 277 331 402
#     4  11  21  43  71  96 130 179 220 276 339 393
#     4  11  24  40  69  99 136 175 230 279 339 397
#     4  11  25  44  72  97 136 186 221 276 348 399
#     4  11  25  42  65 101 135 180 224 279 334 404
#     4  10  23  42  68  97 127 172 219 271 330 396
#     4  10  24  43  67  98 137 173 229 284 330 407
#     4  10  23  45  71  99 133 180 228 280 339 403
#
# _framework density 25.464103000000001
#
# number of rings (size 3 to 8) (size 9 to 14) (size 15 to 20)
#    0.000    1.500    1.250    3.000   10.500    2.500 
#    0.000    0.000    0.000    0.000    0.000    0.000 
#    0.000    0.000    0.000    0.000    0.000    0.000 
#
# Total GULP energy -89490.419049 kJ/mol
# GULP energy per Si atom -5593.151191 kJ/mol
# Density = 2.540615 g / cm^3
# Si number density = 25.464103 Si / 1000 Ang^3
#
#
#
# Elastic Constant Matrix: (Units=GPa)
#
#
# Indices 1 2 3 4 5 6 
#
# 1 126.4794 52.8392 20.4969 -13.9946 -9.9024 -11.0412
# 2 52.8392 178.8886 31.5883 -26.3393 -8.4784 -23.2955
# 3 20.4969 31.5883 49.9512 -16.4983 1.8028 0.9596
# 4 -13.9946 -26.3393 -16.4983 43.1132 -4.6304 2.3175
# 5 -9.9024 -8.4784 1.8028 -4.6304 28.9096 5.1257
# 6 -11.0412 -23.2955 0.9596 2.3175 5.1257 51.2634
#
#
#
# Elastic Compliance Matrix: (Units=1/GPa)
#
#
# Indices 1 2 3 4 5 6 
#
# 1 0.009555 -0.001968 -0.002384 0.001251 0.002892 0.000863
# 2 -0.001968 0.007591 -0.003178 0.002816 0.001707 0.002787
# 3 -0.002384 -0.003178 0.025420 0.006961 -0.001763 -0.002572
# 4 0.001251 0.002816 0.006961 0.028596 0.005475 -0.000421
# 5 0.002892 0.001707 -0.001763 0.005475 0.037524 -0.002568
# 6 0.000863 0.002787 -0.002572 -0.000421 -0.002568 0.021283
#
#
# Mechanical properties :
#
#
# Convention : Reuss Voigt Hill
#
# Bulk Modulus (GPa) = 36.35550 62.79645 49.57598
# Shear Modulus (GPa) = 32.42598 41.35023 36.88811
#
# Velocity S-wave (km/s) = 3.57234 4.03409 3.81022
# Velocity P-wave (km/s) = 5.59676 6.81270 6.23444
#
# Compressibility (1/GPa) = 0.02750616
#
# Stress axis : x y z
#
# Youngs Moduli (GPa) = 104.65716 131.73509 39.33959
#
# Poissons Ratio (x) = 0.25921 0.09379
# Poissons Ratio (y) = 0.20593 0.12502
# Poissons Ratio (z) = 0.24952 0.41865
#
# Static dielectric constant tensor:
#      x y z
#    x 2.007720 -0.029750 -0.050650 
#    y -0.029750 2.114660 -0.024060 
#    z -0.050650 -0.024060 2.041670 
# 
# From -- ./inp_files/51652.got.cif
#   From: 2010.05.17/outbox.cif.g08.bks.cpg/sg2_26_cif.got.tgz:51652.got - 2010.06.03 11:33:40.
