data_PCOD9039962
_publ_section_title
;
Structure prediction by ZEFSAII (Michael W. Deem and Ramdas Pophale) SiO2 
 PCOD9039962
Probable space group: P -1
;
_chemical_formula_sum "Si O2"
_cell_formula_units_Z 13
_cell_length_a 6.540400
_cell_length_b 14.268193
_cell_length_c 8.069571
_cell_angle_alpha 42.415075
_cell_angle_beta 107.793521
_cell_angle_gamma 94.776956
_cell_volume 471.605800
_symmetry_space_group_name_H-M "P -1"
_symmetry_group_IT_number 2
_symmetry_cell_setting 'triclinic'
loop_
_space_group_symop_operation_xyz
x,y,z
-x,-y,-z
loop_
_atom_site_type_symbol
_atom_site_label
_atom_site_fract_x
_atom_site_fract_y
_atom_site_fract_z
Si Si1 0.829772 0.677554 0.612275
Si Si2 0.154726 0.529995 0.645570
Si Si3 0.500000 0.000000 0.500000
Si Si4 0.424617 0.270570 0.204234
Si Si5 0.180180 0.821468 0.127962
Si Si6 0.309340 0.074359 0.001995
Si Si7 0.993295 0.163385 0.273877
O O1 0.641928 0.666979 0.712591
O O2 0.988695 0.753526 0.661625
O O3 0.992836 0.542666 0.748510
O O4 0.722778 0.779156 0.302835
O O5 0.220299 0.678361 0.433318
O O6 0.000000 0.500000 0.500000
O O7 0.360910 0.400460 0.895086
O O8 0.624026 0.141855 0.388781
O O9 0.517947 0.957903 0.764711
O O10 0.249423 0.164713 0.268105
O O11 0.316794 0.938126 0.061161
O O12 0.171429 0.773629 0.996900
O O13 0.929728 0.900276 0.002031
O O14 0.000000 0.000000 0.500000
#
# Coordination Sequence:
#
# PCOD9039962 Si02
#       7
#     2   2   1   2   2   2   2
#     4   9  19  32  55  82 108 140 190 237 270 321
#     4  11  18  32  55  84 114 146 184 237 279 318
#     4  12  22  38  54  80 120 152 180 232 276 354
#     4  10  21  33  52  82 113 148 184 221 285 332
#     4  10  18  33  55  82 108 141 193 231 267 326
#     4  10  19  33  55  80 107 147 185 229 278 318
#     4  10  17  33  55  86 110 135 186 240 277 310
#
# _framework density 27.565394000000001
#
# number of rings (size 3 to 8) (size 9 to 14) (size 15 to 20)
#    0.923    0.923    4.615    1.385    0.000    0.615 
#    0.000    0.769    0.000    0.000    0.000    5.385 
#    0.000    0.000    0.000    0.000    0.000    0.000 
#
# Total GULP energy -72564.162739 kJ/mol
# GULP energy per Si atom -5581.858672 kJ/mol
# Density = 2.750265 g / cm^3
# Si number density = 27.565394 Si / 1000 Ang^3
#
#
#
# Elastic Constant Matrix: (Units=GPa)
#
#
# Indices 1 2 3 4 5 6 
#
# 1 32.6832 24.7949 22.4619 4.3268 19.2918 12.3496
# 2 24.7949 131.5121 39.7247 19.1838 6.8954 -19.3230
# 3 22.4619 39.7247 181.4802 -1.2577 -2.8264 -2.5623
# 4 4.3268 19.1838 -1.2577 60.4719 -5.5294 -3.1112
# 5 19.2918 6.8954 -2.8264 -5.5294 28.9375 -4.2256
# 6 12.3496 -19.3230 -2.5623 -3.1112 -4.2256 50.7468
#
#
#
# Elastic Compliance Matrix: (Units=1/GPa)
#
#
# Indices 1 2 3 4 5 6 
#
# 1 0.133690 -0.021161 -0.014212 -0.014466 -0.095561 -0.050154
# 2 -0.021161 0.012592 0.000208 -0.000762 0.012582 0.010956
# 3 -0.014212 0.000208 0.007488 0.002402 0.011346 0.005008
# 4 -0.014466 -0.000762 0.002402 0.019497 0.014628 0.005765
# 5 -0.095561 0.012582 0.011346 0.014628 0.104754 0.038239
# 6 -0.050154 0.010956 0.005008 0.005765 0.038239 0.039873
#
#
# Mechanical properties :
#
#
# Convention : Reuss Voigt Hill
#
# Bulk Modulus (GPa) = 11.98455 57.73761 34.86108
# Shear Modulus (GPa) = 12.01815 45.27749 28.64782
#
# Velocity S-wave (km/s) = 2.09029 4.05723 3.22726
# Velocity P-wave (km/s) = 3.19106 6.55281 5.15375
#
# Compressibility (1/GPa) = 0.08344076
#
# Stress axis : x y z
#
# Youngs Moduli (GPa) = 7.47997 79.41621 133.55256
#
# Poissons Ratio (x) = 1.68055 1.89799
# Poissons Ratio (y) = 0.15829 -0.02781
# Poissons Ratio (z) = 0.10630 -0.01654
#
# Static dielectric constant tensor:
#      x y z
#    x 5.026700 -1.954090 1.964680 
#    y -1.954090 3.485850 -1.458200 
#    z 1.964680 -1.458200 3.689120 
# 
# From -- ./inp_files/264327.got.cif
#   From: 2010.05.17/outbox.cif.g08.bks.cpg/sg2_133_cif.got.tgz:264327.got - 2010.06.03 11:33:40.
