data_PCOD9039033
_publ_section_title
;
Structure prediction by ZEFSAII (Michael W. Deem and Ramdas Pophale) SiO2 
 PCOD9039033
Probable space group: P -1
;
_chemical_formula_sum "Si O2"
_cell_formula_units_Z 14
_cell_length_a 19.973304
_cell_length_b 5.173041
_cell_length_c 5.400991
_cell_angle_alpha 97.939003
_cell_angle_beta 95.071834
_cell_angle_gamma 74.817508
_cell_volume 532.608601
_symmetry_space_group_name_H-M "P -1"
_symmetry_group_IT_number 2
_symmetry_cell_setting 'triclinic'
loop_
_space_group_symop_operation_xyz
x,y,z
-x,-y,-z
loop_
_atom_site_type_symbol
_atom_site_label
_atom_site_fract_x
_atom_site_fract_y
_atom_site_fract_z
Si Si1 0.419807 0.101222 0.424586
Si Si2 0.646347 0.337589 0.778866
Si Si3 0.303876 0.274439 0.775825
Si Si4 0.089647 0.036789 0.288296
Si Si5 0.217886 0.683754 0.411112
Si Si6 0.176283 0.294634 0.971500
Si Si7 0.043242 0.632621 0.839111
O O1 0.399172 0.410873 0.365306
O O2 0.371910 0.094878 0.647004
O O3 0.500000 0.000000 0.500000
O O4 0.394686 0.888597 0.210005
O O5 0.718096 0.199791 0.638671
O O6 0.667993 0.506482 0.030543
O O7 0.251664 0.451829 0.582004
O O8 0.251130 0.126517 0.877492
O O9 0.014479 0.227235 0.362544
O O10 0.142769 0.871121 0.487594
O O11 0.139675 0.176185 0.164966
O O12 0.067168 0.848329 0.048232
O O13 0.198904 0.542511 0.139081
O O14 0.114542 0.413034 0.770921
O O15 0.000000 0.500000 0.000000
#
# Coordination Sequence:
#
# PCOD9039033 Si02
#       7
#     2   2   2   2   2   2   2
#     4  11  25  47  71 102 137 175 222 275 333 403
#     4  10  24  43  69 100 138 173 225 271 335 401
#     4  10  23  42  65  97 135 178 215 279 333 394
#     4   9  16  30  59  84 120 171 212 272 327 384
#     4   9  20  36  56  90 127 168 218 269 326 391
#     4   9  18  36  56  89 125 165 222 271 330 393
#     4   8  15  30  54  84 121 166 210 269 336 376
#
# _framework density 26.285720000000001
#
# number of rings (size 3 to 8) (size 9 to 14) (size 15 to 20)
#    0.000    2.571    0.000    0.429    6.000    3.429 
#   10.286    0.714    0.000   29.143    0.000    0.000 
#    0.000    0.000    0.000    0.000    0.000    0.000 
#
# Total GULP energy -78239.457709 kJ/mol
# GULP energy per Si atom -5588.532693 kJ/mol
# Density = 2.622589 g / cm^3
# Si number density = 26.285720 Si / 1000 Ang^3
#
#
#
# Elastic Constant Matrix: (Units=GPa)
#
#
# Indices 1 2 3 4 5 6 
#
# 1 198.6558 48.5135 41.8706 4.0898 22.1637 -23.8761
# 2 48.5135 81.2450 11.1291 3.6135 4.6804 -9.6410
# 3 41.8706 11.1291 52.2363 0.5412 7.5530 -18.5907
# 4 4.0898 3.6135 0.5412 44.0834 0.8985 3.1187
# 5 22.1637 4.6804 7.5530 0.8985 32.9631 -1.9732
# 6 -23.8761 -9.6410 -18.5907 3.1187 -1.9732 53.2940
#
#
#
# Elastic Compliance Matrix: (Units=1/GPa)
#
#
# Indices 1 2 3 4 5 6 
#
# 1 0.007272 -0.003428 -0.004233 -0.000348 -0.003360 0.001057
# 2 -0.003428 0.014513 0.000034 -0.000962 0.000333 0.001170
# 3 -0.004233 0.000034 0.025350 -0.000356 -0.002546 0.006879
# 4 -0.000348 -0.000962 -0.000356 0.022933 -0.000281 -0.001807
# 5 -0.003360 0.000333 -0.002546 -0.000281 0.033075 -0.001092
# 6 0.001057 0.001170 0.006879 -0.001807 -0.001092 0.021914
#
#
# Mechanical properties :
#
#
# Convention : Reuss Voigt Hill
#
# Bulk Modulus (GPa) = 31.36679 59.46260 45.41470
# Shear Modulus (GPa) = 33.12605 41.44304 37.28455
#
# Velocity S-wave (km/s) = 3.55382 3.97500 3.77030
# Velocity P-wave (km/s) = 5.36642 6.61349 6.02232
#
# Compressibility (1/GPa) = 0.03188085
#
# Stress axis : x y z
#
# Youngs Moduli (GPa) = 137.50709 68.90252 39.44834
#
# Poissons Ratio (x) = 0.23621 0.16699
# Poissons Ratio (y) = 0.47139 -0.00134
# Poissons Ratio (z) = 0.58208 -0.00235
#
# Static dielectric constant tensor:
#      x y z
#    x 2.045430 -0.055010 -0.055870 
#    y -0.055010 2.207700 -0.009100 
#    z -0.055870 -0.009100 2.117070 
# 
# From -- ./inp_files/7727.got.cif
#   From: 2010.05.17/outbox.cif.g08.bks.cpg/sg2_4_cif.got.tgz:7727.got - 2010.06.03 11:33:40.
