data_PCOD9039865
_publ_section_title
;
Structure prediction by ZEFSAII (Michael W. Deem and Ramdas Pophale) SiO2 
 PCOD9039865
Probable space group: P -1
;
_chemical_formula_sum "Si O2"
_cell_formula_units_Z 16
_cell_length_a 11.700385
_cell_length_b 12.632592
_cell_length_c 8.542963
_cell_angle_alpha 61.709832
_cell_angle_beta 124.552989
_cell_angle_gamma 75.950879
_cell_volume 649.119119
_symmetry_space_group_name_H-M "P -1"
_symmetry_group_IT_number 2
_symmetry_cell_setting 'triclinic'
loop_
_space_group_symop_operation_xyz
x,y,z
-x,-y,-z
loop_
_atom_site_type_symbol
_atom_site_label
_atom_site_fract_x
_atom_site_fract_y
_atom_site_fract_z
Si Si1 0.252629 0.563568 0.036609
Si Si2 0.920197 0.165183 0.503598
Si Si3 0.279108 0.783804 0.095169
Si Si4 0.783257 0.689024 0.241592
Si Si5 0.686823 0.952376 0.750435
Si Si6 0.889641 0.277973 0.750130
Si Si7 0.461697 0.734155 0.763207
Si Si8 0.301963 0.382169 0.484840
O O1 0.073341 0.732313 0.688783
O O2 0.325757 0.629804 0.152819
O O3 0.409434 0.438679 0.112697
O O4 0.216022 0.472698 0.185417
O O5 0.923631 0.223877 0.635863
O O6 0.714222 0.217984 0.309299
O O7 0.098439 0.966558 0.757344
O O8 0.201299 0.783752 0.199823
O O9 0.466873 0.752534 0.267229
O O10 0.761213 0.692405 0.409543
O O11 0.000000 0.500000 0.500000
O O12 0.614858 0.711889 0.008332
O O13 0.733123 0.851746 0.018191
O O14 0.627742 0.123932 0.539841
O O15 0.500000 0.000000 0.500000
O O16 0.904594 0.813429 0.943216
O O17 0.755141 0.473449 0.544044
#
# Coordination Sequence:
#
# PCOD9039865 Si02
#       8
#     2   2   2   2   2   2   2   2
#     4  11  24  39  61  98 141 169 206 271 350 387
#     4  12  23  39  69 107 134 174 216 272 338 409
#     4  11  23  40  65 101 140 173 209 278 354 392
#     4  11  23  45  73  92 125 184 238 268 317 391
#     4  10  23  42  71  98 125 174 238 273 309 380
#     4  11  21  41  73  99 136 173 226 267 333 406
#     4  11  23  43  69 100 134 172 228 275 321 403
#     4  11  23  42  65  96 138 176 213 279 334 393
#
# _framework density 24.648790000000002
#
# number of rings (size 3 to 8) (size 9 to 14) (size 15 to 20)
#    0.000    1.000    2.500    5.625    1.750    0.000 
#    2.250    1.250    0.000    0.000    0.000    0.000 
#    0.000    0.000    0.000    0.000    0.000    0.000 
#
# Total GULP energy -89399.390117 kJ/mol
# GULP energy per Si atom -5587.461882 kJ/mol
# Density = 2.459269 g / cm^3
# Si number density = 24.648790 Si / 1000 Ang^3
#
#
#
# Elastic Constant Matrix: (Units=GPa)
#
#
# Indices 1 2 3 4 5 6 
#
# 1 140.3689 7.8880 63.0616 8.7514 -11.3296 2.9111
# 2 7.8880 39.7520 16.6070 4.5073 3.2425 -4.5313
# 3 63.0616 16.6070 130.4252 -12.4655 -16.5384 13.4435
# 4 8.7514 4.5073 -12.4655 27.3272 8.9347 -3.6257
# 5 -11.3296 3.2425 -16.5384 8.9347 61.8823 -1.6787
# 6 2.9111 -4.5313 13.4435 -3.6257 -1.6787 16.4671
#
#
#
# Elastic Compliance Matrix: (Units=1/GPa)
#
#
# Indices 1 2 3 4 5 6 
#
# 1 0.010023 0.001174 -0.005625 -0.006108 0.001204 0.001921
# 2 0.001174 0.029749 -0.006370 -0.006034 -0.001859 0.011661
# 3 -0.005625 -0.006370 0.013064 0.007025 0.001517 -0.009722
# 4 -0.006108 -0.006034 0.007025 0.044892 -0.005324 0.003026
# 5 0.001204 -0.001859 0.001517 -0.005324 0.017615 -0.001340
# 6 0.001921 0.011661 -0.009722 0.003026 -0.001340 0.072063
#
#
# Mechanical properties :
#
#
# Convention : Reuss Voigt Hill
#
# Bulk Modulus (GPa) = 32.05639 53.96214 43.00927
# Shear Modulus (GPa) = 22.78460 36.00130 29.39295
#
# Velocity S-wave (km/s) = 3.04364 3.82589 3.45696
# Velocity P-wave (km/s) = 5.03837 6.43867 5.78108
#
# Compressibility (1/GPa) = 0.03119503
#
# Stress axis : x y z
#
# Youngs Moduli (GPa) = 99.76689 33.61442 76.54593
#
# Poissons Ratio (x) = -0.03948 0.43057
# Poissons Ratio (y) = -0.11716 0.48761
# Poissons Ratio (z) = 0.56119 0.21413
#
# Static dielectric constant tensor:
#      x y z
#    x 1.980940 -0.016230 -0.033810 
#    y -0.016230 1.947610 0.037210 
#    z -0.033810 0.037210 1.995010 
# 
# From -- ./inp_files/272222.got.cif
#   From: 2010.05.17/outbox.cif.g08.bks.cpg/sg2_137_cif.got.tgz:272222.got - 2010.06.03 11:33:40.
