data_PCOD9039198
_publ_section_title
;
Structure prediction by ZEFSAII (Michael W. Deem and Ramdas Pophale) SiO2 
 PCOD9039198
Probable space group: P -1
;
_chemical_formula_sum "Si O2"
_cell_formula_units_Z 16
_cell_length_a 19.155511
_cell_length_b 5.104178
_cell_length_c 7.313912
_cell_angle_alpha 63.745766
_cell_angle_beta 78.259437
_cell_angle_gamma 82.054586
_cell_volume 626.969194
_symmetry_space_group_name_H-M "P -1"
_symmetry_group_IT_number 2
_symmetry_cell_setting 'triclinic'
loop_
_space_group_symop_operation_xyz
x,y,z
-x,-y,-z
loop_
_atom_site_type_symbol
_atom_site_label
_atom_site_fract_x
_atom_site_fract_y
_atom_site_fract_z
Si Si1 0.878054 0.479460 0.072726
Si Si2 0.439365 0.991679 0.881981
Si Si3 0.266821 0.529669 0.999408
Si Si4 0.805414 0.326377 0.657013
Si Si5 0.943193 0.867978 0.205176
Si Si6 0.598291 0.332404 0.334655
Si Si7 0.665287 0.084570 0.723954
Si Si8 0.097577 0.200138 0.391380
O O1 0.919713 0.598165 0.837250
O O2 0.912416 0.602121 0.196312
O O3 0.842546 0.629071 0.578644
O O4 0.883934 0.132717 0.177676
O O5 0.421892 0.326322 0.725914
O O6 0.451977 0.797227 0.754425
O O7 0.374432 0.869800 0.074421
O O8 0.500000 0.000000 0.000000
O O9 0.324607 0.677591 0.802005
O O10 0.203918 0.415496 0.941827
O O11 0.303680 0.251576 0.174413
O O12 0.223651 0.733938 0.104610
O O13 0.732041 0.290396 0.597080
O O14 0.864141 0.091027 0.622700
O O15 0.964718 0.819043 0.420116
O O16 0.000000 0.000000 0.000000
O O17 0.609308 0.151642 0.570439
#
# Coordination Sequence:
#
# PCOD9039198 Si02
#       8
#     2   2   2   2   2   2   2   2
#     4  11  24  43  70  96 130 178 213 271 338 388
#     4  11  26  47  66  97 138 179 230 267 311 396
#     4  10  23  42  67 100 139 163 219 273 339 401
#     4  11  20  41  64  96 135 163 205 277 326 386
#     4  12  28  46  66  97 132 175 228 268 318 401
#     4  11  26  40  71  99 129 186 208 276 342 371
#     4  11  24  43  67 101 140 165 220 278 328 396
#     4  11  25  42  67  97 128 172 215 269 329 391
#
# _framework density 25.519594999999999
#
# number of rings (size 3 to 8) (size 9 to 14) (size 15 to 20)
#    0.000    1.000    3.750    3.000    5.250    2.000 
#    0.000    0.000    0.000    0.000    0.000    0.000 
#    0.000    0.000    0.000    0.000    0.000    0.000 
#
# Total GULP energy -89540.533963 kJ/mol
# GULP energy per Si atom -5596.283373 kJ/mol
# Density = 2.546151 g / cm^3
# Si number density = 25.519595 Si / 1000 Ang^3
#
#
#
# Elastic Constant Matrix: (Units=GPa)
#
#
# Indices 1 2 3 4 5 6 
#
# 1 50.5431 9.6329 3.4536 -1.8089 9.0169 8.9496
# 2 9.6329 79.0678 23.8146 -4.8384 -6.6433 18.5815
# 3 3.4536 23.8146 122.0784 2.7643 2.0660 3.0758
# 4 -1.8089 -4.8384 2.7643 35.0382 -1.2080 8.3717
# 5 9.0169 -6.6433 2.0660 -1.2080 36.3022 6.0110
# 6 8.9496 18.5815 3.0758 8.3717 6.0110 25.6934
#
#
#
# Elastic Compliance Matrix: (Units=1/GPa)
#
#
# Indices 1 2 3 4 5 6 
#
# 1 0.022090 -0.001395 -0.000167 0.002318 -0.004605 -0.006343
# 2 -0.001395 0.018777 -0.003482 0.006998 0.006960 -0.016585
# 3 -0.000167 -0.003482 0.008881 -0.001837 -0.001573 0.002480
# 4 0.002318 0.006998 -0.001837 0.034230 0.004921 -0.017953
# 5 -0.004605 0.006960 -0.001573 0.004921 0.032270 -0.012394
# 6 -0.006343 -0.016585 0.002480 -0.017953 -0.012394 0.061577
#
#
# Mechanical properties :
#
#
# Convention : Reuss Voigt Hill
#
# Bulk Modulus (GPa) = 25.21495 36.16571 30.69033
# Shear Modulus (GPa) = 24.85914 33.72598 29.29256
#
# Velocity S-wave (km/s) = 3.12447 3.63929 3.39166
# Velocity P-wave (km/s) = 4.78733 5.64462 5.23356
#
# Compressibility (1/GPa) = 0.03965901
#
# Stress axis : x y z
#
# Youngs Moduli (GPa) = 45.26904 53.25762 112.59821
#
# Poissons Ratio (x) = 0.07430 0.01886
# Poissons Ratio (y) = 0.06316 0.39204
# Poissons Ratio (z) = 0.00758 0.18543
#
# Static dielectric constant tensor:
#      x y z
#    x 2.128560 0.035490 -0.020570 
#    y 0.035490 1.974400 -0.015110 
#    z -0.020570 -0.015110 2.085370 
# 
# From -- ./inp_files/125744.got.cif
#   From: 2010.05.17/outbox.cif.g08.bks.cpg/sg2_63_cif.got.tgz:125744.got - 2010.06.03 11:33:40.
