data_PCOD9039944
_publ_section_title
;
Structure prediction by ZEFSAII (Michael W. Deem and Ramdas Pophale) SiO2 
 PCOD9039944
Probable space group: P -1
;
_chemical_formula_sum "Si O2"
_cell_formula_units_Z 14
_cell_length_a 12.842688
_cell_length_b 5.453722
_cell_length_c 14.271578
_cell_angle_alpha 75.889273
_cell_angle_beta 141.302689
_cell_angle_gamma 117.531781
_cell_volume 541.702469
_symmetry_space_group_name_H-M "P -1"
_symmetry_group_IT_number 2
_symmetry_cell_setting 'triclinic'
loop_
_space_group_symop_operation_xyz
x,y,z
-x,-y,-z
loop_
_atom_site_type_symbol
_atom_site_label
_atom_site_fract_x
_atom_site_fract_y
_atom_site_fract_z
Si Si1 0.061646 0.265451 0.641123
Si Si2 0.815040 0.581583 0.976959
Si Si3 0.735231 0.424206 0.400436
Si Si4 0.760057 0.734184 0.563101
Si Si5 0.608926 0.341183 0.043173
Si Si6 0.784796 0.970908 0.757308
Si Si7 0.426161 0.889745 0.269683
O O1 0.184704 0.292327 0.632197
O O2 0.197959 0.528585 0.775290
O O3 0.877499 0.299799 0.486558
O O4 0.968512 0.973411 0.659189
O O5 0.795249 0.805560 0.872953
O O6 0.761863 0.314585 0.896404
O O7 0.668452 0.453906 0.969447
O O8 0.022567 0.746839 0.147088
O O9 0.743901 0.474233 0.513062
O O10 0.531027 0.183708 0.259871
O O11 0.748340 0.765037 0.662840
O O12 0.582146 0.776122 0.396016
O O13 0.500000 0.500000 0.000000
O O14 0.500000 0.000000 0.000000
O O15 0.628575 0.062703 0.669295
#
# Coordination Sequence:
#
# PCOD9039944 Si02
#       7
#     2   2   2   2   2   2   2
#     4  10  23  44  67 106 138 191 240 305 376 433
#     4  11  26  47  71 102 147 197 240 307 372 446
#     4  10  23  42  72  98 143 180 245 309 370 439
#     4  11  23  43  72 102 143 189 245 305 369 443
#     4  12  29  48  80 111 150 195 252 311 378 454
#     4  11  25  46  68 104 147 193 249 295 376 443
#     4  11  24  42  69 102 141 192 245 303 368 435
#
# _framework density 25.844445
#
# number of rings (size 3 to 8) (size 9 to 14) (size 15 to 20)
#    0.000    1.143    1.429    3.000    8.000    4.571 
#    2.571    0.000    0.000    0.000    0.000    0.000 
#    0.000    0.000    0.000    0.000    0.000    0.000 
#
# Total GULP energy -78282.544941 kJ/mol
# GULP energy per Si atom -5591.610353 kJ/mol
# Density = 2.578562 g / cm^3
# Si number density = 25.844445 Si / 1000 Ang^3
#
#
#
# Elastic Constant Matrix: (Units=GPa)
#
#
# Indices 1 2 3 4 5 6 
#
# 1 154.4446 49.1919 11.6840 9.1526 -16.4728 15.6986
# 2 49.1919 90.6791 37.1281 35.1576 7.3500 16.9997
# 3 11.6840 37.1281 79.2530 25.8189 -11.7169 8.7134
# 4 9.1526 35.1576 25.8189 46.1969 9.1804 1.0723
# 5 -16.4728 7.3500 -11.7169 9.1804 41.8254 4.0989
# 6 15.6986 16.9997 8.7134 1.0723 4.0989 32.1865
#
#
#
# Elastic Compliance Matrix: (Units=1/GPa)
#
#
# Indices 1 2 3 4 5 6 
#
# 1 0.009027 -0.006005 0.002452 0.000385 0.005468 -0.002604
# 2 -0.006005 0.022942 -0.006020 -0.011789 -0.004854 -0.006548
# 3 0.002452 -0.006020 0.019952 -0.008942 0.010006 -0.004394
# 4 0.000385 -0.011789 -0.008942 0.037186 -0.009267 0.008401
# 5 0.005468 -0.004854 0.010006 -0.009267 0.032402 -0.006630
# 6 -0.002604 -0.006548 -0.004394 0.008401 -0.006630 0.037551
#
#
# Mechanical properties :
#
#
# Convention : Reuss Voigt Hill
#
# Bulk Modulus (GPa) = 30.51138 57.82052 44.16595
# Shear Modulus (GPa) = 26.43651 39.13326 32.78489
#
# Velocity S-wave (km/s) = 3.20176 3.89547 3.56553
# Velocity P-wave (km/s) = 5.04973 6.53101 5.83754
#
# Compressibility (1/GPa) = 0.03277466
#
# Stress axis : x y z
#
# Youngs Moduli (GPa) = 110.77675 43.58780 50.12072
#
# Poissons Ratio (x) = 0.26176 -0.12288
# Poissons Ratio (y) = 0.66526 0.30170
# Poissons Ratio (z) = -0.27159 0.26238
#
# Static dielectric constant tensor:
#      x y z
#    x 2.050560 0.033140 -0.033350 
#    y 0.033140 2.189020 -0.032690 
#    z -0.033350 -0.032690 2.043600 
# 
# From -- ./inp_files/27727.got.cif
#   From: 2010.05.17/outbox.cif.g08.bks.cpg/sg2_14_cif.got.tgz:27727.got - 2010.06.03 11:33:40.
