data_PCOD9039948
_publ_section_title
;
Structure prediction by ZEFSAII (Michael W. Deem and Ramdas Pophale) SiO2 
 PCOD9039948
Probable space group: P -1
;
_chemical_formula_sum "Si O2"
_cell_formula_units_Z 12
_cell_length_a 22.919075
_cell_length_b 5.731433
_cell_length_c 11.997129
_cell_angle_alpha 107.640992
_cell_angle_beta 158.194389
_cell_angle_gamma 85.755342
_cell_volume 452.142088
_symmetry_space_group_name_H-M "P -1"
_symmetry_group_IT_number 2
_symmetry_cell_setting 'triclinic'
loop_
_space_group_symop_operation_xyz
x,y,z
-x,-y,-z
loop_
_atom_site_type_symbol
_atom_site_label
_atom_site_fract_x
_atom_site_fract_y
_atom_site_fract_z
Si Si1 0.201104 0.099210 0.231482
Si Si2 0.502669 0.038933 0.643226
Si Si3 0.263770 0.329223 0.620855
Si Si4 0.298384 0.923616 0.797974
Si Si5 0.892173 0.715363 0.107542
Si Si6 0.145075 0.404007 0.735304
O O1 0.311402 0.973558 0.351208
O O2 0.283687 0.244240 0.518433
O O3 0.226994 0.338198 0.221407
O O4 0.969736 0.861508 0.800317
O O5 0.500000 0.000000 0.500000
O O6 0.592899 0.921148 0.869561
O O7 0.679532 0.399499 0.009284
O O8 0.345520 0.684138 0.815271
O O9 0.326893 0.163884 0.792224
O O10 0.069222 0.704043 0.388270
O O11 0.780323 0.559870 0.000270
O O12 0.010065 0.065863 0.403978
O O13 0.000000 0.500000 0.500000
#
# Coordination Sequence:
#
# PCOD9039948 Si02
#       6
#     2   2   2   2   2   2
#     4  10  24  45  69 109 139 180 244 303 344 420
#     4  12  26  42  69 112 145 181 235 305 359 418
#     4  10  25  51  76  98 140 199 243 283 358 425
#     4  11  24  48  74 101 139 195 239 288 357 433
#     4  10  23  42  72  99 137 195 234 285 355 438
#     4  11  22  43  68  96 146 194 232 275 367 441
#
# _framework density 26.540329
#
# number of rings (size 3 to 8) (size 9 to 14) (size 15 to 20)
#    0.000    1.333    1.667    3.000    4.667    8.000 
#    3.000    0.000    0.000    0.000    0.000    0.000 
#    0.000    0.000    0.000    0.000    0.000    0.000 
#
# Total GULP energy -67139.203859 kJ/mol
# GULP energy per Si atom -5594.933655 kJ/mol
# Density = 2.647992 g / cm^3
# Si number density = 26.540329 Si / 1000 Ang^3
#
#
#
# Elastic Constant Matrix: (Units=GPa)
#
#
# Indices 1 2 3 4 5 6 
#
# 1 195.1577 83.3019 55.1123 -25.3820 -27.8971 15.9459
# 2 83.3019 151.2943 50.5812 -15.1889 -19.8568 6.3708
# 3 55.1123 50.5812 93.5056 -31.5596 -11.4446 18.3009
# 4 -25.3820 -15.1889 -31.5596 48.2796 20.9785 -5.8663
# 5 -27.8971 -19.8568 -11.4446 20.9785 73.0848 -6.3048
# 6 15.9459 6.3708 18.3009 -5.8663 -6.3048 46.9576
#
#
#
# Elastic Compliance Matrix: (Units=1/GPa)
#
#
# Indices 1 2 3 4 5 6 
#
# 1 0.007406 -0.003093 -0.002029 0.000895 0.001324 -0.001015
# 2 -0.003093 0.009620 -0.004032 -0.001685 0.001397 0.001294
# 3 -0.002029 -0.004032 0.018085 0.009892 -0.002299 -0.004885
# 4 0.000895 -0.001685 0.009892 0.030163 -0.007324 -0.001146
# 5 0.001324 0.001397 -0.002299 -0.007324 0.016444 0.001550
# 6 -0.001015 0.001294 -0.004885 -0.001146 0.001550 0.023434
#
#
# Mechanical properties :
#
#
# Convention : Reuss Voigt Hill
#
# Bulk Modulus (GPa) = 59.51183 90.88315 75.19749
# Shear Modulus (GPa) = 38.74161 50.39523 44.56842
#
# Velocity S-wave (km/s) = 3.82478 4.36227 4.10234
# Velocity P-wave (km/s) = 6.47897 7.72595 7.12978
#
# Compressibility (1/GPa) = 0.01680338
#
# Stress axis : x y z
#
# Youngs Moduli (GPa) = 135.02727 103.94736 55.29446
#
# Poissons Ratio (x) = 0.32149 0.11220
# Poissons Ratio (y) = 0.41762 0.22294
# Poissons Ratio (z) = 0.27398 0.41911
#
# Static dielectric constant tensor:
#      x y z
#    x 2.052780 -0.021920 -0.041440 
#    y -0.021920 2.146560 0.053330 
#    z -0.041440 0.053330 2.149810 
# 
# From -- ./inp_files/473448.got.cif
#   From: 2010.05.17/outbox.cif.g08.bks.cpg/sg2_237_cif.got.tgz:473448.got - 2010.06.03 11:33:40.
