data_PCOD9039796
_publ_section_title
;
Structure prediction by ZEFSAII (Michael W. Deem and Ramdas Pophale) SiO2 
 PCOD9039796
Probable space group: P -1
;
_chemical_formula_sum "Si O2"
_cell_formula_units_Z 12
_cell_length_a 11.959558
_cell_length_b 18.802497
_cell_length_c 14.579022
_cell_angle_alpha 30.118038
_cell_angle_beta 159.698923
_cell_angle_gamma 152.014961
_cell_volume 519.938628
_symmetry_space_group_name_H-M "P -1"
_symmetry_group_IT_number 2
_symmetry_cell_setting 'triclinic'
loop_
_space_group_symop_operation_xyz
x,y,z
-x,-y,-z
loop_
_atom_site_type_symbol
_atom_site_label
_atom_site_fract_x
_atom_site_fract_y
_atom_site_fract_z
Si Si1 0.722745 0.828100 0.007225
Si Si2 0.347496 0.471724 0.813087
Si Si3 0.174925 0.917916 0.415088
Si Si4 0.543271 0.356621 0.646599
Si Si5 0.760740 0.685538 0.730027
Si Si6 0.125831 0.005324 0.734469
O O1 0.736968 0.702416 0.088884
O O2 0.845634 0.805102 0.228013
O O3 0.342207 0.829469 0.707261
O O4 0.000000 0.000000 0.000000
O O5 0.621882 0.590456 0.822063
O O6 0.000000 0.500000 0.500000
O O7 0.500000 0.500000 0.000000
O O8 0.036129 0.022371 0.255056
O O9 0.500000 0.000000 0.500000
O O10 0.500000 0.500000 0.500000
O O11 0.532097 0.381473 0.500095
O O12 0.216571 0.186496 0.589175
O O13 0.869135 0.334103 0.972475
O O14 0.848107 0.867024 0.614165
O O15 0.500000 0.000000 0.000000
#
# Coordination Sequence:
#
# PCOD9039796 Si02
#       6
#     2   2   2   2   2   2
#     4  10  24  41  67  97 136 180 235 277 352 412
#     4  12  27  44  69 102 145 184 231 288 356 420
#     4  10  23  42  71 102 135 178 235 289 344 414
#     4  11  25  46  70 100 135 181 238 291 346 411
#     4  11  26  45  68 102 138 184 234 287 352 418
#     4  10  25  46  74 100 143 186 236 284 355 417
#
# _framework density 23.079647000000001
#
# number of rings (size 3 to 8) (size 9 to 14) (size 15 to 20)
#    0.000    1.333    0.000    3.000   14.000    5.333 
#    0.000    0.000    0.000    0.000    0.000    0.000 
#    0.000    0.000    0.000    0.000    0.000    0.000 
#
# Total GULP energy -66929.889881 kJ/mol
# GULP energy per Si atom -5577.490823 kJ/mol
# Density = 2.302712 g / cm^3
# Si number density = 23.079647 Si / 1000 Ang^3
#
#
#
# Elastic Constant Matrix: (Units=GPa)
#
#
# Indices 1 2 3 4 5 6 
#
# 1 109.3577 35.1052 39.7064 5.1642 14.2710 -23.8589
# 2 35.1052 131.8654 32.5140 -29.5886 5.6935 -33.5187
# 3 39.7064 32.5140 144.2750 11.7342 -1.3568 -30.5479
# 4 5.1642 -29.5886 11.7342 30.5968 -19.2022 -11.2404
# 5 14.2710 5.6935 -1.3568 -19.2022 43.2303 -0.7968
# 6 -23.8589 -33.5187 -30.5479 -11.2404 -0.7968 51.0811
#
#
#
# Elastic Compliance Matrix: (Units=1/GPa)
#
#
# Indices 1 2 3 4 5 6 
#
# 1 0.013687 -0.007660 -0.001469 -0.017667 -0.011469 -0.003579
# 2 -0.007660 0.026891 -0.002822 0.050968 0.021979 0.023938
# 3 -0.001469 -0.002822 0.008744 -0.006451 -0.001712 0.001245
# 4 -0.017667 0.050968 -0.006451 0.149290 0.066247 0.055219
# 5 -0.011469 0.021979 -0.001712 0.066247 0.053828 0.023459
# 6 -0.003579 0.023938 0.001245 0.055219 0.023459 0.046874
#
#
# Mechanical properties :
#
#
# Convention : Reuss Voigt Hill
#
# Bulk Modulus (GPa) = 39.34118 66.68325 53.01221
# Shear Modulus (GPa) = 15.07437 43.52647 29.30042
#
# Velocity S-wave (km/s) = 2.55844 4.34743 3.56692
# Velocity P-wave (km/s) = 5.08039 7.35905 6.32321
#
# Compressibility (1/GPa) = 0.02541866
#
# Stress axis : x y z
#
# Youngs Moduli (GPa) = 73.06274 37.18727 114.36817
#
# Poissons Ratio (x) = 0.28485 0.16803
# Poissons Ratio (y) = 0.55966 0.32277
# Poissons Ratio (z) = 0.10735 0.10495
#
# Static dielectric constant tensor:
#      x y z
#    x 1.952280 0.089640 0.100140 
#    y 0.089640 1.744150 -0.227840 
#    z 0.100140 -0.227840 1.277510 
# 
# From -- ./inp_files/23508.got.cif
#   From: 2010.05.17/outbox.cif.g08.bks.cpg/sg2_12_cif.got.tgz:23508.got - 2010.06.03 11:33:40.
