data_PCOD9039914
_publ_section_title
;
Structure prediction by ZEFSAII (Michael W. Deem and Ramdas Pophale) SiO2 
 PCOD9039914
Probable space group: P -1
;
_chemical_formula_sum "Si O2"
_cell_formula_units_Z 14
_cell_length_a 9.049727
_cell_length_b 9.356983
_cell_length_c 14.262041
_cell_angle_alpha 149.236039
_cell_angle_beta 71.470502
_cell_angle_gamma 111.729654
_cell_volume 573.837336
_symmetry_space_group_name_H-M "P -1"
_symmetry_group_IT_number 2
_symmetry_cell_setting 'triclinic'
loop_
_space_group_symop_operation_xyz
x,y,z
-x,-y,-z
loop_
_atom_site_type_symbol
_atom_site_label
_atom_site_fract_x
_atom_site_fract_y
_atom_site_fract_z
Si Si1 0.579288 0.726247 0.332071
Si Si2 0.300062 0.202505 0.125365
Si Si3 0.846292 0.602731 0.548210
Si Si4 0.932146 0.662230 0.903866
Si Si5 0.251268 0.565698 0.719787
Si Si6 0.105204 0.810823 0.132579
Si Si7 0.334741 0.515961 0.994404
O O1 0.443674 0.439800 0.189166
O O2 0.669106 0.668592 0.376555
O O3 0.689383 0.730451 0.219539
O O4 0.500000 0.000000 0.500000
O O5 0.265547 0.326774 0.304766
O O6 0.674322 0.121084 0.075266
O O7 0.149924 0.208807 0.091332
O O8 0.746068 0.410627 0.380028
O O9 0.000000 0.500000 0.500000
O O10 0.908570 0.904095 0.651645
O O11 0.786409 0.499901 0.903558
O O12 0.036166 0.864247 0.074320
O O13 0.935706 0.500009 0.252369
O O14 0.285932 0.772345 0.088848
O O15 0.000000 0.500000 0.000000
O O16 0.500000 0.500000 0.000000
#
# Coordination Sequence:
#
# PCOD9039914 Si02
#       7
#     2   2   2   2   2   2   2
#     4  12  29  49  71 111 149 190 251 304 367 439
#     4  12  25  49  73 107 152 192 243 300 372 437
#     4  12  25  44  75 110 149 187 250 306 356 440
#     4  11  21  44  77 104 140 195 241 296 366 430
#     4  12  26  48  78 107 146 197 245 301 370 439
#     4  10  23  42  72 106 143 192 244 295 368 431
#     4  11  23  45  72 101 146 198 236 302 370 429
#
# _framework density 24.397155999999999
#
# number of rings (size 3 to 8) (size 9 to 14) (size 15 to 20)
#    0.000    0.571    5.714    1.714    2.000    4.000 
#    0.000    3.571    0.000    0.000    0.000    0.000 
#    0.000    0.000    0.000    0.000    0.000    0.000 
#
# Total GULP energy -78057.073493 kJ/mol
# GULP energy per Si atom -5575.505250 kJ/mol
# Density = 2.434163 g / cm^3
# Si number density = 24.397156 Si / 1000 Ang^3
#
#
#
# Elastic Constant Matrix: (Units=GPa)
#
#
# Indices 1 2 3 4 5 6 
#
# 1 108.9000 41.5255 19.8855 17.0844 -7.0939 -34.3387
# 2 41.5255 128.5963 47.7794 -2.2551 -6.5526 -29.1654
# 3 19.8855 47.7794 128.4712 7.6858 -17.1511 -7.5722
# 4 17.0844 -2.2551 7.6858 54.5169 -16.7723 -7.4488
# 5 -7.0939 -6.5526 -17.1511 -16.7723 29.3747 5.6931
# 6 -34.3387 -29.1654 -7.5722 -7.4488 5.6931 58.1849
#
#
#
# Elastic Compliance Matrix: (Units=1/GPa)
#
#
# Indices 1 2 3 4 5 6 
#
# 1 0.012574 -0.002693 -0.000532 -0.003503 -0.000970 0.005648
# 2 -0.002693 0.010833 -0.003488 0.002404 0.000394 0.003656
# 3 -0.000532 -0.003488 0.009761 0.000027 0.005057 -0.001283
# 4 -0.003503 0.002404 0.000027 0.023674 0.013049 0.000895
# 5 -0.000970 0.000394 0.005057 0.013049 0.044770 -0.002427
# 6 0.005648 0.003656 -0.001283 0.000895 -0.002427 0.022538
#
#
# Mechanical properties :
#
#
# Convention : Reuss Voigt Hill
#
# Bulk Modulus (GPa) = 50.64869 64.92758 57.78814
# Shear Modulus (GPa) = 34.68463 45.53378 40.10920
#
# Velocity S-wave (km/s) = 3.77459 4.32482 4.05904
# Velocity P-wave (km/s) = 6.30887 7.18396 6.76059
#
# Compressibility (1/GPa) = 0.01974385
#
# Stress axis : x y z
#
# Youngs Moduli (GPa) = 79.52875 92.30910 102.44647
#
# Poissons Ratio (x) = 0.24855 0.05448
# Poissons Ratio (y) = 0.21414 0.35732
# Poissons Ratio (z) = 0.04230 0.32196
#
# Static dielectric constant tensor:
#      x y z
#    x 2.045060 0.116960 0.000950 
#    y 0.116960 2.160750 -0.014400 
#    z 0.000950 -0.014400 1.957580 
# 
# From -- ./inp_files/495841.got.cif
#   From: 2010.05.17/outbox.cif.g08.bks.cpg/sg2_248_cif.got.tgz:495841.got - 2010.06.03 11:33:40.
