data_PCOD9039765
_publ_section_title
;
Structure prediction by ZEFSAII (Michael W. Deem and Ramdas Pophale) SiO2 
 PCOD9039765
Probable space group: P -1
;
_chemical_formula_sum "Si O2"
_cell_formula_units_Z 14
_cell_length_a 8.521235
_cell_length_b 8.093292
_cell_length_c 23.597047
_cell_angle_alpha 46.923464
_cell_angle_beta 41.340722
_cell_angle_gamma 77.175870
_cell_volume 626.518190
_symmetry_space_group_name_H-M "P -1"
_symmetry_group_IT_number 2
_symmetry_cell_setting 'triclinic'
loop_
_space_group_symop_operation_xyz
x,y,z
-x,-y,-z
loop_
_atom_site_type_symbol
_atom_site_label
_atom_site_fract_x
_atom_site_fract_y
_atom_site_fract_z
Si Si1 0.540281 0.547369 0.859610
Si Si2 0.420665 0.931555 0.313450
Si Si3 0.241741 0.177158 0.664001
Si Si4 0.774043 0.585826 0.590573
Si Si5 0.208496 0.979782 0.594932
Si Si6 0.675406 0.804963 0.108186
Si Si7 0.612080 0.949854 0.922507
O O1 0.335213 0.313304 0.922715
O O2 0.492829 0.786211 0.807017
O O3 0.465109 0.360079 0.979736
O O4 0.896275 0.710478 0.717135
O O5 0.653075 0.938025 0.289174
O O6 0.311313 0.699465 0.348568
O O7 0.120362 0.796118 0.463896
O O8 0.500000 0.500000 0.500000
O O9 0.160029 0.998273 0.670303
O O10 0.962936 0.158762 0.767338
O O11 0.732683 0.749730 0.515556
O O12 0.548029 0.476919 0.728641
O O13 0.500000 0.000000 0.500000
O O14 0.548273 0.986414 0.095147
O O15 0.000000 0.000000 0.000000
O O16 0.500000 0.000000 0.000000
#
# Coordination Sequence:
#
# PCOD9039765 Si02
#       7
#     2   2   2   2   2   2   2
#     4  10  26  46  65 104 142 185 235 295 348 422
#     4  10  23  42  70  99 141 177 238 293 344 421
#     4  12  25  44  77 104 136 196 237 286 358 419
#     4  10  23  44  66 101 141 183 231 292 357 411
#     4  11  27  42  72 106 145 183 235 299 352 419
#     4  11  26  43  74  96 138 192 230 287 361 420
#     4  10  26  47  70 101 146 182 235 295 351 420
#
# _framework density 22.345718999999999
#
# number of rings (size 3 to 8) (size 9 to 14) (size 15 to 20)
#    0.000    1.429    1.429    0.857   18.000    2.286 
#    0.000    0.000    0.000    0.000    0.000    0.000 
#    0.000    0.000    0.000    0.000    0.000    0.000 
#
# Total GULP energy -78214.045867 kJ/mol
# GULP energy per Si atom -5586.717562 kJ/mol
# Density = 2.229486 g / cm^3
# Si number density = 22.345719 Si / 1000 Ang^3
#
#
#
# Elastic Constant Matrix: (Units=GPa)
#
#
# Indices 1 2 3 4 5 6 
#
# 1 140.6469 45.3589 46.1602 -7.9940 -18.0420 -25.4861
# 2 45.3589 66.8101 30.8678 -10.5192 -6.2421 -14.1056
# 3 46.1602 30.8678 109.1669 0.2584 -3.3872 -18.5063
# 4 -7.9940 -10.5192 0.2584 46.9799 -10.1258 9.5442
# 5 -18.0420 -6.2421 -3.3872 -10.1258 42.5393 -1.6725
# 6 -25.4861 -14.1056 -18.5063 9.5442 -1.6725 41.0998
#
#
#
# Elastic Compliance Matrix: (Units=1/GPa)
#
#
# Indices 1 2 3 4 5 6 
#
# 1 0.010719 -0.004856 -0.002380 0.000822 0.003992 0.003880
# 2 -0.004856 0.021065 -0.003557 0.003927 0.001753 0.001776
# 3 -0.002380 -0.003557 0.011654 -0.002086 -0.000982 0.002996
# 4 0.000822 0.003927 -0.002086 0.024627 0.006442 -0.004539
# 5 0.003992 0.001753 -0.000982 0.006442 0.027001 0.002238
# 6 0.003880 0.001776 0.002996 -0.004539 0.002238 0.029841
#
#
# Mechanical properties :
#
#
# Convention : Reuss Voigt Hill
#
# Bulk Modulus (GPa) = 45.75914 62.37752 54.06833
# Shear Modulus (GPa) = 32.51445 39.07293 35.79369
#
# Velocity S-wave (km/s) = 3.81867 4.18612 4.00661
# Velocity P-wave (km/s) = 6.32181 7.16520 6.75668
#
# Compressibility (1/GPa) = 0.02185356
#
# Stress axis : x y z
#
# Youngs Moduli (GPa) = 93.29078 47.47165 85.80383
#
# Poissons Ratio (x) = 0.23054 0.20418
# Poissons Ratio (y) = 0.45306 0.30518
# Poissons Ratio (z) = 0.22199 0.16884
#
# Static dielectric constant tensor:
#      x y z
#    x 1.828100 -0.012080 0.002730 
#    y -0.012080 1.914450 0.047280 
#    z 0.002730 0.047280 1.862910 
# 
# From -- ./inp_files/590298.got.cif
#   From: 2010.05.17/outbox.cif.g08.bks.cpg/sg2_296_cif.got.tgz:590298.got - 2010.06.03 11:33:40.
