data_PCOD9039648
_publ_section_title
;
Structure prediction by ZEFSAII (Michael W. Deem and Ramdas Pophale) SiO2 
 PCOD9039648
Probable space group: P -1
;
_chemical_formula_sum "Si O2"
_cell_formula_units_Z 13
_cell_length_a 5.119198
_cell_length_b 8.501189
_cell_length_c 12.282558
_cell_angle_alpha 110.104332
_cell_angle_beta 70.747448
_cell_angle_gamma 102.214560
_cell_volume 470.967797
_symmetry_space_group_name_H-M "P -1"
_symmetry_group_IT_number 2
_symmetry_cell_setting 'triclinic'
loop_
_space_group_symop_operation_xyz
x,y,z
-x,-y,-z
loop_
_atom_site_type_symbol
_atom_site_label
_atom_site_fract_x
_atom_site_fract_y
_atom_site_fract_z
Si Si1 0.912738 0.998175 0.637207
Si Si2 0.200409 0.572687 0.132408
Si Si3 0.000000 0.000000 0.000000
Si Si4 0.183174 0.674563 0.545427
Si Si5 0.254022 0.683432 0.780269
Si Si6 0.464090 0.252837 0.030511
Si Si7 0.457797 0.205688 0.687244
O O1 0.134099 0.137625 0.699345
O O2 0.603886 0.050093 0.683810
O O3 0.973802 0.816705 0.624157
O O4 0.000000 0.000000 0.500000
O O5 0.297702 0.396681 0.036774
O O6 0.414317 0.650362 0.213467
O O7 0.910699 0.499665 0.208728
O O8 0.231659 0.702727 0.057804
O O9 0.321493 0.075895 0.970468
O O10 0.932754 0.163924 0.128498
O O11 0.326799 0.665796 0.640602
O O12 0.400545 0.740314 0.435959
O O13 0.000000 0.500000 0.500000
O O14 0.501320 0.716636 0.839974
#
# Coordination Sequence:
#
# PCOD9039648 Si02
#       7
#     2   2   1   2   2   2   2
#     4  10  24  46  67  99 144 191 241 282 354 439
#     4  10  23  42  69  98 137 187 239 295 354 436
#     4  10  24  44  64 102 136 176 244 292 364 418
#     4  11  23  44  69 106 146 181 237 298 359 428
#     4  11  23  44  67 103 138 183 240 294 368 418
#     4  10  23  44  67  99 137 184 242 297 360 423
#     4  11  24  48  71 105 145 192 240 288 368 435
#
# _framework density 27.602736
#
# number of rings (size 3 to 8) (size 9 to 14) (size 15 to 20)
#    0.000    1.538    1.538    2.769    4.308    1.231 
#   16.615    7.692    0.000    0.000    0.000    0.000 
#    0.000    0.000    0.000    0.000    0.000    0.000 
#
# Total GULP energy -72526.858432 kJ/mol
# GULP energy per Si atom -5578.989110 kJ/mol
# Density = 2.753991 g / cm^3
# Si number density = 27.602736 Si / 1000 Ang^3
#
#
#
# Elastic Constant Matrix: (Units=GPa)
#
#
# Indices 1 2 3 4 5 6 
#
# 1 74.8869 38.2350 35.4115 -7.9334 25.3965 26.7723
# 2 38.2350 158.7658 65.0611 25.0212 23.4056 38.4015
# 3 35.4115 65.0611 185.2443 -7.8870 26.4987 30.3544
# 4 -7.9334 25.0212 -7.8870 47.6093 6.3899 1.8813
# 5 25.3965 23.4056 26.4987 6.3899 44.0929 17.9396
# 6 26.7723 38.4015 30.3544 1.8813 17.9396 35.1132
#
#
#
# Elastic Compliance Matrix: (Units=1/GPa)
#
#
# Indices 1 2 3 4 5 6 
#
# 1 0.021630 -0.002597 -0.000221 0.006378 -0.007897 -0.009768
# 2 -0.002597 0.010608 -0.002402 -0.006287 0.001454 -0.007951
# 3 -0.000221 -0.002402 0.007118 0.002810 -0.002342 -0.002312
# 4 0.006378 -0.006287 0.002810 0.026649 -0.006485 0.001468
# 5 -0.007897 0.001454 -0.002342 -0.006485 0.032868 -0.009990
# 6 -0.009768 -0.007951 -0.002312 0.001468 -0.009990 0.051645
#
#
# Mechanical properties :
#
#
# Convention : Reuss Voigt Hill
#
# Bulk Modulus (GPa) = 34.58378 77.36801 55.97590
# Shear Modulus (GPa) = 29.30912 44.04239 36.67576
#
# Velocity S-wave (km/s) = 3.26209 3.99881 3.64909
# Velocity P-wave (km/s) = 5.17152 7.02926 6.17070
#
# Compressibility (1/GPa) = 0.02891529
#
# Stress axis : x y z
#
# Youngs Moduli (GPa) = 46.23271 94.27020 140.49679
#
# Poissons Ratio (x) = 0.24481 0.03103
# Poissons Ratio (y) = 0.12006 0.33749
# Poissons Ratio (z) = 0.01021 0.22645
#
# Static dielectric constant tensor:
#      x y z
#    x 2.636660 -0.038060 -0.292910 
#    y -0.038060 2.214150 -0.055010 
#    z -0.292910 -0.055010 2.234610 
# 
# From -- ./inp_files/286545.got.cif
#   From: 2010.05.17/outbox.cif.g08.bks.cpg/sg2_144_cif.got.tgz:286545.got - 2010.06.03 11:33:40.
