data_PCOD9039655
_publ_section_title
;
Structure prediction by ZEFSAII (Michael W. Deem and Ramdas Pophale) SiO2 
 PCOD9039655
Probable space group: P -1
;
_chemical_formula_sum "Si O2"
_cell_formula_units_Z 16
_cell_length_a 10.232316
_cell_length_b 6.238679
_cell_length_c 13.870331
_cell_angle_alpha 132.549713
_cell_angle_beta 102.303472
_cell_angle_gamma 92.620916
_cell_volume 614.742863
_symmetry_space_group_name_H-M "P -1"
_symmetry_group_IT_number 2
_symmetry_cell_setting 'triclinic'
loop_
_space_group_symop_operation_xyz
x,y,z
-x,-y,-z
loop_
_atom_site_type_symbol
_atom_site_label
_atom_site_fract_x
_atom_site_fract_y
_atom_site_fract_z
Si Si1 0.029514 0.157886 0.656470
Si Si2 0.104872 0.098012 0.268372
Si Si3 0.444721 0.214100 0.680930
Si Si4 0.738772 0.350091 0.234718
Si Si5 0.794436 0.282694 0.437801
Si Si6 0.331986 0.289906 0.208014
Si Si7 0.818220 0.774152 0.030503
Si Si8 0.405550 0.721665 0.080190
O O1 0.117016 0.490804 0.748285
O O2 0.128524 0.966419 0.659598
O O3 0.000000 0.000000 0.500000
O O4 0.906117 0.101286 0.696261
O O5 0.105045 0.433710 0.407527
O O6 0.247172 0.176233 0.256363
O O7 0.977015 0.923782 0.128453
O O8 0.365084 0.472091 0.769543
O O9 0.553984 0.387878 0.671491
O O10 0.535630 0.170507 0.772275
O O11 0.323416 0.904896 0.565370
O O12 0.743112 0.401693 0.366960
O O13 0.725455 0.002748 0.112509
O O14 0.406464 0.023282 0.114434
O O15 0.221151 0.297662 0.108925
O O16 0.752476 0.478061 0.993279
O O17 0.500000 0.500000 0.000000
#
# Coordination Sequence:
#
# PCOD9039655 Si02
#       8
#     2   2   2   2   2   2   2   2
#     4  11  22  40  65 103 132 179 226 269 339 399
#     4  12  25  44  66 101 147 176 216 278 338 416
#     4  10  23  42  69  99 128 174 233 279 335 392
#     4  11  21  40  72 101 130 170 232 291 325 387
#     4  11  22  42  70 100 134 172 228 286 330 396
#     4  11  26  46  64  99 142 183 221 273 340 402
#     4  11  24  42  68  99 134 182 225 271 338 404
#     4  11  23  44  69  95 132 178 237 283 322 390
#
# _framework density 26.027144
#
# number of rings (size 3 to 8) (size 9 to 14) (size 15 to 20)
#    0.000    1.000    2.500    4.500    3.500    3.000 
#    9.000    2.500    0.000    0.000    0.000    0.000 
#    0.000    0.000    0.000    0.000    0.000    0.000 
#
# Total GULP energy -89454.548415 kJ/mol
# GULP energy per Si atom -5590.909276 kJ/mol
# Density = 2.596790 g / cm^3
# Si number density = 26.027144 Si / 1000 Ang^3
#
#
#
# Elastic Constant Matrix: (Units=GPa)
#
#
# Indices 1 2 3 4 5 6 
#
# 1 81.8676 54.0221 18.6333 1.0875 14.4528 36.4201
# 2 54.0221 155.6669 45.7275 15.7096 22.9950 36.5224
# 3 18.6333 45.7275 28.4192 20.2609 11.4661 14.8966
# 4 1.0875 15.7096 20.2609 50.4180 11.8840 15.5093
# 5 14.4528 22.9950 11.4661 11.8840 37.7797 7.8289
# 6 36.4201 36.5224 14.8966 15.5093 7.8289 68.5044
#
#
#
# Elastic Compliance Matrix: (Units=1/GPa)
#
#
# Indices 1 2 3 4 5 6 
#
# 1 0.020412 -0.002921 -0.007492 0.007178 -0.004189 -0.008812
# 2 -0.002921 0.014827 -0.024572 0.006485 -0.002024 -0.002246
# 3 -0.007492 -0.024572 0.103886 -0.033876 -0.003584 0.002572
# 4 0.007178 0.006485 -0.033876 0.034854 -0.005900 -0.007124
# 5 -0.004189 -0.002024 -0.003584 -0.005900 0.031879 0.001778
# 6 -0.008812 -0.002246 0.002572 -0.007124 0.001778 0.021330
#
#
# Mechanical properties :
#
#
# Convention : Reuss Voigt Hill
#
# Bulk Modulus (GPa) = 14.46028 55.85772 35.15900
# Shear Modulus (GPa) = 15.61482 41.17848 28.39665
#
# Velocity S-wave (km/s) = 2.45203 3.98192 3.30667
# Velocity P-wave (km/s) = 3.68572 6.53061 5.30252
#
# Compressibility (1/GPa) = 0.06915494
#
# Stress axis : x y z
#
# Youngs Moduli (GPa) = 48.99130 67.44364 9.62598
#
# Poissons Ratio (x) = 0.19702 0.07211
# Poissons Ratio (y) = 0.14311 0.23653
# Poissons Ratio (z) = 0.36702 1.65722
#
# Static dielectric constant tensor:
#      x y z
#    x 2.117970 0.059290 -0.025830 
#    y 0.059290 2.057930 -0.061100 
#    z -0.025830 -0.061100 2.058880 
# 
# From -- ./inp_files/428619.got.cif
#   From: 2010.05.17/outbox.cif.g08.bks.cpg/sg2_215_cif.got.tgz:428619.got - 2010.06.03 11:33:40.
