data_PCOD9039742
_publ_section_title
;
Structure prediction by ZEFSAII (Michael W. Deem and Ramdas Pophale) SiO2 
 PCOD9039742
Probable space group: P -1
;
_chemical_formula_sum "Si O2"
_cell_formula_units_Z 16
_cell_length_a 7.590546
_cell_length_b 15.622304
_cell_length_c 5.878710
_cell_angle_alpha 84.453943
_cell_angle_beta 69.765026
_cell_angle_gamma 83.479164
_cell_volume 648.620861
_symmetry_space_group_name_H-M "P -1"
_symmetry_group_IT_number 2
_symmetry_cell_setting 'triclinic'
loop_
_space_group_symop_operation_xyz
x,y,z
-x,-y,-z
loop_
_atom_site_type_symbol
_atom_site_label
_atom_site_fract_x
_atom_site_fract_y
_atom_site_fract_z
Si Si1 0.020794 0.100536 0.509992
Si Si2 0.531324 0.246655 0.273871
Si Si3 0.777437 0.486659 0.110271
Si Si4 0.748550 0.818142 0.957601
Si Si5 0.411088 0.089494 0.608560
Si Si6 0.209842 0.742688 0.225093
Si Si7 0.155687 0.568859 0.404839
Si Si8 0.606590 0.669733 0.287939
O O1 0.068129 0.148362 0.242375
O O2 0.206326 0.103668 0.581254
O O3 0.860686 0.161414 0.692302
O O4 0.000000 0.000000 0.500000
O O5 0.381191 0.218717 0.166287
O O6 0.540570 0.164242 0.456997
O O7 0.433391 0.329100 0.426379
O O8 0.728601 0.258733 0.065171
O O9 0.750928 0.439918 0.380979
O O10 0.669640 0.580050 0.170718
O O11 0.736896 0.450756 0.882837
O O12 0.000000 0.500000 0.000000
O O13 0.630313 0.898673 0.110107
O O14 0.759187 0.739285 0.150987
O O15 0.500000 0.000000 0.500000
O O16 0.077159 0.668985 0.379562
O O17 0.405436 0.707171 0.267507
O O18 0.000000 0.500000 0.500000
#
# Coordination Sequence:
#
# PCOD9039742 Si02
#       8
#     2   2   2   2   2   2   2   2
#     4  11  27  42  69 105 144 183 241 300 365 433
#     4   9  22  42  67  98 134 185 238 285 363 430
#     4  10  24  43  73 104 143 184 249 295 362 439
#     4   9  22  42  67  95 133 187 232 286 359 431
#     4  10  23  42  70  95 135 186 239 294 361 434
#     4  11  26  44  68 100 146 185 238 306 366 437
#     4  10  25  45  71 104 144 193 243 302 372 443
#     4  10  23  43  72 100 139 189 236 296 363 441
#
# _framework density 24.667722999999999
#
# number of rings (size 3 to 8) (size 9 to 14) (size 15 to 20)
#    0.000    2.000    0.000    0.000   15.750    8.500 
#    0.000    0.000    0.000    0.000    0.000    0.000 
#    0.000    0.000    0.000    0.000    0.000    0.000 
#
# Total GULP energy -89333.131910 kJ/mol
# GULP energy per Si atom -5583.320744 kJ/mol
# Density = 2.461158 g / cm^3
# Si number density = 24.667723 Si / 1000 Ang^3
#
#
#
# Elastic Constant Matrix: (Units=GPa)
#
#
# Indices 1 2 3 4 5 6 
#
# 1 75.5435 38.0573 24.3021 0.1532 1.7320 -6.4452
# 2 38.0573 141.5953 58.5950 22.9519 -2.7473 -1.4005
# 3 24.3021 58.5950 167.2798 23.0341 -1.7821 2.9247
# 4 0.1532 22.9519 23.0341 46.4636 11.5175 -9.9862
# 5 1.7320 -2.7473 -1.7821 11.5175 33.4274 1.1252
# 6 -6.4452 -1.4005 2.9247 -9.9862 1.1252 44.7391
#
#
#
# Elastic Compliance Matrix: (Units=1/GPa)
#
#
# Indices 1 2 3 4 5 6 
#
# 1 0.016326 -0.004502 -0.001483 0.004345 -0.002905 0.003351
# 2 -0.004502 0.009967 -0.002126 -0.004795 0.002636 -0.001334
# 3 -0.001483 -0.002126 0.007441 -0.003339 0.001501 -0.001550
# 4 0.004345 -0.004795 -0.003339 0.030007 -0.011395 0.007679
# 5 -0.002905 0.002636 0.001501 -0.011395 0.034418 -0.003843
# 6 0.003351 -0.001334 -0.001550 0.007679 -0.003843 0.024705
#
#
# Mechanical properties :
#
#
# Convention : Reuss Voigt Hill
#
# Bulk Modulus (GPa) = 57.09890 69.59194 63.34542
# Shear Modulus (GPa) = 34.50118 42.49030 38.49574
#
# Velocity S-wave (km/s) = 3.74389 4.15481 3.95469
# Velocity P-wave (km/s) = 6.47197 7.16168 6.82554
#
# Compressibility (1/GPa) = 0.01751347
#
# Stress axis : x y z
#
# Youngs Moduli (GPa) = 61.25151 100.32836 134.39321
#
# Poissons Ratio (x) = 0.45168 0.19927
# Poissons Ratio (y) = 0.27576 0.28566
# Poissons Ratio (z) = 0.09082 0.21326
#
# Static dielectric constant tensor:
#      x y z
#    x 2.004200 0.035330 0.057390 
#    y 0.035330 1.960290 -0.031890 
#    z 0.057390 -0.031890 2.130730 
# 
# From -- ./inp_files/37786.got.cif
#   From: 2010.05.17/outbox.cif.g08.bks.cpg/sg2_19_cif.got.tgz:37786.got - 2010.06.03 11:33:40.
