data_PCOD9039269
_publ_section_title
;
Structure prediction by ZEFSAII (Michael W. Deem and Ramdas Pophale) SiO2 
 PCOD9039269
Probable space group: P -1
;
_chemical_formula_sum "Si O2"
_cell_formula_units_Z 16
_cell_length_a 12.565737
_cell_length_b 10.883451
_cell_length_c 9.885117
_cell_angle_alpha 50.902215
_cell_angle_beta 84.933314
_cell_angle_gamma 121.551374
_cell_volume 692.491631
_symmetry_space_group_name_H-M "P -1"
_symmetry_group_IT_number 2
_symmetry_cell_setting 'triclinic'
loop_
_space_group_symop_operation_xyz
x,y,z
-x,-y,-z
loop_
_atom_site_type_symbol
_atom_site_label
_atom_site_fract_x
_atom_site_fract_y
_atom_site_fract_z
Si Si1 0.250187 0.110750 0.559085
Si Si2 0.063152 0.029731 0.292923
Si Si3 0.636084 0.549153 0.876131
Si Si4 0.176582 0.131647 0.929549
Si Si5 0.713749 0.056723 0.060390
Si Si6 0.512239 0.199407 0.352266
Si Si7 0.895769 0.519192 0.573076
Si Si8 0.632627 0.390779 0.512312
O O1 0.072537 0.986600 0.684288
O O2 0.363339 0.395377 0.320265
O O3 0.256680 0.996418 0.763238
O O4 0.335922 0.089410 0.452975
O O5 0.985890 0.769683 0.459037
O O6 0.182086 0.191558 0.291299
O O7 0.185557 0.187067 0.045560
O O8 0.500000 0.500000 0.000000
O O9 0.604434 0.350559 0.097386
O O10 0.202023 0.974136 0.028033
O O11 0.309131 0.362528 0.661147
O O12 0.000000 0.000000 0.000000
O O13 0.521127 0.834937 0.228579
O O14 0.789490 0.310162 0.843672
O O15 0.594581 0.328631 0.399562
O O16 0.500000 0.000000 0.500000
O O17 0.782243 0.461881 0.507109
O O18 0.000000 0.500000 0.500000
#
# Coordination Sequence:
#
# PCOD9039269 Si02
#       8
#     2   2   2   2   2   2   2   2
#     4  10  23  42  67  94 127 175 223 267 322 392
#     4  12  23  42  68  97 133 175 222 271 329 403
#     4  10  23  45  67  94 130 177 229 270 326 401
#     4  12  20  40  68  97 132 175 220 269 331 406
#     4  11  23  42  64 101 140 171 222 277 328 391
#     4  10  23  44  68  97 131 173 221 278 334 383
#     4  12  25  41  63 101 138 174 216 272 344 390
#     4  11  23  41  65  97 135 177 221 272 332 402
#
# _framework density 23.104970999999999
#
# number of rings (size 3 to 8) (size 9 to 14) (size 15 to 20)
#    0.000    1.000    5.000    1.125    0.000    5.000 
#    0.000    1.250    0.000    0.000    0.000    0.000 
#    0.000    0.000    0.000    0.000    0.000    0.000 
#
# Total GULP energy -89071.792606 kJ/mol
# GULP energy per Si atom -5566.987038 kJ/mol
# Density = 2.305238 g / cm^3
# Si number density = 23.104971 Si / 1000 Ang^3
#
#
#
# Elastic Constant Matrix: (Units=GPa)
#
#
# Indices 1 2 3 4 5 6 
#
# 1 118.4993 9.9252 43.7422 -24.8847 8.5797 -4.8231
# 2 9.9252 25.1365 19.1325 -3.4397 2.8313 -0.8773
# 3 43.7422 19.1325 180.7410 -6.5954 23.9464 -5.2703
# 4 -24.8847 -3.4397 -6.5954 46.2562 -0.5092 4.7985
# 5 8.5797 2.8313 23.9464 -0.5092 40.8056 2.7118
# 6 -4.8231 -0.8773 -5.2703 4.7985 2.7118 24.1601
#
#
#
# Elastic Compliance Matrix: (Units=1/GPa)
#
#
# Indices 1 2 3 4 5 6 
#
# 1 0.010511 -0.001776 -0.002032 0.005154 -0.000874 0.000665
# 2 -0.001776 0.043883 -0.004121 0.001715 -0.000233 0.000025
# 3 -0.002032 -0.004121 0.006941 -0.000601 -0.003465 0.001467
# 4 0.005154 0.001715 -0.000601 0.024839 -0.000278 -0.003942
# 5 -0.000874 -0.000233 -0.003465 -0.000278 0.026996 -0.003914
# 6 0.000665 0.000025 0.001467 -0.003942 -0.003914 0.043066
#
#
# Mechanical properties :
#
#
# Convention : Reuss Voigt Hill
#
# Bulk Modulus (GPa) = 21.99042 52.21961 37.10502
# Shear Modulus (GPa) = 26.70175 39.01617 32.85896
#
# Velocity S-wave (km/s) = 3.40320 4.11377 3.77524
# Velocity P-wave (km/s) = 4.99807 6.72416 5.92431
#
# Compressibility (1/GPa) = 0.04547434
#
# Stress axis : x y z
#
# Youngs Moduli (GPa) = 95.14259 22.78805 144.07492
#
# Poissons Ratio (x) = 0.04048 0.29283
# Poissons Ratio (y) = 0.16899 0.59376
# Poissons Ratio (z) = 0.19337 0.09391
#
# Static dielectric constant tensor:
#      x y z
#    x 1.940480 0.074650 0.007040 
#    y 0.074650 2.092510 0.082020 
#    z 0.007040 0.082020 1.959900 
# 
# From -- ./inp_files/427396.got.cif
#   From: 2010.05.17/outbox.cif.g08.bks.cpg/sg2_214_cif.got.tgz:427396.got - 2010.06.03 11:33:40.
