data_PCOD9039864
_publ_section_title
;
Structure prediction by ZEFSAII (Michael W. Deem and Ramdas Pophale) SiO2 
 PCOD9039864
Probable space group: P -1
;
_chemical_formula_sum "Si O2"
_cell_formula_units_Z 16
_cell_length_a 8.833933
_cell_length_b 7.408589
_cell_length_c 15.153817
_cell_angle_alpha 81.577130
_cell_angle_beta 130.743378
_cell_angle_gamma 71.415331
_cell_volume 619.402483
_symmetry_space_group_name_H-M "P -1"
_symmetry_group_IT_number 2
_symmetry_cell_setting 'triclinic'
loop_
_space_group_symop_operation_xyz
x,y,z
-x,-y,-z
loop_
_atom_site_type_symbol
_atom_site_label
_atom_site_fract_x
_atom_site_fract_y
_atom_site_fract_z
Si Si1 0.835002 0.401328 0.940655
Si Si2 0.284403 0.818118 0.726961
Si Si3 0.216690 0.691062 0.887944
Si Si4 0.160125 0.603999 0.551870
Si Si5 0.229375 0.717043 0.383938
Si Si6 0.470364 0.977978 0.140728
Si Si7 0.297070 0.817153 0.225947
Si Si8 0.814019 0.677747 0.150677
O O1 0.559238 0.608860 0.832394
O O2 0.843582 0.282924 0.862589
O O3 0.851684 0.251962 0.040791
O O4 0.000000 0.500000 0.000000
O O5 0.192676 0.849351 0.790871
O O6 0.134950 0.753783 0.614813
O O7 0.340912 0.004105 0.728656
O O8 0.091653 0.567655 0.820719
O O9 0.500000 0.500000 0.000000
O O10 0.160479 0.744917 0.458613
O O11 0.426532 0.385017 0.663904
O O12 0.000000 0.500000 0.500000
O O13 0.500000 0.500000 0.500000
O O14 0.243949 0.871910 0.305252
O O15 0.034104 0.681830 0.269238
O O16 0.289486 0.984943 0.141424
O O17 0.623273 0.763867 0.152881
O O18 0.331948 0.166565 0.999683
#
# Coordination Sequence:
#
# PCOD9039864 Si02
#       8
#     2   2   2   2   2   2   2   2
#     4  10  19  33  54  82 118 155 198 236 288 357
#     4  10  21  36  57  89 119 152 201 254 289 358
#     4  10  17  33  55  84 119 152 198 240 292 349
#     4  10  20  40  67  84 109 158 217 251 282 338
#     4  10  22  41  61  84 113 163 214 243 280 348
#     4  11  22  36  58  94 131 153 187 246 331 364
#     4  10  22  36  58  87 123 158 192 250 302 364
#     4  11  21  36  62  89 125 159 195 249 302 364
#
# _framework density 25.831347999999998
#
# number of rings (size 3 to 8) (size 9 to 14) (size 15 to 20)
#    0.000    1.750    2.500    4.500    1.750    0.500 
#    0.000    3.125    0.000    0.000    0.000    0.000 
#    0.000    0.000    0.000    0.000    0.000    0.000 
#
# Total GULP energy -89401.214740 kJ/mol
# GULP energy per Si atom -5587.575921 kJ/mol
# Density = 2.577255 g / cm^3
# Si number density = 25.831348 Si / 1000 Ang^3
#
#
#
# Elastic Constant Matrix: (Units=GPa)
#
#
# Indices 1 2 3 4 5 6 
#
# 1 183.7022 28.8610 55.4656 19.8474 -23.7003 -5.5568
# 2 28.8610 71.6734 24.8470 23.3309 -3.6172 11.5075
# 3 55.4656 24.8470 102.2339 14.5055 -4.0414 10.9863
# 4 19.8474 23.3309 14.5055 50.6249 6.7418 -2.5246
# 5 -23.7003 -3.6172 -4.0414 6.7418 59.5843 1.9645
# 6 -5.5568 11.5075 10.9863 -2.5246 1.9645 43.2875
#
#
#
# Elastic Compliance Matrix: (Units=1/GPa)
#
#
# Indices 1 2 3 4 5 6 
#
# 1 0.007291 -0.001434 -0.003511 -0.001447 0.002673 0.002003
# 2 -0.001434 0.018726 -0.002030 -0.007944 0.001498 -0.005178
# 3 -0.003511 -0.002030 0.012713 -0.001438 -0.000389 -0.003204
# 4 -0.001447 -0.007944 -0.001438 0.025140 -0.004130 0.003945
# 5 0.002673 0.001498 -0.000389 -0.004130 0.018412 -0.001033
# 6 0.002003 -0.005178 -0.003204 0.003945 -0.001033 0.025825
#
#
# Mechanical properties :
#
#
# Convention : Reuss Voigt Hill
#
# Bulk Modulus (GPa) = 40.35712 63.99518 52.17615
# Shear Modulus (GPa) = 38.36757 47.26174 42.81465
#
# Velocity S-wave (km/s) = 3.85815 4.28205 4.07562
# Velocity P-wave (km/s) = 5.95855 7.01969 6.51077
#
# Compressibility (1/GPa) = 0.02477878
#
# Stress axis : x y z
#
# Youngs Moduli (GPa) = 137.15952 53.40040 78.66056
#
# Poissons Ratio (x) = 0.07658 0.27619
# Poissons Ratio (y) = 0.19670 0.15971
# Poissons Ratio (z) = 0.48159 0.10843
#
# Static dielectric constant tensor:
#      x y z
#    x 2.043830 0.004730 0.001860 
#    y 0.004730 2.121710 -0.135640 
#    z 0.001860 -0.135640 2.135400 
# 
# From -- ./inp_files/201476.got.cif
#   From: 2010.05.17/outbox.cif.g08.bks.cpg/sg2_101_cif.got.tgz:201476.got - 2010.06.03 11:33:40.
