data_PCOD9039050
_publ_section_title
;
Structure prediction by ZEFSAII (Michael W. Deem and Ramdas Pophale) SiO2 
 PCOD9039050
Probable space group: P -1
;
_chemical_formula_sum "Si O2"
_cell_formula_units_Z 16
_cell_length_a 13.511493
_cell_length_b 8.023740
_cell_length_c 12.314779
_cell_angle_alpha 137.505922
_cell_angle_beta 51.635333
_cell_angle_gamma 134.562104
_cell_volume 627.600475
_symmetry_space_group_name_H-M "P -1"
_symmetry_group_IT_number 2
_symmetry_cell_setting 'triclinic'
loop_
_space_group_symop_operation_xyz
x,y,z
-x,-y,-z
loop_
_atom_site_type_symbol
_atom_site_label
_atom_site_fract_x
_atom_site_fract_y
_atom_site_fract_z
Si Si1 0.750586 0.154322 0.829756
Si Si2 0.890689 0.827699 0.898115
Si Si3 0.582628 0.405608 0.984066
Si Si4 0.991514 0.422483 0.623835
Si Si5 0.682714 0.205382 0.360751
Si Si6 0.039962 0.951804 0.266387
Si Si7 0.745767 0.421843 0.192255
Si Si8 0.554508 0.646869 0.325601
O O1 0.620850 0.144547 0.840040
O O2 0.740304 0.285381 0.013791
O O3 0.893950 0.357458 0.765531
O O4 0.810416 0.939835 0.717336
O O5 0.931197 0.613529 0.700844
O O6 0.741057 0.656838 0.975976
O O7 0.908739 0.029641 0.883931
O O8 0.000000 0.000000 0.000000
O O9 0.513071 0.407956 0.148089
O O10 0.500000 0.500000 0.000000
O O11 0.156254 0.606420 0.622674
O O12 0.970297 0.140805 0.449115
O O13 0.685561 0.200911 0.225357
O O14 0.576181 0.332175 0.521463
O O15 0.630578 0.925396 0.333098
O O16 0.906790 0.645358 0.217800
O O17 0.655339 0.593607 0.315744
#
# Coordination Sequence:
#
# PCOD9039050 Si02
#       8
#     2   2   2   2   2   2   2   2
#     4  10  23  42  66 100 132 177 232 281 349 413
#     4  11  24  42  73 102 136 186 236 284 347 416
#     4  10  23  45  68  94 135 181 229 288 349 419
#     4  11  23  41  64 102 139 176 224 288 350 410
#     4  11  23  41  68  94 137 180 233 281 350 411
#     4  12  23  39  68 104 139 174 225 296 355 405
#     4  11  23  42  71  98 137 181 236 285 346 416
#     4  10  24  44  64  97 133 182 232 283 340 421
#
# _framework density 25.493926999999999
#
# number of rings (size 3 to 8) (size 9 to 14) (size 15 to 20)
#    0.000    1.250    1.250    5.250    5.250    0.000 
#    6.750    1.875    0.000    0.000    0.000    0.000 
#    0.000    0.000    0.000    0.000    0.000    0.000 
#
# Total GULP energy -89269.818209 kJ/mol
# GULP energy per Si atom -5579.363638 kJ/mol
# Density = 2.543590 g / cm^3
# Si number density = 25.493927 Si / 1000 Ang^3
#
#
#
# Elastic Constant Matrix: (Units=GPa)
#
#
# Indices 1 2 3 4 5 6 
#
# 1 119.1073 11.8607 16.7977 -4.8794 -8.8446 -12.1028
# 2 11.8607 60.2790 26.6064 -13.5064 4.8869 -0.5439
# 3 16.7977 26.6064 106.6083 -16.3429 -33.5865 0.8525
# 4 -4.8794 -13.5064 -16.3429 43.6101 -10.0905 0.3648
# 5 -8.8446 4.8869 -33.5865 -10.0905 37.8401 -2.5125
# 6 -12.1028 -0.5439 0.8525 0.3648 -2.5125 34.9804
#
#
#
# Elastic Compliance Matrix: (Units=1/GPa)
#
#
# Indices 1 2 3 4 5 6 
#
# 1 0.009172 -0.001801 0.000104 0.001175 0.003004 0.003346
# 2 -0.001801 0.021606 -0.008156 0.001076 -0.010219 -0.000834
# 3 0.000104 -0.008156 0.019487 0.009640 0.021000 0.000842
# 4 0.001175 0.001076 0.009640 0.030935 0.017013 0.001088
# 5 0.003004 -0.010219 0.021000 0.017013 0.051886 0.003918
# 6 0.003346 -0.000834 0.000842 0.001088 0.003918 0.029982
#
#
# Mechanical properties :
#
#
# Convention : Reuss Voigt Hill
#
# Bulk Modulus (GPa) = 32.72492 44.05825 38.39159
# Shear Modulus (GPa) = 25.91223 38.66809 32.29016
#
# Velocity S-wave (km/s) = 3.19157 3.89878 3.56277
# Velocity P-wave (km/s) = 5.14254 6.13080 5.65829
#
# Compressibility (1/GPa) = 0.03055775
#
# Stress axis : x y z
#
# Youngs Moduli (GPa) = 109.03164 46.28337 51.31758
#
# Poissons Ratio (x) = 0.08334 -0.00534
# Poissons Ratio (y) = 0.19633 0.41857
# Poissons Ratio (z) = -0.01134 0.37751
#
# Static dielectric constant tensor:
#      x y z
#    x 2.132290 -0.169630 -0.027390 
#    y -0.169630 2.206180 0.076600 
#    z -0.027390 0.076600 1.981750 
# 
# From -- ./inp_files/446302.got.cif
#   From: 2010.05.17/outbox.cif.g08.bks.cpg/sg2_224_cif.got.tgz:446302.got - 2010.06.03 11:33:40.
