data_PCOD9039069
_publ_section_title
;
Structure prediction by ZEFSAII (Michael W. Deem and Ramdas Pophale) SiO2 
 PCOD9039069
Probable space group: P -1
;
_chemical_formula_sum "Si O2"
_cell_formula_units_Z 15
_cell_length_a 5.404718
_cell_length_b 16.630563
_cell_length_c 8.411215
_cell_angle_alpha 125.923898
_cell_angle_beta 92.461967
_cell_angle_gamma 73.806490
_cell_volume 580.819531
_symmetry_space_group_name_H-M "P -1"
_symmetry_group_IT_number 2
_symmetry_cell_setting 'triclinic'
loop_
_space_group_symop_operation_xyz
x,y,z
-x,-y,-z
loop_
_atom_site_type_symbol
_atom_site_label
_atom_site_fract_x
_atom_site_fract_y
_atom_site_fract_z
Si Si1 0.604445 0.225297 0.226396
Si Si2 0.223378 0.560980 0.934778
Si Si3 0.069893 0.255590 0.059263
Si Si4 0.383925 0.564689 0.416519
Si Si5 0.334056 0.156039 0.642108
Si Si6 0.075732 0.357022 0.690594
Si Si7 0.000000 0.000000 0.000000
Si Si8 0.803278 0.036765 0.679414
O O1 0.333693 0.223420 0.135004
O O2 0.531810 0.329457 0.456092
O O3 0.765257 0.113108 0.175892
O O4 0.817673 0.247294 0.136470
O O5 0.502486 0.525299 0.817674
O O6 0.012325 0.627057 0.877652
O O7 0.190217 0.449174 0.838099
O O8 0.160763 0.628850 0.170448
O O9 0.131493 0.184791 0.818451
O O10 0.500000 0.500000 0.500000
O O11 0.073818 0.613865 0.445300
O O12 0.347379 0.050545 0.427349
O O13 0.264314 0.245107 0.611247
O O14 0.597577 0.142180 0.730725
O O15 0.073644 0.969936 0.152720
O O16 0.000000 0.000000 0.500000
#
# Coordination Sequence:
#
# PCOD9039069 Si02
#       8
#     2   2   2   2   2   2   1   2
#     4  12  27  44  74 110 153 196 248 317 380 456
#     4  10  23  43  70  98 142 189 248 302 371 460
#     4  11  24  48  72 110 148 202 246 308 384 458
#     4  12  24  42  67 104 144 189 245 312 377 449
#     4  10  23  45  72 102 147 191 257 305 388 453
#     4  10  23  42  66 102 138 195 245 307 376 463
#     4  12  26  50  74 118 150 202 260 318 388 460
#     4  11  24  48  74 107 145 202 254 327 377 465
#
# _framework density 25.825578
#
# number of rings (size 3 to 8) (size 9 to 14) (size 15 to 20)
#    0.000    1.067    2.667    2.800    1.867    3.733 
#    9.600    0.000    0.000    0.000    0.000    0.000 
#    0.000    0.000    0.000    0.000    0.000    0.000 
#
# Total GULP energy -83525.614087 kJ/mol
# GULP energy per Si atom -5568.374272 kJ/mol
# Density = 2.576680 g / cm^3
# Si number density = 25.825578 Si / 1000 Ang^3
#
#
#
# Elastic Constant Matrix: (Units=GPa)
#
#
# Indices 1 2 3 4 5 6 
#
# 1 78.9321 31.3205 4.5919 -11.9753 -7.4826 -19.6777
# 2 31.3205 212.7542 15.6485 -2.3655 15.9576 -51.3576
# 3 4.5919 15.6485 80.4782 0.5371 -0.1448 -7.1338
# 4 -11.9753 -2.3655 0.5371 47.9177 -2.9635 2.2376
# 5 -7.4826 15.9576 -0.1448 -2.9635 39.1793 0.4047
# 6 -19.6777 -51.3576 -7.1338 2.2376 0.4047 35.3667
#
#
#
# Elastic Compliance Matrix: (Units=1/GPa)
#
#
# Indices 1 2 3 4 5 6 
#
# 1 0.015710 -0.000753 -0.000118 0.003765 0.003515 0.007346
# 2 -0.000753 0.007685 -0.000505 -0.000515 -0.003425 0.010711
# 3 -0.000118 -0.000505 0.012690 -0.000268 0.000191 0.001776
# 4 0.003765 -0.000515 -0.000268 0.021954 0.002590 -0.000126
# 5 0.003515 -0.003425 0.000191 0.002590 0.027823 -0.003462
# 6 0.007346 0.010711 0.001776 -0.000126 -0.003462 0.048322
#
#
# Mechanical properties :
#
#
# Convention : Reuss Voigt Hill
#
# Bulk Modulus (GPa) = 29.99816 52.80959 41.40387
# Shear Modulus (GPa) = 33.77349 45.86632 39.81991
#
# Velocity S-wave (km/s) = 3.62021 4.21884 3.93094
# Velocity P-wave (km/s) = 5.39587 6.65014 6.05557
#
# Compressibility (1/GPa) = 0.03333538
#
# Stress axis : x y z
#
# Youngs Moduli (GPa) = 63.65206 130.12578 78.80133
#
# Poissons Ratio (x) = 0.09795 0.00927
# Poissons Ratio (y) = 0.04791 0.03977
# Poissons Ratio (z) = 0.00749 0.06567
#
# Static dielectric constant tensor:
#      x y z
#    x 2.151360 0.032670 -0.056700 
#    y 0.032670 2.006530 0.016060 
#    z -0.056700 0.016060 2.191030 
# 
# From -- ./inp_files/34099.got.cif
#   From: 2010.05.17/outbox.cif.g08.bks.cpg/sg2_18_cif.got.tgz:34099.got - 2010.06.03 11:33:40.
