data_PCOD9039955
_publ_section_title
;
Structure prediction by ZEFSAII (Michael W. Deem and Ramdas Pophale) SiO2 
 PCOD9039955
Probable space group: P -1
;
_chemical_formula_sum "Si O2"
_cell_formula_units_Z 14
_cell_length_a 9.290928
_cell_length_b 21.235187
_cell_length_c 5.541038
_cell_angle_alpha 124.248370
_cell_angle_beta 124.861924
_cell_angle_gamma 49.558433
_cell_volume 649.624677
_symmetry_space_group_name_H-M "P -1"
_symmetry_group_IT_number 2
_symmetry_cell_setting 'triclinic'
loop_
_space_group_symop_operation_xyz
x,y,z
-x,-y,-z
loop_
_atom_site_type_symbol
_atom_site_label
_atom_site_fract_x
_atom_site_fract_y
_atom_site_fract_z
Si Si1 0.232655 0.260825 0.924056
Si Si2 0.978347 0.593740 0.622317
Si Si3 0.539430 0.149926 0.337457
Si Si4 0.595158 0.447772 0.230861
Si Si5 0.358987 0.084119 0.383171
Si Si6 0.109995 0.994860 0.846526
Si Si7 0.443623 0.310768 0.861074
O O1 0.249542 0.183971 0.597351
O O2 0.383143 0.293850 0.032472
O O3 0.044885 0.348473 0.034064
O O4 0.325229 0.204798 0.130371
O O5 0.772883 0.642160 0.377855
O O6 0.000000 0.500000 0.500000
O O7 0.170259 0.581548 0.630638
O O8 0.518478 0.082299 0.341367
O O9 0.697969 0.100559 0.179029
O O10 0.579090 0.216586 0.671542
O O11 0.500000 0.500000 0.500000
O O12 0.500000 0.500000 0.000000
O O13 0.549244 0.368137 0.042365
O O14 0.500000 0.000000 0.500000
O O15 0.188776 0.064606 0.076169
O O16 0.000000 0.000000 0.500000
O O17 0.000000 0.000000 0.000000
#
# Coordination Sequence:
#
# PCOD9039955 Si02
#       7
#     2   2   2   2   2   2   2
#     4  10  23  42  73 100 135 189 246 292 355 427
#     4  11  23  44  73 105 141 186 243 296 357 432
#     4  10  23  45  68  98 138 189 237 284 361 426
#     4  12  27  45  72 104 138 188 236 294 366 425
#     4  11  22  44  75  96 135 192 242 287 355 439
#     4  12  27  42  68 106 143 181 233 303 360 416
#     4  10  24  45  70 100 144 186 236 299 355 428
#
# _framework density 21.550906000000001
#
# number of rings (size 3 to 8) (size 9 to 14) (size 15 to 20)
#    0.000    1.143    2.857    2.143    8.000    2.286 
#    5.143    0.000    0.000    0.000    0.000    0.000 
#    0.000    0.000    0.000    0.000    0.000    0.000 
#
# Total GULP energy -78075.938937 kJ/mol
# GULP energy per Si atom -5576.852781 kJ/mol
# Density = 2.150185 g / cm^3
# Si number density = 21.550906 Si / 1000 Ang^3
#
#
#
# Elastic Constant Matrix: (Units=GPa)
#
#
# Indices 1 2 3 4 5 6 
#
# 1 180.9999 59.4934 75.6479 42.6336 -2.2365 -1.0368
# 2 59.4934 85.1207 31.8224 21.8961 0.2817 11.9795
# 3 75.6479 31.8224 108.5534 26.5083 8.9401 5.2940
# 4 42.6336 21.8961 26.5083 38.1322 0.1237 -8.1454
# 5 -2.2365 0.2817 8.9401 0.1237 46.0512 8.0968
# 6 -1.0368 11.9795 5.2940 -8.1454 8.0968 47.3995
#
#
#
# Elastic Compliance Matrix: (Units=1/GPa)
#
#
# Indices 1 2 3 4 5 6 
#
# 1 0.010131 -0.003952 -0.004639 -0.005724 0.001340 0.000526
# 2 -0.003952 0.017085 -0.000533 -0.006209 0.000799 -0.005548
# 3 -0.004639 -0.000533 0.014048 -0.004669 -0.002604 -0.001893
# 4 -0.005724 -0.006209 -0.004669 0.041418 -0.001074 0.009266
# 5 0.001340 0.000799 -0.002604 -0.001074 0.022986 -0.003993
# 6 0.000526 -0.005548 -0.001893 0.009266 -0.003993 0.024997
#
#
# Mechanical properties :
#
#
# Convention : Reuss Voigt Hill
#
# Bulk Modulus (GPa) = 43.45189 78.73348 61.09268
# Shear Modulus (GPa) = 31.93135 40.16395 36.04765
#
# Velocity S-wave (km/s) = 3.85342 4.32172 4.09427
# Velocity P-wave (km/s) = 6.32493 7.84322 7.12463
#
# Compressibility (1/GPa) = 0.02301396
#
# Stress axis : x y z
#
# Youngs Moduli (GPa) = 98.70845 58.53057 71.18273
#
# Poissons Ratio (x) = 0.23133 0.33025
# Poissons Ratio (y) = 0.39013 0.03796
# Poissons Ratio (z) = 0.45796 0.03122
#
# Static dielectric constant tensor:
#      x y z
#    x 1.639380 0.223170 0.069920 
#    y 0.223170 1.592730 -0.302410 
#    z 0.069920 -0.302410 1.810850 
# 
# From -- ./inp_files/38318.got.cif
#   From: 2010.05.17/outbox.cif.g08.bks.cpg/sg2_20_cif.got.tgz:38318.got - 2010.06.03 11:33:40.
