data_PCOD9039790
_publ_section_title
;
Structure prediction by ZEFSAII (Michael W. Deem and Ramdas Pophale) SiO2 
 PCOD9039790
Probable space group: P -1
;
_chemical_formula_sum "Si O2"
_cell_formula_units_Z 9
_cell_length_a 6.717530
_cell_length_b 14.326559
_cell_length_c 7.787584
_cell_angle_alpha 37.105438
_cell_angle_beta 100.451272
_cell_angle_gamma 122.772815
_cell_volume 330.662361
_symmetry_space_group_name_H-M "P -1"
_symmetry_group_IT_number 2
_symmetry_cell_setting 'triclinic'
loop_
_space_group_symop_operation_xyz
x,y,z
-x,-y,-z
loop_
_atom_site_type_symbol
_atom_site_label
_atom_site_fract_x
_atom_site_fract_y
_atom_site_fract_z
Si Si1 0.526612 0.656612 0.646850
Si Si2 0.500000 0.500000 0.500000
Si Si3 0.113387 0.024618 0.293796
Si Si4 0.542277 0.033664 0.714026
Si Si5 0.020388 0.760136 0.228845
O O1 0.421392 0.565741 0.576197
O O2 0.422598 0.763388 0.560950
O O3 0.848333 0.849254 0.401139
O O4 0.500000 0.500000 0.000000
O O5 0.767698 0.539990 0.587816
O O6 0.331763 0.002697 0.364862
O O7 0.000000 0.000000 0.500000
O O8 0.204697 0.226178 0.908812
O O9 0.748540 0.080968 0.829497
O O10 0.227571 0.832453 0.999937
#
# Coordination Sequence:
#
# PCOD9039790 Si02
#       5
#     2   1   2   2   2
#     4  11  26  46  66 106 146 179 238 295 346 419
#     4  12  24  46  70 104 146 186 222 302 352 402
#     4  11  23  46  71 100 142 186 232 293 346 422
#     4  10  23  45  72 100 135 192 232 282 353 419
#     4  10  23  42  71 101 140 175 241 281 344 427
#
# _framework density 27.218097
#
# number of rings (size 3 to 8) (size 9 to 14) (size 15 to 20)
#    0.000    1.333    2.222    2.000    6.222    5.333 
#    4.000    0.000    0.000    0.000    0.000    0.000 
#    0.000    0.000    0.000    0.000    0.000    0.000 
#
# Total GULP energy -50106.876929 kJ/mol
# GULP energy per Si atom -5567.430770 kJ/mol
# Density = 2.715615 g / cm^3
# Si number density = 27.218097 Si / 1000 Ang^3
#
#
#
# Elastic Constant Matrix: (Units=GPa)
#
#
# Indices 1 2 3 4 5 6 
#
# 1 267.9597 51.8307 79.7039 0.4403 -8.2664 -14.4299
# 2 51.8307 110.7014 30.0314 -21.0390 -4.3292 1.3180
# 3 79.7039 30.0314 133.6815 -9.3769 8.0273 -7.1356
# 4 0.4403 -21.0390 -9.3769 55.0957 7.2753 -12.9670
# 5 -8.2664 -4.3292 8.0273 7.2753 55.3404 -6.4948
# 6 -14.4299 1.3180 -7.1356 -12.9670 -6.4948 71.2672
#
#
#
# Elastic Compliance Matrix: (Units=1/GPa)
#
#
# Indices 1 2 3 4 5 6 
#
# 1 0.004945 -0.001775 -0.002670 -0.001176 0.001220 0.000664
# 2 -0.001775 0.010936 -0.001130 0.003983 0.000239 0.000072
# 3 -0.002670 -0.001130 0.009591 0.001619 -0.002027 0.000551
# 4 -0.001176 0.003983 0.001619 0.021097 -0.002466 0.003464
# 5 0.001220 0.000239 -0.002027 -0.002466 0.019045 0.001327
# 6 0.000664 0.000072 0.000551 0.003464 0.001327 0.014971
#
#
# Mechanical properties :
#
#
# Convention : Reuss Voigt Hill
#
# Bulk Modulus (GPa) = 69.81711 92.83051 81.32381
# Shear Modulus (GPa) = 51.80956 59.72576 55.76766
#
# Velocity S-wave (km/s) = 4.36764 4.68946 4.53141
# Velocity P-wave (km/s) = 7.15134 7.96879 7.57111
#
# Compressibility (1/GPa) = 0.01432314
#
# Stress axis : x y z
#
# Youngs Moduli (GPa) = 202.24268 91.43917 104.26772
#
# Poissons Ratio (x) = 0.16227 0.27836
# Poissons Ratio (y) = 0.35890 0.11781
# Poissons Ratio (z) = 0.53993 0.10332
#
# Static dielectric constant tensor:
#      x y z
#    x 2.352920 -0.132000 0.112920 
#    y -0.132000 2.296090 -0.018520 
#    z 0.112920 -0.018520 2.341790 
# 
# From -- ./inp_files/16423.got.cif
#   From: 2010.05.17/outbox.cif.g08.bks.cpg/sg2_9_cif.got.tgz:16423.got - 2010.06.03 11:33:40.
