data_PCOD9039693
_publ_section_title
;
Structure prediction by ZEFSAII (Michael W. Deem and Ramdas Pophale) SiO2 
 PCOD9039693
Probable space group: P -1
;
_chemical_formula_sum "Si O2"
_cell_formula_units_Z 14
_cell_length_a 9.655325
_cell_length_b 6.815734
_cell_length_c 9.023480
_cell_angle_alpha 102.017779
_cell_angle_beta 89.377549
_cell_angle_gamma 88.417038
_cell_volume 580.498130
_symmetry_space_group_name_H-M "P -1"
_symmetry_group_IT_number 2
_symmetry_cell_setting 'triclinic'
loop_
_space_group_symop_operation_xyz
x,y,z
-x,-y,-z
loop_
_atom_site_type_symbol
_atom_site_label
_atom_site_fract_x
_atom_site_fract_y
_atom_site_fract_z
Si Si1 0.850688 0.120592 0.255508
Si Si2 0.350538 0.399469 0.482411
Si Si3 0.126215 0.733839 0.419684
Si Si4 0.366749 0.190547 0.757628
Si Si5 0.016957 0.544938 0.833280
Si Si6 0.669829 0.022115 0.746206
Si Si7 0.803427 0.838249 0.980670
O O1 0.927951 0.156864 0.413705
O O2 0.854382 0.325256 0.195652
O O3 0.702854 0.029717 0.285644
O O4 0.902827 0.948109 0.114063
O O5 0.500000 0.500000 0.500000
O O6 0.233153 0.559446 0.453439
O O7 0.324587 0.316116 0.634652
O O8 0.356910 0.200783 0.349063
O O9 0.009475 0.634528 0.306019
O O10 0.213855 0.877180 0.337989
O O11 0.529876 0.155782 0.756821
O O12 0.299762 0.274072 0.924663
O O13 0.886757 0.702162 0.843521
O O14 0.000000 0.500000 0.000000
O O15 0.717607 0.000488 0.912038
#
# Coordination Sequence:
#
# PCOD9039693 Si02
#       7
#     2   2   2   2   2   2   2
#     4  10  24  44  70  98 140 183 234 285 348 404
#     4  12  23  42  71 103 148 177 234 277 349 421
#     4  12  25  44  73 107 136 186 232 290 344 417
#     4  10  23  42  70 101 141 184 223 281 352 413
#     4  12  26  48  68 103 141 185 243 288 340 414
#     4  12  21  47  68 107 144 180 227 289 355 416
#     4  10  24  45  69 100 140 188 226 288 353 403
#
# _framework density 24.117215999999999
#
# number of rings (size 3 to 8) (size 9 to 14) (size 15 to 20)
#    0.857    0.000    4.286    3.429    2.000    0.000 
#    0.000    3.571    0.000    0.000    0.000    0.000 
#    0.000    0.000    0.000    0.000    0.000    0.000 
#
# Total GULP energy -78283.551845 kJ/mol
# GULP energy per Si atom -5591.682275 kJ/mol
# Density = 2.406232 g / cm^3
# Si number density = 24.117216 Si / 1000 Ang^3
#
#
#
# Elastic Constant Matrix: (Units=GPa)
#
#
# Indices 1 2 3 4 5 6 
#
# 1 74.5470 40.7930 25.2464 -6.8172 -2.3646 8.1221
# 2 40.7930 96.6313 43.9790 -14.3052 3.5851 28.9422
# 3 25.2464 43.9790 150.2160 -13.4781 -1.8130 13.1870
# 4 -6.8172 -14.3052 -13.4781 55.9438 -3.7798 -9.9171
# 5 -2.3646 3.5851 -1.8130 -3.7798 34.7808 -9.8373
# 6 8.1221 28.9422 13.1870 -9.9171 -9.8373 42.7231
#
#
#
# Elastic Compliance Matrix: (Units=1/GPa)
#
#
# Indices 1 2 3 4 5 6 
#
# 1 0.017983 -0.008207 -0.000807 0.000677 0.003017 0.003242
# 2 -0.008207 0.019044 -0.003194 0.000653 -0.005886 -0.011558
# 3 -0.000807 -0.003194 0.007804 0.001092 0.000904 0.000370
# 4 0.000677 0.000653 0.001092 0.019391 0.003379 0.004371
# 5 0.003017 -0.005886 0.000904 0.003379 0.033251 0.011575
# 6 0.003242 -0.011558 0.000370 0.004371 0.011575 0.034186
#
#
# Mechanical properties :
#
#
# Convention : Reuss Voigt Hill
#
# Bulk Modulus (GPa) = 48.98302 60.15902 54.57102
# Shear Modulus (GPa) = 30.69744 40.78129 35.73936
#
# Velocity S-wave (km/s) = 3.57156 4.11659 3.85372
# Velocity P-wave (km/s) = 6.11249 6.89882 6.51752
#
# Compressibility (1/GPa) = 0.02041524
#
# Stress axis : x y z
#
# Youngs Moduli (GPa) = 55.60808 52.51058 128.13610
#
# Poissons Ratio (x) = 0.43095 0.10341
# Poissons Ratio (y) = 0.45637 0.40925
# Poissons Ratio (z) = 0.04488 0.16771
#
# Static dielectric constant tensor:
#      x y z
#    x 1.909200 -0.029750 0.001390 
#    y -0.029750 2.026800 -0.013150 
#    z 0.001390 -0.013150 1.918530 
# 
# From -- ./inp_files/133595.got.cif
#   From: 2010.05.17/outbox.cif.g08.bks.cpg/sg2_67_cif.got.tgz:133595.got - 2010.06.03 11:33:40.
