data_PCOD9039717
_publ_section_title
;
Structure prediction by ZEFSAII (Michael W. Deem and Ramdas Pophale) SiO2 
 PCOD9039717
Probable space group: P -1
;
_chemical_formula_sum "Si O2"
_cell_formula_units_Z 16
_cell_length_a 16.527474
_cell_length_b 15.420249
_cell_length_c 5.095599
_cell_angle_alpha 117.571665
_cell_angle_beta 61.073230
_cell_angle_gamma 140.260852
_cell_volume 716.984272
_symmetry_space_group_name_H-M "P -1"
_symmetry_group_IT_number 2
_symmetry_cell_setting 'triclinic'
loop_
_space_group_symop_operation_xyz
x,y,z
-x,-y,-z
loop_
_atom_site_type_symbol
_atom_site_label
_atom_site_fract_x
_atom_site_fract_y
_atom_site_fract_z
Si Si1 0.559161 0.652286 0.111214
Si Si2 0.182156 0.090584 0.704379
Si Si3 0.964554 0.586079 0.191206
Si Si4 0.974151 0.861324 0.126579
Si Si5 0.452454 0.025617 0.858240
Si Si6 0.176212 0.891584 0.211802
Si Si7 0.539417 0.313888 0.177990
Si Si8 0.827081 0.559449 0.856039
O O1 0.708517 0.765957 0.122935
O O2 0.483359 0.662386 0.459866
O O3 0.500000 0.500000 0.000000
O O4 0.550770 0.692940 0.892965
O O5 0.115685 0.112053 0.622559
O O6 0.244962 0.033498 0.448242
O O7 0.068939 0.969336 0.902924
O O8 0.853649 0.525378 0.493080
O O9 0.088406 0.746596 0.296351
O O10 0.917945 0.580863 0.968117
O O11 0.000000 0.500000 0.000000
O O12 0.068796 0.874051 0.193454
O O13 0.874743 0.706072 0.958501
O O14 0.500000 0.000000 0.500000
O O15 0.513362 0.179360 0.998239
O O16 0.500000 0.000000 0.000000
O O17 0.295940 0.923784 0.939931
O O18 0.682930 0.444445 0.030056
#
# Coordination Sequence:
#
# PCOD9039717 Si02
#       8
#     2   2   2   2   2   2   2   2
#     4  12  26  46  73 107 144 193 236 290 359 437
#     4  11  22  43  71 101 142 180 235 285 360 421
#     4  11  25  42  69  99 132 185 229 300 351 409
#     4  10  23  42  70 105 133 185 223 295 351 423
#     4  12  29  46  75 105 140 193 245 299 358 417
#     4  11  24  45  71  99 146 174 245 286 358 417
#     4  12  26  48  71 101 150 189 238 299 355 425
#     4  11  24  44  67  99 140 174 239 282 353 422
#
# _framework density 22.315693
#
# number of rings (size 3 to 8) (size 9 to 14) (size 15 to 20)
#    0.000    0.750    2.500    4.125    5.250    0.000 
#    2.250    0.000    0.000    0.000    0.000    0.000 
#    0.000    0.000    0.000    0.000    0.000    0.000 
#
# Total GULP energy -89419.675495 kJ/mol
# GULP energy per Si atom -5588.729718 kJ/mol
# Density = 2.226490 g / cm^3
# Si number density = 22.315693 Si / 1000 Ang^3
#
#
#
# Elastic Constant Matrix: (Units=GPa)
#
#
# Indices 1 2 3 4 5 6 
#
# 1 95.6841 42.5846 16.4097 17.1998 -14.9345 -15.4936
# 2 42.5846 121.7009 7.2927 7.2068 -12.4742 -1.5621
# 3 16.4097 7.2927 92.9011 0.0200 -16.2579 -21.0969
# 4 17.1998 7.2068 0.0200 37.7599 2.9708 -6.3262
# 5 -14.9345 -12.4742 -16.2579 2.9708 35.2934 -4.2445
# 6 -15.4936 -1.5621 -21.0969 -6.3262 -4.2445 30.9398
#
#
#
# Elastic Compliance Matrix: (Units=1/GPa)
#
#
# Indices 1 2 3 4 5 6 
#
# 1 0.015594 -0.004378 0.000515 -0.005498 0.006682 0.007732
# 2 -0.004378 0.009897 -0.000130 -0.000281 0.001411 -0.001645
# 3 0.000515 -0.000130 0.014793 0.001089 0.008302 0.011700
# 4 -0.005498 -0.000281 0.001089 0.029951 -0.004019 0.003548
# 5 0.006682 0.001411 0.008302 -0.004019 0.037433 0.013391
# 6 0.007732 -0.001645 0.011700 0.003548 0.013391 0.046650
#
#
# Mechanical properties :
#
#
# Convention : Reuss Voigt Hill
#
# Bulk Modulus (GPa) = 30.96108 49.20668 40.08388
# Shear Modulus (GPa) = 28.89018 37.06524 32.97771
#
# Velocity S-wave (km/s) = 3.60198 4.07990 3.84836
# Velocity P-wave (km/s) = 5.58598 6.65524 6.14392
#
# Compressibility (1/GPa) = 0.03229862
#
# Stress axis : x y z
#
# Youngs Moduli (GPa) = 64.12646 101.04369 67.60029
#
# Poissons Ratio (x) = 0.44235 -0.03484
# Poissons Ratio (y) = 0.28073 0.00880
# Poissons Ratio (z) = -0.03305 0.01315
#
# Static dielectric constant tensor:
#      x y z
#    x 1.869130 0.041980 0.008840 
#    y 0.041980 1.862250 0.014640 
#    z 0.008840 0.014640 1.862110 
# 
# From -- ./inp_files/98563.got.cif
#   From: 2010.05.17/outbox.cif.g08.bks.cpg/sg2_50_cif.got.tgz:98563.got - 2010.06.03 11:33:40.
