data_PCOD9039872
_publ_section_title
;
Structure prediction by ZEFSAII (Michael W. Deem and Ramdas Pophale) SiO2 
 PCOD9039872
Probable space group: P -1
;
_chemical_formula_sum "Si O2"
_cell_formula_units_Z 14
_cell_length_a 17.428963
_cell_length_b 8.058341
_cell_length_c 5.795671
_cell_angle_alpha 120.801646
_cell_angle_beta 107.860328
_cell_angle_gamma 47.999203
_cell_volume 518.757739
_symmetry_space_group_name_H-M "P -1"
_symmetry_group_IT_number 2
_symmetry_cell_setting 'triclinic'
loop_
_space_group_symop_operation_xyz
x,y,z
-x,-y,-z
loop_
_atom_site_type_symbol
_atom_site_label
_atom_site_fract_x
_atom_site_fract_y
_atom_site_fract_z
Si Si1 0.602307 0.411049 0.394886
Si Si2 0.595310 0.050953 0.861510
Si Si3 0.819040 0.970494 0.503160
Si Si4 0.964880 0.371647 0.539577
Si Si5 0.155392 0.750916 0.958906
Si Si6 0.195036 0.375346 0.039865
Si Si7 0.381609 0.274767 0.693490
O O1 0.500000 0.500000 0.500000
O O2 0.710915 0.221809 0.493643
O O3 0.590683 0.641017 0.448269
O O4 0.608936 0.255198 0.071452
O O5 0.684542 0.812752 0.920153
O O6 0.618835 0.944623 0.548207
O O7 0.475533 0.177726 0.882714
O O8 0.841269 0.029011 0.817631
O O9 0.928678 0.848694 0.390944
O O10 0.810563 0.757319 0.280282
O O11 0.923929 0.243947 0.273111
O O12 0.875509 0.576810 0.775362
O O13 0.000000 0.500000 0.500000
O O14 0.269968 0.518351 0.822856
O O15 0.149917 0.649535 0.126614
#
# Coordination Sequence:
#
# PCOD9039872 Si02
#       7
#     2   2   2   2   2   2   2
#     4  11  25  44  68 102 144 178 227 285 342 410
#     4  10  23  42  71  98 140 185 222 283 345 407
#     4  11  26  44  72 104 136 187 227 288 348 402
#     4  12  26  49  72 100 141 184 231 288 345 413
#     4  12  26  46  72 102 143 179 235 288 339 413
#     4  11  25  48  68 104 141 180 232 286 344 408
#     4  11  24  43  68 105 135 182 234 278 342 413
#
# _framework density 26.987549000000001
#
# number of rings (size 3 to 8) (size 9 to 14) (size 15 to 20)
#    0.000    0.857    2.857    3.000    0.000   10.857 
#    0.000    0.000    0.000    0.000    0.000    0.000 
#    0.000    0.000    0.000    0.000    0.000    0.000 
#
# Total GULP energy -78290.391178 kJ/mol
# GULP energy per Si atom -5592.170798 kJ/mol
# Density = 2.692612 g / cm^3
# Si number density = 26.987549 Si / 1000 Ang^3
#
#
#
# Elastic Constant Matrix: (Units=GPa)
#
#
# Indices 1 2 3 4 5 6 
#
# 1 148.3538 52.6407 68.4327 -7.8421 2.3120 -32.5367
# 2 52.6407 117.6490 18.9696 0.5205 12.3405 -31.4007
# 3 68.4327 18.9696 146.4124 27.2078 48.4003 -4.8722
# 4 -7.8421 0.5205 27.2078 41.6789 -3.4026 13.3189
# 5 2.3120 12.3405 48.4003 -3.4026 54.0317 -15.6250
# 6 -32.5367 -31.4007 -4.8722 13.3189 -15.6250 58.1597
#
#
#
# Elastic Compliance Matrix: (Units=1/GPa)
#
#
# Indices 1 2 3 4 5 6 
#
# 1 0.017724 -0.005302 -0.015309 0.012385 0.017125 0.007535
# 2 -0.005302 0.011765 0.003695 -0.005088 -0.005079 0.003496
# 3 -0.015309 0.003695 0.025649 -0.019579 -0.026433 -0.007039
# 4 0.012385 -0.005088 -0.019579 0.041292 0.020352 -0.001447
# 5 0.017125 -0.005079 -0.026433 0.020352 0.047580 0.012746
# 6 0.007535 0.003496 -0.007039 -0.001447 0.012746 0.026463
#
#
# Mechanical properties :
#
#
# Convention : Reuss Voigt Hill
#
# Bulk Modulus (GPa) = 46.93664 76.94457 61.94060
# Shear Modulus (GPa) = 23.65115 48.93221 36.29168
#
# Velocity S-wave (km/s) = 2.96357 4.26272 3.67107
# Velocity P-wave (km/s) = 5.39815 7.26641 6.40081
#
# Compressibility (1/GPa) = 0.02130532
#
# Stress axis : x y z
#
# Youngs Moduli (GPa) = 56.42052 84.99947 38.98822
#
# Poissons Ratio (x) = 0.45067 0.59687
# Poissons Ratio (y) = 0.29914 -0.14406
# Poissons Ratio (z) = 0.86374 -0.31406
#
# Static dielectric constant tensor:
#      x y z
#    x 2.131500 -0.001030 -0.032400 
#    y -0.001030 2.110850 -0.054860 
#    z -0.032400 -0.054860 2.117330 
# 
# From -- ./inp_files/107650.got.cif
#   From: 2010.05.17/outbox.cif.g08.bks.cpg/sg2_54_cif.got.tgz:107650.got - 2010.06.03 11:33:40.
