data_PCOD9039541
_publ_section_title
;
Structure prediction by ZEFSAII (Michael W. Deem and Ramdas Pophale) SiO2 
 PCOD9039541
Probable space group: P -1
;
_chemical_formula_sum "Si O2"
_cell_formula_units_Z 12
_cell_length_a 8.767148
_cell_length_b 15.809227
_cell_length_c 12.198308
_cell_angle_alpha 150.781999
_cell_angle_beta 45.031664
_cell_angle_gamma 145.832994
_cell_volume 462.756177
_symmetry_space_group_name_H-M "P -1"
_symmetry_group_IT_number 2
_symmetry_cell_setting 'triclinic'
loop_
_space_group_symop_operation_xyz
x,y,z
-x,-y,-z
loop_
_atom_site_type_symbol
_atom_site_label
_atom_site_fract_x
_atom_site_fract_y
_atom_site_fract_z
Si Si1 0.376178 0.804044 0.922896
Si Si2 0.287983 0.197288 0.702383
Si Si3 0.823148 0.230899 0.778055
Si Si4 0.788633 0.772717 0.789170
Si Si5 0.467234 0.619761 0.994876
Si Si6 0.913494 0.423850 0.585288
O O1 0.598076 0.760886 0.779544
O O2 0.094809 0.619585 0.799688
O O3 0.329408 0.855436 0.125835
O O4 0.500000 0.000000 0.000000
O O5 0.305319 0.267280 0.898428
O O6 0.595430 0.296233 0.621234
O O7 0.114047 0.936586 0.479465
O O8 0.249980 0.360530 0.840667
O O9 0.618518 0.220613 0.783345
O O10 0.000000 0.500000 0.000000
O O11 0.980913 0.712788 0.589618
O O12 0.581395 0.621662 0.821210
O O13 0.000000 0.000000 0.000000
O O14 0.000000 0.500000 0.500000
#
# Coordination Sequence:
#
# PCOD9039541 Si02
#       6
#     2   2   2   2   2   2
#     4  11  25  42  66 104 139 179 233 290 350 416
#     4  11  23  43  72 100 136 187 234 285 357 419
#     4  11  24  44  67  99 143 179 233 293 357 415
#     4  11  23  42  68 103 139 181 228 290 351 419
#     4  10  23  42  69 101 137 181 237 282 351 425
#     4  12  22  42  70  98 136 183 232 289 348 414
#
# _framework density 25.931581000000001
#
# number of rings (size 3 to 8) (size 9 to 14) (size 15 to 20)
#    0.000    1.000    1.667    6.000    0.000    2.000 
#    0.000    0.000    0.000    0.000    0.000    0.000 
#    0.000    0.000    0.000    0.000    0.000    0.000 
#
# Total GULP energy -67055.322931 kJ/mol
# GULP energy per Si atom -5587.943578 kJ/mol
# Density = 2.587256 g / cm^3
# Si number density = 25.931581 Si / 1000 Ang^3
#
#
#
# Elastic Constant Matrix: (Units=GPa)
#
#
# Indices 1 2 3 4 5 6 
#
# 1 110.4850 54.6908 44.0853 3.7973 -4.3308 -21.6652
# 2 54.6908 79.6331 31.1733 12.8534 -16.0920 -15.5138
# 3 44.0853 31.1733 147.9054 28.5835 -9.7488 -7.4028
# 4 3.7973 12.8534 28.5835 39.5693 8.1695 -7.1373
# 5 -4.3308 -16.0920 -9.7488 8.1695 50.1142 4.1904
# 6 -21.6652 -15.5138 -7.4028 -7.1373 4.1904 54.1194
#
#
#
# Elastic Compliance Matrix: (Units=1/GPa)
#
#
# Indices 1 2 3 4 5 6 
#
# 1 0.016369 -0.010789 -0.003905 0.006357 -0.004188 0.004088
# 2 -0.010789 0.022772 0.000556 -0.008264 0.007786 0.000592
# 3 -0.003905 0.000556 0.009375 -0.007436 0.002988 -0.001333
# 4 0.006357 -0.008264 -0.007436 0.035557 -0.009732 0.004601
# 5 -0.004188 0.007786 0.002988 -0.009732 0.024445 -0.002212
# 6 0.004088 0.000592 -0.001333 0.004601 -0.002212 0.020880
#
#
# Mechanical properties :
#
#
# Convention : Reuss Voigt Hill
#
# Bulk Modulus (GPa) = 49.40556 66.43581 57.92069
# Shear Modulus (GPa) = 30.40985 42.63218 36.52102
#
# Velocity S-wave (km/s) = 3.42818 4.05906 3.75688
# Velocity P-wave (km/s) = 5.89606 6.90241 6.41898
#
# Compressibility (1/GPa) = 0.02024064
#
# Stress axis : x y z
#
# Youngs Moduli (GPa) = 61.09186 43.91326 106.66715
#
# Poissons Ratio (x) = 0.47378 0.41652
# Poissons Ratio (y) = 0.65912 -0.05932
# Poissons Ratio (z) = 0.23855 -0.02442
#
# Static dielectric constant tensor:
#      x y z
#    x 2.213690 0.058760 -0.075880 
#    y 0.058760 2.066970 -0.018360 
#    z -0.075880 -0.018360 2.000540 
# 
# From -- ./inp_files/190567.got.cif
#   From: 2010.05.17/outbox.cif.g08.bks.cpg/sg2_96_cif.got.tgz:190567.got - 2010.06.03 11:33:40.
