data_PCOD9039451
_publ_section_title
;
Structure prediction by ZEFSAII (Michael W. Deem and Ramdas Pophale) SiO2 
 PCOD9039451
Probable space group: P -1
;
_chemical_formula_sum "Si O2"
_cell_formula_units_Z 16
_cell_length_a 12.165485
_cell_length_b 18.059502
_cell_length_c 9.018762
_cell_angle_alpha 50.424329
_cell_angle_beta 100.290896
_cell_angle_gamma 141.643798
_cell_volume 702.711098
_symmetry_space_group_name_H-M "P -1"
_symmetry_group_IT_number 2
_symmetry_cell_setting 'triclinic'
loop_
_space_group_symop_operation_xyz
x,y,z
-x,-y,-z
loop_
_atom_site_type_symbol
_atom_site_label
_atom_site_fract_x
_atom_site_fract_y
_atom_site_fract_z
Si Si1 0.391316 0.454380 0.309130
Si Si2 0.856672 0.042108 0.696098
Si Si3 0.999870 0.521108 0.299020
Si Si4 0.492003 0.232481 0.525625
Si Si5 0.407949 0.275128 0.739463
Si Si6 0.819134 0.223194 0.434490
Si Si7 0.701231 0.094444 0.250310
Si Si8 0.278911 0.194242 0.281134
O O1 0.399766 0.364543 0.523696
O O2 0.410944 0.557064 0.300631
O O3 0.127932 0.254640 0.435605
O O4 0.595647 0.627670 0.014717
O O5 0.783561 0.092083 0.667275
O O6 0.707984 0.888969 0.717590
O O7 0.820357 0.936854 0.952657
O O8 0.759980 0.398544 0.357978
O O9 0.996717 0.425352 0.312908
O O10 0.000000 0.500000 0.500000
O O11 0.219948 0.757342 0.019855
O O12 0.470282 0.240162 0.683426
O O13 0.426134 0.276100 0.356985
O O14 0.304643 0.008933 0.710307
O O15 0.862309 0.226844 0.268404
O O16 0.573850 0.096246 0.531138
O O17 0.000000 0.000000 0.500000
#
# Coordination Sequence:
#
# PCOD9039451 Si02
#       8
#     2   2   2   2   2   2   2   2
#     4  10  24  44  67  96 132 175 224 267 339 391
#     4  11  23  41  71  96 129 178 221 267 334 392
#     4  11  27  41  67 100 133 174 218 271 332 395
#     4  11  25  42  65 100 131 175 221 270 330 391
#     4  10  24  42  64  97 136 173 219 276 326 401
#     4  10  23  42  68  96 128 174 216 273 323 396
#     4  10  23  45  65  92 136 170 218 273 330 385
#     4  11  25  44  69 100 133 172 222 279 327 395
#
# _framework density 22.768958000000001
#
# number of rings (size 3 to 8) (size 9 to 14) (size 15 to 20)
#    0.000    1.500    1.250    1.500    7.000    7.000 
#    0.000    0.000    0.000    0.000    0.000    0.000 
#    0.000    0.000    0.000    0.000    0.000    0.000 
#
# Total GULP energy -89268.824705 kJ/mol
# GULP energy per Si atom -5579.301544 kJ/mol
# Density = 2.271714 g / cm^3
# Si number density = 22.768958 Si / 1000 Ang^3
#
#
#
# Elastic Constant Matrix: (Units=GPa)
#
#
# Indices 1 2 3 4 5 6 
#
# 1 61.7890 23.4953 17.6038 -2.0244 9.4091 -17.9144
# 2 23.4953 79.4741 24.6896 4.7702 4.9007 -26.4409
# 3 17.6038 24.6896 113.1033 6.6169 11.1045 -12.1566
# 4 -2.0244 4.7702 6.6169 22.8981 1.0904 4.2851
# 5 9.4091 4.9007 11.1045 1.0904 29.9975 -3.2296
# 6 -17.9144 -26.4409 -12.1566 4.2851 -3.2296 54.2203
#
#
#
# Elastic Compliance Matrix: (Units=1/GPa)
#
#
# Indices 1 2 3 4 5 6 
#
# 1 0.020074 -0.004051 -0.001511 0.002565 -0.004756 0.003832
# 2 -0.004051 0.016969 -0.002088 -0.004578 0.000174 0.006841
# 3 -0.001511 -0.002088 0.010036 -0.002615 -0.002721 0.000777
# 4 0.002565 -0.004578 -0.002615 0.046751 -0.001407 -0.005750
# 5 -0.004756 0.000174 -0.002721 -0.001407 0.035874 0.000151
# 6 0.003832 0.006841 0.000777 -0.005750 0.000151 0.023683
#
#
# Mechanical properties :
#
#
# Convention : Reuss Voigt Hill
#
# Bulk Modulus (GPa) = 31.46678 42.88264 37.17471
# Shear Modulus (GPa) = 27.88929 33.99504 30.94217
#
# Velocity S-wave (km/s) = 3.50363 3.86818 3.69041
# Velocity P-wave (km/s) = 5.49702 6.23098 5.87548
#
# Compressibility (1/GPa) = 0.03177954
#
# Stress axis : x y z
#
# Youngs Moduli (GPa) = 49.81478 58.93180 99.63994
#
# Poissons Ratio (x) = 0.23872 0.15060
# Poissons Ratio (y) = 0.20179 0.20802
# Poissons Ratio (z) = 0.07529 0.12303
#
# Static dielectric constant tensor:
#      x y z
#    x 1.895100 -0.001240 0.028900 
#    y -0.001240 1.881770 0.017420 
#    z 0.028900 0.017420 1.850690 
# 
# From -- ./inp_files/279060.got.cif
#   From: 2010.05.17/outbox.cif.g08.bks.cpg/sg2_140_cif.got.tgz:279060.got - 2010.06.03 11:33:40.
