data_PCOD9039701
_publ_section_title
;
Structure prediction by ZEFSAII (Michael W. Deem and Ramdas Pophale) SiO2 
 PCOD9039701
Probable space group: P -1
;
_chemical_formula_sum "Si O2"
_cell_formula_units_Z 16
_cell_length_a 13.261111
_cell_length_b 16.273105
_cell_length_c 7.691345
_cell_angle_alpha 136.751034
_cell_angle_beta 140.914480
_cell_angle_gamma 46.087796
_cell_volume 684.713374
_symmetry_space_group_name_H-M "P -1"
_symmetry_group_IT_number 2
_symmetry_cell_setting 'triclinic'
loop_
_space_group_symop_operation_xyz
x,y,z
-x,-y,-z
loop_
_atom_site_type_symbol
_atom_site_label
_atom_site_fract_x
_atom_site_fract_y
_atom_site_fract_z
Si Si1 0.534789 0.980744 0.722051
Si Si2 0.902112 0.982650 0.169976
Si Si3 0.695605 0.473710 0.262313
Si Si4 0.643622 0.752505 0.101922
Si Si5 0.376059 0.622816 0.611243
Si Si6 0.297302 0.263497 0.232604
Si Si7 0.031629 0.774350 0.405850
Si Si8 0.022435 0.271891 0.340582
O O1 0.561239 0.849600 0.656415
O O2 0.500000 0.000000 0.500000
O O3 0.389068 0.101372 0.775901
O O4 0.713525 0.003996 0.011316
O O5 0.925008 0.100948 0.280115
O O6 0.000000 0.000000 0.500000
O O7 0.960689 0.856367 0.939552
O O8 0.688196 0.417261 0.356667
O O9 0.734095 0.606007 0.509552
O O10 0.848996 0.374948 0.214642
O O11 0.500000 0.500000 0.000000
O O12 0.789788 0.713040 0.381252
O O13 0.483989 0.720361 0.919445
O O14 0.663732 0.696126 0.847920
O O15 0.500000 0.500000 0.500000
O O16 0.195824 0.693605 0.396243
O O17 0.129258 0.221340 0.920436
O O18 0.990198 0.726608 0.463190
#
# Coordination Sequence:
#
# PCOD9039701 Si02
#       8
#     2   2   2   2   2   2   2   2
#     4  12  25  43  71 103 145 183 238 300 354 417
#     4  12  23  43  69 103 141 183 241 291 355 419
#     4  11  27  47  68 101 146 189 235 294 355 437
#     4  11  23  44  73 107 141 185 239 294 355 423
#     4  11  23  42  72 106 139 188 234 290 353 423
#     4  11  25  46  69 105 141 190 237 289 360 424
#     4  10  23  42  70 102 143 184 235 297 351 426
#     4  10  25  44  71 103 139 190 233 291 361 423
#
# _framework density 23.367439999999998
#
# number of rings (size 3 to 8) (size 9 to 14) (size 15 to 20)
#    0.000    1.000    5.000    0.750    3.500    3.500 
#    4.500    1.250    0.000    0.000    0.000    0.000 
#    0.000    0.000    0.000    0.000    0.000    0.000 
#
# Total GULP energy -89074.355026 kJ/mol
# GULP energy per Si atom -5567.147189 kJ/mol
# Density = 2.331426 g / cm^3
# Si number density = 23.367440 Si / 1000 Ang^3
#
#
#
# Elastic Constant Matrix: (Units=GPa)
#
#
# Indices 1 2 3 4 5 6 
#
# 1 60.3902 30.8843 27.0118 -5.2643 10.1444 -5.0943
# 2 30.8843 124.2099 46.6269 1.1484 3.1931 -26.1924
# 3 27.0118 46.6269 94.2284 -16.9035 5.9446 -4.5452
# 4 -5.2643 1.1484 -16.9035 35.8783 2.1411 3.2029
# 5 10.1444 3.1931 5.9446 2.1411 28.0861 3.6576
# 6 -5.0943 -26.1924 -4.5452 3.2029 3.6576 42.9695
#
#
#
# Elastic Compliance Matrix: (Units=1/GPa)
#
#
# Indices 1 2 3 4 5 6 
#
# 1 0.021381 -0.003812 -0.003442 0.002016 -0.006749 0.000271
# 2 -0.003812 0.012577 -0.005595 -0.004247 0.000557 0.006892
# 3 -0.003442 -0.005595 0.015675 0.007388 -0.001667 -0.002570
# 4 0.002016 -0.004247 0.007388 0.032337 -0.003798 -0.003655
# 5 -0.006749 0.000557 -0.001667 -0.003798 0.039101 -0.003682
# 6 0.000271 0.006892 -0.002570 -0.003655 -0.003682 0.027820
#
#
# Mechanical properties :
#
#
# Convention : Reuss Voigt Hill
#
# Bulk Modulus (GPa) = 41.78285 54.20829 47.99557
# Shear Modulus (GPa) = 27.38715 33.00715 30.19715
#
# Velocity S-wave (km/s) = 3.42719 3.76244 3.59872
# Velocity P-wave (km/s) = 5.79487 6.49024 6.15238
#
# Compressibility (1/GPa) = 0.02393326
#
# Stress axis : x y z
#
# Youngs Moduli (GPa) = 46.77155 79.50753 63.79779
#
# Poissons Ratio (x) = 0.30308 0.21961
# Poissons Ratio (y) = 0.17829 0.35698
# Poissons Ratio (z) = 0.16100 0.44488
#
# Static dielectric constant tensor:
#      x y z
#    x 2.102020 0.009330 0.019160 
#    y 0.009330 2.162050 -0.009590 
#    z 0.019160 -0.009590 1.748500 
# 
# From -- ./inp_files/318191.got.cif
#   From: 2010.05.17/outbox.cif.g08.bks.cpg/sg2_160_cif.got.tgz:318191.got - 2010.06.03 11:33:40.
