data_PCOD9039476
_publ_section_title
;
Structure prediction by ZEFSAII (Michael W. Deem and Ramdas Pophale) SiO2 
 PCOD9039476
Probable space group: P -1
;
_chemical_formula_sum "Si O2"
_cell_formula_units_Z 16
_cell_length_a 14.347609
_cell_length_b 13.729477
_cell_length_c 13.651413
_cell_angle_alpha 134.070834
_cell_angle_beta 41.942726
_cell_angle_gamma 159.393710
_cell_volume 632.574470
_symmetry_space_group_name_H-M "P -1"
_symmetry_group_IT_number 2
_symmetry_cell_setting 'triclinic'
loop_
_space_group_symop_operation_xyz
x,y,z
-x,-y,-z
loop_
_atom_site_type_symbol
_atom_site_label
_atom_site_fract_x
_atom_site_fract_y
_atom_site_fract_z
Si Si1 0.862292 0.567135 0.232554
Si Si2 0.383202 0.853656 0.384543
Si Si3 0.523780 0.391184 0.563133
Si Si4 0.792017 0.797934 0.931625
Si Si5 0.060210 0.024842 0.356361
Si Si6 0.292151 0.690408 0.021784
Si Si7 0.779044 0.088754 0.070949
Si Si8 0.868931 0.595976 0.616221
O O1 0.678670 0.460967 0.394667
O O2 0.012620 0.824849 0.246013
O O3 0.097709 0.659366 0.146771
O O4 0.675815 0.337667 0.133354
O O5 0.632487 0.036138 0.241895
O O6 0.224678 0.579390 0.343271
O O7 0.149574 0.764182 0.469696
O O8 0.500000 0.000000 0.500000
O O9 0.194098 0.120758 0.606734
O O10 0.628331 0.400790 0.584051
O O11 0.646460 0.648370 0.663652
O O12 0.906332 0.774107 0.758571
O O13 0.500000 0.500000 0.000000
O O14 0.767793 0.917858 0.975778
O O15 0.000000 0.000000 0.000000
O O16 0.000000 0.000000 0.500000
O O17 0.575818 0.955135 0.045808
O O18 0.095515 0.413138 0.037046
#
# Coordination Sequence:
#
# PCOD9039476 Si02
#       8
#     2   2   2   2   2   2   2   2
#     4  10  24  47  68 101 141 179 238 284 358 406
#     4  11  26  47  74 104 149 185 239 296 360 423
#     4  11  25  42  72 102 141 182 236 290 349 420
#     4  12  26  48  74 104 148 191 236 294 360 422
#     4  10  23  42  68  97 137 183 227 294 347 409
#     4  11  28  44  73 101 138 191 229 294 344 428
#     4  12  27  48  74 104 143 186 239 288 354 424
#     4  11  27  44  73 112 140 193 239 296 357 429
#
# _framework density 25.293465999999999
#
# number of rings (size 3 to 8) (size 9 to 14) (size 15 to 20)
#    0.000    1.000    1.250    3.750   10.500    7.000 
#    0.000    0.000    0.000    0.000    0.000    0.000 
#    0.000    0.000    0.000    0.000    0.000    0.000 
#
# Total GULP energy -89826.080659 kJ/mol
# GULP energy per Si atom -5614.130041 kJ/mol
# Density = 2.523590 g / cm^3
# Si number density = 25.293466 Si / 1000 Ang^3
#
#
#
# Elastic Constant Matrix: (Units=GPa)
#
#
# Indices 1 2 3 4 5 6 
#
# 1 126.2968 26.2691 49.1549 2.0445 -13.6171 8.5914
# 2 26.2691 102.0249 28.7606 -1.8049 5.4215 3.7792
# 3 49.1549 28.7606 155.0016 1.4310 0.2765 -0.3671
# 4 2.0445 -1.8049 1.4310 25.2587 -0.7102 5.0235
# 5 -13.6171 5.4215 0.2765 -0.7102 45.7789 9.3326
# 6 8.5914 3.7792 -0.3671 5.0235 9.3326 51.2859
#
#
#
# Elastic Compliance Matrix: (Units=1/GPa)
#
#
# Indices 1 2 3 4 5 6 
#
# 1 0.009951 -0.001885 -0.002815 -0.000243 0.003642 -0.002187
# 2 -0.001885 0.010807 -0.001414 0.001009 -0.001762 -0.000269
# 3 -0.002815 -0.001414 0.007615 -0.000497 -0.000895 0.000842
# 4 -0.000243 0.001009 -0.000497 0.040593 0.001308 -0.004251
# 5 0.003642 -0.001762 -0.000895 0.001308 0.024184 -0.005016
# 6 -0.002187 -0.000269 0.000842 -0.004251 -0.005016 0.021220
#
#
# Mechanical properties :
#
#
# Convention : Reuss Voigt Hill
#
# Bulk Modulus (GPa) = 61.94502 65.74363 63.84432
# Shear Modulus (GPa) = 37.88424 43.07394 40.47909
#
# Velocity S-wave (km/s) = 3.87432 4.13118 4.00481
# Velocity P-wave (km/s) = 6.67514 6.98601 6.83234
#
# Compressibility (1/GPa) = 0.01614335
#
# Stress axis : x y z
#
# Youngs Moduli (GPa) = 100.49038 92.53228 131.32066
#
# Poissons Ratio (x) = 0.17446 0.36972
# Poissons Ratio (y) = 0.18946 0.18571
# Poissons Ratio (z) = 0.28292 0.13085
#
# Static dielectric constant tensor:
#      x y z
#    x 1.992250 -0.060170 -0.036720 
#    y -0.060170 2.001570 -0.000710 
#    z -0.036720 -0.000710 2.005460 
# 
# From -- ./inp_files/534431.got.cif
#   From: 2010.05.17/outbox.cif.g08.bks.cpg/sg2_268_cif.got.tgz:534431.got - 2010.06.03 11:33:40.
