data_PCOD9039712
_publ_section_title
;
Structure prediction by ZEFSAII (Michael W. Deem and Ramdas Pophale) SiO2 
 PCOD9039712
Probable space group: P -1
;
_chemical_formula_sum "Si O2"
_cell_formula_units_Z 10
_cell_length_a 8.886089
_cell_length_b 11.543811
_cell_length_c 15.103798
_cell_angle_alpha 145.716969
_cell_angle_beta 150.059239
_cell_angle_gamma 49.416574
_cell_volume 423.610825
_symmetry_space_group_name_H-M "P -1"
_symmetry_group_IT_number 2
_symmetry_cell_setting 'triclinic'
loop_
_space_group_symop_operation_xyz
x,y,z
-x,-y,-z
loop_
_atom_site_type_symbol
_atom_site_label
_atom_site_fract_x
_atom_site_fract_y
_atom_site_fract_z
Si Si1 0.365567 0.376153 0.574574
Si Si2 0.857796 0.820262 0.383862
Si Si3 0.776833 0.489836 0.702599
Si Si4 0.805915 0.178006 0.259668
Si Si5 0.351092 0.790806 0.232752
O O1 0.606890 0.343306 0.603215
O O2 0.281350 0.594650 0.642877
O O3 0.536956 0.387714 0.763787
O O4 0.044714 0.201675 0.313806
O O5 0.504555 0.807212 0.223957
O O6 0.963797 0.614157 0.274057
O O7 0.015145 0.857982 0.583776
O O8 0.000000 0.000000 0.500000
O O9 0.500000 0.500000 0.500000
O O10 0.979818 0.711836 0.984660
O O11 0.500000 0.000000 0.000000
O O12 0.500000 0.000000 0.500000
#
# Coordination Sequence:
#
# PCOD9039712 Si02
#       5
#     2   2   2   2   2
#     4  10  23  43  69  99 142 188 238 284 355 430
#     4  11  25  44  68 104 143 183 236 296 363 416
#     4  12  25  44  70 107 145 180 235 304 357 412
#     4  10  23  42  70 104 139 187 239 289 352 428
#     4  11  26  46  73 102 141 196 242 284 357 436
#
# _framework density 23.606572
#
# number of rings (size 3 to 8) (size 9 to 14) (size 15 to 20)
#    0.000    1.200    2.000    2.400    8.400    1.600 
#    0.000    3.000    0.000    0.000    0.000    0.000 
#    0.000    0.000    0.000    0.000    0.000    0.000 
#
# Total GULP energy -55822.521944 kJ/mol
# GULP energy per Si atom -5582.252194 kJ/mol
# Density = 2.355284 g / cm^3
# Si number density = 23.606572 Si / 1000 Ang^3
#
#
#
# Elastic Constant Matrix: (Units=GPa)
#
#
# Indices 1 2 3 4 5 6 
#
# 1 175.6469 14.5044 58.3309 14.5068 42.4499 13.4252
# 2 14.5044 100.2447 36.8338 7.5789 9.6731 20.9408
# 3 58.3309 36.8338 169.0615 12.7395 37.2915 12.3575
# 4 14.5068 7.5789 12.7395 31.9833 6.4572 2.7264
# 5 42.4499 9.6731 37.2915 6.4572 34.1917 6.7419
# 6 13.4252 20.9408 12.3575 2.7264 6.7419 47.3437
#
#
#
# Elastic Compliance Matrix: (Units=1/GPa)
#
#
# Indices 1 2 3 4 5 6 
#
# 1 0.008322 0.000252 -0.000725 -0.001627 -0.009130 -0.000888
# 2 0.000252 0.011842 -0.002194 -0.001642 -0.000045 -0.004636
# 3 -0.000725 -0.002194 0.008345 -0.000987 -0.007417 0.000111
# 4 -0.001627 -0.001642 -0.000987 0.033343 -0.002719 -0.000088
# 5 -0.009130 -0.000045 -0.007417 -0.002719 0.049666 -0.002371
# 6 -0.000888 -0.004636 0.000111 -0.000088 -0.002371 0.023738
#
#
# Mechanical properties :
#
#
# Convention : Reuss Voigt Hill
#
# Bulk Modulus (GPa) = 43.14978 73.81013 58.47995
# Shear Modulus (GPa) = 33.71175 45.05600 39.38388
#
# Velocity S-wave (km/s) = 3.78308 4.37352 4.08897
# Velocity P-wave (km/s) = 6.11560 7.53911 6.86436
#
# Compressibility (1/GPa) = 0.02317509
#
# Stress axis : x y z
#
# Youngs Moduli (GPa) = 120.16399 84.44259 119.82546
#
# Poissons Ratio (x) = -0.02126 0.08683
# Poissons Ratio (y) = -0.03025 0.26295
# Poissons Ratio (z) = 0.08708 0.18530
#
# Static dielectric constant tensor:
#      x y z
#    x 2.027420 -0.136560 0.077120 
#    y -0.136560 1.978560 0.000210 
#    z 0.077120 0.000210 2.029060 
# 
# From -- ./inp_files/15940.got.cif
#   From: 2010.05.17/outbox.cif.g08.bks.cpg/sg2_8_cif.got.tgz:15940.got - 2010.06.03 11:33:40.
