data_PCOD9039284
_publ_section_title
;
Structure prediction by ZEFSAII (Michael W. Deem and Ramdas Pophale) SiO2 
 PCOD9039284
Probable space group: P -1
;
_chemical_formula_sum "Si O2"
_cell_formula_units_Z 14
_cell_length_a 5.352482
_cell_length_b 13.841969
_cell_length_c 10.016583
_cell_angle_alpha 109.810577
_cell_angle_beta 75.842852
_cell_angle_gamma 124.544566
_cell_volume 573.778805
_symmetry_space_group_name_H-M "P -1"
_symmetry_group_IT_number 2
_symmetry_cell_setting 'triclinic'
loop_
_space_group_symop_operation_xyz
x,y,z
-x,-y,-z
loop_
_atom_site_type_symbol
_atom_site_label
_atom_site_fract_x
_atom_site_fract_y
_atom_site_fract_z
Si Si1 0.827629 0.770915 0.613904
Si Si2 0.360045 0.257834 0.976067
Si Si3 0.950424 0.701369 0.302280
Si Si4 0.904598 0.380886 0.365661
Si Si5 0.811013 0.989837 0.150925
Si Si6 0.245175 0.820985 0.037764
Si Si7 0.693918 0.430334 0.788131
O O1 0.951173 0.788289 0.454296
O O2 0.461740 0.705393 0.627223
O O3 0.005255 0.899161 0.725187
O O4 0.928726 0.684120 0.626927
O O5 0.554095 0.236421 0.047602
O O6 0.558890 0.385616 0.935200
O O7 0.025103 0.217505 0.046377
O O8 0.281038 0.141450 0.835948
O O9 0.596141 0.600985 0.277812
O O10 0.065985 0.756004 0.166588
O O11 0.155430 0.648960 0.295059
O O12 0.000000 0.500000 0.500000
O O13 0.046138 0.437381 0.228023
O O14 0.485603 0.958238 0.118547
O O15 0.000000 0.000000 0.000000
#
# Coordination Sequence:
#
# PCOD9039284 Si02
#       7
#     2   2   2   2   2   2   2
#     4  12  24  35  58  93 120 157 194 231 295 352
#     4   8  18  36  57  84 103 155 190 235 289 339
#     4  10  17  33  54  88 115 146 185 231 287 357
#     4  12  22  37  58  87 126 156 186 237 295 353
#     4  10  24  42  61  84 119 156 199 246 286 339
#     4   8  18  34  56  83 109 151 182 237 290 343
#     4  10  18  34  58  82 118 152 181 230 290 353
#
# _framework density 24.399645
#
# number of rings (size 3 to 8) (size 9 to 14) (size 15 to 20)
#    0.857    1.143    2.857    1.286    2.000    1.143 
#    0.000    1.429    0.000    1.714    0.000    0.000 
#    0.000    0.000    0.000    0.000    0.000    0.000 
#
# Total GULP energy -78073.102091 kJ/mol
# GULP energy per Si atom -5576.650149 kJ/mol
# Density = 2.434411 g / cm^3
# Si number density = 24.399645 Si / 1000 Ang^3
#
#
#
# Elastic Constant Matrix: (Units=GPa)
#
#
# Indices 1 2 3 4 5 6 
#
# 1 171.8106 23.3674 6.1714 14.4921 9.0760 34.3855
# 2 23.3674 72.8611 13.9663 12.8949 3.0744 10.6955
# 3 6.1714 13.9663 77.5713 25.6279 9.9139 12.7111
# 4 14.4921 12.8949 25.6279 42.0940 1.7388 3.5542
# 5 9.0760 3.0744 9.9139 1.7388 10.5206 0.9051
# 6 34.3855 10.6955 12.7111 3.5542 0.9051 49.6163
#
#
#
# Elastic Compliance Matrix: (Units=1/GPa)
#
#
# Indices 1 2 3 4 5 6 
#
# 1 0.007610 -0.001293 0.002426 -0.002945 -0.007534 -0.005268
# 2 -0.001293 0.015278 -0.001006 -0.003396 -0.001680 -0.001866
# 3 0.002426 -0.001006 0.019855 -0.011409 -0.018159 -0.005403
# 4 -0.002945 -0.003396 -0.011409 0.032124 0.008696 0.003236
# 5 -0.007534 -0.001680 -0.018159 0.008696 0.117072 0.007476
# 6 -0.005268 -0.001866 -0.005403 0.003236 0.007476 0.025224
#
#
# Mechanical properties :
#
#
# Convention : Reuss Voigt Hill
#
# Bulk Modulus (GPa) = 23.25689 45.47259 34.36474
# Shear Modulus (GPa) = 21.62253 39.02871 30.32562
#
# Velocity S-wave (km/s) = 2.98011 4.00379 3.52926
# Velocity P-wave (km/s) = 4.62534 6.32857 5.54277
#
# Compressibility (1/GPa) = 0.04299801
#
# Stress axis : x y z
#
# Youngs Moduli (GPa) = 131.40866 65.45372 50.36569
#
# Poissons Ratio (x) = 0.08465 -0.12221
# Poissons Ratio (y) = 0.16994 0.05064
# Poissons Ratio (z) = -0.31886 0.06582
#
# Static dielectric constant tensor:
#      x y z
#    x 2.163730 -0.030890 0.018920 
#    y -0.030890 1.981090 -0.013670 
#    z 0.018920 -0.013670 1.969470 
# 
# From -- ./inp_files/367069.got.cif
#   From: 2010.05.17/outbox.cif.g08.bks.cpg/sg2_184_cif.got.tgz:367069.got - 2010.06.03 11:33:40.
