data_PCOD9039089
_publ_section_title
;
Structure prediction by ZEFSAII (Michael W. Deem and Ramdas Pophale) SiO2 
 PCOD9039089
Probable space group: P -1
;
_chemical_formula_sum "Si O2"
_cell_formula_units_Z 14
_cell_length_a 9.384816
_cell_length_b 8.594432
_cell_length_c 7.742988
_cell_angle_alpha 74.028166
_cell_angle_beta 70.506398
_cell_angle_gamma 73.437708
_cell_volume 552.987013
_symmetry_space_group_name_H-M "P -1"
_symmetry_group_IT_number 2
_symmetry_cell_setting 'triclinic'
loop_
_space_group_symop_operation_xyz
x,y,z
-x,-y,-z
loop_
_atom_site_type_symbol
_atom_site_label
_atom_site_fract_x
_atom_site_fract_y
_atom_site_fract_z
Si Si1 0.261843 0.630542 0.681893
Si Si2 0.704376 0.660854 0.678471
Si Si3 0.874100 0.895132 0.044046
Si Si4 0.947152 0.833319 0.628635
Si Si5 0.568190 0.122526 0.059100
Si Si6 0.087871 0.593237 0.071247
Si Si7 0.438995 0.626247 0.311220
O O1 0.199281 0.682827 0.882926
O O2 0.374095 0.712281 0.490593
O O3 0.377006 0.451850 0.734321
O O4 0.099926 0.683745 0.625395
O O5 0.820719 0.784499 0.566952
O O6 0.644788 0.531059 0.618150
O O7 0.553960 0.772085 0.794163
O O8 0.806686 0.533472 0.810098
O O9 0.876390 0.861636 0.844486
O O10 0.945432 0.725008 0.164457
O O11 0.708769 0.998667 0.130133
O O12 0.000000 0.000000 0.000000
O O13 0.000000 0.000000 0.500000
O O14 0.610635 0.255927 0.866476
O O15 0.500000 0.000000 0.000000
O O16 0.000000 0.500000 0.000000
#
# Coordination Sequence:
#
# PCOD9039089 Si02
#       7
#     2   2   2   2   2   2   2
#     4  10  23  42  66  90 135 169 216 266 329 385
#     4  12  24  43  71  96 128 173 227 267 322 387
#     4  11  24  40  65  97 129 167 216 264 329 378
#     4  11  24  45  63  92 133 174 211 274 331 387
#     4  12  23  41  67 101 133 168 213 273 322 385
#     4  11  20  43  66  95 125 172 218 264 316 389
#     4  11  25  42  66 101 128 173 218 271 323 391
#
# _framework density 25.317049000000001
#
# number of rings (size 3 to 8) (size 9 to 14) (size 15 to 20)
#    0.000    0.857    5.714    2.143    4.000    0.571 
#    2.571    0.714    0.000    0.000    0.000    0.000 
#    0.000    0.000    0.000    0.000    0.000    0.000 
#
# Total GULP energy -78128.074568 kJ/mol
# GULP energy per Si atom -5580.576755 kJ/mol
# Density = 2.525943 g / cm^3
# Si number density = 25.317049 Si / 1000 Ang^3
#
#
#
# Elastic Constant Matrix: (Units=GPa)
#
#
# Indices 1 2 3 4 5 6 
#
# 1 124.2078 57.8261 8.2322 9.7226 -8.1106 -25.6663
# 2 57.8261 138.4481 21.0081 6.4481 -11.5194 -25.3711
# 3 8.2322 21.0081 84.8466 6.9172 -7.5838 -13.2027
# 4 9.7226 6.4481 6.9172 15.8385 6.6630 -7.2965
# 5 -8.1106 -11.5194 -7.5838 6.6630 26.4072 4.6576
# 6 -25.6663 -25.3711 -13.2027 -7.2965 4.6576 77.7304
#
#
#
# Elastic Compliance Matrix: (Units=1/GPa)
#
#
# Indices 1 2 3 4 5 6 
#
# 1 0.010786 -0.003788 0.000931 -0.006008 0.003138 0.001731
# 2 -0.003788 0.009561 -0.001428 -0.001486 0.002739 0.001324
# 3 0.000931 -0.001428 0.013290 -0.007469 0.005173 0.001088
# 4 -0.006008 -0.001486 -0.007469 0.084765 -0.027056 0.005840
# 5 0.003138 0.002739 0.005173 -0.027056 0.048808 -0.002656
# 6 0.001731 0.001324 0.001088 0.005840 -0.002656 0.014761
#
#
# Mechanical properties :
#
#
# Convention : Reuss Voigt Hill
#
# Bulk Modulus (GPa) = 39.89264 57.95949 48.92606
# Shear Modulus (GPa) = 25.13877 41.35762 33.24820
#
# Velocity S-wave (km/s) = 3.15454 4.04615 3.62784
# Velocity P-wave (km/s) = 5.39070 6.69116 6.07582
#
# Compressibility (1/GPa) = 0.02506728
#
# Stress axis : x y z
#
# Youngs Moduli (GPa) = 92.71418 104.58637 75.24627
#
# Poissons Ratio (x) = 0.39618 -0.07007
# Poissons Ratio (y) = 0.35121 0.10745
# Poissons Ratio (z) = -0.08633 0.14934
#
# Static dielectric constant tensor:
#      x y z
#    x 2.078850 0.081560 -0.011660 
#    y 0.081560 1.938660 -0.085630 
#    z -0.011660 -0.085630 2.008910 
# 
# From -- ./inp_files/157960.got.cif
#   From: 2010.05.17/outbox.cif.g08.bks.cpg/sg2_79_cif.got.tgz:157960.got - 2010.06.03 11:33:40.
