data_PCOD9039144
_publ_section_title
;
Structure prediction by ZEFSAII (Michael W. Deem and Ramdas Pophale) SiO2 
 PCOD9039144
Probable space group: P -1
;
_chemical_formula_sum "Si O2"
_cell_formula_units_Z 16
_cell_length_a 5.854398
_cell_length_b 15.304443
_cell_length_c 8.975270
_cell_angle_alpha 105.814206
_cell_angle_beta 100.630520
_cell_angle_gamma 109.933045
_cell_volume 692.331354
_symmetry_space_group_name_H-M "P -1"
_symmetry_group_IT_number 2
_symmetry_cell_setting 'triclinic'
loop_
_space_group_symop_operation_xyz
x,y,z
-x,-y,-z
loop_
_atom_site_type_symbol
_atom_site_label
_atom_site_fract_x
_atom_site_fract_y
_atom_site_fract_z
Si Si1 0.074999 0.103569 0.634502
Si Si2 0.221479 0.421353 0.979336
Si Si3 0.524782 0.126822 0.913993
Si Si4 0.981902 0.479271 0.240479
Si Si5 0.602966 0.416777 0.424833
Si Si6 0.718536 0.950543 0.865101
Si Si7 0.407223 0.216169 0.469013
Si Si8 0.154444 0.767342 0.248982
O O1 0.260595 0.102654 0.787143
O O2 0.211087 0.190249 0.569901
O O3 0.841861 0.124794 0.672678
O O4 0.000000 0.000000 0.500000
O O5 0.047031 0.452899 0.862541
O O6 0.135509 0.309180 0.858204
O O7 0.500000 0.500000 0.000000
O O8 0.136369 0.425586 0.142479
O O9 0.710084 0.223305 0.890445
O O10 0.616836 0.036881 0.876149
O O11 0.472092 0.132639 0.083018
O O12 0.714095 0.421259 0.271619
O O13 0.155851 0.550821 0.421076
O O14 0.500000 0.500000 0.500000
O O15 0.419186 0.306215 0.406551
O O16 0.689117 0.886541 0.683536
O O17 0.000000 0.000000 0.000000
O O18 0.677653 0.244811 0.601264
#
# Coordination Sequence:
#
# PCOD9039144 Si02
#       8
#     2   2   2   2   2   2   2   2
#     4  11  23  41  70 101 136 175 226 282 342 396
#     4  11  24  43  71  97 134 180 226 287 342 403
#     4  10  23  42  66  96 140 171 219 280 331 409
#     4  10  24  44  67  94 141 170 227 285 346 400
#     4  11  24  45  68 100 138 180 227 283 344 415
#     4  11  23  44  68  99 140 175 220 274 344 405
#     4  11  25  42  71  96 132 182 228 276 339 412
#     4  11  24  43  69  99 132 176 237 273 337 409
#
# _framework density 23.110320999999999
#
# number of rings (size 3 to 8) (size 9 to 14) (size 15 to 20)
#    0.000    1.250    1.250    3.750    5.250    4.000 
#    6.750    0.000    0.000    0.000    0.000    0.000 
#    0.000    0.000    0.000    0.000    0.000    0.000 
#
# Total GULP energy -89146.793782 kJ/mol
# GULP energy per Si atom -5571.674611 kJ/mol
# Density = 2.305772 g / cm^3
# Si number density = 23.110321 Si / 1000 Ang^3
#
#
#
# Elastic Constant Matrix: (Units=GPa)
#
#
# Indices 1 2 3 4 5 6 
#
# 1 52.5071 16.2913 17.8759 -6.4835 -19.4370 3.3113
# 2 16.2913 77.2598 25.6071 -9.8452 -13.6448 7.8116
# 3 17.8759 25.6071 109.5863 -10.3781 -32.5951 16.5489
# 4 -6.4835 -9.8452 -10.3781 42.0673 5.3246 1.7965
# 5 -19.4370 -13.6448 -32.5951 5.3246 42.2281 -3.9335
# 6 3.3113 7.8116 16.5489 1.7965 -3.9335 24.0662
#
#
#
# Elastic Compliance Matrix: (Units=1/GPa)
#
#
# Indices 1 2 3 4 5 6 
#
# 1 0.023840 -0.003000 -0.000007 0.001780 0.009695 -0.000850
# 2 -0.003000 0.015100 -0.001902 0.002557 0.001415 -0.003140
# 3 -0.000007 -0.001902 0.013521 0.002082 0.008868 -0.007385
# 4 0.001780 0.002557 0.002082 0.025395 -0.000365 -0.004462
# 5 0.009695 0.001415 0.008868 -0.000365 0.035297 -0.002095
# 6 -0.000850 -0.003140 -0.007385 -0.004462 -0.002095 0.047757
#
#
# Mechanical properties :
#
#
# Convention : Reuss Voigt Hill
#
# Bulk Modulus (GPa) = 23.45026 39.87799 31.66412
# Shear Modulus (GPa) = 27.03551 33.64423 30.33987
#
# Velocity S-wave (km/s) = 3.42401 3.81965 3.62723
# Velocity P-wave (km/s) = 5.07946 6.06184 5.59226
#
# Compressibility (1/GPa) = 0.04264345
#
# Stress axis : x y z
#
# Youngs Moduli (GPa) = 41.94551 66.22731 73.95882
#
# Poissons Ratio (x) = 0.19866 0.00055
# Poissons Ratio (y) = 0.12583 0.14064
# Poissons Ratio (z) = 0.00031 0.12594
#
# Static dielectric constant tensor:
#      x y z
#    x 1.915120 0.051580 -0.022040 
#    y 0.051580 1.995080 -0.024320 
#    z -0.022040 -0.024320 1.946370 
# 
# From -- ./inp_files/135551.got.cif
#   From: 2010.05.17/outbox.cif.g08.bks.cpg/sg2_68_cif.got.tgz:135551.got - 2010.06.03 11:33:40.
