data_PCOD9039341
_publ_section_title
;
Structure prediction by ZEFSAII (Michael W. Deem and Ramdas Pophale) SiO2 
 PCOD9039341
Probable space group: P -1
;
_chemical_formula_sum "Si O2"
_cell_formula_units_Z 16
_cell_length_a 19.473526
_cell_length_b 9.419389
_cell_length_c 15.014991
_cell_angle_alpha 128.886356
_cell_angle_beta 160.695265
_cell_angle_gamma 52.058675
_cell_volume 706.051157
_symmetry_space_group_name_H-M "P -1"
_symmetry_group_IT_number 2
_symmetry_cell_setting 'triclinic'
loop_
_space_group_symop_operation_xyz
x,y,z
-x,-y,-z
loop_
_atom_site_type_symbol
_atom_site_label
_atom_site_fract_x
_atom_site_fract_y
_atom_site_fract_z
Si Si1 0.373749 0.460692 0.420338
Si Si2 0.417658 0.055638 0.756863
Si Si3 0.289296 0.707661 0.133024
Si Si4 0.102169 0.415951 0.501782
Si Si5 0.107388 0.959684 0.471002
Si Si6 0.812209 0.192032 0.747268
Si Si7 0.791062 0.934594 0.912641
Si Si8 0.846211 0.221317 0.373152
O O1 0.500000 0.500000 0.500000
O O2 0.526975 0.454243 0.690568
O O3 0.199405 0.628776 0.261879
O O4 0.304407 0.255307 0.258222
O O5 0.268223 0.243571 0.648959
O O6 0.330934 0.953602 0.695911
O O7 0.356483 0.937363 0.550270
O O8 0.654573 0.099395 0.071073
O O9 0.230523 0.764155 0.185054
O O10 0.088600 0.640694 0.813603
O O11 0.349023 0.882251 0.216510
O O12 0.210502 0.575976 0.648773
O O13 0.000000 0.500000 0.500000
O O14 0.099603 0.790416 0.461249
O O15 0.934053 0.972897 0.187377
O O16 0.044768 0.133192 0.526157
O O17 0.042741 0.097859 0.977015
#
# Coordination Sequence:
#
# PCOD9039341 Si02
#       8
#     2   2   2   2   2   2   2   2
#     4  10  24  39  64  99 130 170 225 270 325 413
#     4  11  23  46  69  99 139 173 229 281 334 404
#     4  11  23  43  69  97 134 178 218 277 340 397
#     4  12  24  47  66  99 138 176 226 285 332 400
#     4  10  23  42  67  99 134 177 219 286 329 403
#     4  10  23  43  67  98 135 173 218 285 332 397
#     4  11  21  43  66  94 138 173 219 274 344 388
#     4  11  24  40  73  96 132 185 222 271 345 393
#
# _framework density 22.661246999999999
#
# number of rings (size 3 to 8) (size 9 to 14) (size 15 to 20)
#    0.000    1.250    3.750    1.875    7.000    1.000 
#    6.750    0.000    0.000    0.000    0.000    0.000 
#    0.000    0.000    0.000    0.000    0.000    0.000 
#
# Total GULP energy -89375.961943 kJ/mol
# GULP energy per Si atom -5585.997621 kJ/mol
# Density = 2.260967 g / cm^3
# Si number density = 22.661247 Si / 1000 Ang^3
#
#
#
# Elastic Constant Matrix: (Units=GPa)
#
#
# Indices 1 2 3 4 5 6 
#
# 1 89.1976 27.7100 25.5209 8.3323 -23.1261 7.7137
# 2 27.7100 104.6772 20.0765 -11.7737 -11.2556 22.5164
# 3 25.5209 20.0765 83.2802 4.2758 -9.6598 6.8556
# 4 8.3323 -11.7737 4.2758 36.4793 4.3541 0.8715
# 5 -23.1261 -11.2556 -9.6598 4.3541 26.9953 -0.7474
# 6 7.7137 22.5164 6.8556 0.8715 -0.7474 35.2576
#
#
#
# Elastic Compliance Matrix: (Units=1/GPa)
#
#
# Indices 1 2 3 4 5 6 
#
# 1 0.017002 -0.003099 -0.002533 -0.006159 0.013338 -0.000813
# 2 -0.003099 0.012989 -0.001708 0.005143 0.001116 -0.007388
# 3 -0.002533 -0.001708 0.013626 -0.001818 0.002262 -0.000912
# 4 -0.006159 0.005143 -0.001818 0.031827 -0.008987 -0.002561
# 5 0.013338 0.001116 0.002262 -0.008987 0.051117 -0.002765
# 6 -0.000813 -0.007388 -0.000912 -0.002561 -0.002765 0.033441
#
#
# Mechanical properties :
#
#
# Convention : Reuss Voigt Hill
#
# Bulk Modulus (GPa) = 34.55678 47.08555 40.82117
# Shear Modulus (GPa) = 27.12566 33.33629 30.23097
#
# Velocity S-wave (km/s) = 3.46353 3.83961 3.65641
# Velocity P-wave (km/s) = 5.59260 6.36239 5.98987
#
# Compressibility (1/GPa) = 0.02893788
#
# Stress axis : x y z
#
# Youngs Moduli (GPa) = 58.81610 76.98940 73.38694
#
# Poissons Ratio (x) = 0.23856 0.18589
# Poissons Ratio (y) = 0.18225 0.12535
# Poissons Ratio (z) = 0.14898 0.13151
#
# Static dielectric constant tensor:
#      x y z
#    x 1.870420 -0.020540 0.039280 
#    y -0.020540 1.905600 -0.023690 
#    z 0.039280 -0.023690 1.875330 
# 
# From -- ./inp_files/434267.got.cif
#   From: 2010.05.17/outbox.cif.g08.bks.cpg/sg2_218_cif.got.tgz:434267.got - 2010.06.03 11:33:40.
