data_PCOD9039190
_publ_section_title
;
Structure prediction by ZEFSAII (Michael W. Deem and Ramdas Pophale) SiO2 
 PCOD9039190
Probable space group: P -1
;
_chemical_formula_sum "Si O2"
_cell_formula_units_Z 16
_cell_length_a 27.506106
_cell_length_b 18.364600
_cell_length_c 5.245991
_cell_angle_alpha 107.364718
_cell_angle_beta 115.019849
_cell_angle_gamma 17.599426
_cell_volume 670.969087
_symmetry_space_group_name_H-M "P -1"
_symmetry_group_IT_number 2
_symmetry_cell_setting 'triclinic'
loop_
_space_group_symop_operation_xyz
x,y,z
-x,-y,-z
loop_
_atom_site_type_symbol
_atom_site_label
_atom_site_fract_x
_atom_site_fract_y
_atom_site_fract_z
Si Si1 0.706715 0.359727 0.300379
Si Si2 0.104848 0.092314 0.329286
Si Si3 0.707998 0.942024 0.272235
Si Si4 0.655924 0.596292 0.315790
Si Si5 0.971527 0.120466 0.183789
Si Si6 0.076716 0.460687 0.315960
Si Si7 0.891504 0.423437 0.716453
Si Si8 0.516177 0.353749 0.408712
O O1 0.704348 0.454999 0.439105
O O2 0.905254 0.054378 0.469126
O O3 0.578724 0.498895 0.381948
O O4 0.622474 0.461283 0.942811
O O5 0.028182 0.211881 0.568695
O O6 0.057276 0.069259 0.150051
O O7 0.317788 0.817678 0.479276
O O8 0.994595 0.287585 0.071850
O O9 0.780011 0.774472 0.425183
O O10 0.888427 0.735803 0.336242
O O11 0.607722 0.145232 0.416208
O O12 0.559770 0.113875 0.918366
O O13 0.734171 0.572341 0.543831
O O14 0.769700 0.421240 0.127413
O O15 0.000000 0.000000 0.000000
O O16 0.159684 0.421309 0.319705
O O17 0.000000 0.500000 0.000000
#
# Coordination Sequence:
#
# PCOD9039190 Si02
#       8
#     2   2   2   2   2   2   2   2
#     4  11  24  40  69  99 135 177 229 280 329 393
#     4  11  24  42  69  98 137 182 223 279 338 396
#     4  10  23  42  67 100 132 174 226 269 343 399
#     4  10  24  44  69  98 137 185 220 274 339 409
#     4  11  23  44  68  98 138 182 231 276 335 398
#     4  11  24  42  72  99 132 174 224 285 331 405
#     4  11  24  44  68 101 138 177 224 274 342 399
#     4  11  23  42  68 100 136 178 224 281 335 402
#
# _framework density 23.846108000000001
#
# number of rings (size 3 to 8) (size 9 to 14) (size 15 to 20)
#    0.000    1.250    1.250    4.125    7.000    6.500 
#    0.000    0.625    0.000    0.000    0.000    0.000 
#    0.000    0.000    0.000    0.000    0.000    0.000 
#
# Total GULP energy -89557.827008 kJ/mol
# GULP energy per Si atom -5597.364188 kJ/mol
# Density = 2.379183 g / cm^3
# Si number density = 23.846108 Si / 1000 Ang^3
#
#
#
# Elastic Constant Matrix: (Units=GPa)
#
#
# Indices 1 2 3 4 5 6 
#
# 1 137.5204 0.2476 27.0932 -15.4813 2.9644 3.6133
# 2 0.2476 60.8518 19.6413 -7.4262 -7.7077 -4.2676
# 3 27.0932 19.6413 84.3252 -19.0566 -3.3341 -0.2721
# 4 -15.4813 -7.4262 -19.0566 36.7974 10.3225 -5.4680
# 5 2.9644 -7.7077 -3.3341 10.3225 34.7987 0.3895
# 6 3.6133 -4.2676 -0.2721 -5.4680 0.3895 33.3474
#
#
#
# Elastic Compliance Matrix: (Units=1/GPa)
#
#
# Indices 1 2 3 4 5 6 
#
# 1 0.008062 0.000803 -0.002207 0.002798 -0.001547 -0.000312
# 2 0.000803 0.018506 -0.004116 0.001409 0.003191 0.002441
# 3 -0.002207 -0.004116 0.014940 0.006454 -0.001217 0.000907
# 4 0.002798 0.001409 0.006454 0.035646 -0.009948 0.005891
# 5 -0.001547 0.003191 -0.001217 -0.009948 0.032426 -0.001444
# 6 -0.000312 0.002441 0.000907 0.005891 -0.001444 0.031324
#
#
# Mechanical properties :
#
#
# Convention : Reuss Voigt Hill
#
# Bulk Modulus (GPa) = 32.82156 41.85130 37.33643
# Shear Modulus (GPa) = 30.84544 36.70306 33.77425
#
# Velocity S-wave (km/s) = 3.60046 3.92747 3.76752
# Velocity P-wave (km/s) = 5.57478 6.17701 5.88360
#
# Compressibility (1/GPa) = 0.03046778
#
# Stress axis : x y z
#
# Youngs Moduli (GPa) = 124.04524 54.03659 66.93419
#
# Poissons Ratio (x) = -0.04341 0.14772
# Poissons Ratio (y) = -0.09964 0.27551
# Poissons Ratio (z) = 0.27377 0.22242
#
# Static dielectric constant tensor:
#      x y z
#    x 1.926840 0.014670 0.030220 
#    y 0.014670 1.937660 0.035870 
#    z 0.030220 0.035870 1.931710 
# 
# From -- ./inp_files/127445.got.cif
#   From: 2010.05.17/outbox.cif.g08.bks.cpg/sg2_64_cif.got.tgz:127445.got - 2010.06.03 11:33:40.
