data_PCOD9039328
_publ_section_title
;
Structure prediction by ZEFSAII (Michael W. Deem and Ramdas Pophale) SiO2 
 PCOD9039328
Probable space group: P -1
;
_chemical_formula_sum "Si O2"
_cell_formula_units_Z 16
_cell_length_a 11.552557
_cell_length_b 11.609843
_cell_length_c 12.119238
_cell_angle_alpha 43.807256
_cell_angle_beta 72.520880
_cell_angle_gamma 105.574421
_cell_volume 727.825451
_symmetry_space_group_name_H-M "P -1"
_symmetry_group_IT_number 2
_symmetry_cell_setting 'triclinic'
loop_
_space_group_symop_operation_xyz
x,y,z
-x,-y,-z
loop_
_atom_site_type_symbol
_atom_site_label
_atom_site_fract_x
_atom_site_fract_y
_atom_site_fract_z
Si Si1 0.230290 0.094032 0.558113
Si Si2 0.077141 0.980379 0.255498
Si Si3 0.705135 0.657887 0.853444
Si Si4 0.206199 0.177333 0.848768
Si Si5 0.731933 0.067593 0.148249
Si Si6 0.596398 0.277807 0.287695
Si Si7 0.018788 0.547990 0.591662
Si Si8 0.674686 0.341461 0.456579
O O1 0.198619 0.142708 0.411643
O O2 0.444028 0.264064 0.374586
O O3 0.105470 0.099831 0.655099
O O4 0.184267 0.880354 0.789950
O O5 0.019283 0.742860 0.476815
O O6 0.202338 0.185977 0.170005
O O7 0.192020 0.083801 0.039293
O O8 0.500000 0.500000 0.000000
O O9 0.689214 0.442550 0.035755
O O10 0.302169 0.451184 0.643050
O O11 0.283951 0.128378 0.772058
O O12 0.000000 0.000000 0.000000
O O13 0.529177 0.926407 0.303128
O O14 0.860404 0.302826 0.873192
O O15 0.726759 0.402083 0.270071
O O16 0.500000 0.000000 0.500000
O O17 0.200273 0.651845 0.514203
O O18 0.000000 0.500000 0.500000
#
# Coordination Sequence:
#
# PCOD9039328 Si02
#       8
#     2   2   2   2   2   2   2   2
#     4  10  23  42  67  98 131 175 230 276 336 417
#     4  12  23  43  70  96 137 186 220 285 353 393
#     4  10  23  44  65  98 135 177 230 274 340 414
#     4  12  20  43  72  96 138 179 225 288 340 415
#     4  11  24  45  69 104 136 182 236 279 345 410
#     4  10  23  44  71  99 134 174 227 289 342 404
#     4  12  26  45  65 101 145 179 227 293 334 403
#     4  11  24  43  70 101 136 183 228 278 355 405
#
# _framework density 21.983293
#
# number of rings (size 3 to 8) (size 9 to 14) (size 15 to 20)
#    0.000    1.000    5.000    0.750    3.500    2.500 
#    2.250    1.250    0.000    0.000    0.000    0.000 
#    0.000    0.000    0.000    0.000    0.000    0.000 
#
# Total GULP energy -89068.761174 kJ/mol
# GULP energy per Si atom -5566.797573 kJ/mol
# Density = 2.193326 g / cm^3
# Si number density = 21.983293 Si / 1000 Ang^3
#
#
#
# Elastic Constant Matrix: (Units=GPa)
#
#
# Indices 1 2 3 4 5 6 
#
# 1 125.2265 28.3455 54.8012 -1.4957 10.5854 23.5195
# 2 28.3455 67.2255 33.9300 1.0555 6.6284 21.5164
# 3 54.8012 33.9300 117.9051 5.8873 21.3102 23.7282
# 4 -1.4957 1.0555 5.8873 47.4423 0.6837 15.0785
# 5 10.5854 6.6284 21.3102 0.6837 38.4619 13.8332
# 6 23.5195 21.5164 23.7282 15.0785 13.8332 29.5580
#
#
#
# Elastic Compliance Matrix: (Units=1/GPa)
#
#
# Indices 1 2 3 4 5 6 
#
# 1 0.011223 -0.000347 -0.004018 0.003427 0.002075 -0.008171
# 2 -0.000347 0.022051 -0.003721 0.005551 0.004661 -0.017801
# 3 -0.004018 -0.003721 0.012620 -0.001071 -0.004693 -0.001482
# 4 0.003427 0.005551 -0.001071 0.028610 0.006684 -0.023631
# 5 0.002075 0.004661 -0.004693 0.006684 0.034620 -0.020889
# 6 -0.008171 -0.017801 -0.001482 -0.023631 -0.020889 0.076312
#
#
# Mechanical properties :
#
#
# Convention : Reuss Voigt Hill
#
# Bulk Modulus (GPa) = 33.64762 60.50117 47.07439
# Shear Modulus (GPa) = 23.63907 35.97779 29.80843
#
# Velocity S-wave (km/s) = 3.28276 4.04988 3.68633
# Velocity P-wave (km/s) = 5.45050 7.03206 6.29118
#
# Compressibility (1/GPa) = 0.02971979
#
# Stress axis : x y z
#
# Youngs Moduli (GPa) = 89.10512 45.35038 79.24048
#
# Poissons Ratio (x) = 0.01574 0.31839
# Poissons Ratio (y) = 0.03093 0.29489
# Poissons Ratio (z) = 0.35803 0.16877
#
# Static dielectric constant tensor:
#      x y z
#    x 1.875940 0.026230 0.117200 
#    y 0.026230 1.897620 0.053380 
#    z 0.117200 0.053380 2.084120 
# 
# From -- ./inp_files/272318.got.cif
#   From: 2010.05.17/outbox.cif.g08.bks.cpg/sg2_137_cif.got.tgz:272318.got - 2010.06.03 11:33:40.
