data_PCOD9039397
_publ_section_title
;
Structure prediction by ZEFSAII (Michael W. Deem and Ramdas Pophale) SiO2 
 PCOD9039397
Probable space group: P -1
;
_chemical_formula_sum "Si O2"
_cell_formula_units_Z 14
_cell_length_a 25.915028
_cell_length_b 9.813816
_cell_length_c 12.020742
_cell_angle_alpha 141.553372
_cell_angle_beta 28.700503
_cell_angle_gamma 153.888933
_cell_volume 646.010254
_symmetry_space_group_name_H-M "P -1"
_symmetry_group_IT_number 2
_symmetry_cell_setting 'triclinic'
loop_
_space_group_symop_operation_xyz
x,y,z
-x,-y,-z
loop_
_atom_site_type_symbol
_atom_site_label
_atom_site_fract_x
_atom_site_fract_y
_atom_site_fract_z
Si Si1 0.646293 0.580702 0.816447
Si Si2 0.367314 0.763734 0.184867
Si Si3 0.676636 0.295481 0.377256
Si Si4 0.191915 0.895364 0.668781
Si Si5 0.891631 0.207014 0.874251
Si Si6 0.876901 0.903858 0.260947
Si Si7 0.108167 0.137895 0.155163
O O1 0.600039 0.391983 0.896261
O O2 0.688231 0.461621 0.569984
O O3 0.790566 0.939685 0.801770
O O4 0.500000 0.500000 0.000000
O O5 0.327448 0.918056 0.432787
O O6 0.217480 0.475697 0.216522
O O7 0.500000 0.000000 0.000000
O O8 0.749919 0.539348 0.293128
O O9 0.500000 0.000000 0.500000
O O10 0.776616 0.220636 0.152328
O O11 0.036335 0.543456 0.768350
O O12 0.189300 0.980186 0.600918
O O13 0.195932 0.106289 0.880607
O O14 0.939111 0.095528 0.805169
O O15 0.971680 0.053076 0.291302
O O16 0.000000 0.000000 0.000000
#
# Coordination Sequence:
#
# PCOD9039397 Si02
#       7
#     2   2   2   2   2   2   2
#     4  11  26  43  65  99 130 173 226 268 323 407
#     4  11  28  44  63  99 135 175 218 276 340 384
#     4  12  24  42  71  98 134 176 219 275 329 387
#     4  11  24  43  69  94 132 176 215 276 332 389
#     4  11  23  42  68  98 130 171 223 272 335 382
#     4  10  23  42  68 103 129 172 229 267 325 401
#     4  10  23  42  68  97 130 168 227 270 322 405
#
# _framework density 21.671485000000001
#
# number of rings (size 3 to 8) (size 9 to 14) (size 15 to 20)
#    0.000    1.143    4.286    1.286    6.000    5.714 
#    0.000    0.000    0.000    0.000    0.000    0.000 
#    0.000    0.000    0.000    0.000    0.000    0.000 
#
# Total GULP energy -78311.016792 kJ/mol
# GULP energy per Si atom -5593.644057 kJ/mol
# Density = 2.162216 g / cm^3
# Si number density = 21.671485 Si / 1000 Ang^3
#
#
#
# Elastic Constant Matrix: (Units=GPa)
#
#
# Indices 1 2 3 4 5 6 
#
# 1 83.6686 9.3016 -9.2862 -2.7502 -4.3249 -1.6422
# 2 9.3016 57.6991 3.6139 -10.3288 17.4509 -12.6389
# 3 -9.2862 3.6139 72.0451 4.0160 15.0018 9.1655
# 4 -2.7502 -10.3288 4.0160 39.2363 2.2886 10.2923
# 5 -4.3249 17.4509 15.0018 2.2886 35.0142 6.7107
# 6 -1.6422 -12.6389 9.1655 10.2923 6.7107 34.7334
#
#
#
# Elastic Compliance Matrix: (Units=1/GPa)
#
#
# Indices 1 2 3 4 5 6 
#
# 1 0.012598 -0.003325 0.001377 0.000110 0.002917 -0.001574
# 2 -0.003325 0.025819 -0.000117 0.004623 -0.015623 0.010917
# 3 0.001377 -0.000117 0.015682 -0.000449 -0.005917 -0.002839
# 4 0.000110 0.004623 -0.000449 0.028522 -0.002792 -0.006106
# 5 0.002917 -0.015623 -0.005917 -0.002792 0.041569 -0.011190
# 6 -0.001574 0.010917 -0.002839 -0.006106 -0.011190 0.037409
#
#
# Mechanical properties :
#
#
# Convention : Reuss Voigt Hill
#
# Bulk Modulus (GPa) = 20.01227 24.51904 22.26566
# Shear Modulus (GPa) = 27.41466 35.78234 31.59850
#
# Velocity S-wave (km/s) = 3.56056 4.06781 3.82261
# Velocity P-wave (km/s) = 5.11447 5.77939 5.45707
#
# Compressibility (1/GPa) = 0.04996935
#
# Stress axis : x y z
#
# Youngs Moduli (GPa) = 79.37836 38.73165 63.76780
#
# Poissons Ratio (x) = 0.12877 -0.08782
# Poissons Ratio (y) = 0.26390 0.00747
# Poissons Ratio (z) = -0.10932 0.00453
#
# Static dielectric constant tensor:
#      x y z
#    x 1.845070 -0.005820 -0.025130 
#    y -0.005820 1.760550 0.011990 
#    z -0.025130 0.011990 1.814900 
# 
# From -- ./inp_files/283474.got.cif
#   From: 2010.05.17/outbox.cif.g08.bks.cpg/sg2_142_cif.got.tgz:283474.got - 2010.06.03 11:33:40.
