data_PCOD9039407
_publ_section_title
;
Structure prediction by ZEFSAII (Michael W. Deem and Ramdas Pophale) SiO2 
 PCOD9039407
Probable space group: P -1
;
_chemical_formula_sum "Si O2"
_cell_formula_units_Z 16
_cell_length_a 11.729601
_cell_length_b 9.281222
_cell_length_c 20.512456
_cell_angle_alpha 132.608179
_cell_angle_beta 147.828931
_cell_angle_gamma 70.988661
_cell_volume 678.884313
_symmetry_space_group_name_H-M "P -1"
_symmetry_group_IT_number 2
_symmetry_cell_setting 'triclinic'
loop_
_space_group_symop_operation_xyz
x,y,z
-x,-y,-z
loop_
_atom_site_type_symbol
_atom_site_label
_atom_site_fract_x
_atom_site_fract_y
_atom_site_fract_z
Si Si1 0.123627 0.721828 0.313864
Si Si2 0.786389 0.340849 0.420828
Si Si3 0.481950 0.052995 0.309164
Si Si4 0.893124 0.556556 0.902628
Si Si5 0.791313 0.070851 0.173350
Si Si6 0.430634 0.334948 0.142263
Si Si7 0.510933 0.638744 0.146134
Si Si8 0.081059 0.019933 0.659613
O O1 0.194818 0.647861 0.258897
O O2 0.319422 0.756443 0.477815
O O3 0.148430 0.971001 0.415461
O O4 0.785520 0.509136 0.079575
O O5 0.647646 0.320635 0.279137
O O6 0.932409 0.210744 0.446024
O O7 0.982231 0.632399 0.623232
O O8 0.556833 0.198463 0.322207
O O9 0.562121 0.874157 0.278385
O O10 0.154302 0.844751 0.098207
O O11 0.650194 0.552377 0.809172
O O12 0.000000 0.500000 0.000000
O O13 0.754972 0.934693 0.181532
O O14 0.500000 0.000000 0.000000
O O15 0.829659 0.944163 0.093113
O O16 0.507148 0.486058 0.157647
O O17 0.753953 0.763217 0.248926
#
# Coordination Sequence:
#
# PCOD9039407 Si02
#       8
#     2   2   2   2   2   2   2   2
#     4  11  23  41  73 103 137 180 232 288 346 411
#     4  11  28  46  67 107 146 185 231 281 360 426
#     4  10  25  44  70 103 139 185 237 288 346 416
#     4  11  23  48  71 108 137 180 237 297 350 399
#     4  12  26  42  68 102 146 190 228 279 355 424
#     4  12  25  46  74 100 146 181 235 295 347 418
#     4  10  23  42  68 104 137 181 232 295 352 400
#     4  11  23  44  69 105 141 180 233 283 355 419
#
# _framework density 23.568080999999999
#
# number of rings (size 3 to 8) (size 9 to 14) (size 15 to 20)
#    0.000    1.000    5.000    0.750    3.500    5.000 
#    0.000    1.250    0.000    0.000    0.000    0.000 
#    0.000    0.000    0.000    0.000    0.000    0.000 
#
# Total GULP energy -89190.659878 kJ/mol
# GULP energy per Si atom -5574.416242 kJ/mol
# Density = 2.351444 g / cm^3
# Si number density = 23.568081 Si / 1000 Ang^3
#
#
#
# Elastic Constant Matrix: (Units=GPa)
#
#
# Indices 1 2 3 4 5 6 
#
# 1 93.2579 28.8204 40.7781 55.8032 -17.2440 -4.6732
# 2 28.8204 94.8134 35.6919 26.9153 0.0060 18.2986
# 3 40.7781 35.6919 136.7031 20.3256 -19.6830 16.6565
# 4 55.8032 26.9153 20.3256 -3.9525 -10.8882 7.1340
# 5 -17.2440 0.0060 -19.6830 -10.8882 30.9915 11.2029
# 6 -4.6732 18.2986 16.6565 7.1340 11.2029 41.6899
#
#
#
# Elastic Compliance Matrix: (Units=1/GPa)
#
#
# Indices 1 2 3 4 5 6 
#
# 1 0.005606 -0.005101 -0.001199 0.014387 0.007857 -0.001227
# 2 -0.005101 0.013258 -0.001707 0.002101 -0.001100 -0.005773
# 3 -0.001199 -0.001707 0.010021 -0.002858 0.006359 -0.004608
# 4 0.014387 0.002101 -0.002858 -0.023928 -0.004828 0.007224
# 5 0.007857 -0.001100 0.006359 -0.004828 0.043316 -0.011991
# 6 -0.001227 -0.005773 -0.004608 0.007224 -0.011991 0.030210
#
#
# Mechanical properties :
#
#
# Convention : Reuss Voigt Hill
#
# Bulk Modulus (GPa) = 77.69683 59.48391 68.59037
# Shear Modulus (GPa) = 50.61443 28.37806 39.49624
#
# Velocity S-wave (km/s) = 4.63923 3.47376 4.09814
# Velocity P-wave (km/s) = 7.85717 6.43299 7.18048
#
# Compressibility (1/GPa) = 0.01287054
#
# Stress axis : x y z
#
# Youngs Moduli (GPa) = 178.38902 75.42659 99.79460
#
# Poissons Ratio (x) = 0.38472 0.11964
# Poissons Ratio (y) = 0.90988 0.17040
# Poissons Ratio (z) = 0.21386 0.12879
#
# Static dielectric constant tensor:
#      x y z
#    x 1.621670 1.125980 0.760370 
#    y 1.125980 -2.257460 -2.760780 
#    z 0.760370 -2.760780 0.101920 
# 
# From -- ./inp_files/566961.got.cif
#   From: 2010.05.17/outbox.cif.g08.bks.cpg/sg2_284_cif.got.tgz:566961.got - 2010.06.03 11:33:40.
