data_PCOD9039103
_publ_section_title
;
Structure prediction by ZEFSAII (Michael W. Deem and Ramdas Pophale) SiO2 
 PCOD9039103
Probable space group: P -1
;
_chemical_formula_sum "Si O2"
_cell_formula_units_Z 14
_cell_length_a 18.743060
_cell_length_b 23.932799
_cell_length_c 7.476307
_cell_angle_alpha 130.738346
_cell_angle_beta 37.806045
_cell_angle_gamma 159.911994
_cell_volume 639.232991
_symmetry_space_group_name_H-M "P -1"
_symmetry_group_IT_number 2
_symmetry_cell_setting 'triclinic'
loop_
_space_group_symop_operation_xyz
x,y,z
-x,-y,-z
loop_
_atom_site_type_symbol
_atom_site_label
_atom_site_fract_x
_atom_site_fract_y
_atom_site_fract_z
Si Si1 0.005300 0.700406 0.604144
Si Si2 0.855012 0.996899 0.325063
Si Si3 0.423880 0.078107 0.585974
Si Si4 0.923219 0.036959 0.666923
Si Si5 0.761197 0.632697 0.633787
Si Si6 0.425412 0.546211 0.741793
Si Si7 0.989203 0.407768 0.340997
O O1 0.905998 0.648173 0.487430
O O2 0.082959 0.668550 0.479835
O O3 0.752319 0.579497 0.990450
O O4 0.255463 0.904328 0.538080
O O5 0.765185 0.939341 0.587390
O O6 0.061142 0.188363 0.327073
O O7 0.624365 0.892301 0.420463
O O8 0.000000 0.000000 0.000000
O O9 0.743082 0.242250 0.346783
O O10 0.270382 0.030833 0.954834
O O11 0.238086 0.255470 0.489473
O O12 0.000000 0.000000 0.500000
O O13 0.677107 0.557481 0.445938
O O14 0.500000 0.500000 0.000000
O O15 0.295935 0.552831 0.987542
O O16 0.000000 0.500000 0.500000
#
# Coordination Sequence:
#
# PCOD9039103 Si02
#       7
#     2   2   2   2   2   2   2
#     4   9  22  40  66  89 128 166 211 259 319 376
#     4  11  24  39  62  96 131 163 209 268 314 375
#     4  11  22  43  64  92 125 170 213 258 317 382
#     4  12  23  39  65  95 128 167 213 262 323 373
#     4  11  22  39  65  97 127 166 213 260 319 379
#     4  10  23  42  66  93 128 165 215 263 318 375
#     4  10  23  44  64  90 130 171 209 266 319 376
#
# _framework density 21.901247000000001
#
# number of rings (size 3 to 8) (size 9 to 14) (size 15 to 20)
#    0.857    0.571    1.429    4.714    0.000    1.714 
#    2.571    2.143    0.000    0.000    0.000    0.000 
#    0.000    0.000    0.000    0.000    0.000    0.000 
#
# Total GULP energy -78020.093309 kJ/mol
# GULP energy per Si atom -5572.863808 kJ/mol
# Density = 2.185140 g / cm^3
# Si number density = 21.901247 Si / 1000 Ang^3
#
#
#
# Elastic Constant Matrix: (Units=GPa)
#
#
# Indices 1 2 3 4 5 6 
#
# 1 162.2963 33.4293 14.0439 6.2003 -14.9576 -0.3740
# 2 33.4293 46.0183 -0.7932 9.3455 4.7887 1.9857
# 3 14.0439 -0.7932 43.5080 3.5510 -12.0432 5.0897
# 4 6.2003 9.3455 3.5510 21.9547 -9.3552 -12.0057
# 5 -14.9576 4.7887 -12.0432 -9.3552 35.3159 13.7545
# 6 -0.3740 1.9857 5.0897 -12.0057 13.7545 38.0196
#
#
#
# Elastic Compliance Matrix: (Units=1/GPa)
#
#
# Indices 1 2 3 4 5 6 
#
# 1 0.008044 -0.006920 -0.001683 0.002841 0.004557 -0.000086
# 2 -0.006920 0.031722 0.002132 -0.018380 -0.009697 -0.004306
# 3 -0.001683 0.002132 0.028149 -0.005607 0.010847 -0.009591
# 4 0.002841 -0.018380 -0.005607 0.069302 0.012736 0.019015
# 5 0.004557 -0.009697 0.010847 0.012736 0.043555 -0.012636
# 6 -0.000086 -0.004306 -0.009591 0.019015 -0.012636 0.038386
#
#
# Mechanical properties :
#
#
# Convention : Reuss Voigt Hill
#
# Bulk Modulus (GPa) = 18.19120 38.35363 28.27241
# Shear Modulus (GPa) = 19.96616 32.73421 26.35019
#
# Velocity S-wave (km/s) = 3.02262 3.87024 3.47239
# Velocity P-wave (km/s) = 4.52832 6.12550 5.38644
#
# Compressibility (1/GPa) = 0.05497165
#
# Stress axis : x y z
#
# Youngs Moduli (GPa) = 124.31956 31.52417 35.52580
#
# Poissons Ratio (x) = 0.21814 0.05979
# Poissons Ratio (y) = 0.86027 -0.07573
# Poissons Ratio (z) = 0.20923 -0.06720
#
# Static dielectric constant tensor:
#      x y z
#    x 1.924700 0.037880 -0.071530 
#    y 0.037880 1.869440 -0.034120 
#    z -0.071530 -0.034120 1.819060 
# 
# From -- ./inp_files/338494.got.cif
#   From: 2010.05.17/outbox.cif.g08.bks.cpg/sg2_170_cif.got.tgz:338494.got - 2010.06.03 11:33:40.
