data_PCOD9039049
_publ_section_title
;
Structure prediction by ZEFSAII (Michael W. Deem and Ramdas Pophale) SiO2 
 PCOD9039049
Probable space group: P -1
;
_chemical_formula_sum "Si O2"
_cell_formula_units_Z 16
_cell_length_a 5.304535
_cell_length_b 18.409278
_cell_length_c 10.080798
_cell_angle_alpha 41.235255
_cell_angle_beta 81.738870
_cell_angle_gamma 89.471165
_cell_volume 634.735724
_symmetry_space_group_name_H-M "P -1"
_symmetry_group_IT_number 2
_symmetry_cell_setting 'triclinic'
loop_
_space_group_symop_operation_xyz
x,y,z
-x,-y,-z
loop_
_atom_site_type_symbol
_atom_site_label
_atom_site_fract_x
_atom_site_fract_y
_atom_site_fract_z
Si Si1 0.681374 0.418141 0.899233
Si Si2 0.054046 0.085843 0.173842
Si Si3 0.479442 0.713839 0.172610
Si Si4 0.729799 0.220203 0.489567
Si Si5 0.110071 0.389933 0.091569
Si Si6 0.286949 0.911485 0.568790
Si Si7 0.345612 0.340353 0.498060
Si Si8 0.893845 0.151258 0.832679
O O1 0.595537 0.355734 0.855951
O O2 0.759475 0.550970 0.692487
O O3 0.414576 0.404281 0.023826
O O4 0.930070 0.371158 0.000401
O O5 0.873668 0.135560 0.226288
O O6 0.116832 0.975834 0.393797
O O7 0.309044 0.176693 0.017860
O O8 0.935300 0.063688 0.065083
O O9 0.582907 0.640407 0.379893
O O10 0.241723 0.760810 0.193764
O O11 0.602369 0.168290 0.434838
O O12 0.589190 0.317807 0.425277
O O13 0.739442 0.133626 0.730090
O O14 0.009550 0.282815 0.336631
O O15 0.000000 0.500000 0.000000
O O16 0.500000 0.000000 0.500000
O O17 0.164288 0.221407 0.674431
#
# Coordination Sequence:
#
# PCOD9039049 Si02
#       8
#     2   2   2   2   2   2   2   2
#     4  12  26  41  71 102 142 192 243 295 352 418
#     4  10  23  45  69 100 133 175 229 296 350 425
#     4  10  23  42  68  98 137 183 233 288 349 419
#     4  11  25  43  68 100 139 189 226 294 359 420
#     4  12  26  44  68 102 145 189 239 294 353 423
#     4  11  25  44  72 102 135 171 233 292 358 428
#     4  10  23  42  65  99 141 184 231 287 350 424
#     4  10  23  44  68  94 142 182 233 287 351 426
#
# _framework density 25.207339999999999
#
# number of rings (size 3 to 8) (size 9 to 14) (size 15 to 20)
#    0.000    1.250    1.250    3.000   10.500    3.000 
#    0.000    8.750    0.000    0.000    0.000    0.000 
#    0.000    0.000    0.000    0.000    0.000    0.000 
#
# Total GULP energy -89479.673763 kJ/mol
# GULP energy per Si atom -5592.479610 kJ/mol
# Density = 2.514997 g / cm^3
# Si number density = 25.207340 Si / 1000 Ang^3
#
#
#
# Elastic Constant Matrix: (Units=GPa)
#
#
# Indices 1 2 3 4 5 6 
#
# 1 54.1258 -13.3430 19.4135 6.3625 -0.1829 5.0844
# 2 -13.3430 84.4692 4.6874 21.5601 -2.2451 12.0989
# 3 19.4135 4.6874 122.2484 20.6760 19.3324 -3.1996
# 4 6.3625 21.5601 20.6760 39.1893 3.4361 11.0636
# 5 -0.1829 -2.2451 19.3324 3.4361 45.8296 5.3281
# 6 5.0844 12.0989 -3.1996 11.0636 5.3281 29.6056
#
#
#
# Elastic Compliance Matrix: (Units=1/GPa)
#
#
# Indices 1 2 3 4 5 6 
#
# 1 0.022088 0.005413 -0.003774 -0.003206 0.002852 -0.005729
# 2 0.005413 0.015492 -0.000577 -0.007949 0.002171 -0.004743
# 3 -0.003774 -0.000577 0.010634 -0.005681 -0.004684 0.004999
# 4 -0.003206 -0.007949 -0.005681 0.036323 0.000489 -0.010477
# 5 0.002852 0.002171 -0.004684 0.000489 0.024633 -0.006499
# 6 -0.005729 -0.004743 0.004999 -0.010477 -0.006499 0.042325
#
#
# Mechanical properties :
#
#
# Convention : Reuss Voigt Hill
#
# Bulk Modulus (GPa) = 19.86550 31.37324 25.61937
# Shear Modulus (GPa) = 30.09359 39.59727 34.84543
#
# Velocity S-wave (km/s) = 3.45895 3.96771 3.72203
# Velocity P-wave (km/s) = 4.88369 5.78476 5.35321
#
# Compressibility (1/GPa) = 0.05033852
#
# Stress axis : x y z
#
# Youngs Moduli (GPa) = 45.27316 64.55097 94.03857
#
# Poissons Ratio (x) = -0.34942 0.35490
# Poissons Ratio (y) = -0.24507 0.05424
# Poissons Ratio (z) = 0.17086 0.03723
#
# Static dielectric constant tensor:
#      x y z
#    x 2.217970 0.034030 0.012420 
#    y 0.034030 2.044270 -0.000670 
#    z 0.012420 -0.000670 2.024810 
# 
# From -- ./inp_files/37968.got.cif
#   From: 2010.05.17/outbox.cif.g08.bks.cpg/sg2_19_cif.got.tgz:37968.got - 2010.06.03 11:33:40.
