data_PCOD9039778
_publ_section_title
;
Structure prediction by ZEFSAII (Michael W. Deem and Ramdas Pophale) SiO2 
 PCOD9039778
Probable space group: P -1
;
_chemical_formula_sum "Si O2"
_cell_formula_units_Z 14
_cell_length_a 11.161317
_cell_length_b 9.685252
_cell_length_c 16.671026
_cell_angle_alpha 48.550537
_cell_angle_beta 148.660324
_cell_angle_gamma 111.603229
_cell_volume 606.038306
_symmetry_space_group_name_H-M "P -1"
_symmetry_group_IT_number 2
_symmetry_cell_setting 'triclinic'
loop_
_space_group_symop_operation_xyz
x,y,z
-x,-y,-z
loop_
_atom_site_type_symbol
_atom_site_label
_atom_site_fract_x
_atom_site_fract_y
_atom_site_fract_z
Si Si1 0.998723 0.549802 0.385083
Si Si2 0.773717 0.287302 0.756206
Si Si3 0.610023 0.391461 0.795741
Si Si4 0.846175 0.978543 0.191533
Si Si5 0.343605 0.076636 0.162256
Si Si6 0.142794 0.114177 0.581315
Si Si7 0.468002 0.834976 0.600866
O O1 0.300862 0.484566 0.560870
O O2 0.958187 0.374260 0.381828
O O3 0.000000 0.500000 0.500000
O O4 0.820228 0.806304 0.187685
O O5 0.500000 0.500000 0.500000
O O6 0.792806 0.280741 0.866231
O O7 0.724159 0.098453 0.774355
O O8 0.051379 0.256276 0.894104
O O9 0.632894 0.593054 0.757282
O O10 0.680756 0.215924 0.971766
O O11 0.791224 0.959918 0.260247
O O12 0.157692 0.906380 0.394667
O O13 0.444402 0.159207 0.260808
O O14 0.583276 0.959451 0.281668
O O15 0.000000 0.000000 0.500000
O O16 0.500000 0.000000 0.500000
#
# Coordination Sequence:
#
# PCOD9039778 Si02
#       7
#     2   2   2   2   2   2   2
#     4   9  21  41  67  97 134 181 228 275 337 417
#     4  11  25  46  68  96 135 183 231 286 343 404
#     4  11  23  44  68 100 131 183 235 279 343 408
#     4  10  23  42  71 100 139 181 228 282 341 412
#     4  11  24  44  68 102 137 175 234 281 345 414
#     4  11  21  45  72 102 143 181 224 287 351 410
#     4  11  23  42  70 102 138 180 229 285 342 413
#
# _framework density 23.100849
#
# number of rings (size 3 to 8) (size 9 to 14) (size 15 to 20)
#    0.000    1.429    2.857    1.714    0.000    9.143 
#    2.571    0.714    0.000    0.000    0.000    0.000 
#    0.000    0.000    0.000    0.000    0.000    0.000 
#
# Total GULP energy -78314.542794 kJ/mol
# GULP energy per Si atom -5593.895914 kJ/mol
# Density = 2.304827 g / cm^3
# Si number density = 23.100849 Si / 1000 Ang^3
#
#
#
# Elastic Constant Matrix: (Units=GPa)
#
#
# Indices 1 2 3 4 5 6 
#
# 1 109.4192 34.0498 18.5082 -5.6102 16.6055 -6.7861
# 2 34.0498 184.9138 50.6214 -29.1084 1.4278 -11.6592
# 3 18.5082 50.6214 115.2898 -11.8616 3.6119 7.6922
# 4 -5.6102 -29.1084 -11.8616 35.7997 8.7239 1.2553
# 5 16.6055 1.4278 3.6119 8.7239 41.0155 -0.0044
# 6 -6.7861 -11.6592 7.6922 1.2553 -0.0044 34.4269
#
#
#
# Elastic Compliance Matrix: (Units=1/GPa)
#
#
# Indices 1 2 3 4 5 6 
#
# 1 0.010564 -0.001336 -0.000961 0.001264 -0.004414 0.001798
# 2 -0.001336 0.007322 -0.002656 0.004899 -0.000522 0.002631
# 3 -0.000961 -0.002656 0.010396 0.001436 -0.000740 -0.003464
# 4 0.001264 0.004899 0.001436 0.034568 -0.008161 0.000326
# 5 -0.004414 -0.000522 -0.000740 -0.008161 0.027987 -0.000580
# 6 0.001798 0.002631 -0.003464 0.000326 -0.000580 0.031055
#
#
# Mechanical properties :
#
#
# Convention : Reuss Voigt Hill
#
# Bulk Modulus (GPa) = 54.41579 68.44242 61.42910
# Shear Modulus (GPa) = 36.25232 42.67797 39.46515
#
# Velocity S-wave (km/s) = 3.96575 4.30288 4.13775
# Velocity P-wave (km/s) = 6.67656 7.37416 7.03401
#
# Compressibility (1/GPa) = 0.01837702
#
# Stress axis : x y z
#
# Youngs Moduli (GPa) = 94.66488 136.57418 96.18877
#
# Poissons Ratio (x) = 0.18243 0.09244
# Poissons Ratio (y) = 0.12645 0.25545
# Poissons Ratio (z) = 0.09097 0.36270
#
# Static dielectric constant tensor:
#      x y z
#    x 1.923230 0.031850 -0.023060 
#    y 0.031850 1.864680 -0.023910 
#    z -0.023060 -0.023910 1.931670 
# 
# From -- ./inp_files/365142.got.cif
#   From: 2010.05.17/outbox.cif.g08.bks.cpg/sg2_183_cif.got.tgz:365142.got - 2010.06.03 11:33:40.
