data_PCOD9039911
_publ_section_title
;
Structure prediction by ZEFSAII (Michael W. Deem and Ramdas Pophale) SiO2 
 PCOD9039911
Probable space group: P -1
;
_chemical_formula_sum "Si O2"
_cell_formula_units_Z 16
_cell_length_a 15.360385
_cell_length_b 15.271321
_cell_length_c 15.280424
_cell_angle_alpha 35.994409
_cell_angle_beta 160.623790
_cell_angle_gamma 143.715915
_cell_volume 681.812604
_symmetry_space_group_name_H-M "P -1"
_symmetry_group_IT_number 2
_symmetry_cell_setting 'triclinic'
loop_
_space_group_symop_operation_xyz
x,y,z
-x,-y,-z
loop_
_atom_site_type_symbol
_atom_site_label
_atom_site_fract_x
_atom_site_fract_y
_atom_site_fract_z
Si Si1 0.284557 0.718574 0.803615
Si Si2 0.867855 0.227042 0.046343
Si Si3 0.863291 0.900551 0.225848
Si Si4 0.519431 0.242431 0.418425
Si Si5 0.618986 0.664134 0.437408
Si Si6 0.709332 0.392809 0.295105
Si Si7 0.057171 0.949480 0.997618
Si Si8 0.851543 0.476321 0.677962
O O1 0.289751 0.693667 0.724755
O O2 0.109285 0.845852 0.548081
O O3 0.126528 0.560821 0.824128
O O4 0.586006 0.778640 0.071897
O O5 0.136234 0.253744 0.336370
O O6 0.827128 0.062994 0.095654
O O7 0.619441 0.246026 0.857203
O O8 0.893828 0.358390 0.889856
O O9 0.921318 0.922545 0.159174
O O10 0.617498 0.286886 0.377191
O O11 0.666464 0.108219 0.694381
O O12 0.643619 0.381603 0.487767
O O13 0.198857 0.185118 0.162384
O O14 0.500000 0.500000 0.500000
O O15 0.734198 0.611741 0.500159
O O16 0.000000 0.500000 0.500000
O O17 0.500000 0.500000 0.000000
O O18 0.000000 0.000000 0.000000
#
# Coordination Sequence:
#
# PCOD9039911 Si02
#       8
#     2   2   2   2   2   2   2   2
#     4  12  27  45  68 103 143 183 226 279 349 412
#     4  11  24  46  72 102 137 180 230 286 350 405
#     4  12  26  46  69 100 143 185 224 282 349 412
#     4  12  25  41  73 102 131 182 243 286 328 406
#     4  10  23  42  72 105 137 172 227 298 346 400
#     4  12  24  44  64  99 146 184 222 282 349 401
#     4  12  25  44  68  98 138 182 235 286 338 404
#     4  11  25  45  74 107 135 179 239 286 343 416
#
# _framework density 23.466857999999998
#
# number of rings (size 3 to 8) (size 9 to 14) (size 15 to 20)
#    0.000    0.500    2.500    6.375    3.500    4.000 
#    0.000    3.750    0.000    0.000    0.000    0.000 
#    0.000    0.000    0.000    0.000    0.000    0.000 
#
# Total GULP energy -89705.074356 kJ/mol
# GULP energy per Si atom -5606.567147 kJ/mol
# Density = 2.341345 g / cm^3
# Si number density = 23.466858 Si / 1000 Ang^3
#
#
#
# Elastic Constant Matrix: (Units=GPa)
#
#
# Indices 1 2 3 4 5 6 
#
# 1 65.4880 26.0642 -1.6621 2.4943 -3.2591 3.7085
# 2 26.0642 82.4948 24.2945 15.7693 -8.4763 -1.9211
# 3 -1.6621 24.2945 86.2694 10.8422 12.4835 9.2845
# 4 2.4943 15.7693 10.8422 47.6580 -1.5238 5.3700
# 5 -3.2591 -8.4763 12.4835 -1.5238 24.6793 -3.4225
# 6 3.7085 -1.9211 9.2845 5.3700 -3.4225 38.0072
#
#
#
# Elastic Compliance Matrix: (Units=1/GPa)
#
#
# Indices 1 2 3 4 5 6 
#
# 1 0.018184 -0.007021 0.002793 0.001030 -0.001792 -0.003118
# 2 -0.007021 0.018110 -0.006473 -0.004386 0.008935 0.004606
# 3 0.002793 -0.006473 0.015733 -0.001336 -0.010618 -0.005210
# 4 0.001030 -0.004386 -0.001336 0.023057 0.000282 -0.003228
# 5 -0.001792 0.008935 -0.010618 0.000282 0.049803 0.007665
# 6 -0.003118 0.004606 -0.005210 -0.003228 0.007665 0.029267
#
#
# Mechanical properties :
#
#
# Convention : Reuss Voigt Hill
#
# Bulk Modulus (GPa) = 32.65304 36.84950 34.75127
# Shear Modulus (GPa) = 26.91582 34.43927 30.67754
#
# Velocity S-wave (km/s) = 3.39037 3.83504 3.61954
# Velocity P-wave (km/s) = 5.41026 5.94533 5.68409
#
# Compressibility (1/GPa) = 0.03062502
#
# Stress axis : x y z
#
# Youngs Moduli (GPa) = 54.99491 55.21750 63.55933
#
# Poissons Ratio (x) = 0.38770 -0.17752
# Poissons Ratio (y) = 0.38613 0.41140
# Poissons Ratio (z) = -0.15360 0.35741
#
# Static dielectric constant tensor:
#      x y z
#    x 1.789290 0.056760 -0.003290 
#    y 0.056760 1.833760 -0.033560 
#    z -0.003290 -0.033560 1.859840 
# 
# From -- ./inp_files/534300.got.cif
#   From: 2010.05.17/outbox.cif.g08.bks.cpg/sg2_268_cif.got.tgz:534300.got - 2010.06.03 11:33:40.
