data_PCOD9039497
_publ_section_title
;
Structure prediction by ZEFSAII (Michael W. Deem and Ramdas Pophale) SiO2 
 PCOD9039497
Probable space group: P -1
;
_chemical_formula_sum "Si O2"
_cell_formula_units_Z 14
_cell_length_a 8.564158
_cell_length_b 14.330910
_cell_length_c 20.102812
_cell_angle_alpha 32.004640
_cell_angle_beta 146.529206
_cell_angle_gamma 126.062254
_cell_volume 659.008945
_symmetry_space_group_name_H-M "P -1"
_symmetry_group_IT_number 2
_symmetry_cell_setting 'triclinic'
loop_
_space_group_symop_operation_xyz
x,y,z
-x,-y,-z
loop_
_atom_site_type_symbol
_atom_site_label
_atom_site_fract_x
_atom_site_fract_y
_atom_site_fract_z
Si Si1 0.373197 0.716644 0.301249
Si Si2 0.137039 0.913587 0.395659
Si Si3 0.835327 0.616241 0.804346
Si Si4 0.741604 0.911229 0.891428
Si Si5 0.158542 0.774721 0.994955
Si Si6 0.759188 0.709009 0.311044
Si Si7 0.113450 0.895790 0.673878
O O1 0.500000 0.500000 0.500000
O O2 0.553426 0.712638 0.299913
O O3 0.413727 0.865664 0.277145
O O4 0.006466 0.799904 0.106354
O O5 0.499099 0.783882 0.598651
O O6 0.960904 0.821169 0.340607
O O7 0.018002 0.127712 0.193813
O O8 0.028166 0.946122 0.413331
O O9 0.016114 0.720799 0.763651
O O10 0.786440 0.448278 0.846637
O O11 0.000000 0.500000 0.000000
O O12 0.482075 0.828693 0.846514
O O13 0.923147 0.887159 0.901702
O O14 0.491092 0.788130 0.111750
O O15 0.000000 0.500000 0.500000
O O16 0.000000 0.000000 0.500000
#
# Coordination Sequence:
#
# PCOD9039497 Si02
#       7
#     2   2   2   2   2   2   2
#     4  10  23  42  68  98 140 178 222 290 351 411
#     4  12  25  48  72 101 145 180 239 297 351 418
#     4  12  27  47  71 102 143 189 240 287 345 420
#     4  10  24  44  64 102 137 178 235 281 349 415
#     4  11  25  45  74 103 139 187 231 294 358 420
#     4  11  23  43  71 109 134 179 237 288 358 423
#     4  12  27  47  74 101 141 194 236 290 351 416
#
# _framework density 21.244022000000001
#
# number of rings (size 3 to 8) (size 9 to 14) (size 15 to 20)
#    0.000    0.857    4.286    1.714    4.000    5.143 
#    0.000    0.000    0.000    0.000    0.000    0.000 
#    0.000    0.000    0.000    0.000    0.000    0.000 
#
# Total GULP energy -78220.563867 kJ/mol
# GULP energy per Si atom -5587.183133 kJ/mol
# Density = 2.119567 g / cm^3
# Si number density = 21.244022 Si / 1000 Ang^3
#
#
#
# Elastic Constant Matrix: (Units=GPa)
#
#
# Indices 1 2 3 4 5 6 
#
# 1 87.9488 33.2247 50.7364 6.9213 5.5195 -2.5398
# 2 33.2247 128.6225 56.0693 1.6212 0.5605 13.8896
# 3 50.7364 56.0693 134.5567 3.6523 3.4927 16.2130
# 4 6.9213 1.6212 3.6523 39.4545 1.4030 11.9603
# 5 5.5195 0.5605 3.4927 1.4030 38.7289 -1.3782
# 6 -2.5398 13.8896 16.2130 11.9603 -1.3782 44.2705
#
#
#
# Elastic Compliance Matrix: (Units=1/GPa)
#
#
# Indices 1 2 3 4 5 6 
#
# 1 0.015839 -0.002131 -0.005493 -0.003491 -0.001445 0.004487
# 2 -0.002131 0.009906 -0.003075 0.000953 0.000319 -0.002352
# 3 -0.005493 -0.003075 0.011218 0.001216 -0.000364 -0.003799
# 4 -0.003491 0.000953 0.001216 0.028468 -0.000966 -0.008666
# 5 -0.001445 0.000319 -0.000364 -0.000966 0.026126 0.001024
# 6 0.004487 -0.002352 -0.003799 -0.008666 0.001024 0.027348
#
#
# Mechanical properties :
#
#
# Convention : Reuss Voigt Hill
#
# Bulk Modulus (GPa) = 64.24379 70.13208 67.18793
# Shear Modulus (GPa) = 34.36619 38.56394 36.46506
#
# Velocity S-wave (km/s) = 4.02641 4.26524 4.14754
# Velocity P-wave (km/s) = 7.20573 7.57236 7.39132
#
# Compressibility (1/GPa) = 0.01556571
#
# Stress axis : x y z
#
# Youngs Moduli (GPa) = 63.13514 100.94620 89.13939
#
# Poissons Ratio (x) = 0.21515 0.48961
# Poissons Ratio (y) = 0.13456 0.27411
# Poissons Ratio (z) = 0.34678 0.31042
#
# Static dielectric constant tensor:
#      x y z
#    x 1.768240 -0.056300 -0.046390 
#    y -0.056300 1.917280 0.044780 
#    z -0.046390 0.044780 1.768400 
# 
# From -- ./inp_files/124905.got.cif
#   From: 2010.05.17/outbox.cif.g08.bks.cpg/sg2_63_cif.got.tgz:124905.got - 2010.06.03 11:33:40.
