data_PCOD9039871
_publ_section_title
;
Structure prediction by ZEFSAII (Michael W. Deem and Ramdas Pophale) SiO2 
 PCOD9039871
Probable space group: P -1
;
_chemical_formula_sum "Si O2"
_cell_formula_units_Z 12
_cell_length_a 15.682079
_cell_length_b 7.926261
_cell_length_c 16.103418
_cell_angle_alpha 76.512064
_cell_angle_beta 18.566503
_cell_angle_gamma 65.642409
_cell_volume 487.270876
_symmetry_space_group_name_H-M "P -1"
_symmetry_group_IT_number 2
_symmetry_cell_setting 'triclinic'
loop_
_space_group_symop_operation_xyz
x,y,z
-x,-y,-z
loop_
_atom_site_type_symbol
_atom_site_label
_atom_site_fract_x
_atom_site_fract_y
_atom_site_fract_z
Si Si1 0.719469 0.987670 0.724570
Si Si2 0.842058 0.403967 0.751665
Si Si3 0.403177 0.310007 0.660510
Si Si4 0.584026 0.611036 0.533431
Si Si5 0.531561 0.271471 0.186451
Si Si6 0.323384 0.182953 0.911957
O O1 0.894008 0.761711 0.542883
O O2 0.530605 0.159886 0.803960
O O3 0.000000 0.000000 0.500000
O O4 0.500000 0.000000 0.000000
O O5 0.115681 0.437420 0.533717
O O6 0.500000 0.500000 0.000000
O O7 0.734426 0.331269 0.938298
O O8 0.521596 0.442580 0.575899
O O9 0.529935 0.227887 0.459041
O O10 0.483179 0.140654 0.677531
O O11 0.000000 0.500000 0.000000
O O12 0.423549 0.716087 0.757993
O O13 0.990183 0.435000 0.190384
O O14 0.696979 0.017820 0.038250
#
# Coordination Sequence:
#
# PCOD9039871 Si02
#       6
#     2   2   2   2   2   2
#     4  11  25  41  67  99 133 181 229 277 346 402
#     4  11  26  45  66 101 143 179 239 289 336 419
#     4   9  21  43  67 101 133 176 234 285 345 422
#     4  10  23  42  71  98 136 184 229 284 356 409
#     4  11  26  43  70 104 138 185 230 286 352 408
#     4  10  24  42  67  98 141 176 233 290 335 422
#
# _framework density 24.626958999999999
#
# number of rings (size 3 to 8) (size 9 to 14) (size 15 to 20)
#    0.000    1.667    0.000    2.500   16.333    0.667 
#    0.000    7.500    0.000    0.000    0.000    0.000 
#    0.000    0.000    0.000    0.000    0.000    0.000 
#
# Total GULP energy -66830.105516 kJ/mol
# GULP energy per Si atom -5569.175460 kJ/mol
# Density = 2.457091 g / cm^3
# Si number density = 24.626959 Si / 1000 Ang^3
#
#
#
# Elastic Constant Matrix: (Units=GPa)
#
#
# Indices 1 2 3 4 5 6 
#
# 1 213.4687 20.6723 68.5526 -19.6056 22.8332 -22.7636
# 2 20.6723 22.7986 8.6282 -8.3843 6.8601 -14.7360
# 3 68.5526 8.6282 104.8272 -20.6868 21.7590 -21.8171
# 4 -19.6056 -8.3843 -20.6868 31.7490 0.6251 9.2440
# 5 22.8332 6.8601 21.7590 0.6251 57.5670 -0.0626
# 6 -22.7636 -14.7360 -21.8171 9.2440 -0.0626 38.5384
#
#
#
# Elastic Compliance Matrix: (Units=1/GPa)
#
#
# Indices 1 2 3 4 5 6 
#
# 1 0.006341 -0.003922 -0.003545 0.000554 -0.000714 0.000105
# 2 -0.003922 0.068160 0.006445 0.012885 -0.009116 0.024289
# 3 -0.003545 0.006445 0.015426 0.007547 -0.005267 0.007284
# 4 0.000554 0.012885 0.007547 0.040302 -0.005045 -0.000149
# 5 -0.000714 -0.009116 -0.005267 -0.005045 0.020780 -0.005645
# 6 0.000105 0.024289 0.007284 -0.000149 -0.005645 0.039448
#
#
# Mechanical properties :
#
#
# Convention : Reuss Voigt Hill
#
# Bulk Modulus (GPa) = 11.37866 59.64452 35.51159
# Shear Modulus (GPa) = 22.54336 41.78695 32.16515
#
# Velocity S-wave (km/s) = 3.02883 4.12369 3.61791
# Velocity P-wave (km/s) = 4.10636 6.85163 5.64832
#
# Compressibility (1/GPa) = 0.08788384
#
# Stress axis : x y z
#
# Youngs Moduli (GPa) = 157.70234 14.67128 64.82708
#
# Poissons Ratio (x) = 0.05754 0.22979
# Poissons Ratio (y) = 0.61845 -0.41779
# Poissons Ratio (z) = 0.55899 -0.09455
#
# Static dielectric constant tensor:
#      x y z
#    x 1.799590 0.219810 0.389560 
#    y 0.219810 1.831010 -0.452310 
#    z 0.389560 -0.452310 1.165460 
# 
# From -- ./inp_files/103550.got.cif
#   From: 2010.05.17/outbox.cif.g08.bks.cpg/sg2_52_cif.got.tgz:103550.got - 2010.06.03 11:33:40.
