data_PCOD9039423
_publ_section_title
;
Structure prediction by ZEFSAII (Michael W. Deem and Ramdas Pophale) SiO2 
 PCOD9039423
Probable space group: P -1
;
_chemical_formula_sum "Si O2"
_cell_formula_units_Z 10
_cell_length_a 13.389291
_cell_length_b 14.062892
_cell_length_c 8.758251
_cell_angle_alpha 130.225975
_cell_angle_beta 32.813199
_cell_angle_gamma 150.469772
_cell_volume 417.311629
_symmetry_space_group_name_H-M "P -1"
_symmetry_group_IT_number 2
_symmetry_cell_setting 'triclinic'
loop_
_space_group_symop_operation_xyz
x,y,z
-x,-y,-z
loop_
_atom_site_type_symbol
_atom_site_label
_atom_site_fract_x
_atom_site_fract_y
_atom_site_fract_z
Si Si1 0.757526 0.625998 0.010912
Si Si2 0.097749 0.507085 0.104278
Si Si3 0.290689 0.081053 0.270163
Si Si4 0.095730 0.313104 0.461170
Si Si5 0.278036 0.916456 0.836737
O O1 0.841320 0.528684 0.848435
O O2 0.403465 0.454240 0.305695
O O3 0.841720 0.696515 0.802207
O O4 0.981089 0.818387 0.037093
O O5 0.427792 0.689339 0.793613
O O6 0.966583 0.573800 0.342709
O O7 0.857500 0.279649 0.111119
O O8 0.170536 0.912037 0.362844
O O9 0.414705 0.077475 0.954993
O O10 0.000000 0.000000 0.500000
O O11 0.500000 0.000000 0.500000
#
# Coordination Sequence:
#
# PCOD9039423 Si02
#       5
#     2   2   2   2   2
#     4   9  22  41  65  95 132 172 217 265 323 395
#     4  10  23  42  68  90 135 172 216 270 322 391
#     4  12  24  42  69  98 135 172 216 275 330 381
#     4  11  21  40  70  97 129 177 218 264 335 384
#     4  10  24  43  68  96 132 175 217 270 329 387
#
# _framework density 23.962907000000001
#
# number of rings (size 3 to 8) (size 9 to 14) (size 15 to 20)
#    1.200    0.400    2.000    2.400    2.800    4.000 
#    0.000    6.000    0.000    0.000    0.000    0.000 
#    0.000    0.000    0.000    0.000    0.000    0.000 
#
# Total GULP energy -55869.590756 kJ/mol
# GULP energy per Si atom -5586.959076 kJ/mol
# Density = 2.390837 g / cm^3
# Si number density = 23.962907 Si / 1000 Ang^3
#
#
#
# Elastic Constant Matrix: (Units=GPa)
#
#
# Indices 1 2 3 4 5 6 
#
# 1 81.5143 18.3479 7.8227 -1.8324 -10.6572 -5.8783
# 2 18.3479 94.4279 23.4950 -19.3138 7.4192 -1.8549
# 3 7.8227 23.4950 75.8508 -16.7908 2.3003 -4.9181
# 4 -1.8324 -19.3138 -16.7908 32.7460 -3.1198 -3.9698
# 5 -10.6572 7.4192 2.3003 -3.1198 41.2195 -1.8192
# 6 -5.8783 -1.8549 -4.9181 -3.9698 -1.8192 25.2743
#
#
#
# Elastic Compliance Matrix: (Units=1/GPa)
#
#
# Indices 1 2 3 4 5 6 
#
# 1 0.013735 -0.002893 -0.000543 -0.000438 0.004206 0.003110
# 2 -0.002893 0.013219 -0.002281 0.006308 -0.002493 0.000665
# 3 -0.000543 -0.002281 0.015793 0.007207 0.000107 0.003919
# 4 -0.000438 0.006308 0.007207 0.039060 0.001659 0.008018
# 5 0.004206 -0.002493 0.000107 0.001659 0.026046 0.002952
# 6 0.003110 0.000665 0.003919 0.008018 0.002952 0.042572
#
#
# Mechanical properties :
#
#
# Convention : Reuss Voigt Hill
#
# Bulk Modulus (GPa) = 31.93616 39.01380 35.47498
# Shear Modulus (GPa) = 29.01945 33.32312 31.17129
#
# Velocity S-wave (km/s) = 3.48374 3.73314 3.61059
# Velocity P-wave (km/s) = 5.43490 5.90745 5.67610
#
# Compressibility (1/GPa) = 0.03131247
#
# Stress axis : x y z
#
# Youngs Moduli (GPa) = 72.80432 75.64914 63.32017
#
# Poissons Ratio (x) = 0.21883 0.03441
# Poissons Ratio (y) = 0.21060 0.14444
# Poissons Ratio (z) = 0.03957 0.17257
#
# Static dielectric constant tensor:
#      x y z
#    x 1.916080 0.031690 -0.014050 
#    y 0.031690 1.922470 0.005030 
#    z -0.014050 0.005030 1.921410 
# 
# From -- ./inp_files/147641.got.cif
#   From: 2010.05.17/outbox.cif.g08.bks.cpg/sg2_74_cif.got.tgz:147641.got - 2010.06.03 11:33:40.
