data_PCOD9039940
_publ_section_title
;
Structure prediction by ZEFSAII (Michael W. Deem and Ramdas Pophale) SiO2 
 PCOD9039940
Probable space group: P -1
;
_chemical_formula_sum "Si O2"
_cell_formula_units_Z 14
_cell_length_a 12.381017
_cell_length_b 20.979252
_cell_length_c 9.132038
_cell_angle_alpha 33.703337
_cell_angle_beta 46.058417
_cell_angle_gamma 28.266259
_cell_volume 616.483771
_symmetry_space_group_name_H-M "P -1"
_symmetry_group_IT_number 2
_symmetry_cell_setting 'triclinic'
loop_
_space_group_symop_operation_xyz
x,y,z
-x,-y,-z
loop_
_atom_site_type_symbol
_atom_site_label
_atom_site_fract_x
_atom_site_fract_y
_atom_site_fract_z
Si Si1 0.580056 0.843858 0.812322
Si Si2 0.238058 0.323600 0.757818
Si Si3 0.633961 0.475376 0.248952
Si Si4 0.884277 0.230774 0.909027
Si Si5 0.795798 0.455832 0.815365
Si Si6 0.961692 0.397007 0.331745
Si Si7 0.801730 0.119809 0.834378
O O1 0.819829 0.681727 0.810606
O O2 0.500000 0.000000 0.500000
O O3 0.619423 0.842039 0.952603
O O4 0.403359 0.841430 0.987947
O O5 0.345455 0.356624 0.485643
O O6 0.119833 0.474645 0.703661
O O7 0.053121 0.357067 0.780570
O O8 0.358039 0.651960 0.170433
O O9 0.771354 0.465093 0.263433
O O10 0.705035 0.300263 0.536002
O O11 0.712259 0.473313 0.020747
O O12 0.807474 0.339678 0.920852
O O13 0.019119 0.245250 0.654385
O O14 0.057888 0.023674 0.156008
O O15 0.000000 0.000000 0.000000
#
# Coordination Sequence:
#
# PCOD9039940 Si02
#       7
#     2   2   2   2   2   2   2
#     4  12  23  42  69 101 136 174 231 293 334 402
#     4  10  23  42  72  98 134 179 231 286 336 407
#     4  12  24  44  72 102 139 182 228 288 343 410
#     4  11  24  43  68 101 141 180 226 282 346 413
#     4  10  23  44  67 100 138 181 232 276 340 419
#     4  11  22  43  70 102 129 179 237 281 340 400
#     4  12  26  42  67 105 139 175 227 291 347 398
#
# _framework density 22.709439
#
# number of rings (size 3 to 8) (size 9 to 14) (size 15 to 20)
#    0.000    0.857    4.286    3.000    2.000    0.571 
#    0.000    0.714    3.143    0.000    0.000    0.000 
#    0.000    0.000    0.000    0.000    0.000    0.000 
#
# Total GULP energy -78208.739806 kJ/mol
# GULP energy per Si atom -5586.338558 kJ/mol
# Density = 2.265775 g / cm^3
# Si number density = 22.709439 Si / 1000 Ang^3
#
#
#
# Elastic Constant Matrix: (Units=GPa)
#
#
# Indices 1 2 3 4 5 6 
#
# 1 103.0615 15.7524 8.1425 -8.8362 3.6107 -6.9116
# 2 15.7524 84.9769 26.3992 -8.7980 -6.3510 -9.4601
# 3 8.1425 26.3992 134.7332 -4.4617 10.7560 4.7468
# 4 -8.8362 -8.7980 -4.4617 43.1993 7.3352 1.5195
# 5 3.6107 -6.3510 10.7560 7.3352 38.4090 7.1553
# 6 -6.9116 -9.4601 4.7468 1.5195 7.1553 32.4700
#
#
#
# Elastic Compliance Matrix: (Units=1/GPa)
#
#
# Indices 1 2 3 4 5 6 
#
# 1 0.010341 -0.001566 -0.000168 0.002039 -0.001966 0.002107
# 2 -0.001566 0.013665 -0.002829 0.001669 0.002230 0.003492
# 3 -0.000168 -0.002829 0.008275 0.000744 -0.002627 -0.001525
# 4 0.002039 0.001669 0.000744 0.024805 -0.005001 0.000753
# 5 -0.001966 0.002230 -0.002627 -0.005001 0.029325 -0.005613
# 6 0.002107 0.003492 -0.001525 0.000753 -0.005613 0.033688
#
#
# Mechanical properties :
#
#
# Convention : Reuss Voigt Hill
#
# Bulk Modulus (GPa) = 43.18671 47.03996 45.11333
# Shear Modulus (GPa) = 36.51170 40.98083 38.74627
#
# Velocity S-wave (km/s) = 4.01406 4.25263 4.13507
# Velocity P-wave (km/s) = 6.36725 6.69866 6.53506
#
# Compressibility (1/GPa) = 0.02315527
#
# Stress axis : x y z
#
# Youngs Moduli (GPa) = 96.70689 73.17884 120.85254
#
# Poissons Ratio (x) = 0.11460 0.02029
# Poissons Ratio (y) = 0.15144 0.34184
# Poissons Ratio (z) = 0.01624 0.20699
#
# Static dielectric constant tensor:
#      x y z
#    x 1.880570 -0.005930 0.001300 
#    y -0.005930 1.890550 -0.085810 
#    z 0.001300 -0.085810 1.954030 
# 
# From -- ./inp_files/281499.got.cif
#   From: 2010.05.17/outbox.cif.g08.bks.cpg/sg2_141_cif.got.tgz:281499.got - 2010.06.03 11:33:40.
