data_PCOD9039296
_publ_section_title
;
Structure prediction by ZEFSAII (Michael W. Deem and Ramdas Pophale) SiO2 
 PCOD9039296
Probable space group: P -1
;
_chemical_formula_sum "Si O2"
_cell_formula_units_Z 16
_cell_length_a 11.911672
_cell_length_b 12.486881
_cell_length_c 13.289159
_cell_angle_alpha 34.283286
_cell_angle_beta 53.980117
_cell_angle_gamma 35.215052
_cell_volume 618.590047
_symmetry_space_group_name_H-M "P -1"
_symmetry_group_IT_number 2
_symmetry_cell_setting 'triclinic'
loop_
_space_group_symop_operation_xyz
x,y,z
-x,-y,-z
loop_
_atom_site_type_symbol
_atom_site_label
_atom_site_fract_x
_atom_site_fract_y
_atom_site_fract_z
Si Si1 0.941567 0.734706 0.470179
Si Si2 0.505389 0.620665 0.304501
Si Si3 0.159059 0.850597 0.942675
Si Si4 0.337672 0.301389 0.303837
Si Si5 0.285222 0.278963 0.759693
Si Si6 0.700509 0.767788 0.854786
Si Si7 0.946410 0.791742 0.944214
Si Si8 0.822060 0.053868 0.497246
O O1 0.861126 0.597992 0.620530
O O2 0.184858 0.480087 0.558644
O O3 0.876319 0.916138 0.465612
O O4 0.838410 0.942448 0.267901
O O5 0.500000 0.500000 0.500000
O O6 0.646294 0.652458 0.240302
O O7 0.621263 0.384428 0.342716
O O8 0.274887 0.909805 0.190894
O O9 0.060487 0.834947 0.914407
O O10 0.339368 0.529506 0.133907
O O11 0.000000 0.000000 0.000000
O O12 0.341248 0.253788 0.220567
O O13 0.500000 0.000000 0.500000
O O14 0.488019 0.962638 0.871710
O O15 0.109706 0.329515 0.861379
O O16 0.763848 0.925919 0.693376
O O17 0.891240 0.449389 0.034025
O O18 0.000000 0.000000 0.500000
#
# Coordination Sequence:
#
# PCOD9039296 Si02
#       8
#     2   2   2   2   2   2   2   2
#     4  11  24  45  74 101 151 184 232 301 356 422
#     4  12  24  39  67 102 139 190 233 286 351 414
#     4  11  26  44  72 105 136 184 238 298 359 421
#     4  10  24  47  68 100 140 181 239 294 359 427
#     4  12  22  43  71 102 139 195 230 286 366 411
#     4  10  23  42  67  95 138 185 230 292 353 416
#     4  11  25  47  62 103 146 175 246 293 344 440
#     4  11  21  41  66 101 144 184 234 286 344 419
#
# _framework density 25.865272000000001
#
# number of rings (size 3 to 8) (size 9 to 14) (size 15 to 20)
#    0.000    1.000    6.250    1.125    1.750    5.500 
#    0.000    0.000    0.000    0.000    0.000    0.000 
#    0.000    0.000    0.000    0.000    0.000    0.000 
#
# Total GULP energy -89415.233315 kJ/mol
# GULP energy per Si atom -5588.452082 kJ/mol
# Density = 2.580640 g / cm^3
# Si number density = 25.865272 Si / 1000 Ang^3
#
#
#
# Elastic Constant Matrix: (Units=GPa)
#
#
# Indices 1 2 3 4 5 6 
#
# 1 17.0669 1.1485 6.6292 -12.9063 1.4158 -2.7950
# 2 1.1485 126.8334 47.7746 -33.2242 -5.7675 -1.5737
# 3 6.6292 47.7746 142.4131 -41.5285 25.0270 0.3173
# 4 -12.9063 -33.2242 -41.5285 58.1956 -11.4413 5.0150
# 5 1.4158 -5.7675 25.0270 -11.4413 39.3582 -10.0704
# 6 -2.7950 -1.5737 0.3173 5.0150 -10.0704 33.4321
#
#
#
# Elastic Compliance Matrix: (Units=1/GPa)
#
#
# Indices 1 2 3 4 5 6 
#
# 1 0.073467 0.004835 -0.000300 0.019427 0.005188 0.005021
# 2 0.004835 0.010856 -0.003099 0.006006 0.005574 0.001723
# 3 -0.000300 -0.003099 0.010607 0.004695 -0.006580 -0.002958
# 4 0.019427 0.006006 0.004695 0.029434 0.005525 -0.000889
# 5 0.005188 0.005574 -0.006580 0.005525 0.034467 0.010312
# 6 0.005021 0.001723 -0.002958 -0.000889 0.010312 0.033680
#
#
# Mechanical properties :
#
#
# Convention : Reuss Voigt Hill
#
# Bulk Modulus (GPa) = 10.22468 44.15756 27.19112
# Shear Modulus (GPa) = 22.49829 41.58126 32.03978
#
# Velocity S-wave (km/s) = 2.95248 4.01385 3.52336
# Velocity P-wave (km/s) = 3.94772 6.21213 5.20457
#
# Compressibility (1/GPa) = 0.09780258
#
# Stress axis : x y z
#
# Youngs Moduli (GPa) = 13.61158 92.11509 94.27341
#
# Poissons Ratio (x) = -0.44536 0.02826
# Poissons Ratio (y) = -0.06581 0.29214
# Poissons Ratio (z) = 0.00408 0.28545
#
# Static dielectric constant tensor:
#      x y z
#    x 1.956620 -0.010450 0.070200 
#    y -0.010450 2.030580 -0.069200 
#    z 0.070200 -0.069200 2.337180 
# 
# From -- ./inp_files/534127.got.cif
#   From: 2010.05.17/outbox.cif.g08.bks.cpg/sg2_268_cif.got.tgz:534127.got - 2010.06.03 11:33:40.
