data_PCOD9039850
_publ_section_title
;
Structure prediction by ZEFSAII (Michael W. Deem and Ramdas Pophale) SiO2 
 PCOD9039850
Probable space group: P -1
;
_chemical_formula_sum "Si O2"
_cell_formula_units_Z 14
_cell_length_a 18.569522
_cell_length_b 17.112188
_cell_length_c 8.195694
_cell_angle_alpha 124.957064
_cell_angle_beta 43.755287
_cell_angle_gamma 158.305041
_cell_volume 614.750241
_symmetry_space_group_name_H-M "P -1"
_symmetry_group_IT_number 2
_symmetry_cell_setting 'triclinic'
loop_
_space_group_symop_operation_xyz
x,y,z
-x,-y,-z
loop_
_atom_site_type_symbol
_atom_site_label
_atom_site_fract_x
_atom_site_fract_y
_atom_site_fract_z
Si Si1 0.429209 0.745153 0.094418
Si Si2 0.811090 0.026807 0.289871
Si Si3 0.319636 0.720964 0.591470
Si Si4 0.316277 0.469452 0.139963
Si Si5 0.141646 0.372454 0.888866
Si Si6 0.152803 0.775870 0.096492
Si Si7 0.536397 0.614636 0.308912
O O1 0.370098 0.765766 0.368004
O O2 0.477030 0.687187 0.051750
O O3 0.220378 0.529127 0.056910
O O4 0.628125 0.965084 0.916981
O O5 0.549246 0.862271 0.483806
O O6 0.755414 0.874265 0.256268
O O7 0.021144 0.243712 0.327197
O O8 0.958057 0.154435 0.032023
O O9 0.061465 0.446481 0.703393
O O10 0.278113 0.787612 0.822866
O O11 0.383256 0.510106 0.267276
O O12 0.378394 0.422643 0.890775
O O13 0.373557 0.505377 0.601741
O O14 0.000097 0.295761 0.875821
#
# Coordination Sequence:
#
# PCOD9039850 Si02
#       7
#     2   2   2   2   2   2   2
#     4  11  23  42  64  96 128 169 209 267 311 382
#     4  11  22  42  63  96 131 165 204 276 304 380
#     4  11  23  44  67  91 134 164 216 260 324 368
#     4  10  23  42  71  94 127 168 215 257 330 360
#     4  11  24  39  68  95 128 167 218 250 328 372
#     4  11  23  45  66  92 127 175 209 268 309 382
#     4  11  22  45  65  96 129 170 209 265 310 388
#
# _framework density 22.773475999999999
#
# number of rings (size 3 to 8) (size 9 to 14) (size 15 to 20)
#    0.000    1.143    4.286    0.857    0.000    6.286 
#    2.571    9.286    0.000    0.000    0.000    0.000 
#    0.000    0.000    0.000    0.000    0.000    0.000 
#
# Total GULP energy -78151.979523 kJ/mol
# GULP energy per Si atom -5582.284252 kJ/mol
# Density = 2.272164 g / cm^3
# Si number density = 22.773476 Si / 1000 Ang^3
#
#
#
# Elastic Constant Matrix: (Units=GPa)
#
#
# Indices 1 2 3 4 5 6 
#
# 1 353.5076 254.3298 -24.4175 -74.9657 68.0696 161.6007
# 2 254.3298 310.0281 10.1837 -65.4365 34.8999 97.3575
# 3 -24.4175 10.1837 85.4206 -9.0205 -26.9729 -49.9620
# 4 -74.9657 -65.4365 -9.0205 48.5942 -23.2086 -20.4342
# 5 68.0696 34.8999 -26.9729 -23.2086 36.5778 30.6699
# 6 161.6007 97.3575 -49.9620 -20.4342 30.6699 130.9463
#
#
#
# Elastic Compliance Matrix: (Units=1/GPa)
#
#
# Indices 1 2 3 4 5 6 
#
# 1 0.021810 -0.008748 -0.011961 -0.000499 -0.025349 -0.019116
# 2 -0.008748 0.009462 0.001594 0.005206 0.009190 0.003028
# 3 -0.011961 0.001594 0.034696 0.018166 0.041051 0.020033
# 4 -0.000499 0.005206 0.018166 0.049797 0.039017 0.002308
# 5 -0.025349 0.009190 0.041051 0.039017 0.102079 0.022293
# 6 -0.019116 0.003028 0.020033 0.002308 0.022293 0.031759
#
#
# Mechanical properties :
#
#
# Convention : Reuss Voigt Hill
#
# Bulk Modulus (GPa) = 36.04844 136.57205 86.31024
# Shear Modulus (GPa) = 16.83057 77.14767 46.98912
#
# Velocity S-wave (km/s) = 2.72148 5.82663 4.54731
# Velocity P-wave (km/s) = 5.07334 10.26480 8.09645
#
# Compressibility (1/GPa) = 0.02774045
#
# Stress axis : x y z
#
# Youngs Moduli (GPa) = 45.85030 105.68100 28.82178
#
# Poissons Ratio (x) = 0.92445 0.34473
# Poissons Ratio (y) = 0.40108 -0.04595
# Poissons Ratio (z) = 0.54840 -0.16848
#
# Static dielectric constant tensor:
#      x y z
#    x 1.878020 -0.002200 0.018380 
#    y -0.002200 1.881250 -0.020210 
#    z 0.018380 -0.020210 1.898960 
# 
# From -- ./inp_files/348374.got.cif
#   From: 2010.05.17/outbox.cif.g08.bks.cpg/sg2_175_cif.got.tgz:348374.got - 2010.06.03 11:33:40.
