data_PCOD9039351
_publ_section_title
;
Structure prediction by ZEFSAII (Michael W. Deem and Ramdas Pophale) SiO2 
 PCOD9039351
Probable space group: P -1
;
_chemical_formula_sum "Si O2"
_cell_formula_units_Z 16
_cell_length_a 21.642285
_cell_length_b 17.693331
_cell_length_c 9.473894
_cell_angle_alpha 36.703307
_cell_angle_beta 142.781492
_cell_angle_gamma 162.935700
_cell_volume 626.945627
_symmetry_space_group_name_H-M "P -1"
_symmetry_group_IT_number 2
_symmetry_cell_setting 'triclinic'
loop_
_space_group_symop_operation_xyz
x,y,z
-x,-y,-z
loop_
_atom_site_type_symbol
_atom_site_label
_atom_site_fract_x
_atom_site_fract_y
_atom_site_fract_z
Si Si1 0.968810 0.323429 0.322730
Si Si2 0.379638 0.202217 0.670883
Si Si3 0.871440 0.376204 0.593811
Si Si4 0.567205 0.126151 0.781067
Si Si5 0.096957 0.983221 0.125944
Si Si6 0.477610 0.827282 0.822542
Si Si7 0.012613 0.003592 0.348891
Si Si8 0.550803 0.395515 0.388329
O O1 0.965928 0.433942 0.264933
O O2 0.181685 0.581009 0.235477
O O3 0.777616 0.086238 0.223094
O O4 0.954524 0.186404 0.606055
O O5 0.225033 0.152815 0.483322
O O6 0.527147 0.378357 0.540502
O O7 0.511780 0.298565 0.901090
O O8 0.725925 0.346103 0.374125
O O9 0.000000 0.500000 0.500000
O O10 0.693250 0.077518 0.749163
O O11 0.491745 0.189534 0.540516
O O12 0.480048 0.936412 0.787604
O O13 0.500000 0.000000 0.000000
O O14 0.354925 0.265358 0.168789
O O15 0.004614 0.888458 0.940132
O O16 0.000000 0.000000 0.000000
O O17 0.798255 0.697268 0.363048
O O18 0.000000 0.000000 0.500000
#
# Coordination Sequence:
#
# PCOD9039351 Si02
#       8
#     2   2   2   2   2   2   2   2
#     4  10  23  42  68 100 133 183 237 276 339 425
#     4  11  23  45  67 101 134 175 237 282 348 421
#     4  10  24  42  62  93 138 182 223 272 352 401
#     4  11  21  40  70 103 138 178 228 279 341 415
#     4  11  22  47  72  96 137 182 241 294 342 418
#     4  10  24  41  62 100 139 173 220 283 336 422
#     4  12  27  48  70 106 136 180 238 303 361 403
#     4  11  23  44  73 101 132 185 238 276 354 430
#
# _framework density 25.520555999999999
#
# number of rings (size 3 to 8) (size 9 to 14) (size 15 to 20)
#    0.000    1.250    5.000    0.375    3.500    6.500 
#    6.750    0.000    0.000    0.000    0.000    0.000 
#    0.000    0.000    0.000    0.000    0.000    0.000 
#
# Total GULP energy -89515.278732 kJ/mol
# GULP energy per Si atom -5594.704921 kJ/mol
# Density = 2.546247 g / cm^3
# Si number density = 25.520556 Si / 1000 Ang^3
#
#
#
# Elastic Constant Matrix: (Units=GPa)
#
#
# Indices 1 2 3 4 5 6 
#
# 1 92.3015 19.3363 14.1274 -11.2284 -17.2193 25.1344
# 2 19.3363 118.4081 29.4473 -7.8113 0.7345 13.2307
# 3 14.1274 29.4473 157.7936 10.4358 -15.8244 11.9039
# 4 -11.2284 -7.8113 10.4358 35.2392 9.0971 -8.0445
# 5 -17.2193 0.7345 -15.8244 9.0971 45.0585 -2.6344
# 6 25.1344 13.2307 11.9039 -8.0445 -2.6344 41.4123
#
#
#
# Elastic Compliance Matrix: (Units=1/GPa)
#
#
# Indices 1 2 3 4 5 6 
#
# 1 0.014258 -0.001409 -0.000045 0.001273 0.004752 -0.007641
# 2 -0.001409 0.009461 -0.001895 0.002414 -0.001920 -0.001276
# 3 -0.000045 -0.001895 0.007445 -0.003965 0.003308 -0.002067
# 4 0.001273 0.002414 -0.003965 0.033702 -0.007418 0.005671
# 5 0.004752 -0.001920 0.003308 -0.007418 0.026526 -0.002975
# 6 -0.007641 -0.001276 -0.002067 0.005671 -0.002975 0.030699
#
#
# Mechanical properties :
#
#
# Convention : Reuss Voigt Hill
#
# Bulk Modulus (GPa) = 40.87358 54.92502 47.89930
# Shear Modulus (GPa) = 36.51108 44.71482 40.61295
#
# Velocity S-wave (km/s) = 3.78650 4.19036 3.99354
# Velocity P-wave (km/s) = 5.93022 6.70677 6.33041
#
# Compressibility (1/GPa) = 0.02446568
#
# Stress axis : x y z
#
# Youngs Moduli (GPa) = 70.13479 105.70240 134.31745
#
# Poissons Ratio (x) = 0.14893 0.00601
# Poissons Ratio (y) = 0.09882 0.25458
# Poissons Ratio (z) = 0.00314 0.20034
#
# Static dielectric constant tensor:
#      x y z
#    x 1.981680 -0.024180 0.027090 
#    y -0.024180 2.031530 -0.003600 
#    z 0.027090 -0.003600 2.063890 
# 
# From -- ./inp_files/348840.got.cif
#   From: 2010.05.17/outbox.cif.g08.bks.cpg/sg2_175_cif.got.tgz:348840.got - 2010.06.03 11:33:40.
