data_PCOD9039013
_publ_section_title
;
Structure prediction by ZEFSAII (Michael W. Deem and Ramdas Pophale) SiO2 
 PCOD9039013
Probable space group: P -1
;
_chemical_formula_sum "Si O2"
_cell_formula_units_Z 16
_cell_length_a 20.214745
_cell_length_b 10.660252
_cell_length_c 9.337123
_cell_angle_alpha 110.860479
_cell_angle_beta 70.316913
_cell_angle_gamma 47.261487
_cell_volume 743.081088
_symmetry_space_group_name_H-M "P -1"
_symmetry_group_IT_number 2
_symmetry_cell_setting 'triclinic'
loop_
_space_group_symop_operation_xyz
x,y,z
-x,-y,-z
loop_
_atom_site_type_symbol
_atom_site_label
_atom_site_fract_x
_atom_site_fract_y
_atom_site_fract_z
Si Si1 0.334280 0.726702 0.642818
Si Si2 0.067790 0.181317 0.268675
Si Si3 0.220409 0.141457 0.333357
Si Si4 0.327485 0.235419 0.655491
Si Si5 0.501679 0.204621 0.176402
Si Si6 0.799122 0.838135 0.307050
Si Si7 0.564698 0.824282 0.077136
Si Si8 0.142226 0.768503 0.182302
O O1 0.500000 0.500000 0.500000
O O2 0.369196 0.510606 0.495186
O O3 0.285790 0.892202 0.604079
O O4 0.187250 0.001147 0.974351
O O5 0.119494 0.190776 0.363649
O O6 0.885725 0.540941 0.495724
O O7 0.098114 0.978980 0.215843
O O8 0.241183 0.088091 0.464956
O O9 0.387020 0.873545 0.010695
O O10 0.277556 0.168978 0.699826
O O11 0.500000 0.000000 0.500000
O O12 0.379165 0.144611 0.412902
O O13 0.178808 0.586414 0.967020
O O14 0.605025 0.913128 0.070922
O O15 0.425623 0.256199 0.119088
O O16 0.000000 0.500000 0.000000
O O17 0.686701 0.528862 0.970320
O O18 0.000000 0.000000 0.500000
#
# Coordination Sequence:
#
# PCOD9039013 Si02
#       8
#     2   2   2   2   2   2   2   2
#     4  12  27  41  69 105 139 182 234 296 345 419
#     4  11  25  44  67 101 137 183 232 285 359 418
#     4  11  24  45  70  96 142 184 231 292 350 421
#     4  10  24  43  70  97 137 185 229 286 349 419
#     4  11  23  41  67  97 133 174 234 288 343 407
#     4  12  27  47  73 105 145 189 238 287 362 416
#     4  10  23  42  65  96 133 180 226 286 350 410
#     4  11  25  41  68  96 134 179 234 281 347 419
#
# _framework density 21.531970000000001
#
# number of rings (size 3 to 8) (size 9 to 14) (size 15 to 20)
#    0.000    1.000    3.750    1.500   10.500    0.500 
#    0.000    0.625    0.000    0.000    0.000    0.000 
#    0.000    0.000    0.000    0.000    0.000    0.000 
#
# Total GULP energy -89359.499069 kJ/mol
# GULP energy per Si atom -5584.968692 kJ/mol
# Density = 2.148296 g / cm^3
# Si number density = 21.531970 Si / 1000 Ang^3
#
#
#
# Elastic Constant Matrix: (Units=GPa)
#
#
# Indices 1 2 3 4 5 6 
#
# 1 72.1060 17.9250 12.9943 3.7212 16.8497 3.4380
# 2 17.9250 115.2451 11.6329 2.1960 13.8478 5.6301
# 3 12.9943 11.6329 100.1732 1.8865 12.2182 1.0395
# 4 3.7212 2.1960 1.8865 33.3148 7.8169 2.8679
# 5 16.8497 13.8478 12.2182 7.8169 38.7424 -2.2605
# 6 3.4380 5.6301 1.0395 2.8679 -2.2605 30.2075
#
#
#
# Elastic Compliance Matrix: (Units=1/GPa)
#
#
# Indices 1 2 3 4 5 6 
#
# 1 0.015986 -0.001537 -0.001123 -0.000007 -0.006162 -0.001955
# 2 -0.001537 0.009375 -0.000550 0.000370 -0.002688 -0.001790
# 3 -0.001123 -0.000550 0.010521 0.000230 -0.002700 -0.000356
# 4 -0.000007 0.000370 0.000230 0.031898 -0.006849 -0.003617
# 5 -0.006162 -0.002688 -0.002700 -0.006849 0.031939 0.004336
# 6 -0.001955 -0.001790 -0.000356 -0.003617 0.004336 0.034340
#
#
# Mechanical properties :
#
#
# Convention : Reuss Voigt Hill
#
# Bulk Modulus (GPa) = 33.94186 41.40318 37.67252
# Shear Modulus (GPa) = 33.26656 36.78442 35.02549
#
# Velocity S-wave (km/s) = 3.93489 4.13772 4.03758
# Velocity P-wave (km/s) = 6.03674 6.48830 6.26659
#
# Compressibility (1/GPa) = 0.02946215
#
# Stress axis : x y z
#
# Youngs Moduli (GPa) = 62.55300 106.66527 95.04831
#
# Poissons Ratio (x) = 0.16395 0.10676
# Poissons Ratio (y) = 0.09615 0.05226
# Poissons Ratio (z) = 0.07026 0.05865
#
# Static dielectric constant tensor:
#      x y z
#    x 1.821380 0.003470 -0.020860 
#    y 0.003470 1.828770 -0.071790 
#    z -0.020860 -0.071790 1.866620 
# 
# From -- ./inp_files/343641.got.cif
#   From: 2010.05.17/outbox.cif.g08.bks.cpg/sg2_172_cif.got.tgz:343641.got - 2010.06.03 11:33:40.
