data_PCOD9039418
_publ_section_title
;
Structure prediction by ZEFSAII (Michael W. Deem and Ramdas Pophale) SiO2 
 PCOD9039418
Probable space group: P -1
;
_chemical_formula_sum "Si O2"
_cell_formula_units_Z 15
_cell_length_a 11.589972
_cell_length_b 5.253908
_cell_length_c 13.789369
_cell_angle_alpha 58.228703
_cell_angle_beta 56.002281
_cell_angle_gamma 59.618973
_cell_volume 564.596510
_symmetry_space_group_name_H-M "P -1"
_symmetry_group_IT_number 2
_symmetry_cell_setting 'triclinic'
loop_
_space_group_symop_operation_xyz
x,y,z
-x,-y,-z
loop_
_atom_site_type_symbol
_atom_site_label
_atom_site_fract_x
_atom_site_fract_y
_atom_site_fract_z
Si Si1 0.500000 0.500000 0.000000
Si Si2 0.585621 0.455079 0.735961
Si Si3 0.634663 0.532586 0.332050
Si Si4 0.696083 0.787322 0.448346
Si Si5 0.150514 0.750293 0.009725
Si Si6 0.755683 0.785393 0.804166
Si Si7 0.992149 0.647565 0.577535
Si Si8 0.170670 0.342682 0.928725
O O1 0.129029 0.447624 0.132251
O O2 0.610481 0.707205 0.919850
O O3 0.487793 0.347810 0.719093
O O4 0.638124 0.700828 0.596415
O O5 0.519953 0.533065 0.859405
O O6 0.723702 0.151016 0.751222
O O7 0.608640 0.678879 0.423036
O O8 0.771640 0.642677 0.208181
O O9 0.681092 0.154458 0.382749
O O10 0.862943 0.576969 0.395517
O O11 0.233969 0.585211 0.909001
O O12 0.221106 0.964964 0.001457
O O13 0.000000 0.000000 0.000000
O O14 0.834886 0.669828 0.690421
O O15 0.000000 0.500000 0.500000
O O16 0.000000 0.000000 0.500000
O O17 0.000000 0.500000 0.000000
#
# Coordination Sequence:
#
# PCOD9039418 Si02
#       8
#     1   2   2   2   2   2   2   2
#     4  12  30  52  84 110 170 220 280 344 424 498
#     4  12  29  54  80 119 165 219 286 340 422 507
#     4  12  28  49  83 119 165 217 278 341 420 485
#     4  12  28  52  85 122 161 224 274 350 408 501
#     4  10  24  44  69 106 152 202 251 331 392 475
#     4  12  29  48  81 117 161 217 273 340 424 499
#     4  12  27  52  82 120 166 211 274 344 413 503
#     4  10  23  42  68 106 156 197 261 323 394 476
#
# _framework density 26.567646
#
# number of rings (size 3 to 8) (size 9 to 14) (size 15 to 20)
#    0.000    0.533    1.333    4.400   14.933    0.000 
#    0.000    0.000    0.000    0.000    0.000    0.000 
#    0.000    0.000    0.000    0.000    0.000    0.000 
#
# Total GULP energy -83523.114371 kJ/mol
# GULP energy per Si atom -5568.207625 kJ/mol
# Density = 2.650718 g / cm^3
# Si number density = 26.567646 Si / 1000 Ang^3
#
#
#
# Elastic Constant Matrix: (Units=GPa)
#
#
# Indices 1 2 3 4 5 6 
#
# 1 89.4806 24.2124 19.4433 -4.2488 21.1903 14.7386
# 2 24.2124 176.4324 50.9055 -29.2463 16.8649 17.5660
# 3 19.4433 50.9055 170.6857 5.8897 13.9816 5.8753
# 4 -4.2488 -29.2463 5.8897 59.5094 2.0441 3.9689
# 5 21.1903 16.8649 13.9816 2.0441 50.5489 10.9484
# 6 14.7386 17.5660 5.8753 3.9689 10.9484 36.1927
#
#
#
# Elastic Compliance Matrix: (Units=1/GPa)
#
#
# Indices 1 2 3 4 5 6 
#
# 1 0.013228 -0.000578 -0.000889 0.001149 -0.004335 -0.003777
# 2 -0.000578 0.007450 -0.002094 0.004076 -0.001149 -0.003140
# 3 -0.000889 -0.002094 0.006691 -0.001775 -0.000870 0.000750
# 4 0.001149 0.004076 -0.001775 0.019369 -0.001291 -0.003892
# 5 -0.004335 -0.001149 -0.000870 -0.001291 0.023234 -0.004423
# 6 -0.003777 -0.003140 0.000750 -0.003892 -0.004423 0.032335
#
#
# Mechanical properties :
#
#
# Convention : Reuss Voigt Hill
#
# Bulk Modulus (GPa) = 49.39126 69.52457 59.45791
# Shear Modulus (GPa) = 43.03714 52.05268 47.54491
#
# Velocity S-wave (km/s) = 4.02917 4.43114 4.23493
# Velocity P-wave (km/s) = 6.34640 7.23918 6.80744
#
# Compressibility (1/GPa) = 0.02024650
#
# Stress axis : x y z
#
# Youngs Moduli (GPa) = 75.59462 134.23612 149.44702
#
# Poissons Ratio (x) = 0.07758 0.13287
# Poissons Ratio (y) = 0.04369 0.31300
# Poissons Ratio (z) = 0.06721 0.28115
#
# Static dielectric constant tensor:
#      x y z
#    x 1.748780 0.783240 -1.045060 
#    y 0.783240 1.524020 0.848930 
#    z -1.045060 0.848930 1.096760 
# 
# From -- ./inp_files/510110.got.cif
#   From: 2010.05.17/outbox.cif.g08.bks.cpg/sg2_256_cif.got.tgz:510110.got - 2010.06.03 11:33:40.
