data_PCOD9039113
_publ_section_title
;
Structure prediction by ZEFSAII (Michael W. Deem and Ramdas Pophale) SiO2 
 PCOD9039113
Probable space group: P -1
;
_chemical_formula_sum "Si O2"
_cell_formula_units_Z 12
_cell_length_a 7.896102
_cell_length_b 10.360291
_cell_length_c 9.047562
_cell_angle_alpha 116.144921
_cell_angle_beta 88.217901
_cell_angle_gamma 53.207205
_cell_volume 485.200108
_symmetry_space_group_name_H-M "P -1"
_symmetry_group_IT_number 2
_symmetry_cell_setting 'triclinic'
loop_
_space_group_symop_operation_xyz
x,y,z
-x,-y,-z
loop_
_atom_site_type_symbol
_atom_site_label
_atom_site_fract_x
_atom_site_fract_y
_atom_site_fract_z
Si Si1 0.571690 0.989152 0.249403
Si Si2 0.637556 0.370238 0.072375
Si Si3 0.673308 0.058188 0.978324
Si Si4 0.697864 0.460102 0.573316
Si Si5 0.941434 0.412210 0.264526
Si Si6 0.124609 0.230486 0.597444
O O1 0.788688 0.867470 0.293564
O O2 0.603672 0.088876 0.169720
O O3 0.349945 0.119039 0.430388
O O4 0.531994 0.867914 0.092204
O O5 0.788979 0.136638 0.951169
O O6 0.444824 0.423213 0.218014
O O7 0.771509 0.426749 0.165152
O O8 0.500000 0.500000 0.000000
O O9 0.848156 0.820482 0.839315
O O10 0.500000 0.500000 0.500000
O O11 0.813916 0.497599 0.469638
O O12 0.927548 0.250583 0.531467
O O13 0.984582 0.546588 0.274386
#
# Coordination Sequence:
#
# PCOD9039113 Si02
#       6
#     2   2   2   2   2   2
#     4  10  24  39  68  99 134 166 219 269 318 386
#     4  11  25  43  64  93 133 171 218 268 322 387
#     4  11  23  42  63 100 132 170 211 270 332 375
#     4  10  23  42  66  94 130 174 214 263 324 386
#     4  11  23  41  69  95 129 174 214 266 326 385
#     4  11  22  43  68  99 127 173 222 261 318 389
#
# _framework density 24.732066
#
# number of rings (size 3 to 8) (size 9 to 14) (size 15 to 20)
#    0.000    1.333    1.667    3.000    7.000    0.667 
#    0.000    0.833    0.000    0.000    0.000    0.000 
#    0.000    0.000    0.000    0.000    0.000    0.000 
#
# Total GULP energy -66945.552105 kJ/mol
# GULP energy per Si atom -5578.796009 kJ/mol
# Density = 2.467577 g / cm^3
# Si number density = 24.732066 Si / 1000 Ang^3
#
#
#
# Elastic Constant Matrix: (Units=GPa)
#
#
# Indices 1 2 3 4 5 6 
#
# 1 88.4700 50.5288 18.0000 -18.6500 13.9084 -13.2377
# 2 50.5288 164.3886 50.5407 -53.9015 18.8869 -16.1617
# 3 18.0000 50.5407 76.9849 -21.1696 6.5841 11.0072
# 4 -18.6500 -53.9015 -21.1696 50.9316 -11.0625 5.5257
# 5 13.9084 18.8869 6.5841 -11.0625 26.4151 -7.0469
# 6 -13.2377 -16.1617 11.0072 5.5257 -7.0469 51.6814
#
#
#
# Elastic Compliance Matrix: (Units=1/GPa)
#
#
# Indices 1 2 3 4 5 6 
#
# 1 0.014489 -0.003355 -0.001118 0.000108 -0.004292 0.002303
# 2 -0.003355 0.011916 -0.004933 0.008788 -0.001088 0.002830
# 3 -0.001118 -0.004933 0.018084 0.002319 -0.001040 -0.006070
# 4 0.000108 0.008788 0.002319 0.031294 0.006126 -0.000228
# 5 -0.004292 -0.001088 -0.001040 0.006126 0.044852 0.004242
# 6 0.002303 0.002830 -0.006070 -0.000228 0.004242 0.022720
#
#
# Mechanical properties :
#
#
# Convention : Reuss Voigt Hill
#
# Bulk Modulus (GPa) = 38.94459 63.10917 51.02688
# Shear Modulus (GPa) = 29.28678 39.85722 34.57200
#
# Velocity S-wave (km/s) = 3.44490 4.01878 3.74285
# Velocity P-wave (km/s) = 5.62173 6.86343 6.27338
#
# Compressibility (1/GPa) = 0.02567751
#
# Stress axis : x y z
#
# Youngs Moduli (GPa) = 69.01803 83.92132 55.29695
#
# Poissons Ratio (x) = 0.28154 0.06181
# Poissons Ratio (y) = 0.23154 0.27279
# Poissons Ratio (z) = 0.07714 0.41401
#
# Static dielectric constant tensor:
#      x y z
#    x 2.018290 -0.037240 0.053090 
#    y -0.037240 2.063400 0.147920 
#    z 0.053090 0.147920 2.149650 
# 
# From -- ./inp_files/148295.got.cif
#   From: 2010.05.17/outbox.cif.g08.bks.cpg/sg2_75_cif.got.tgz:148295.got - 2010.06.03 11:33:40.
