data_PCOD9039381
_publ_section_title
;
Structure prediction by ZEFSAII (Michael W. Deem and Ramdas Pophale) SiO2 
 PCOD9039381
Probable space group: P -1
;
_chemical_formula_sum "Si O2"
_cell_formula_units_Z 16
_cell_length_a 11.703103
_cell_length_b 24.535251
_cell_length_c 6.613829
_cell_angle_alpha 113.061134
_cell_angle_beta 120.808289
_cell_angle_gamma 25.944808
_cell_volume 701.537807
_symmetry_space_group_name_H-M "P -1"
_symmetry_group_IT_number 2
_symmetry_cell_setting 'triclinic'
loop_
_space_group_symop_operation_xyz
x,y,z
-x,-y,-z
loop_
_atom_site_type_symbol
_atom_site_label
_atom_site_fract_x
_atom_site_fract_y
_atom_site_fract_z
Si Si1 0.715461 0.257150 0.485966
Si Si2 0.788066 0.631130 0.903461
Si Si3 0.499887 0.816651 0.622462
Si Si4 0.017142 0.665844 0.305271
Si Si5 0.010605 0.058904 0.784045
Si Si6 0.934257 0.863922 0.734159
Si Si7 0.348938 0.130311 0.412977
Si Si8 0.559610 0.441297 0.764053
O O1 0.502899 0.291973 0.251273
O O2 0.937873 0.130999 0.634191
O O3 0.599890 0.354004 0.669826
O O4 0.824221 0.246988 0.367843
O O5 0.749654 0.672769 0.700419
O O6 0.000000 0.500000 0.000000
O O7 0.879257 0.655641 0.133356
O O8 0.253321 0.882954 0.361627
O O9 0.630935 0.822422 0.647101
O O10 0.310237 0.910379 0.783388
O O11 0.279306 0.559880 0.544717
O O12 0.162011 0.637869 0.199704
O O13 0.772321 0.801143 0.381358
O O14 0.014715 0.096089 0.041608
O O15 0.859515 0.841415 0.790787
O O16 0.660450 0.982328 0.517398
O O17 0.500000 0.500000 0.000000
#
# Coordination Sequence:
#
# PCOD9039381 Si02
#       8
#     2   2   2   2   2   2   2   2
#     4  11  23  47  70 106 140 179 243 285 354 426
#     4  11  24  46  71  98 142 186 234 303 335 412
#     4  10  23  43  67 105 141 184 239 282 354 424
#     4  11  25  45  67 103 137 182 241 277 356 420
#     4  10  23  42  68 101 142 187 228 290 352 416
#     4  11  24  43  71 103 145 184 226 290 361 413
#     4  11  24  43  67 106 141 183 230 291 349 423
#     4  11  26  46  71  96 141 189 229 291 350 417
#
# _framework density 22.807039
#
# number of rings (size 3 to 8) (size 9 to 14) (size 15 to 20)
#    0.000    1.250    3.750    0.750    5.250    1.000 
#    0.000    1.250    0.000    0.000    0.000    0.000 
#    0.000    0.000    0.000    0.000    0.000    0.000 
#
# Total GULP energy -89266.704827 kJ/mol
# GULP energy per Si atom -5579.169052 kJ/mol
# Density = 2.275513 g / cm^3
# Si number density = 22.807039 Si / 1000 Ang^3
#
#
#
# Elastic Constant Matrix: (Units=GPa)
#
#
# Indices 1 2 3 4 5 6 
#
# 1 123.8510 37.2341 29.4332 -3.2800 14.6098 17.9439
# 2 37.2341 70.8154 20.6605 8.6294 2.8661 13.5389
# 3 29.4332 20.6605 81.1122 9.3137 29.5566 -7.6625
# 4 -3.2800 8.6294 9.3137 39.8110 14.7366 -3.9161
# 5 14.6098 2.8661 29.5566 14.7366 31.1214 4.3264
# 6 17.9439 13.5389 -7.6625 -3.9161 4.3264 28.4553
#
#
#
# Elastic Compliance Matrix: (Units=1/GPa)
#
#
# Indices 1 2 3 4 5 6 
#
# 1 0.011181 -0.004547 -0.002467 0.003296 -0.003411 -0.004579
# 2 -0.004547 0.023218 -0.010870 -0.010881 0.017596 -0.015280
# 3 -0.002467 -0.010870 0.028683 0.009490 -0.032452 0.020691
# 4 0.003296 -0.010881 0.009490 0.038044 -0.029715 0.015408
# 5 -0.003411 0.017596 -0.032452 -0.029715 0.081372 -0.031421
# 6 -0.004579 -0.015280 0.020691 0.015408 -0.031421 0.057770
#
#
# Mechanical properties :
#
#
# Convention : Reuss Voigt Hill
#
# Bulk Modulus (GPa) = 36.61197 50.04824 43.33011
# Shear Modulus (GPa) = 17.53530 32.44094 24.98812
#
# Velocity S-wave (km/s) = 2.77583 3.77558 3.31362
# Velocity P-wave (km/s) = 5.13434 6.40301 5.80344
#
# Compressibility (1/GPa) = 0.02731347
#
# Stress axis : x y z
#
# Youngs Moduli (GPa) = 89.44032 43.06921 34.86446
#
# Poissons Ratio (x) = 0.19584 0.08601
# Poissons Ratio (y) = 0.40670 0.37898
# Poissons Ratio (z) = 0.22064 0.46816
#
# Static dielectric constant tensor:
#      x y z
#    x 1.892120 0.024040 0.003740 
#    y 0.024040 1.865850 -0.020710 
#    z 0.003740 -0.020710 1.871030 
# 
# From -- ./inp_files/84457.got.cif
#   From: 2010.05.17/outbox.cif.g08.bks.cpg/sg2_43_cif.got.tgz:84457.got - 2010.06.03 11:33:40.
