data_PCOD9039135
_publ_section_title
;
Structure prediction by ZEFSAII (Michael W. Deem and Ramdas Pophale) SiO2 
 PCOD9039135
Probable space group: P -1
;
_chemical_formula_sum "Si O2"
_cell_formula_units_Z 14
_cell_length_a 7.997763
_cell_length_b 12.194368
_cell_length_c 20.316920
_cell_angle_alpha 31.233814
_cell_angle_beta 42.020285
_cell_angle_gamma 62.697149
_cell_volume 592.171354
_symmetry_space_group_name_H-M "P -1"
_symmetry_group_IT_number 2
_symmetry_cell_setting 'triclinic'
loop_
_space_group_symop_operation_xyz
x,y,z
-x,-y,-z
loop_
_atom_site_type_symbol
_atom_site_label
_atom_site_fract_x
_atom_site_fract_y
_atom_site_fract_z
Si Si1 0.819759 0.233028 0.295007
Si Si2 0.821317 0.757482 0.365957
Si Si3 0.484826 0.506372 0.718510
Si Si4 0.732516 0.865402 0.857793
Si Si5 0.088955 0.474364 0.222307
Si Si6 0.012936 0.910278 0.970657
Si Si7 0.885299 0.332452 0.496999
O O1 0.737243 0.444185 0.200827
O O2 0.034079 0.207514 0.196469
O O3 0.970243 0.270293 0.304054
O O4 0.500000 0.000000 0.500000
O O5 0.579904 0.664473 0.541588
O O6 0.823002 0.517772 0.461642
O O7 0.788045 0.888192 0.244064
O O8 0.119561 0.958338 0.212416
O O9 0.783672 0.588437 0.623501
O O10 0.313969 0.224154 0.892987
O O11 0.423010 0.614936 0.077043
O O12 0.711076 0.053080 0.716371
O O13 0.890747 0.376815 0.395042
O O14 0.073899 0.693400 0.078254
O O15 0.000000 0.000000 0.000000
#
# Coordination Sequence:
#
# PCOD9039135 Si02
#       7
#     2   2   2   2   2   2   2
#     4  11  22  49  68  94 136 176 228 274 326 396
#     4  11  23  40  70  98 133 182 214 265 339 401
#     4  10  23  42  66  96 130 178 225 266 333 393
#     4  11  24  45  70  98 133 179 225 273 328 391
#     4  11  26  42  67 102 133 173 225 277 331 391
#     4  11  24  40  61  97 139 172 214 274 327 398
#     4  11  23  41  68 102 136 171 221 274 335 397
#
# _framework density 23.641804
#
# number of rings (size 3 to 8) (size 9 to 14) (size 15 to 20)
#    0.000    1.143    4.286    3.000    4.000    4.571 
#    0.000    9.286    0.000    0.000    0.000    0.000 
#    0.000    0.000    0.000    0.000    0.000    0.000 
#
# Total GULP energy -78181.875140 kJ/mol
# GULP energy per Si atom -5584.419653 kJ/mol
# Density = 2.358799 g / cm^3
# Si number density = 23.641804 Si / 1000 Ang^3
#
#
#
# Elastic Constant Matrix: (Units=GPa)
#
#
# Indices 1 2 3 4 5 6 
#
# 1 75.8652 23.4854 50.7099 7.9382 8.5664 6.7540
# 2 23.4854 88.4669 29.6066 -2.5838 9.3273 13.7573
# 3 50.7099 29.6066 118.9436 20.2716 -0.6396 21.6436
# 4 7.9382 -2.5838 20.2716 23.3237 12.5681 -3.1360
# 5 8.5664 9.3273 -0.6396 12.5681 59.4171 -8.2589
# 6 6.7540 13.7573 21.6436 -3.1360 -8.2589 23.0404
#
#
#
# Elastic Compliance Matrix: (Units=1/GPa)
#
#
# Indices 1 2 3 4 5 6 
#
# 1 0.019533 -0.002419 -0.008802 0.002597 -0.002607 0.003406
# 2 -0.002419 0.014317 -0.002420 0.005846 -0.004025 -0.006214
# 3 -0.008802 -0.002420 0.018237 -0.016885 0.003447 -0.014169
# 4 0.002597 0.005846 -0.016885 0.066652 -0.013363 0.015892
# 5 -0.002607 -0.004025 0.003447 -0.013363 0.021511 0.005821
# 6 0.003406 -0.006214 -0.014169 0.015892 0.005821 0.063673
#
#
# Mechanical properties :
#
#
# Convention : Reuss Voigt Hill
#
# Bulk Modulus (GPa) = 40.31289 54.54217 47.42753
# Shear Modulus (GPa) = 20.87932 33.12115 27.00024
#
# Velocity S-wave (km/s) = 2.97501 3.74700 3.38310
# Velocity P-wave (km/s) = 5.37489 6.46841 5.94684
#
# Compressibility (1/GPa) = 0.02480596
#
# Stress axis : x y z
#
# Youngs Moduli (GPa) = 51.19593 69.84744 54.83447
#
# Poissons Ratio (x) = 0.16893 0.48264
# Poissons Ratio (y) = 0.12382 0.13269
# Poissons Ratio (z) = 0.45062 0.16902
#
# Static dielectric constant tensor:
#      x y z
#    x 2.009890 -0.020570 -0.020530 
#    y -0.020570 2.238640 -0.159770 
#    z -0.020530 -0.159770 1.985980 
# 
# From -- ./inp_files/426361.got.cif
#   From: 2010.05.17/outbox.cif.g08.bks.cpg/sg2_214_cif.got.tgz:426361.got - 2010.06.03 11:33:40.
