data_PCOD9039259
_publ_section_title
;
Structure prediction by ZEFSAII (Michael W. Deem and Ramdas Pophale) SiO2 
 PCOD9039259
Probable space group: P -1
;
_chemical_formula_sum "Si O2"
_cell_formula_units_Z 16
_cell_length_a 10.908930
_cell_length_b 12.427810
_cell_length_c 9.651849
_cell_angle_alpha 130.883261
_cell_angle_beta 113.291149
_cell_angle_gamma 103.589234
_cell_volume 638.963081
_symmetry_space_group_name_H-M "P -1"
_symmetry_group_IT_number 2
_symmetry_cell_setting 'triclinic'
loop_
_space_group_symop_operation_xyz
x,y,z
-x,-y,-z
loop_
_atom_site_type_symbol
_atom_site_label
_atom_site_fract_x
_atom_site_fract_y
_atom_site_fract_z
Si Si1 0.879603 0.812581 0.680517
Si Si2 0.563866 0.207930 0.554161
Si Si3 0.733169 0.203107 0.382679
Si Si4 0.328471 0.132811 0.849037
Si Si5 0.899349 0.373235 0.048382
Si Si6 0.171218 0.978673 0.348701
Si Si7 0.765241 0.410525 0.293952
Si Si8 0.448147 0.502488 0.323201
O O1 0.901043 0.919742 0.640078
O O2 0.896232 0.653556 0.559087
O O3 0.656551 0.658296 0.481214
O O4 0.000000 0.000000 0.000000
O O5 0.565737 0.102206 0.335086
O O6 0.366541 0.086796 0.442698
O O7 0.625433 0.399085 0.665751
O O8 0.717359 0.273636 0.790036
O O9 0.733962 0.308222 0.340558
O O10 0.926673 0.390072 0.706098
O O11 0.722474 0.027820 0.197868
O O12 0.216706 0.014494 0.560529
O O13 0.554105 0.295499 0.056338
O O14 0.307907 0.276770 0.013386
O O15 0.847890 0.368146 0.180102
O O16 0.954723 0.251460 0.945900
O O17 0.500000 0.500000 0.500000
#
# Coordination Sequence:
#
# PCOD9039259 Si02
#       8
#     2   2   2   2   2   2   2   2
#     4  10  23  42  67  93 127 165 211 264 322 375
#     4  11  22  41  67  90 129 169 213 258 316 383
#     4  12  25  42  64  96 132 167 213 270 316 374
#     4  11  23  42  65  96 126 168 218 257 320 383
#     4  12  24  41  64  98 130 167 214 264 325 371
#     4  11  23  41  68  95 128 169 215 262 315 388
#     4  11  24  42  67  93 129 170 214 262 320 386
#     4  10  24  42  66  94 126 169 213 262 317 383
#
# _framework density 25.040569000000001
#
# number of rings (size 3 to 8) (size 9 to 14) (size 15 to 20)
#    0.000    1.000    2.500    4.500    1.750    4.500 
#    0.000    0.625    0.000    0.000    0.000    0.000 
#    0.000    0.000    0.000    0.000    0.000    0.000 
#
# Total GULP energy -89514.978882 kJ/mol
# GULP energy per Si atom -5594.686180 kJ/mol
# Density = 2.498358 g / cm^3
# Si number density = 25.040569 Si / 1000 Ang^3
#
#
#
# Elastic Constant Matrix: (Units=GPa)
#
#
# Indices 1 2 3 4 5 6 
#
# 1 32.0641 32.6568 11.3705 5.1571 -2.4636 -6.4159
# 2 32.6568 149.2033 58.6170 8.8143 -21.9829 -27.4212
# 3 11.3705 58.6170 117.2454 22.9332 -25.6245 -11.3019
# 4 5.1571 8.8143 22.9332 52.5337 -1.1081 -7.1329
# 5 -2.4636 -21.9829 -25.6245 -1.1081 37.4769 16.6986
# 6 -6.4159 -27.4212 -11.3019 -7.1329 16.6986 50.3766
#
#
#
# Elastic Compliance Matrix: (Units=1/GPa)
#
#
# Indices 1 2 3 4 5 6 
#
# 1 0.040796 -0.009298 0.000700 -0.002697 -0.002737 0.000817
# 2 -0.009298 0.011244 -0.004339 0.001452 0.001412 0.003701
# 3 0.000700 -0.004339 0.013018 -0.005212 0.007377 -0.002535
# 4 -0.002697 0.001452 -0.005212 0.021744 -0.003867 0.003638
# 5 -0.002737 0.001412 0.007377 -0.003867 0.037053 -0.010755
# 6 0.000817 0.003701 -0.002535 0.003638 -0.010755 0.025480
#
#
# Mechanical properties :
#
#
# Convention : Reuss Voigt Hill
#
# Bulk Modulus (GPa) = 25.51977 55.97795 40.74886
# Shear Modulus (GPa) = 26.55749 41.13534 33.84642
#
# Velocity S-wave (km/s) = 3.26019 4.05748 3.68049
# Velocity P-wave (km/s) = 4.93814 6.65990 5.86257
#
# Compressibility (1/GPa) = 0.03918530
#
# Stress axis : x y z
#
# Youngs Moduli (GPa) = 24.51206 88.93454 76.81794
#
# Poissons Ratio (x) = 0.82693 -0.05380
# Poissons Ratio (y) = 0.22792 0.33328
# Poissons Ratio (z) = -0.01717 0.38585
#
# Static dielectric constant tensor:
#      x y z
#    x 2.028840 -0.022550 0.024680 
#    y -0.022550 1.856240 0.020760 
#    z 0.024680 0.020760 1.971870 
# 
# From -- ./inp_files/223791.got.cif
#   From: 2010.05.17/outbox.cif.g08.bks.cpg/sg2_112_cif.got.tgz:223791.got - 2010.06.03 11:33:40.
