data_PCOD9039542
_publ_section_title
;
Structure prediction by ZEFSAII (Michael W. Deem and Ramdas Pophale) SiO2 
 PCOD9039542
Probable space group: P -1
;
_chemical_formula_sum "Si O2"
_cell_formula_units_Z 16
_cell_length_a 9.655143
_cell_length_b 15.748940
_cell_length_c 7.237028
_cell_angle_alpha 85.696652
_cell_angle_beta 130.111619
_cell_angle_gamma 66.849723
_cell_volume 684.316344
_symmetry_space_group_name_H-M "P -1"
_symmetry_group_IT_number 2
_symmetry_cell_setting 'triclinic'
loop_
_space_group_symop_operation_xyz
x,y,z
-x,-y,-z
loop_
_atom_site_type_symbol
_atom_site_label
_atom_site_fract_x
_atom_site_fract_y
_atom_site_fract_z
Si Si1 0.407099 0.406300 0.786036
Si Si2 0.171025 0.386977 0.262637
Si Si3 0.167125 0.075530 0.207623
Si Si4 0.524657 0.849331 0.433280
Si Si5 0.508287 0.791472 0.999891
Si Si6 0.161313 0.170528 0.815479
Si Si7 0.145199 0.626642 0.723290
Si Si8 0.969995 0.103473 0.403026
O O1 0.329528 0.405900 0.514032
O O2 0.350125 0.333384 0.853914
O O3 0.265847 0.517564 0.741014
O O4 0.662543 0.367064 0.022834
O O5 0.343193 0.268531 0.345691
O O6 0.017207 0.367987 0.262843
O O7 0.000000 0.500000 0.000000
O O8 0.324241 0.107103 0.422666
O O9 0.294908 0.951277 0.300287
O O10 0.092178 0.138192 0.941587
O O11 0.021265 0.885202 0.808906
O O12 0.496703 0.830158 0.195743
O O13 0.611013 0.839841 0.963611
O O14 0.273106 0.816822 0.737048
O O15 0.989584 0.284048 0.561081
O O16 0.167591 0.100223 0.669747
O O17 0.000000 0.000000 0.500000
#
# Coordination Sequence:
#
# PCOD9039542 Si02
#       8
#     2   2   2   2   2   2   2   2
#     4  10  23  42  69 101 137 183 239 294 350 433
#     4  11  24  43  72 102 142 188 232 294 364 421
#     4  11  26  46  72 105 146 189 243 294 355 435
#     4  10  23  45  67 101 144 182 243 294 354 422
#     4  11  23  44  73 100 144 192 236 295 363 425
#     4  12  25  46  76 104 142 194 237 304 358 427
#     4  11  22  45  69 101 143 181 241 291 362 425
#     4  12  27  47  71 103 146 190 238 296 366 425
#
# _framework density 23.381001000000001
#
# number of rings (size 3 to 8) (size 9 to 14) (size 15 to 20)
#    0.000    1.000    5.000    1.125    5.250    3.500 
#    0.000    5.000    0.000    0.000    0.000    0.000 
#    0.000    0.000    0.000    0.000    0.000    0.000 
#
# Total GULP energy -89297.992014 kJ/mol
# GULP energy per Si atom -5581.124501 kJ/mol
# Density = 2.332779 g / cm^3
# Si number density = 23.381001 Si / 1000 Ang^3
#
#
#
# Elastic Constant Matrix: (Units=GPa)
#
#
# Indices 1 2 3 4 5 6 
#
# 1 109.6060 33.6062 51.8514 -6.9403 -8.9801 16.9610
# 2 33.6062 138.1108 26.0104 8.7818 4.9270 22.6420
# 3 51.8514 26.0104 72.5839 6.1275 -0.6407 15.7860
# 4 -6.9403 8.7818 6.1275 40.5057 7.3046 -7.7196
# 5 -8.9801 4.9270 -0.6407 7.3046 36.5905 -1.8595
# 6 16.9610 22.6420 15.7860 -7.7196 -1.8595 21.6679
#
#
#
# Elastic Compliance Matrix: (Units=1/GPa)
#
#
# Indices 1 2 3 4 5 6 
#
# 1 0.015215 -0.002015 -0.010317 0.003943 0.003006 -0.000625
# 2 -0.002015 0.009687 0.000640 -0.004311 -0.001469 -0.010674
# 3 -0.010317 0.000640 0.024482 -0.007925 -0.001287 -0.013363
# 4 0.003943 -0.004311 -0.007925 0.031673 -0.003992 0.018134
# 5 0.003006 -0.001469 -0.001287 -0.003992 0.029100 0.001195
# 6 -0.000625 -0.010674 -0.013363 0.018134 0.001195 0.074092
#
#
# Mechanical properties :
#
#
# Convention : Reuss Voigt Hill
#
# Bulk Modulus (GPa) = 38.46141 60.35964 49.41053
# Shear Modulus (GPa) = 23.11615 33.67500 28.39558
#
# Velocity S-wave (km/s) = 3.14773 3.79921 3.48871
# Velocity P-wave (km/s) = 5.44945 6.71692 6.11611
#
# Compressibility (1/GPa) = 0.02600008
#
# Stress axis : x y z
#
# Youngs Moduli (GPa) = 65.72534 103.23558 40.84630
#
# Poissons Ratio (x) = 0.20798 0.42143
# Poissons Ratio (y) = 0.13241 -0.02616
# Poissons Ratio (z) = 0.67812 -0.06611
#
# Static dielectric constant tensor:
#      x y z
#    x 1.830610 -0.003550 -0.045730 
#    y -0.003550 1.929520 -0.086080 
#    z -0.045730 -0.086080 2.015960 
# 
# From -- ./inp_files/273255.got.cif
#   From: 2010.05.17/outbox.cif.g08.bks.cpg/sg2_137_cif.got.tgz:273255.got - 2010.06.03 11:33:40.
