data_PCOD9039783
_publ_section_title
;
Structure prediction by ZEFSAII (Michael W. Deem and Ramdas Pophale) SiO2 
 PCOD9039783
Probable space group: P -1
;
_chemical_formula_sum "Si O2"
_cell_formula_units_Z 16
_cell_length_a 16.346279
_cell_length_b 19.384968
_cell_length_c 11.624348
_cell_angle_alpha 42.838356
_cell_angle_beta 35.136344
_cell_angle_gamma 19.391428
_cell_volume 689.703472
_symmetry_space_group_name_H-M "P -1"
_symmetry_group_IT_number 2
_symmetry_cell_setting 'triclinic'
loop_
_space_group_symop_operation_xyz
x,y,z
-x,-y,-z
loop_
_atom_site_type_symbol
_atom_site_label
_atom_site_fract_x
_atom_site_fract_y
_atom_site_fract_z
Si Si1 0.203684 0.979543 0.565288
Si Si2 0.235224 0.299531 0.392795
Si Si3 0.205538 0.745613 0.850815
Si Si4 0.660253 0.410221 0.549699
Si Si5 0.112780 0.145735 0.702031
Si Si6 0.435125 0.862651 0.001814
Si Si7 0.822112 0.512949 0.146643
Si Si8 0.625387 0.890159 0.114637
O O1 0.078382 0.106218 0.672272
O O2 0.940720 0.161467 0.551933
O O3 0.296210 0.805878 0.689865
O O4 0.479236 0.876969 0.336922
O O5 0.105335 0.271181 0.543403
O O6 0.324366 0.305312 0.169390
O O7 0.000000 0.500000 0.500000
O O8 0.552730 0.086261 0.352284
O O9 0.431594 0.545637 0.752293
O O10 0.125012 0.741353 0.067861
O O11 0.892009 0.950216 0.895327
O O12 0.500000 0.500000 0.500000
O O13 0.780451 0.450989 0.362318
O O14 0.454617 0.969254 0.880272
O O15 0.517141 0.744169 0.161990
O O16 0.000000 0.500000 0.000000
O O17 0.024786 0.337649 0.028155
O O18 0.500000 0.000000 0.000000
#
# Coordination Sequence:
#
# PCOD9039783 Si02
#       8
#     2   2   2   2   2   2   2   2
#     4  12  25  45  70 100 137 177 230 277 340 405
#     4  10  23  42  71 101 132 173 224 283 342 400
#     4  11  27  44  69  95 140 185 221 280 337 400
#     4  12  27  44  65  99 137 182 228 270 334 408
#     4  10  24  46  67 102 135 172 231 280 337 400
#     4  11  24  43  65  98 134 175 224 275 344 400
#     4  12  24  39  66  99 129 170 225 269 335 400
#     4  12  23  42  68  98 136 174 219 291 331 393
#
# _framework density 23.198374999999999
#
# number of rings (size 3 to 8) (size 9 to 14) (size 15 to 20)
#    0.000    0.750    3.750    2.625    1.750    5.500 
#    0.000    0.000    0.000    0.000    0.000    0.000 
#    0.000    0.000    0.000    0.000    0.000    0.000 
#
# Total GULP energy -89601.358646 kJ/mol
# GULP energy per Si atom -5600.084915 kJ/mol
# Density = 2.314557 g / cm^3
# Si number density = 23.198375 Si / 1000 Ang^3
#
#
#
# Elastic Constant Matrix: (Units=GPa)
#
#
# Indices 1 2 3 4 5 6 
#
# 1 70.0287 -9.6271 2.0395 4.7478 1.3817 8.1925
# 2 -9.6271 39.0069 6.9194 7.8788 3.0513 9.4915
# 3 2.0395 6.9194 113.1850 15.6666 0.6899 8.8924
# 4 4.7478 7.8788 15.6666 37.2310 12.1241 11.1899
# 5 1.3817 3.0513 0.6899 12.1241 31.1134 1.3405
# 6 8.1925 9.4915 8.8924 11.1899 1.3405 33.0687
#
#
#
# Elastic Compliance Matrix: (Units=1/GPa)
#
#
# Indices 1 2 3 4 5 6 
#
# 1 0.015711 0.005417 -0.000014 -0.001532 -0.000420 -0.004908
# 2 0.005417 0.030021 -0.000742 -0.003761 -0.001339 -0.008432
# 3 -0.000014 -0.000742 0.009508 -0.004007 0.001469 -0.001044
# 4 -0.001532 -0.003761 -0.004007 0.036698 -0.013372 -0.009339
# 5 -0.000420 -0.001339 0.001469 -0.013372 0.037335 0.003105
# 6 -0.004908 -0.008432 -0.001044 -0.009339 0.003105 0.037191
#
#
# Mechanical properties :
#
#
# Convention : Reuss Voigt Hill
#
# Bulk Modulus (GPa) = 15.48881 24.54268 20.01575
# Shear Modulus (GPa) = 27.98539 35.14187 31.56363
#
# Velocity S-wave (km/s) = 3.47702 3.89632 3.69263
# Velocity P-wave (km/s) = 4.77606 5.55375 5.17953
#
# Compressibility (1/GPa) = 0.06456273
#
# Stress axis : x y z
#
# Youngs Moduli (GPa) = 63.64872 33.30977 105.17032
#
# Poissons Ratio (x) = -0.18043 0.00148
# Poissons Ratio (y) = -0.34476 0.07800
# Poissons Ratio (z) = 0.00089 0.02470
#
# Static dielectric constant tensor:
#      x y z
#    x 1.884960 0.005870 -0.007870 
#    y 0.005870 1.882800 0.005900 
#    z -0.007870 0.005900 1.841900 
# 
# From -- ./inp_files/467095.got.cif
#   From: 2010.05.17/outbox.cif.g08.bks.cpg/sg2_234_cif.got.tgz:467095.got - 2010.06.03 11:33:40.
