data_PCOD9039838
_publ_section_title
;
Structure prediction by ZEFSAII (Michael W. Deem and Ramdas Pophale) SiO2 
 PCOD9039838
Probable space group: P -1
;
_chemical_formula_sum "Si O2"
_cell_formula_units_Z 16
_cell_length_a 18.909937
_cell_length_b 13.671161
_cell_length_c 7.904758
_cell_angle_alpha 49.153298
_cell_angle_beta 46.150246
_cell_angle_gamma 29.521451
_cell_volume 718.594794
_symmetry_space_group_name_H-M "P -1"
_symmetry_group_IT_number 2
_symmetry_cell_setting 'triclinic'
loop_
_space_group_symop_operation_xyz
x,y,z
-x,-y,-z
loop_
_atom_site_type_symbol
_atom_site_label
_atom_site_fract_x
_atom_site_fract_y
_atom_site_fract_z
Si Si1 0.551115 0.676196 0.652589
Si Si2 0.882429 0.362526 0.624992
Si Si3 0.492491 0.000273 0.809043
Si Si4 0.754567 0.575777 0.925795
Si Si5 0.277873 0.018426 0.951799
Si Si6 0.978542 0.548710 0.278981
Si Si7 0.391080 0.513456 0.568865
Si Si8 0.898182 0.026439 0.506323
O O1 0.715224 0.507607 0.660965
O O2 0.408401 0.812979 0.860640
O O3 0.554755 0.567111 0.620816
O O4 0.531381 0.837228 0.418212
O O5 0.861239 0.390085 0.830634
O O6 0.946967 0.439326 0.377114
O O7 0.997570 0.137836 0.626666
O O8 0.658846 0.773632 0.747488
O O9 0.366773 0.030549 0.909469
O O10 0.500000 0.000000 0.000000
O O11 0.860473 0.542446 0.923800
O O12 0.631789 0.603373 0.176828
O O13 0.157484 0.218503 0.809667
O O14 0.186342 0.007728 0.225380
O O15 0.000000 0.500000 0.500000
O O16 0.500000 0.500000 0.500000
O O17 0.228298 0.743911 0.593998
O O18 0.000000 0.000000 0.500000
#
# Coordination Sequence:
#
# PCOD9039838 Si02
#       8
#     2   2   2   2   2   2   2   2
#     4  12  24  45  75 105 140 183 232 295 357 425
#     4  11  24  45  73 101 141 181 230 293 358 421
#     4  12  24  42  75 111 143 181 228 293 365 432
#     4  11  24  46  70 105 144 179 230 297 360 418
#     4  12  26  45  75 105 143 186 237 288 360 424
#     4  10  23  42  71 108 140 173 226 292 364 429
#     4  12  28  46  68 101 141 188 247 291 340 409
#     4  12  28  46  68  99 137 189 248 284 335 414
#
# _framework density 22.265678999999999
#
# number of rings (size 3 to 8) (size 9 to 14) (size 15 to 20)
#    0.000    0.500    5.000    3.375    1.750    4.500 
#    0.000    0.000    0.000    0.000    0.000    0.000 
#    0.000    0.000    0.000    0.000    0.000    0.000 
#
# Total GULP energy -89532.943201 kJ/mol
# GULP energy per Si atom -5595.808950 kJ/mol
# Density = 2.221500 g / cm^3
# Si number density = 22.265679 Si / 1000 Ang^3
#
#
#
# Elastic Constant Matrix: (Units=GPa)
#
#
# Indices 1 2 3 4 5 6 
#
# 1 135.9644 37.8651 0.0028 11.2233 -19.0753 -10.5787
# 2 37.8651 128.7855 1.1899 -5.3621 3.0829 3.4601
# 3 0.0028 1.1899 40.9569 5.5571 -2.4408 -5.2364
# 4 11.2233 -5.3621 5.5571 34.6469 -3.1229 9.0615
# 5 -19.0753 3.0829 -2.4408 -3.1229 31.9097 5.9714
# 6 -10.5787 3.4601 -5.2364 9.0615 5.9714 50.7429
#
#
#
# Elastic Compliance Matrix: (Units=1/GPa)
#
#
# Indices 1 2 3 4 5 6 
#
# 1 0.009476 -0.003150 0.001241 -0.003913 0.005232 0.002401
# 2 -0.003150 0.008912 -0.000972 0.002770 -0.002249 -0.001595
# 3 0.001241 -0.000972 0.025773 -0.005537 0.001556 0.003790
# 4 -0.003913 0.002770 -0.005537 0.033638 0.001719 -0.007785
# 5 0.005232 -0.002249 0.001556 0.001719 0.035548 -0.003086
# 6 0.002401 -0.001595 0.003790 -0.007785 -0.003086 0.022461
#
#
# Mechanical properties :
#
#
# Convention : Reuss Voigt Hill
#
# Bulk Modulus (GPa) = 26.04414 42.64694 34.34554
# Shear Modulus (GPa) = 32.38961 41.23649 36.81305
#
# Velocity S-wave (km/s) = 3.81817 4.30818 4.07056
# Velocity P-wave (km/s) = 5.58214 6.62891 6.12792
#
# Compressibility (1/GPa) = 0.03839636
#
# Stress axis : x y z
#
# Youngs Moduli (GPa) = 105.53063 112.20745 38.80080
#
# Poissons Ratio (x) = 0.35348 -0.04813
# Poissons Ratio (y) = 0.33244 0.03773
# Poissons Ratio (z) = -0.13091 0.10912
#
# Static dielectric constant tensor:
#      x y z
#    x 1.795290 0.030460 -0.006510 
#    y 0.030460 2.018490 0.074940 
#    z -0.006510 0.074940 1.892240 
# 
# From -- ./inp_files/332849.got.cif
#   From: 2010.05.17/outbox.cif.g08.bks.cpg/sg2_167_cif.got.tgz:332849.got - 2010.06.03 11:33:40.
