data_PCOD9039562
_publ_section_title
;
Structure prediction by ZEFSAII (Michael W. Deem and Ramdas Pophale) SiO2 
 PCOD9039562
Probable space group: P -1
;
_chemical_formula_sum "Si O2"
_cell_formula_units_Z 16
_cell_length_a 9.231906
_cell_length_b 14.540981
_cell_length_c 8.828494
_cell_angle_alpha 43.802414
_cell_angle_beta 80.173332
_cell_angle_gamma 68.633106
_cell_volume 756.072614
_symmetry_space_group_name_H-M "P -1"
_symmetry_group_IT_number 2
_symmetry_cell_setting 'triclinic'
loop_
_space_group_symop_operation_xyz
x,y,z
-x,-y,-z
loop_
_atom_site_type_symbol
_atom_site_label
_atom_site_fract_x
_atom_site_fract_y
_atom_site_fract_z
Si Si1 0.744155 0.594408 0.472347
Si Si2 0.942805 0.856591 0.471115
Si Si3 0.203870 0.882436 0.031139
Si Si4 0.464681 0.324957 0.869907
Si Si5 0.503442 0.426656 0.247371
Si Si6 0.260821 0.890309 0.368274
Si Si7 0.652384 0.899055 0.686538
Si Si8 0.016589 0.695387 0.365911
O O1 0.603194 0.662947 0.300515
O O2 0.667952 0.566579 0.673851
O O3 0.857069 0.449802 0.546121
O O4 0.846915 0.692749 0.358893
O O5 0.814050 0.850966 0.619777
O O6 0.089393 0.898685 0.450157
O O7 0.019660 0.715951 0.521931
O O8 0.846109 0.976397 0.225511
O O9 0.351420 0.765810 0.064042
O O10 0.246956 0.899846 0.176973
O O11 0.063441 0.820504 0.135589
O O12 0.440484 0.479406 0.755350
O O13 0.384054 0.237270 0.088669
O O14 0.617200 0.263964 0.423934
O O15 0.500000 0.500000 0.000000
O O16 0.318654 0.008815 0.289439
O O17 0.500000 0.000000 0.500000
#
# Coordination Sequence:
#
# PCOD9039562 Si02
#       8
#     2   2   2   2   2   2   2   2
#     4  11  24  44  72  96 137 173 237 280 332 412
#     4  11  25  45  70  97 146 176 228 282 343 409
#     4  11  22  43  74  96 137 176 232 277 339 409
#     4  12  24  43  71  99 134 183 228 278 337 409
#     4  12  26  45  72  99 139 181 224 280 347 406
#     4  11  25  46  70 101 133 187 226 277 349 404
#     4  12  27  44  65 105 144 177 226 284 342 404
#     4  10  23  42  69 103 128 177 227 285 335 392
#
# _framework density 21.161988999999998
#
# number of rings (size 3 to 8) (size 9 to 14) (size 15 to 20)
#    0.000    0.750    3.750    4.500    7.000    0.500 
#    4.500    1.250    0.000    0.000    0.000    0.000 
#    0.000    0.000    0.000    0.000    0.000    0.000 
#
# Total GULP energy -89509.213239 kJ/mol
# GULP energy per Si atom -5594.325827 kJ/mol
# Density = 2.111382 g / cm^3
# Si number density = 21.161989 Si / 1000 Ang^3
#
#
#
# Elastic Constant Matrix: (Units=GPa)
#
#
# Indices 1 2 3 4 5 6 
#
# 1 94.5427 27.0556 22.4787 8.8275 -21.1983 -0.1336
# 2 27.0556 65.2438 20.5080 0.2908 -17.0321 -9.4126
# 3 22.4787 20.5080 80.7532 7.5457 -22.3815 -6.9589
# 4 8.8275 0.2908 7.5457 19.3454 -8.5168 -0.8242
# 5 -21.1983 -17.0321 -22.3815 -8.5168 37.8034 0.0053
# 6 -0.1336 -9.4126 -6.9589 -0.8242 0.0053 38.6421
#
#
#
# Elastic Compliance Matrix: (Units=1/GPa)
#
#
# Indices 1 2 3 4 5 6 
#
# 1 0.013346 -0.004275 -0.001295 -0.003849 0.003924 -0.001311
# 2 -0.004275 0.020174 -0.002220 0.005636 0.006647 0.004619
# 3 -0.001295 -0.002220 0.015662 -0.002295 0.007029 0.002225
# 4 -0.003849 0.005636 -0.002295 0.059860 0.012508 0.002221
# 5 0.003924 0.006647 0.007029 0.012508 0.038627 0.003160
# 6 -0.001311 0.004619 0.002225 0.002221 0.003160 0.027447
#
#
# Mechanical properties :
#
#
# Convention : Reuss Voigt Hill
#
# Bulk Modulus (GPa) = 29.75966 42.29160 36.02563
# Shear Modulus (GPa) = 24.76526 30.52469 27.64498
#
# Velocity S-wave (km/s) = 3.42463 3.80205 3.61827
# Velocity P-wave (km/s) = 5.45260 6.26915 5.87508
#
# Compressibility (1/GPa) = 0.03360254
#
# Stress axis : x y z
#
# Youngs Moduli (GPa) = 74.92973 49.56853 63.84871
#
# Poissons Ratio (x) = 0.21190 0.08269
# Poissons Ratio (y) = 0.32031 0.14173
# Poissons Ratio (z) = 0.09704 0.11003
#
# Static dielectric constant tensor:
#      x y z
#    x 1.765440 -0.012260 0.009400 
#    y -0.012260 1.798320 -0.000340 
#    z 0.009400 -0.000340 1.730260 
# 
# From -- ./inp_files/205149.got.cif
#   From: 2010.05.17/outbox.cif.g08.bks.cpg/sg2_103_cif.got.tgz:205149.got - 2010.06.03 11:33:40.
