data_PCOD9039380
_publ_section_title
;
Structure prediction by ZEFSAII (Michael W. Deem and Ramdas Pophale) SiO2 
 PCOD9039380
Probable space group: P -1
;
_chemical_formula_sum "Si O2"
_cell_formula_units_Z 16
_cell_length_a 14.418499
_cell_length_b 7.769925
_cell_length_c 8.381892
_cell_angle_alpha 125.737772
_cell_angle_beta 100.836543
_cell_angle_gamma 108.541582
_cell_volume 631.702092
_symmetry_space_group_name_H-M "P -1"
_symmetry_group_IT_number 2
_symmetry_cell_setting 'triclinic'
loop_
_space_group_symop_operation_xyz
x,y,z
-x,-y,-z
loop_
_atom_site_type_symbol
_atom_site_label
_atom_site_fract_x
_atom_site_fract_y
_atom_site_fract_z
Si Si1 0.490259 0.096982 0.219864
Si Si2 0.791647 0.196564 0.467995
Si Si3 0.682630 0.512045 0.671681
Si Si4 0.751222 0.046860 0.002886
Si Si5 0.801262 0.764234 0.329389
Si Si6 0.573114 0.385221 0.911992
Si Si7 0.019974 0.659462 0.843295
Si Si8 0.994409 0.006077 0.255675
O O1 0.588744 0.381278 0.434370
O O2 0.368360 0.049174 0.161291
O O3 0.497566 0.913412 0.248481
O O4 0.500000 0.000000 0.000000
O O5 0.747484 0.369022 0.605830
O O6 0.925515 0.374682 0.626103
O O7 0.757294 0.953867 0.429543
O O8 0.754238 0.109233 0.225683
O O9 0.763749 0.809754 0.848094
O O10 0.616970 0.462084 0.788872
O O11 0.856004 0.286341 0.084498
O O12 0.884916 0.810822 0.523723
O O13 0.687128 0.500633 0.117199
O O14 0.887126 0.870949 0.264467
O O15 0.500000 0.500000 0.000000
O O16 0.017166 0.819615 0.780738
O O17 0.998407 0.779703 0.053435
#
# Coordination Sequence:
#
# PCOD9039380 Si02
#       8
#     2   2   2   2   2   2   2   2
#     4  12  27  46  74 106 136 183 241 288 352 422
#     4  12  24  43  74 102 144 186 233 281 356 412
#     4  12  25  49  73  98 145 187 229 293 354 413
#     4  12  25  45  71 107 142 181 234 294 342 417
#     4  11  24  43  68 103 141 187 231 290 341 419
#     4  12  26  47  73 103 143 182 236 291 352 414
#     4  11  23  41  69 105 140 187 229 287 350 406
#     4  10  23  42  68 101 142 186 234 283 346 414
#
# _framework density 25.328395
#
# number of rings (size 3 to 8) (size 9 to 14) (size 15 to 20)
#    0.000    0.500    3.750    4.875    1.750    4.500 
#    0.000    0.000    0.000    0.000    0.000    0.000 
#    0.000    0.000    0.000    0.000    0.000    0.000 
#
# Total GULP energy -89751.523099 kJ/mol
# GULP energy per Si atom -5609.470194 kJ/mol
# Density = 2.527075 g / cm^3
# Si number density = 25.328395 Si / 1000 Ang^3
#
#
#
# Elastic Constant Matrix: (Units=GPa)
#
#
# Indices 1 2 3 4 5 6 
#
# 1 125.3501 -4.3751 34.8142 -4.6149 -2.3733 -1.1908
# 2 -4.3751 34.2796 11.9618 11.9498 -4.8695 5.7693
# 3 34.8142 11.9618 142.7538 14.1005 10.1976 9.1268
# 4 -4.6149 11.9498 14.1005 36.4394 0.3585 -0.2164
# 5 -2.3733 -4.8695 10.1976 0.3585 52.1380 4.8897
# 6 -1.1908 5.7693 9.1268 -0.2164 4.8897 26.6353
#
#
#
# Elastic Compliance Matrix: (Units=1/GPa)
#
#
# Indices 1 2 3 4 5 6 
#
# 1 0.008823 0.001452 -0.002552 0.001624 0.000951 0.000793
# 2 0.001452 0.035872 -0.002113 -0.010855 0.004647 -0.007922
# 3 -0.002552 -0.002113 0.008352 -0.002858 -0.001719 -0.002226
# 4 0.001624 -0.010855 -0.002858 0.032347 -0.000964 0.003843
# 5 0.000951 0.004647 -0.001719 -0.000964 0.020387 -0.004126
# 6 0.000793 -0.007922 -0.002226 0.003843 -0.004126 0.040847
#
#
# Mechanical properties :
#
#
# Convention : Reuss Voigt Hill
#
# Bulk Modulus (GPa) = 21.45019 43.02057 32.23538
# Shear Modulus (GPa) = 29.65706 40.37474 35.01590
#
# Velocity S-wave (km/s) = 3.42556 3.99689 3.72220
# Velocity P-wave (km/s) = 4.91255 6.19049 5.58817
#
# Compressibility (1/GPa) = 0.04661963
#
# Stress axis : x y z
#
# Youngs Moduli (GPa) = 113.34596 27.87685 119.73145
#
# Poissons Ratio (x) = -0.04048 0.30560
# Poissons Ratio (y) = -0.16459 0.25302
# Poissons Ratio (z) = 0.28930 0.05891
#
# Static dielectric constant tensor:
#      x y z
#    x 2.030100 -0.019690 0.015390 
#    y -0.019690 1.989870 -0.024450 
#    z 0.015390 -0.024450 1.961940 
# 
# From -- ./inp_files/299747.got.cif
#   From: 2010.05.17/outbox.cif.g08.bks.cpg/sg2_150_cif.got.tgz:299747.got - 2010.06.03 11:33:40.
