data_PCOD9039738
_publ_section_title
;
Structure prediction by ZEFSAII (Michael W. Deem and Ramdas Pophale) SiO2 
 PCOD9039738
Probable space group: P -1
;
_chemical_formula_sum "Si O2"
_cell_formula_units_Z 14
_cell_length_a 17.041032
_cell_length_b 23.357614
_cell_length_c 7.855288
_cell_angle_alpha 134.823423
_cell_angle_beta 34.196900
_cell_angle_gamma 158.655645
_cell_volume 605.992518
_symmetry_space_group_name_H-M "P -1"
_symmetry_group_IT_number 2
_symmetry_cell_setting 'triclinic'
loop_
_space_group_symop_operation_xyz
x,y,z
-x,-y,-z
loop_
_atom_site_type_symbol
_atom_site_label
_atom_site_fract_x
_atom_site_fract_y
_atom_site_fract_z
Si Si1 0.874461 0.194508 0.632433
Si Si2 0.324836 0.876593 0.791246
Si Si3 0.719883 0.504318 0.673619
Si Si4 0.150686 0.159603 0.110426
Si Si5 0.719008 0.811315 0.669262
Si Si6 0.271207 0.359918 0.762328
Si Si7 0.184957 0.648284 0.350247
O O1 0.154877 0.386724 0.484714
O O2 0.957467 0.142858 0.407711
O O3 0.640321 0.075922 0.650489
O O4 0.741477 0.168187 0.983182
O O5 0.312351 0.787928 0.521987
O O6 0.057969 0.795106 0.035127
O O7 0.968158 0.570808 0.434877
O O8 0.419000 0.307555 0.813233
O O9 0.692272 0.560807 0.982680
O O10 0.254417 0.201742 0.207347
O O11 0.000000 0.000000 0.000000
O O12 0.688897 0.712677 0.417358
O O13 0.442223 0.727288 0.975860
O O14 0.000000 0.000000 0.500000
O O15 0.500000 0.500000 0.500000
O O16 0.000000 0.500000 0.500000
#
# Coordination Sequence:
#
# PCOD9039738 Si02
#       7
#     2   2   2   2   2   2   2
#     4  11  24  43  71  99 136 178 228 270 341 416
#     4  10  23  42  70  94 135 180 222 274 338 397
#     4  11  25  43  74  99 129 183 233 276 336 408
#     4  12  25  46  64 100 144 178 218 287 348 399
#     4  12  26  42  70 105 134 176 226 281 342 398
#     4  11  21  44  69  96 133 177 229 276 328 401
#     4  11  23  45  69  98 138 176 225 286 336 387
#
# _framework density 23.102595000000001
#
# number of rings (size 3 to 8) (size 9 to 14) (size 15 to 20)
#    0.000    0.857    4.286    2.143    6.000    1.143 
#    2.571    0.714    0.000    0.000    0.000    0.000 
#    0.000    0.000    0.000    0.000    0.000    0.000 
#
# Total GULP energy -78437.980180 kJ/mol
# GULP energy per Si atom -5602.712870 kJ/mol
# Density = 2.305001 g / cm^3
# Si number density = 23.102595 Si / 1000 Ang^3
#
#
#
# Elastic Constant Matrix: (Units=GPa)
#
#
# Indices 1 2 3 4 5 6 
#
# 1 61.6992 23.7071 25.7189 -2.7396 -12.0021 -7.2262
# 2 23.7071 150.4931 48.5602 -11.6567 -13.1809 -15.6079
# 3 25.7189 48.5602 121.7586 -12.1198 -45.5906 -16.2515
# 4 -2.7396 -11.6567 -12.1198 38.5256 -6.6895 0.2095
# 5 -12.0021 -13.1809 -45.5906 -6.6895 40.2957 -9.5110
# 6 -7.2262 -15.6079 -16.2515 0.2095 -9.5110 41.0003
#
#
#
# Elastic Compliance Matrix: (Units=1/GPa)
#
#
# Indices 1 2 3 4 5 6 
#
# 1 0.018686 -0.001790 -0.000520 0.001562 0.005519 0.003678
# 2 -0.001790 0.008012 -0.002421 0.001529 0.000021 0.001772
# 3 -0.000520 -0.002421 0.025827 0.013257 0.034526 0.017165
# 4 0.001562 0.001529 0.013257 0.034892 0.024499 0.011617
# 5 0.005519 0.000021 0.034526 0.024499 0.077259 0.032463
# 6 0.003678 0.001772 0.017165 0.011617 0.032463 0.039988
#
#
# Mechanical properties :
#
#
# Convention : Reuss Voigt Hill
#
# Bulk Modulus (GPa) = 23.22194 58.88037 41.05116
# Shear Modulus (GPa) = 21.88386 39.69530 30.78958
#
# Velocity S-wave (km/s) = 3.08108 4.14964 3.65462
# Velocity P-wave (km/s) = 4.76769 6.96427 5.96791
#
# Compressibility (1/GPa) = 0.04306272
#
# Stress axis : x y z
#
# Youngs Moduli (GPa) = 53.51610 124.81347 38.71985
#
# Poissons Ratio (x) = 0.22340 0.02015
# Poissons Ratio (y) = 0.09579 0.09372
# Poissons Ratio (z) = 0.02785 0.30212
#
# Static dielectric constant tensor:
#      x y z
#    x 1.911210 0.026970 0.004180 
#    y 0.026970 1.907090 -0.039800 
#    z 0.004180 -0.039800 1.840270 
# 
# From -- ./inp_files/185002.got.cif
#   From: 2010.05.17/outbox.cif.g08.bks.cpg/sg2_93_cif.got.tgz:185002.got - 2010.06.03 11:33:40.
