data_PCOD9039008
_publ_section_title
;
Structure prediction by ZEFSAII (Michael W. Deem and Ramdas Pophale) SiO2 
 PCOD9039008
Probable space group: P -1
;
_chemical_formula_sum "Si O2"
_cell_formula_units_Z 16
_cell_length_a 12.256805
_cell_length_b 16.643985
_cell_length_c 6.848704
_cell_angle_alpha 60.338428
_cell_angle_beta 47.407216
_cell_angle_gamma 52.553047
_cell_volume 808.237541
_symmetry_space_group_name_H-M "P -1"
_symmetry_group_IT_number 2
_symmetry_cell_setting 'triclinic'
loop_
_space_group_symop_operation_xyz
x,y,z
-x,-y,-z
loop_
_atom_site_type_symbol
_atom_site_label
_atom_site_fract_x
_atom_site_fract_y
_atom_site_fract_z
Si Si1 0.169615 0.456134 0.468261
Si Si2 0.944181 0.786285 0.604236
Si Si3 0.619393 0.573256 0.124931
Si Si4 0.857083 0.959685 0.213393
Si Si5 0.431957 0.923927 0.272879
Si Si6 0.706138 0.706794 0.153913
Si Si7 0.841315 0.982599 0.759948
Si Si8 0.256511 0.590747 0.515001
O O1 0.193681 0.367957 0.702716
O O2 0.201861 0.538493 0.464968
O O3 0.000000 0.500000 0.500000
O O4 0.305211 0.414782 0.184362
O O5 0.929107 0.844974 0.348966
O O6 0.871364 0.880147 0.730285
O O7 0.127132 0.708055 0.529384
O O8 0.830803 0.726834 0.835428
O O9 0.613387 0.655430 0.196251
O O10 0.442639 0.576517 0.290778
O O11 0.738602 0.467419 0.217022
O O12 0.693211 0.026205 0.456309
O O13 0.812575 0.965715 0.036234
O O14 0.000000 0.000000 0.000000
O O15 0.576694 0.814418 0.266436
O O16 0.310883 0.919656 0.256551
O O17 0.500000 0.000000 0.000000
O O18 0.000000 0.000000 0.500000
#
# Coordination Sequence:
#
# PCOD9039008 Si02
#       8
#     2   2   2   2   2   2   2   2
#     4  11  23  42  67  96 133 169 217 269 328 402
#     4  11  23  41  63  93 131 166 227 264 327 397
#     4  10  23  42  66  93 133 166 215 275 330 391
#     4  11  23  41  65  92 128 175 219 266 327 390
#     4  11  23  45  63  95 137 166 220 282 317 390
#     4  11  24  42  64  98 130 175 216 271 335 386
#     4  11  23  42  65  91 131 174 216 270 329 384
#     4  10  23  42  65  96 128 169 215 273 329 391
#
# _framework density 19.796161000000001
#
# number of rings (size 3 to 8) (size 9 to 14) (size 15 to 20)
#    0.000    1.250    5.000    1.875    1.750    7.500 
#    0.000    0.000    0.000    0.000    0.000    0.000 
#    0.000    0.000    0.000    0.000    0.000    0.000 
#
# Total GULP energy -89267.252519 kJ/mol
# GULP energy per Si atom -5579.203282 kJ/mol
# Density = 1.975110 g / cm^3
# Si number density = 19.796161 Si / 1000 Ang^3
#
#
#
# Elastic Constant Matrix: (Units=GPa)
#
#
# Indices 1 2 3 4 5 6 
#
# 1 112.1939 32.4382 32.9327 -9.3004 1.1600 -16.4919
# 2 32.4382 95.1406 30.6673 -9.6191 3.2138 -25.0231
# 3 32.9327 30.6673 121.8178 -13.2312 7.3086 -9.6813
# 4 -9.3004 -9.6191 -13.2312 29.1079 -0.4911 -0.5293
# 5 1.1600 3.2138 7.3086 -0.4911 39.0258 0.8443
# 6 -16.4919 -25.0231 -9.6813 -0.5293 0.8443 28.4126
#
#
#
# Elastic Compliance Matrix: (Units=1/GPa)
#
#
# Indices 1 2 3 4 5 6 
#
# 1 0.010757 -0.001777 -0.001923 0.002051 0.000125 0.004058
# 2 -0.001777 0.015286 -0.001949 0.003796 -0.001050 0.011868
# 3 -0.001923 -0.001949 0.009700 0.003135 -0.001572 0.000578
# 4 0.002051 0.003796 0.003135 0.037794 -0.000622 0.006324
# 5 0.000125 -0.001050 -0.001572 -0.000622 0.026040 -0.002173
# 6 0.004058 0.011868 0.000578 0.006324 -0.002173 0.048383
#
#
# Mechanical properties :
#
#
# Convention : Reuss Voigt Hill
#
# Bulk Modulus (GPa) = 40.90962 57.91431 49.41196
# Shear Modulus (GPa) = 29.86744 34.85020 32.35882
#
# Velocity S-wave (km/s) = 3.88848 4.20033 4.04741
# Velocity P-wave (km/s) = 6.39301 7.26928 6.84519
#
# Compressibility (1/GPa) = 0.02444413
#
# Stress axis : x y z
#
# Youngs Moduli (GPa) = 92.96602 65.42037 103.09075
#
# Poissons Ratio (x) = 0.11627 0.19822
# Poissons Ratio (y) = 0.16523 0.20094
# Poissons Ratio (z) = 0.17875 0.12752
#
# Static dielectric constant tensor:
#      x y z
#    x 1.741300 0.013920 -0.012920 
#    y 0.013920 1.702540 -0.008810 
#    z -0.012920 -0.008810 1.647480 
# 
# From -- ./inp_files/81191.got.cif
#   From: 2010.05.17/outbox.cif.g08.bks.cpg/sg2_41_cif.got.tgz:81191.got - 2010.06.03 11:33:40.
