data_PCOD9039875
_publ_section_title
;
Structure prediction by ZEFSAII (Michael W. Deem and Ramdas Pophale) SiO2 
 PCOD9039875
Probable space group: P -1
;
_chemical_formula_sum "Si O2"
_cell_formula_units_Z 14
_cell_length_a 7.516056
_cell_length_b 8.850253
_cell_length_c 15.680114
_cell_angle_alpha 55.797960
_cell_angle_beta 124.111800
_cell_angle_gamma 142.513346
_cell_volume 511.154134
_symmetry_space_group_name_H-M "P -1"
_symmetry_group_IT_number 2
_symmetry_cell_setting 'triclinic'
loop_
_space_group_symop_operation_xyz
x,y,z
-x,-y,-z
loop_
_atom_site_type_symbol
_atom_site_label
_atom_site_fract_x
_atom_site_fract_y
_atom_site_fract_z
Si Si1 0.309582 0.557154 0.402556
Si Si2 0.885692 0.088907 0.321488
Si Si3 0.922613 0.615756 0.312484
Si Si4 0.706772 0.719203 0.918221
Si Si5 0.336436 0.078978 0.391887
Si Si6 0.147146 0.467389 0.123413
Si Si7 0.822178 0.166420 0.871603
O O1 0.500000 0.500000 0.500000
O O2 0.025097 0.314240 0.352314
O O3 0.144896 0.586983 0.415240
O O4 0.552346 0.830589 0.335054
O O5 0.115965 0.055571 0.403477
O O6 0.928125 0.212827 0.202845
O O7 0.956764 0.648866 0.207845
O O8 0.599774 0.370837 0.339297
O O9 0.091366 0.888529 0.312314
O O10 0.671956 0.578040 0.867626
O O11 0.642125 0.897152 0.858316
O O12 0.500000 0.500000 0.000000
O O13 0.036446 0.865035 0.000358
O O14 0.500000 0.000000 0.500000
O O15 0.272446 0.699741 0.147850
O O16 0.000000 0.500000 0.000000
#
# Coordination Sequence:
#
# PCOD9039875 Si02
#       7
#     2   2   2   2   2   2   2
#     4  12  25  46  74 105 144 191 247 309 373 455
#     4  12  25  46  71 108 148 193 249 304 384 451
#     4  12  25  43  74 101 147 188 246 303 379 450
#     4  10  23  42  71  98 145 190 250 305 378 446
#     4  12  26  46  72 107 147 193 247 314 384 451
#     4  10  23  46  68 107 150 196 252 313 376 458
#     4  10  23  43  64 106 140 194 246 309 374 448
#
# _framework density 27.388998999999998
#
# number of rings (size 3 to 8) (size 9 to 14) (size 15 to 20)
#    0.000    0.857    1.429    5.143    4.000    1.714 
#    5.143    0.000    0.000    0.000    0.000    0.000 
#    0.000    0.000    0.000    0.000    0.000    0.000 
#
# Total GULP energy -78188.091857 kJ/mol
# GULP energy per Si atom -5584.863704 kJ/mol
# Density = 2.732666 g / cm^3
# Si number density = 27.388999 Si / 1000 Ang^3
#
#
#
# Elastic Constant Matrix: (Units=GPa)
#
#
# Indices 1 2 3 4 5 6 
#
# 1 152.3453 82.0232 11.6787 1.3643 -12.3909 -29.2087
# 2 82.0232 203.3396 48.7059 -5.3072 -24.2236 -18.0303
# 3 11.6787 48.7059 117.3988 0.7385 -3.6843 -4.6282
# 4 1.3643 -5.3072 0.7385 37.0199 -2.9578 -4.0580
# 5 -12.3909 -24.2236 -3.6843 -2.9578 52.6012 -2.5393
# 6 -29.2087 -18.0303 -4.6282 -4.0580 -2.5393 66.5566
#
#
#
# Elastic Compliance Matrix: (Units=1/GPa)
#
#
# Indices 1 2 3 4 5 6 
#
# 1 0.009024 -0.003460 0.000684 -0.000449 0.000703 0.003070
# 2 -0.003460 0.007312 -0.002602 0.001476 0.002475 0.000466
# 3 0.000684 -0.002602 0.009529 -0.000597 -0.000394 0.000206
# 4 -0.000449 0.001476 -0.000597 0.027638 0.002179 0.001929
# 5 0.000703 0.002475 -0.000394 0.002179 0.020502 0.001867
# 6 0.003070 0.000466 0.000206 0.001929 0.001867 0.016702
#
#
# Mechanical properties :
#
#
# Convention : Reuss Voigt Hill
#
# Bulk Modulus (GPa) = 66.19098 84.21104 75.20101
# Shear Modulus (GPa) = 46.94865 53.28062 50.11463
#
# Velocity S-wave (km/s) = 4.14471 4.41537 4.28218
# Velocity P-wave (km/s) = 6.86471 7.53705 7.20872
#
# Compressibility (1/GPa) = 0.01510780
#
# Stress axis : x y z
#
# Youngs Moduli (GPa) = 110.81385 136.77054 104.94062
#
# Poissons Ratio (x) = 0.47317 -0.07173
# Poissons Ratio (y) = 0.38337 0.27310
# Poissons Ratio (z) = -0.07574 0.35594
#
# Static dielectric constant tensor:
#      x y z
#    x 2.018070 0.103390 0.050160 
#    y 0.103390 2.146540 0.202500 
#    z 0.050160 0.202500 2.327190 
# 
# From -- ./inp_files/557021.got.cif
#   From: 2010.05.17/outbox.cif.g08.bks.cpg/sg2_279_cif.got.tgz:557021.got - 2010.06.03 11:33:40.
