data_PCOD9039124
_publ_section_title
;
Structure prediction by ZEFSAII (Michael W. Deem and Ramdas Pophale) SiO2 
 PCOD9039124
Probable space group: P -1
;
_chemical_formula_sum "Si O2"
_cell_formula_units_Z 15
_cell_length_a 6.467685
_cell_length_b 13.056322
_cell_length_c 10.394760
_cell_angle_alpha 90.327192
_cell_angle_beta 62.775405
_cell_angle_gamma 123.794570
_cell_volume 610.802048
_symmetry_space_group_name_H-M "P -1"
_symmetry_group_IT_number 2
_symmetry_cell_setting 'triclinic'
loop_
_space_group_symop_operation_xyz
x,y,z
-x,-y,-z
loop_
_atom_site_type_symbol
_atom_site_label
_atom_site_fract_x
_atom_site_fract_y
_atom_site_fract_z
Si Si1 0.219673 0.734612 0.823474
Si Si2 0.378930 0.327258 0.426864
Si Si3 0.256588 0.059943 0.136099
Si Si4 0.670492 0.454593 0.618074
Si Si5 0.802149 0.151537 0.719439
Si Si6 0.615474 0.302647 0.871381
Si Si7 0.282698 0.954668 0.678875
Si Si8 0.000000 0.500000 0.000000
O O1 0.383521 0.679714 0.712912
O O2 0.465434 0.847716 0.848779
O O3 0.956144 0.609017 0.972384
O O4 0.145000 0.806078 0.750886
O O5 0.496494 0.378943 0.537386
O O6 0.341843 0.425599 0.366579
O O7 0.055865 0.190825 0.544848
O O8 0.196413 0.922310 0.157225
O O9 0.341641 0.154230 0.991571
O O10 0.969823 0.033705 0.277734
O O11 0.549687 0.362861 0.776495
O O12 0.000000 0.500000 0.500000
O O13 0.844360 0.280271 0.749444
O O14 0.488784 0.053739 0.735760
O O15 0.765763 0.398792 0.950341
O O16 0.500000 0.000000 0.500000
#
# Coordination Sequence:
#
# PCOD9039124 Si02
#       8
#     2   2   2   2   2   2   2   1
#     4  10  23  42  66  95 133 175 220 274 339 395
#     4  11  24  41  69  99 138 174 221 286 330 396
#     4  10  24  44  64  99 134 178 221 276 339 392
#     4  11  24  42  64 102 133 176 225 271 335 399
#     4  11  24  42  67 100 133 177 225 276 336 398
#     4  11  24  45  69  98 138 178 228 277 337 408
#     4  11  24  42  68  98 134 175 224 278 330 405
#     4  10  24  44  68  92 136 178 218 284 330 394
#
# _framework density 24.557870999999999
#
# number of rings (size 3 to 8) (size 9 to 14) (size 15 to 20)
#    0.000    1.333    1.333    2.800    5.600    6.933 
#    4.800    2.667    0.000    0.000    0.000    0.000 
#    0.000    0.000    0.000    0.000    0.000    0.000 
#
# Total GULP energy -83659.039139 kJ/mol
# GULP energy per Si atom -5577.269276 kJ/mol
# Density = 2.450198 g / cm^3
# Si number density = 24.557871 Si / 1000 Ang^3
#
#
#
# Elastic Constant Matrix: (Units=GPa)
#
#
# Indices 1 2 3 4 5 6 
#
# 1 68.4731 53.7149 30.8747 -7.4518 17.6802 -27.3012
# 2 53.7149 99.4015 13.9499 -6.3081 21.5202 -16.8208
# 3 30.8747 13.9499 72.7161 -2.7688 27.6522 -15.1716
# 4 -7.4518 -6.3081 -2.7688 36.8124 -17.5790 3.8324
# 5 17.6802 21.5202 27.6522 -17.5790 47.4579 -10.6220
# 6 -27.3012 -16.8208 -15.1716 3.8324 -10.6220 33.8341
#
#
#
# Elastic Compliance Matrix: (Units=1/GPa)
#
#
# Indices 1 2 3 4 5 6 
#
# 1 0.041442 -0.018311 -0.012077 0.005287 0.006411 0.020335
# 2 -0.018311 0.019874 0.005882 -0.003102 -0.007737 -0.004335
# 3 -0.012077 0.005882 0.022698 -0.006282 -0.013778 -0.000257
# 4 0.005287 -0.003102 -0.006282 0.034883 0.016255 0.001059
# 5 0.006411 -0.007737 -0.013778 0.016255 0.037368 0.005039
# 6 0.020335 -0.004335 -0.000257 0.001059 0.005039 0.045156
#
#
# Mechanical properties :
#
#
# Convention : Reuss Voigt Hill
#
# Bulk Modulus (GPa) = 28.57021 48.62995 38.60008
# Shear Modulus (GPa) = 19.07649 33.09098 26.08373
#
# Velocity S-wave (km/s) = 2.79013 3.67477 3.26257
# Velocity P-wave (km/s) = 4.69456 6.15227 5.47217
#
# Compressibility (1/GPa) = 0.03500149
#
# Stress axis : x y z
#
# Youngs Moduli (GPa) = 24.12992 50.31615 44.05636
#
# Poissons Ratio (x) = 0.92134 0.53207
# Poissons Ratio (y) = 0.44185 -0.25912
# Poissons Ratio (z) = 0.29142 -0.29594
#
# Static dielectric constant tensor:
#      x y z
#    x 1.966260 0.010130 -0.100270 
#    y 0.010130 1.954240 -0.056360 
#    z -0.100270 -0.056360 2.318920 
# 
# From -- ./inp_files/72184.got.cif
#   From: 2010.05.17/outbox.cif.g08.bks.cpg/sg2_37_cif.got.tgz:72184.got - 2010.06.03 11:33:40.
