data_PCOD9039968
_publ_section_title
;
Structure prediction by ZEFSAII (Michael W. Deem and Ramdas Pophale) SiO2 
 PCOD9039968
Probable space group: P -1
;
_chemical_formula_sum "Si O2"
_cell_formula_units_Z 13
_cell_length_a 13.361059
_cell_length_b 5.316936
_cell_length_c 9.581864
_cell_angle_alpha 90.974460
_cell_angle_beta 53.048217
_cell_angle_gamma 106.111276
_cell_volume 512.560777
_symmetry_space_group_name_H-M "P -1"
_symmetry_group_IT_number 2
_symmetry_cell_setting 'triclinic'
loop_
_space_group_symop_operation_xyz
x,y,z
-x,-y,-z
loop_
_atom_site_type_symbol
_atom_site_label
_atom_site_fract_x
_atom_site_fract_y
_atom_site_fract_z
Si Si1 0.500000 0.500000 0.500000
Si Si2 0.094705 0.255496 0.347265
Si Si3 0.628721 0.421485 0.908362
Si Si4 0.618339 0.294316 0.603528
Si Si5 0.644483 0.182410 0.194276
Si Si6 0.906424 0.450595 0.371577
Si Si7 0.055245 0.792336 0.026915
O O1 0.597937 0.561009 0.561546
O O2 0.612771 0.402584 0.319971
O O3 0.245960 0.301239 0.185410
O O4 0.115558 0.486883 0.448808
O O5 0.016022 0.308909 0.282434
O O6 0.000000 0.000000 0.500000
O O7 0.622245 0.267543 0.766068
O O8 0.500000 0.500000 0.000000
O O9 0.635762 0.262177 0.040811
O O10 0.761190 0.287882 0.434358
O O11 0.477225 0.088752 0.667221
O O12 0.785934 0.138979 0.095576
O O13 0.980291 0.727749 0.237243
O O14 0.000000 0.500000 0.000000
O O15 0.000000 0.000000 0.000000
#
# Coordination Sequence:
#
# PCOD9039968 Si02
#       7
#     1   2   2   2   2   2   2
#     4  12  26  48  70 110 158 198 264 312 402 482
#     4  10  23  42  73 102 148 199 251 327 396 473
#     4  11  23  46  73 112 152 198 271 326 402 476
#     4  11  26  44  75 105 154 202 261 326 404 470
#     4  12  27  49  79 113 156 212 270 331 400 489
#     4  10  24  46  67 109 146 198 264 319 399 471
#     4  12  30  52  81 115 161 211 270 336 405 482
#
# _framework density 25.362843999999999
#
# number of rings (size 3 to 8) (size 9 to 14) (size 15 to 20)
#    0.000    0.923    3.077    1.846    8.615    1.231 
#    0.000    0.000    0.000    0.000    0.000    0.000 
#    0.000    0.000    0.000    0.000    0.000    0.000 
#
# Total GULP energy -72368.959161 kJ/mol
# GULP energy per Si atom -5566.843012 kJ/mol
# Density = 2.530512 g / cm^3
# Si number density = 25.362844 Si / 1000 Ang^3
#
#
#
# Elastic Constant Matrix: (Units=GPa)
#
#
# Indices 1 2 3 4 5 6 
#
# 1 251.4022 51.9329 93.8807 -22.1077 -50.2496 -23.2801
# 2 51.9329 58.2400 10.6926 -4.0113 -23.1610 -2.7131
# 3 93.8807 10.6926 114.9718 -0.2910 -21.9937 -3.1035
# 4 -22.1077 -4.0113 -0.2910 43.2585 23.0117 1.6057
# 5 -50.2496 -23.1610 -21.9937 23.0117 66.4663 -10.9816
# 6 -23.2801 -2.7131 -3.1035 1.6057 -10.9816 37.8978
#
#
#
# Elastic Compliance Matrix: (Units=1/GPa)
#
#
# Indices 1 2 3 4 5 6 
#
# 1 0.008303 -0.004866 -0.005645 0.002063 0.002829 0.005022
# 2 -0.004866 0.023574 0.003189 -0.004177 0.007241 0.001235
# 3 -0.005645 0.003189 0.013415 -0.003700 0.002348 -0.001304
# 4 0.002063 -0.004177 -0.003700 0.030498 -0.012376 -0.004213
# 5 0.002829 0.007241 0.002348 -0.012376 0.026530 0.010660
# 6 0.005022 0.001235 -0.001304 -0.004213 0.010660 0.032721
#
#
# Mechanical properties :
#
#
# Convention : Reuss Voigt Hill
#
# Bulk Modulus (GPa) = 32.62946 81.95851 57.29398
# Shear Modulus (GPa) = 31.26919 47.39837 39.33378
#
# Velocity S-wave (km/s) = 3.51504 4.32767 3.94235
# Velocity P-wave (km/s) = 5.41913 7.57338 6.58495
#
# Compressibility (1/GPa) = 0.03064715
#
# Stress axis : x y z
#
# Youngs Moduli (GPa) = 120.43968 42.42049 74.54082
#
# Poissons Ratio (x) = 0.20643 0.42080
# Poissons Ratio (y) = 0.58609 -0.23772
# Poissons Ratio (z) = 0.67991 -0.13528
#
# Static dielectric constant tensor:
#      x y z
#    x 2.077770 0.052760 0.002200 
#    y 0.052760 1.975490 0.191970 
#    z 0.002200 0.191970 1.964340 
# 
# From -- ./inp_files/229537.got.cif
#   From: 2010.05.17/outbox.cif.g08.bks.cpg/sg2_115_cif.got.tgz:229537.got - 2010.06.03 11:33:40.
