data_PCOD9039950
_publ_section_title
;
Structure prediction by ZEFSAII (Michael W. Deem and Ramdas Pophale) SiO2 
 PCOD9039950
Probable space group: P -1
;
_chemical_formula_sum "Si O2"
_cell_formula_units_Z 12
_cell_length_a 7.964366
_cell_length_b 11.803566
_cell_length_c 14.525393
_cell_angle_alpha 140.345671
_cell_angle_beta 144.931551
_cell_angle_gamma 54.320464
_cell_volume 496.555907
_symmetry_space_group_name_H-M "P -1"
_symmetry_group_IT_number 2
_symmetry_cell_setting 'triclinic'
loop_
_space_group_symop_operation_xyz
x,y,z
-x,-y,-z
loop_
_atom_site_type_symbol
_atom_site_label
_atom_site_fract_x
_atom_site_fract_y
_atom_site_fract_z
Si Si1 0.748193 0.061350 0.723942
Si Si2 0.128308 0.579205 0.939009
Si Si3 0.754688 0.177675 0.225484
Si Si4 0.396333 0.627417 0.891328
Si Si5 0.346058 0.031548 0.693698
Si Si6 0.318309 0.664448 0.509428
O O1 0.533689 0.103659 0.736296
O O2 0.955085 0.907805 0.728089
O O3 0.500000 0.000000 0.500000
O O4 0.961801 0.251808 0.940011
O O5 0.406857 0.525212 0.086948
O O6 0.900116 0.400293 0.713370
O O7 0.170920 0.615072 0.869421
O O8 0.800415 0.268539 0.404282
O O9 0.718386 0.342411 0.242803
O O10 0.500000 0.000000 0.000000
O O11 0.599260 0.817442 0.111820
O O12 0.485265 0.853157 0.669601
O O13 0.000000 0.000000 0.500000
O O14 0.500000 0.500000 0.500000
#
# Coordination Sequence:
#
# PCOD9039950 Si02
#       6
#     2   2   2   2   2   2
#     4  11  27  45  74 108 142 190 241 290 360 425
#     4  10  24  45  69 103 142 183 239 291 356 419
#     4  12  26  46  73 105 146 185 243 293 350 424
#     4  10  23  42  72  99 142 189 232 294 353 419
#     4  11  22  45  71 102 145 192 227 287 365 423
#     4  12  26  44  71 104 141 186 236 294 358 421
#
# _framework density 24.166464000000001
#
# number of rings (size 3 to 8) (size 9 to 14) (size 15 to 20)
#    0.000    1.000    3.333    2.000    7.000    3.333 
#    0.000    2.500    0.000    0.000    0.000    0.000 
#    0.000    0.000    0.000    0.000    0.000    0.000 
#
# Total GULP energy -66849.411969 kJ/mol
# GULP energy per Si atom -5570.784331 kJ/mol
# Density = 2.411146 g / cm^3
# Si number density = 24.166464 Si / 1000 Ang^3
#
#
#
# Elastic Constant Matrix: (Units=GPa)
#
#
# Indices 1 2 3 4 5 6 
#
# 1 39.0310 13.0609 16.6095 -5.7810 -8.7417 -12.1891
# 2 13.0609 129.7950 18.6767 10.9269 -8.6672 -2.0615
# 3 16.6095 18.6767 70.9523 7.7142 -22.2060 -7.3681
# 4 -5.7810 10.9269 7.7142 40.3290 -9.6653 -5.9149
# 5 -8.7417 -8.6672 -22.2060 -9.6653 35.0275 -0.9738
# 6 -12.1891 -2.0615 -7.3681 -5.9149 -0.9738 39.2446
#
#
#
# Elastic Compliance Matrix: (Units=1/GPa)
#
#
# Indices 1 2 3 4 5 6 
#
# 1 0.035893 -0.003056 -0.004906 0.010658 0.008363 0.011880
# 2 -0.003056 0.008403 -0.001445 -0.002705 -0.000379 -0.001196
# 3 -0.004906 -0.001445 0.019198 -0.001207 0.010313 0.002079
# 4 0.010658 -0.002705 -0.001207 0.030821 0.009948 0.007834
# 5 0.008363 -0.000379 0.010313 0.009948 0.040020 0.007006
# 6 0.011880 -0.001196 0.002079 0.007834 0.007006 0.030853
#
#
# Mechanical properties :
#
#
# Convention : Reuss Voigt Hill
#
# Bulk Modulus (GPa) = 22.38160 37.38583 29.88371
# Shear Modulus (GPa) = 25.13890 35.68228 30.41059
#
# Velocity S-wave (km/s) = 3.22877 3.84672 3.55121
# Velocity P-wave (km/s) = 4.81472 5.93577 5.40439
#
# Compressibility (1/GPa) = 0.04467956
#
# Stress axis : x y z
#
# Youngs Moduli (GPa) = 27.86089 119.00016 52.08954
#
# Poissons Ratio (x) = 0.36367 0.25553
# Poissons Ratio (y) = 0.08514 0.07529
# Poissons Ratio (z) = 0.13667 0.17201
#
# Static dielectric constant tensor:
#      x y z
#    x 2.383810 0.609190 0.428020 
#    y 0.609190 2.941450 0.708830 
#    z 0.428020 0.708830 2.787840 
# 
# From -- ./inp_files/148909.got.cif
#   From: 2010.05.17/outbox.cif.g08.bks.cpg/sg2_75_cif.got.tgz:148909.got - 2010.06.03 11:33:40.
