data_PCOD9039883
_publ_section_title
;
Structure prediction by ZEFSAII (Michael W. Deem and Ramdas Pophale) SiO2 
 PCOD9039883
Probable space group: P -1
;
_chemical_formula_sum "Si O2"
_cell_formula_units_Z 16
_cell_length_a 9.043908
_cell_length_b 19.832459
_cell_length_c 7.753705
_cell_angle_alpha 77.157876
_cell_angle_beta 107.210407
_cell_angle_gamma 150.391980
_cell_volume 654.536666
_symmetry_space_group_name_H-M "P -1"
_symmetry_group_IT_number 2
_symmetry_cell_setting 'triclinic'
loop_
_space_group_symop_operation_xyz
x,y,z
-x,-y,-z
loop_
_atom_site_type_symbol
_atom_site_label
_atom_site_fract_x
_atom_site_fract_y
_atom_site_fract_z
Si Si1 0.764971 0.020023 0.602674
Si Si2 0.720595 0.677070 0.501397
Si Si3 0.160660 0.665377 0.130091
Si Si4 0.782322 0.639619 0.916864
Si Si5 0.873658 0.962933 0.169035
Si Si6 0.799677 0.082017 0.975562
Si Si7 0.057464 0.485822 0.342678
Si Si8 0.875013 0.280011 0.537903
O O1 0.747420 0.036130 0.788666
O O2 0.999305 0.161471 0.511084
O O3 0.426012 0.883002 0.489547
O O4 0.914875 0.001682 0.657468
O O5 0.694170 0.641851 0.707973
O O6 0.405747 0.592240 0.386424
O O7 0.831586 0.653439 0.443939
O O8 0.015306 0.532943 0.168768
O O9 0.110614 0.682551 0.288755
O O10 0.524082 0.802228 0.149613
O O11 0.009240 0.662174 0.951264
O O12 0.500000 0.500000 0.000000
O O13 0.943195 0.760589 0.017651
O O14 0.881246 0.047985 0.142785
O O15 0.000000 0.000000 0.000000
O O16 0.500000 0.000000 0.000000
O O17 0.000000 0.500000 0.500000
O O18 0.855850 0.338482 0.368062
#
# Coordination Sequence:
#
# PCOD9039883 Si02
#       8
#     2   2   2   2   2   2   2   2
#     4  11  25  45  70 109 137 181 238 290 346 414
#     4  12  25  44  71 105 141 179 236 290 349 413
#     4  11  23  47  72  99 143 185 229 288 352 415
#     4  12  27  45  71 104 140 182 234 285 350 418
#     4  10  23  42  71  99 143 183 232 282 354 409
#     4  11  23  44  73  98 142 185 229 286 352 409
#     4  10  23  46  70  99 139 186 225 285 350 415
#     4  11  25  42  73 107 137 176 237 293 346 412
#
# _framework density 24.444769999999998
#
# number of rings (size 3 to 8) (size 9 to 14) (size 15 to 20)
#    0.000    1.000    2.500    3.750    3.500    4.500 
#    0.000    0.625    0.000    0.000    0.000    0.000 
#    0.000    0.000    0.000    0.000    0.000    0.000 
#
# Total GULP energy -89677.469685 kJ/mol
# GULP energy per Si atom -5604.841855 kJ/mol
# Density = 2.438913 g / cm^3
# Si number density = 24.444770 Si / 1000 Ang^3
#
#
#
# Elastic Constant Matrix: (Units=GPa)
#
#
# Indices 1 2 3 4 5 6 
#
# 1 136.6133 27.4184 31.2278 -11.4608 7.0213 -2.2084
# 2 27.4184 126.6058 14.0777 -22.2712 -5.1709 -11.7995
# 3 31.2278 14.0777 74.3609 -6.9851 -14.2550 -20.1747
# 4 -11.4608 -22.2712 -6.9851 33.7816 -2.5406 10.3516
# 5 7.0213 -5.1709 -14.2550 -2.5406 54.6347 -14.8482
# 6 -2.2084 -11.7995 -20.1747 10.3516 -14.8482 45.9057
#
#
#
# Elastic Compliance Matrix: (Units=1/GPa)
#
#
# Indices 1 2 3 4 5 6 
#
# 1 0.009066 -0.001567 -0.005035 0.001884 -0.003560 -0.003756
# 2 -0.001567 0.009392 0.000252 0.005281 0.001912 0.001877
# 3 -0.005035 0.000252 0.020478 -0.000249 0.009226 0.011863
# 4 0.001884 0.005281 -0.000249 0.035729 0.000031 -0.006708
# 5 -0.003560 0.001912 0.009226 0.000031 0.024710 0.012360
# 6 -0.003756 0.001877 0.011863 -0.006708 0.012360 0.032810
#
#
# Mechanical properties :
#
#
# Convention : Reuss Voigt Hill
#
# Bulk Modulus (GPa) = 38.11656 53.66977 45.89316
# Shear Modulus (GPa) = 32.54556 44.52148 38.53352
#
# Velocity S-wave (km/s) = 3.65278 4.27231 3.97464
# Velocity P-wave (km/s) = 5.78076 6.80735 6.31495
#
# Compressibility (1/GPa) = 0.02623532
#
# Stress axis : x y z
#
# Youngs Moduli (GPa) = 110.30464 106.47441 48.83173
#
# Poissons Ratio (x) = 0.16690 0.24587
# Poissons Ratio (y) = 0.17290 -0.01231
# Poissons Ratio (z) = 0.55538 -0.02683
#
# Static dielectric constant tensor:
#      x y z
#    x 1.942230 0.001480 0.010990 
#    y 0.001480 1.888620 0.013310 
#    z 0.010990 0.013310 1.957760 
# 
# From -- ./inp_files/222107.got.cif
#   From: 2010.05.17/outbox.cif.g08.bks.cpg/sg2_112_cif.got.tgz:222107.got - 2010.06.03 11:33:40.
