data_PCOD9039930
_publ_section_title
;
Structure prediction by ZEFSAII (Michael W. Deem and Ramdas Pophale) SiO2 
 PCOD9039930
Probable space group: P -1
;
_chemical_formula_sum "Si O2"
_cell_formula_units_Z 14
_cell_length_a 8.417203
_cell_length_b 9.547099
_cell_length_c 11.833884
_cell_angle_alpha 74.201851
_cell_angle_beta 69.270013
_cell_angle_gamma 120.572830
_cell_volume 633.556532
_symmetry_space_group_name_H-M "P -1"
_symmetry_group_IT_number 2
_symmetry_cell_setting 'triclinic'
loop_
_space_group_symop_operation_xyz
x,y,z
-x,-y,-z
loop_
_atom_site_type_symbol
_atom_site_label
_atom_site_fract_x
_atom_site_fract_y
_atom_site_fract_z
Si Si1 0.076154 0.857777 0.903839
Si Si2 0.822135 0.825204 0.352496
Si Si3 0.740001 0.875288 0.726973
Si Si4 0.640983 0.933809 0.990003
Si Si5 0.612968 0.158542 0.335635
Si Si6 0.327836 0.529219 0.633636
Si Si7 0.554256 0.563885 0.151362
O O1 0.228459 0.839140 0.791746
O O2 0.109344 0.034226 0.800025
O O3 0.167759 0.920001 0.995052
O O4 0.805130 0.669870 0.013240
O O5 0.556958 0.704092 0.470867
O O6 0.837858 0.662327 0.358779
O O7 0.985073 0.961689 0.385499
O O8 0.591293 0.881054 0.674292
O O9 0.705085 0.927117 0.847672
O O10 0.638848 0.653828 0.801653
O O11 0.517248 0.714473 0.113727
O O12 0.500000 0.000000 0.000000
O O13 0.758714 0.375081 0.306306
O O14 0.500000 0.000000 0.500000
O O15 0.417598 0.468356 0.719139
#
# Coordination Sequence:
#
# PCOD9039930 Si02
#       7
#     2   2   2   2   2   2   2
#     4  12  23  43  72  95 139 182 220 274 342 394
#     4  11  22  44  72  97 128 187 225 273 335 405
#     4  11  25  44  68 100 137 172 230 278 331 401
#     4  12  23  42  67 102 137 167 225 283 332 390
#     4  11  24  45  66  99 141 176 221 281 336 396
#     4  10  23  42  72  96 136 177 231 266 341 403
#     4  11  24  43  68 101 132 183 225 271 338 403
#
# _framework density 22.097474999999999
#
# number of rings (size 3 to 8) (size 9 to 14) (size 15 to 20)
#    0.000    0.857    5.714    1.714    0.000    4.571 
#    2.571    0.714    0.000    0.000    0.000    0.000 
#    0.000    0.000    0.000    0.000    0.000    0.000 
#
# Total GULP energy -78232.644466 kJ/mol
# GULP energy per Si atom -5588.046033 kJ/mol
# Density = 2.204718 g / cm^3
# Si number density = 22.097475 Si / 1000 Ang^3
#
#
#
# Elastic Constant Matrix: (Units=GPa)
#
#
# Indices 1 2 3 4 5 6 
#
# 1 89.2665 52.4705 14.5759 -8.6552 10.7479 -10.0538
# 2 52.4705 184.0646 24.1524 -6.1480 -14.4931 -0.7228
# 3 14.5759 24.1524 74.3345 1.8346 5.7156 0.9266
# 4 -8.6552 -6.1480 1.8346 39.3358 0.1518 -7.1196
# 5 10.7479 -14.4931 5.7156 0.1518 32.5476 2.1036
# 6 -10.0538 -0.7228 0.9266 -7.1196 2.1036 44.6658
#
#
#
# Elastic Compliance Matrix: (Units=1/GPa)
#
#
# Indices 1 2 3 4 5 6 
#
# 1 0.016025 -0.004878 -0.001121 0.003658 -0.007574 0.004491
# 2 -0.004878 0.007483 -0.001870 -0.000054 0.005349 -0.001199
# 3 -0.001121 -0.001870 0.014549 -0.001325 -0.002969 -0.000656
# 4 0.003658 -0.000054 -0.001325 0.027238 -0.001466 0.005261
# 5 -0.007574 0.005349 -0.002969 -0.001466 0.036362 -0.003503
# 6 0.004491 -0.001199 -0.000656 0.005261 -0.003503 0.024397
#
#
# Mechanical properties :
#
#
# Convention : Reuss Voigt Hill
#
# Bulk Modulus (GPa) = 44.80345 58.89591 51.84968
# Shear Modulus (GPa) = 33.50467 40.40762 36.95614
#
# Velocity S-wave (km/s) = 3.89809 4.28086 4.09395
# Velocity P-wave (km/s) = 6.37021 7.15157 6.77217
#
# Compressibility (1/GPa) = 0.02231971
#
# Stress axis : x y z
#
# Youngs Moduli (GPa) = 62.40241 133.62967 68.73162
#
# Poissons Ratio (x) = 0.65179 0.07707
# Poissons Ratio (y) = 0.30437 0.12853
# Poissons Ratio (z) = 0.06998 0.24989
#
# Static dielectric constant tensor:
#      x y z
#    x 1.841010 0.025760 -0.046520 
#    y 0.025760 1.860740 -0.000620 
#    z -0.046520 -0.000620 1.861980 
# 
# From -- ./inp_files/377779.got.cif
#   From: 2010.05.17/outbox.cif.g08.bks.cpg/sg2_189_cif.got.tgz:377779.got - 2010.06.03 11:33:40.
