data_PCOD9039271
_publ_section_title
;
Structure prediction by ZEFSAII (Michael W. Deem and Ramdas Pophale) SiO2 
 PCOD9039271
Probable space group: P -1
;
_chemical_formula_sum "Si O2"
_cell_formula_units_Z 16
_cell_length_a 17.017255
_cell_length_b 6.143978
_cell_length_c 10.041550
_cell_angle_alpha 51.597689
_cell_angle_beta 53.663246
_cell_angle_gamma 71.299040
_cell_volume 660.897585
_symmetry_space_group_name_H-M "P -1"
_symmetry_group_IT_number 2
_symmetry_cell_setting 'triclinic'
loop_
_space_group_symop_operation_xyz
x,y,z
-x,-y,-z
loop_
_atom_site_type_symbol
_atom_site_label
_atom_site_fract_x
_atom_site_fract_y
_atom_site_fract_z
Si Si1 0.787104 0.422395 0.658112
Si Si2 0.897701 0.312849 0.010306
Si Si3 0.389946 0.267825 0.302748
Si Si4 0.096849 0.045179 0.297278
Si Si5 0.472206 0.179090 0.670923
Si Si6 0.573595 0.672866 0.056951
Si Si7 0.038326 0.142494 0.718020
Si Si8 0.296167 0.805947 0.889885
O O1 0.708917 0.608580 0.596855
O O2 0.880567 0.639377 0.507190
O O3 0.821352 0.146146 0.656306
O O4 0.738841 0.299484 0.888391
O O5 0.877046 0.634198 0.886824
O O6 0.997872 0.273358 0.843671
O O7 0.800175 0.146758 0.114288
O O8 0.919591 0.158049 0.184897
O O9 0.474753 0.500512 0.172274
O O10 0.436584 0.987307 0.405245
O O11 0.380107 0.222912 0.169180
O O12 0.000000 0.000000 0.500000
O O13 0.058710 0.902608 0.253509
O O14 0.500000 0.500000 0.500000
O O15 0.449755 0.132360 0.869892
O O16 0.375032 0.064234 0.735121
O O17 0.645789 0.450137 0.125154
#
# Coordination Sequence:
#
# PCOD9039271 Si02
#       8
#     2   2   2   2   2   2   2   2
#     4  11  22  43  66  96 135 172 227 270 324 395
#     4  11  24  43  67  95 136 177 216 277 334 390
#     4   9  21  42  64  96 128 169 216 274 326 382
#     4  12  23  42  70  97 131 180 227 269 327 398
#     4  11  24  42  67  99 134 173 215 270 340 401
#     4   9  20  41  66  90 126 167 218 271 319 392
#     4  11  24  44  64  98 141 170 217 282 334 386
#     4  10  23  42  67  94 128 177 223 270 330 389
#
# _framework density 24.209499999999998
#
# number of rings (size 3 to 8) (size 9 to 14) (size 15 to 20)
#    0.000    1.500    2.500    2.625    1.750    4.000 
#    4.500    0.000    0.000    0.000    0.000    0.000 
#    0.000    0.000    0.000    0.000    0.000    0.000 
#
# Total GULP energy -89385.463300 kJ/mol
# GULP energy per Si atom -5586.591456 kJ/mol
# Density = 2.415440 g / cm^3
# Si number density = 24.209500 Si / 1000 Ang^3
#
#
#
# Elastic Constant Matrix: (Units=GPa)
#
#
# Indices 1 2 3 4 5 6 
#
# 1 90.0791 27.8995 34.1503 -8.1796 -19.0219 -24.4121
# 2 27.8995 119.9178 46.1311 -13.5084 -7.4429 -40.6418
# 3 34.1503 46.1311 99.7441 -32.5643 0.6797 -17.3496
# 4 -8.1796 -13.5084 -32.5643 43.3916 5.0331 4.8082
# 5 -19.0219 -7.4429 0.6797 5.0331 26.7090 10.2370
# 6 -24.4121 -40.6418 -17.3496 4.8082 10.2370 37.0532
#
#
#
# Elastic Compliance Matrix: (Units=1/GPa)
#
#
# Indices 1 2 3 4 5 6 
#
# 1 0.016906 0.001104 -0.006156 -0.003071 0.010404 0.006991
# 2 0.001104 0.014970 -0.004764 -0.000307 -0.000666 0.015141
# 3 -0.006156 -0.004764 0.018366 0.012115 -0.008499 0.000094
# 4 -0.003071 -0.000307 0.012115 0.032358 -0.009327 0.001691
# 5 0.010404 -0.000666 -0.008499 -0.009327 0.050724 -0.010659
# 6 0.006991 0.015141 0.000094 0.001691 -0.010659 0.050971
#
#
# Mechanical properties :
#
#
# Convention : Reuss Voigt Hill
#
# Bulk Modulus (GPa) = 32.66843 58.45588 45.56216
# Shear Modulus (GPa) = 23.35015 34.86811 29.10913
#
# Velocity S-wave (km/s) = 3.10902 3.79920 3.47130
# Velocity P-wave (km/s) = 5.13919 6.59117 5.90994
#
# Compressibility (1/GPa) = 0.03061059
#
# Stress axis : x y z
#
# Youngs Moduli (GPa) = 59.15015 66.79916 54.44713
#
# Poissons Ratio (x) = -0.07376 0.33520
# Poissons Ratio (y) = -0.06531 0.25937
# Poissons Ratio (z) = 0.36416 0.31822
#
# Static dielectric constant tensor:
#      x y z
#    x 1.944500 -0.000530 0.082030 
#    y -0.000530 1.999750 0.047570 
#    z 0.082030 0.047570 1.990600 
# 
# From -- ./inp_files/459392.got.cif
#   From: 2010.05.17/outbox.cif.g08.bks.cpg/sg2_230_cif.got.tgz:459392.got - 2010.06.03 11:33:40.
