data_PCOD9039226
_publ_section_title
;
Structure prediction by ZEFSAII (Michael W. Deem and Ramdas Pophale) SiO2 
 PCOD9039226
Probable space group: P -1
;
_chemical_formula_sum "Si O2"
_cell_formula_units_Z 14
_cell_length_a 5.547585
_cell_length_b 14.494810
_cell_length_c 22.671870
_cell_angle_alpha 29.161574
_cell_angle_beta 43.371913
_cell_angle_gamma 41.578835
_cell_volume 574.036238
_symmetry_space_group_name_H-M "P -1"
_symmetry_group_IT_number 2
_symmetry_cell_setting 'triclinic'
loop_
_space_group_symop_operation_xyz
x,y,z
-x,-y,-z
loop_
_atom_site_type_symbol
_atom_site_label
_atom_site_fract_x
_atom_site_fract_y
_atom_site_fract_z
Si Si1 0.935625 0.968181 0.762569
Si Si2 0.314475 0.598737 0.630160
Si Si3 0.816405 0.128928 0.018976
Si Si4 0.681851 0.428425 0.127199
Si Si5 0.826123 0.175781 0.785319
Si Si6 0.505745 0.227664 0.376448
Si Si7 0.525784 0.694668 0.417292
O O1 0.572309 0.909424 0.876756
O O2 0.297149 0.767880 0.805984
O O3 0.955039 0.107663 0.734722
O O4 0.825088 0.106877 0.646817
O O5 0.448291 0.359635 0.752466
O O6 0.386594 0.715855 0.609255
O O7 0.556348 0.646938 0.507466
O O8 0.906747 0.658661 0.640324
O O9 0.673093 0.370769 0.913737
O O10 0.106409 0.022941 0.078039
O O11 0.000000 0.000000 0.000000
O O12 0.761589 0.314861 0.239525
O O13 0.000000 0.500000 0.000000
O O14 0.130104 0.273470 0.695789
O O15 0.500000 0.000000 0.500000
O O16 0.500000 0.500000 0.500000
#
# Coordination Sequence:
#
# PCOD9039226 Si02
#       7
#     2   2   2   2   2   2   2
#     4  10  23  42  67 102 140 188 254 306 377 455
#     4  12  26  44  76 110 154 194 256 316 384 446
#     4  10  23  44  68  97 141 187 250 315 378 444
#     4  10  24  50  73 104 152 201 254 309 385 459
#     4  11  24  39  69 104 137 193 250 314 376 453
#     4  12  28  50  76 112 153 203 252 319 385 456
#     4  11  22  40  68 105 149 194 248 313 381 458
#
# _framework density 24.388705000000002
#
# number of rings (size 3 to 8) (size 9 to 14) (size 15 to 20)
#    0.000    1.143    1.429    3.429    8.000    1.143 
#   10.286    0.000    0.000    0.000    0.000    0.000 
#    0.000    0.000    0.000    0.000    0.000    0.000 
#
# Total GULP energy -78103.067567 kJ/mol
# GULP energy per Si atom -5578.790541 kJ/mol
# Density = 2.433320 g / cm^3
# Si number density = 24.388705 Si / 1000 Ang^3
#
#
#
# Elastic Constant Matrix: (Units=GPa)
#
#
# Indices 1 2 3 4 5 6 
#
# 1 75.8405 44.6682 23.6489 -4.7931 13.5918 11.8805
# 2 44.6682 141.8001 78.1297 -27.4101 11.0295 8.1665
# 3 23.6489 78.1297 150.9484 -19.3546 22.6095 -1.2513
# 4 -4.7931 -27.4101 -19.3546 61.4743 -2.1698 8.1468
# 5 13.5918 11.0295 22.6095 -2.1698 36.6518 2.8209
# 6 11.8805 8.1665 -1.2513 8.1468 2.8209 42.1696
#
#
#
# Elastic Compliance Matrix: (Units=1/GPa)
#
#
# Indices 1 2 3 4 5 6 
#
# 1 0.017587 -0.005458 0.000734 -0.000557 -0.005101 -0.003427
# 2 -0.005458 0.012429 -0.005413 0.003732 0.001989 -0.001884
# 3 0.000734 -0.005413 0.010128 0.000474 -0.004969 0.001383
# 4 -0.000557 0.003732 0.000474 0.018595 0.000212 -0.004158
# 5 -0.005101 0.001989 -0.004969 0.000212 0.031752 -0.001260
# 6 -0.003427 -0.001884 0.001383 -0.004158 -0.001260 0.025973
#
#
# Mechanical properties :
#
#
# Convention : Reuss Voigt Hill
#
# Bulk Modulus (GPa) = 50.32687 73.49805 61.91246
# Shear Modulus (GPa) = 34.87650 42.86863 38.87257
#
# Velocity S-wave (km/s) = 3.78567 4.19707 3.99667
# Velocity P-wave (km/s) = 6.30781 7.32726 6.83657
#
# Compressibility (1/GPa) = 0.01987010
#
# Stress axis : x y z
#
# Youngs Moduli (GPa) = 56.85918 80.45503 98.73471
#
# Poissons Ratio (x) = 0.43913 -0.07246
# Poissons Ratio (y) = 0.31034 0.53447
# Poissons Ratio (z) = -0.04173 0.43552
#
# Static dielectric constant tensor:
#      x y z
#    x 2.121690 -0.023510 -0.079570 
#    y -0.023510 2.064630 0.006760 
#    z -0.079570 0.006760 2.028980 
# 
# From -- ./inp_files/370240.got.cif
#   From: 2010.05.17/outbox.cif.g08.bks.cpg/sg2_186_cif.got.tgz:370240.got - 2010.06.03 11:33:40.
