data_PCOD9039845
_publ_section_title
;
Structure prediction by ZEFSAII (Michael W. Deem and Ramdas Pophale) SiO2 
 PCOD9039845
Probable space group: P -1
;
_chemical_formula_sum "Si O2"
_cell_formula_units_Z 16
_cell_length_a 14.351765
_cell_length_b 14.223165
_cell_length_c 5.969932
_cell_angle_alpha 56.647578
_cell_angle_beta 125.026357
_cell_angle_gamma 138.595989
_cell_volume 643.780967
_symmetry_space_group_name_H-M "P -1"
_symmetry_group_IT_number 2
_symmetry_cell_setting 'triclinic'
loop_
_space_group_symop_operation_xyz
x,y,z
-x,-y,-z
loop_
_atom_site_type_symbol
_atom_site_label
_atom_site_fract_x
_atom_site_fract_y
_atom_site_fract_z
Si Si1 0.012316 0.717159 0.233388
Si Si2 0.151810 0.030459 0.122564
Si Si3 0.429547 0.983484 0.178919
Si Si4 0.703748 0.530463 0.207505
Si Si5 0.325237 0.701832 0.305465
Si Si6 0.899125 0.440391 0.154887
Si Si7 0.369996 0.164465 0.626345
Si Si8 0.611912 0.661014 0.211269
O O1 0.856405 0.676800 0.142529
O O2 0.952648 0.590500 0.137270
O O3 0.118308 0.891762 0.129919
O O4 0.085889 0.671434 0.561249
O O5 0.223469 0.047525 0.440562
O O6 0.272241 0.185975 0.963448
O O7 0.000000 0.000000 0.000000
O O8 0.299372 0.810907 0.212601
O O9 0.500000 0.000000 0.500000
O O10 0.500000 0.000000 0.000000
O O11 0.395013 0.091414 0.956984
O O12 0.748002 0.430456 0.454631
O O13 0.661298 0.567492 0.330002
O O14 0.557922 0.437598 0.975797
O O15 0.495770 0.773339 0.440962
O O16 0.267052 0.652458 0.039687
O O17 0.000000 0.500000 0.000000
O O18 0.374836 0.290252 0.578882
#
# Coordination Sequence:
#
# PCOD9039845 Si02
#       8
#     2   2   2   2   2   2   2   2
#     4  11  25  45  70  99 148 184 234 307 367 450
#     4  12  26  47  69 103 146 195 246 301 380 446
#     4  10  23  42  71 110 148 187 238 308 383 445
#     4  11  22  45  72 100 138 185 240 304 366 438
#     4  11  22  43  72 103 141 182 248 303 370 445
#     4  11  24  44  67 104 136 189 237 291 379 449
#     4  11  25  45  71 106 143 191 247 308 375 441
#     4  11  25  45  72 100 138 187 247 305 364 443
#
# _framework density 24.853173999999999
#
# number of rings (size 3 to 8) (size 9 to 14) (size 15 to 20)
#    0.000    1.000    3.750    2.250    1.750    5.000 
#    0.000    0.000    0.000    0.000    0.000    0.000 
#    0.000    0.000    0.000    0.000    0.000    0.000 
#
# Total GULP energy -89313.838510 kJ/mol
# GULP energy per Si atom -5582.114907 kJ/mol
# Density = 2.479661 g / cm^3
# Si number density = 24.853174 Si / 1000 Ang^3
#
#
#
# Elastic Constant Matrix: (Units=GPa)
#
#
# Indices 1 2 3 4 5 6 
#
# 1 90.1266 20.9883 12.7669 9.6645 -3.5571 -5.9918
# 2 20.9883 142.4852 31.6092 6.0661 4.3719 -14.4251
# 3 12.7669 31.6092 86.0152 21.7037 4.7010 5.1337
# 4 9.6645 6.0661 21.7037 30.1862 6.9382 9.9897
# 5 -3.5571 4.3719 4.7010 6.9382 29.2717 7.5384
# 6 -5.9918 -14.4251 5.1337 9.9897 7.5384 44.9087
#
#
#
# Elastic Compliance Matrix: (Units=1/GPa)
#
#
# Indices 1 2 3 4 5 6 
#
# 1 0.012171 -0.001401 -0.000401 -0.004468 0.002343 0.001820
# 2 -0.001401 0.008233 -0.002990 0.000354 -0.001781 0.003020
# 3 -0.000401 -0.002990 0.015378 -0.010253 0.000507 -0.000576
# 4 -0.004468 0.000354 -0.010253 0.046408 -0.007805 -0.008323
# 5 0.002343 -0.001781 0.000507 -0.007805 0.037749 -0.004918
# 6 0.001820 0.003020 -0.000576 -0.008323 -0.004918 0.026223
#
#
# Mechanical properties :
#
#
# Convention : Reuss Voigt Hill
#
# Bulk Modulus (GPa) = 38.17030 49.92842 44.04936
# Shear Modulus (GPa) = 30.39913 37.75750 34.07832
#
# Velocity S-wave (km/s) = 3.50115 3.90195 3.70697
# Velocity P-wave (km/s) = 5.63345 6.35871 6.00704
#
# Compressibility (1/GPa) = 0.02619838
#
# Stress axis : x y z
#
# Youngs Moduli (GPa) = 82.16116 121.45888 65.02846
#
# Poissons Ratio (x) = 0.17020 0.02607
# Poissons Ratio (y) = 0.11513 0.19442
# Poissons Ratio (z) = 0.03294 0.36313
#
# Static dielectric constant tensor:
#      x y z
#    x 2.011530 0.048400 -0.037460 
#    y 0.048400 2.103610 0.025310 
#    z -0.037460 0.025310 2.030750 
# 
# From -- ./inp_files/97826.got.cif
#   From: 2010.05.17/outbox.cif.g08.bks.cpg/sg2_49_cif.got.tgz:97826.got - 2010.06.03 11:33:40.
