data_PCOD9039829
_publ_section_title
;
Structure prediction by ZEFSAII (Michael W. Deem and Ramdas Pophale) SiO2 
 PCOD9039829
Probable space group: P -1
;
_chemical_formula_sum "Si O2"
_cell_formula_units_Z 15
_cell_length_a 11.436440
_cell_length_b 5.240401
_cell_length_c 11.701994
_cell_angle_alpha 97.005607
_cell_angle_beta 68.592093
_cell_angle_gamma 119.451058
_cell_volume 567.125035
_symmetry_space_group_name_H-M "P -1"
_symmetry_group_IT_number 2
_symmetry_cell_setting 'triclinic'
loop_
_space_group_symop_operation_xyz
x,y,z
-x,-y,-z
loop_
_atom_site_type_symbol
_atom_site_label
_atom_site_fract_x
_atom_site_fract_y
_atom_site_fract_z
Si Si1 0.411073 0.150258 0.992134
Si Si2 0.016582 0.325717 0.142860
Si Si3 0.219382 0.739247 0.479411
Si Si4 0.500000 0.000000 0.500000
Si Si5 0.032620 0.206246 0.374306
Si Si6 0.270849 0.070292 0.261457
Si Si7 0.833998 0.620676 0.139292
Si Si8 0.557085 0.661400 0.254280
O O1 0.385140 0.120984 0.864766
O O2 0.500000 0.500000 0.000000
O O3 0.281088 0.029268 0.120837
O O4 0.500000 0.000000 0.000000
O O5 0.911520 0.462978 0.167856
O O6 0.080403 0.392002 0.250280
O O7 0.923732 0.970869 0.149993
O O8 0.136708 0.420487 0.006795
O O9 0.333274 0.757727 0.528567
O O10 0.105261 0.416677 0.467208
O O11 0.135427 0.907010 0.563377
O O12 0.299564 0.891741 0.340820
O O13 0.547637 0.817971 0.379999
O O14 0.110887 0.014577 0.332859
O O15 0.398053 0.399878 0.263766
O O16 0.669284 0.534517 0.217595
#
# Coordination Sequence:
#
# PCOD9039829 Si02
#       8
#     2   2   2   1   2   2   2   2
#     4  10  23  42  71 105 147 188 241 306 372 438
#     4  10  23  45  76 104 153 193 251 306 374 453
#     4  11  26  45  73 101 146 194 253 303 374 438
#     4  12  24  48  70 102 152 194 250 304 368 454
#     4  11  24  47  69 107 142 194 247 308 371 442
#     4  11  24  45  73 105 144 191 250 312 377 445
#     4  10  23  45  72 115 145 200 245 306 381 450
#     4  11  24  45  71 112 150 196 249 309 382 444
#
# _framework density 26.449193000000001
#
# number of rings (size 3 to 8) (size 9 to 14) (size 15 to 20)
#    0.000    1.333    1.333    2.800    3.733    4.800 
#    7.200    0.000    0.000    0.000    0.000    0.000 
#    0.000    0.000    0.000    0.000    0.000    0.000 
#
# Total GULP energy -83758.900672 kJ/mol
# GULP energy per Si atom -5583.926711 kJ/mol
# Density = 2.638899 g / cm^3
# Si number density = 26.449193 Si / 1000 Ang^3
#
#
#
# Elastic Constant Matrix: (Units=GPa)
#
#
# Indices 1 2 3 4 5 6 
#
# 1 118.8566 35.2394 39.9760 23.0272 -28.8957 -13.1163
# 2 35.2394 97.0073 42.0181 12.3842 -5.3017 -19.1711
# 3 39.9760 42.0181 129.8203 11.1399 -25.6034 -6.3063
# 4 23.0272 12.3842 11.1399 44.5554 -6.6518 3.4139
# 5 -28.8957 -5.3017 -25.6034 -6.6518 38.5511 3.0647
# 6 -13.1163 -19.1711 -6.3063 3.4139 3.0647 51.4451
#
#
#
# Elastic Compliance Matrix: (Units=1/GPa)
#
#
# Indices 1 2 3 4 5 6 
#
# 1 0.012421 -0.002728 -0.001021 -0.004455 0.007338 0.001883
# 2 -0.002728 0.013995 -0.003967 -0.002349 -0.003509 0.004398
# 3 -0.001021 -0.003967 0.010379 -0.000063 0.005635 -0.000798
# 4 -0.004455 -0.002349 -0.000063 0.025864 0.001061 -0.003798
# 5 0.007338 -0.003509 0.005635 0.001061 0.034955 -0.000899
# 6 0.001883 0.004398 -0.000798 -0.003798 -0.000899 0.021765
#
#
# Mechanical properties :
#
#
# Convention : Reuss Voigt Hill
#
# Bulk Modulus (GPa) = 46.80714 64.46123 55.63418
# Shear Modulus (GPa) = 35.22856 42.14035 38.68445
#
# Velocity S-wave (km/s) = 3.65353 3.99589 3.82854
# Velocity P-wave (km/s) = 5.96096 6.76123 6.37367
#
# Compressibility (1/GPa) = 0.02136426
#
# Stress axis : x y z
#
# Youngs Moduli (GPa) = 80.51202 71.45468 96.34742
#
# Poissons Ratio (x) = 0.19492 0.09835
# Poissons Ratio (y) = 0.21962 0.38216
# Poissons Ratio (z) = 0.08218 0.28343
#
# Static dielectric constant tensor:
#      x y z
#    x 2.051130 -0.033260 -0.006980 
#    y -0.033260 2.056980 0.018230 
#    z -0.006980 0.018230 2.159750 
# 
# From -- ./inp_files/410490.got.cif
#   From: 2010.05.17/outbox.cif.g08.bks.cpg/sg2_206_cif.got.tgz:410490.got - 2010.06.03 11:33:40.
