data_PCOD9039228
_publ_section_title
;
Structure prediction by ZEFSAII (Michael W. Deem and Ramdas Pophale) SiO2 
 PCOD9039228
Probable space group: P -1
;
_chemical_formula_sum "Si O2"
_cell_formula_units_Z 14
_cell_length_a 9.418048
_cell_length_b 13.399775
_cell_length_c 9.180897
_cell_angle_alpha 115.022112
_cell_angle_beta 145.984858
_cell_angle_gamma 79.431911
_cell_volume 554.452670
_symmetry_space_group_name_H-M "P -1"
_symmetry_group_IT_number 2
_symmetry_cell_setting 'triclinic'
loop_
_space_group_symop_operation_xyz
x,y,z
-x,-y,-z
loop_
_atom_site_type_symbol
_atom_site_label
_atom_site_fract_x
_atom_site_fract_y
_atom_site_fract_z
Si Si1 0.777584 0.566640 0.360348
Si Si2 0.406930 0.130848 0.625412
Si Si3 0.520249 0.112631 0.390486
Si Si4 0.400305 0.523787 0.275458
Si Si5 0.875101 0.324893 0.699726
Si Si6 0.862488 0.012954 0.237812
Si Si7 0.248843 0.759511 0.756635
O O1 0.656604 0.572632 0.420233
O O2 0.000000 0.500000 0.500000
O O3 0.950166 0.691947 0.520965
O O4 0.500000 0.500000 0.000000
O O5 0.454954 0.163408 0.518007
O O6 0.097713 0.076120 0.364863
O O7 0.505120 0.019614 0.673393
O O8 0.556213 0.227113 0.931555
O O9 0.809241 0.195658 0.630405
O O10 0.317759 0.099091 0.074484
O O11 0.500000 0.500000 0.500000
O O12 0.235117 0.610400 0.228463
O O13 0.176303 0.402466 0.963223
O O14 0.720437 0.310683 0.404223
O O15 0.714669 0.109749 0.187074
O O16 0.000000 0.000000 0.500000
#
# Coordination Sequence:
#
# PCOD9039228 Si02
#       7
#     2   2   2   2   2   2   2
#     4  12  28  51  81 111 155 201 258 325 385 460
#     4  10  23  42  68 100 144 186 250 313 378 458
#     4  10  23  42  67 102 143 190 250 308 386 451
#     4  11  27  45  70 105 147 196 251 312 379 458
#     4  11  24  45  68 101 148 190 254 303 383 448
#     4  11  23  41  69 105 147 194 254 311 380 462
#     4  11  25  43  73 107 145 199 254 309 389 452
#
# _framework density 25.250126999999999
#
# number of rings (size 3 to 8) (size 9 to 14) (size 15 to 20)
#    0.000    1.143    1.429    3.000    8.000    5.714 
#    0.000    0.000    0.000    0.000    0.000    0.000 
#    0.000    0.000    0.000    0.000    0.000    0.000 
#
# Total GULP energy -78248.662642 kJ/mol
# GULP energy per Si atom -5589.190189 kJ/mol
# Density = 2.519266 g / cm^3
# Si number density = 25.250127 Si / 1000 Ang^3
#
#
#
# Elastic Constant Matrix: (Units=GPa)
#
#
# Indices 1 2 3 4 5 6 
#
# 1 179.5356 21.3906 49.8893 14.0045 -2.2577 20.4158
# 2 21.3906 65.2012 38.8354 -1.1502 0.7528 19.8196
# 3 49.8893 38.8354 152.1912 13.3906 -4.9331 3.6574
# 4 14.0045 -1.1502 13.3906 27.4903 6.7638 19.5247
# 5 -2.2577 0.7528 -4.9331 6.7638 46.8305 1.6561
# 6 20.4158 19.8196 3.6574 19.5247 1.6561 31.8102
#
#
#
# Elastic Compliance Matrix: (Units=1/GPa)
#
#
# Indices 1 2 3 4 5 6 
#
# 1 0.006652 0.001270 -0.002564 0.002333 -0.000088 -0.006193
# 2 0.001270 0.039773 -0.013614 0.046363 -0.006865 -0.052130
# 3 -0.002564 -0.013614 0.012396 -0.021754 0.003770 0.021859
# 4 0.002333 0.046363 -0.021754 0.126187 -0.017457 -0.104426
# 5 -0.000088 -0.006865 0.003770 -0.017457 0.023905 0.013371
# 6 -0.006193 -0.052130 0.021859 -0.104426 0.013371 0.128777
#
#
# Mechanical properties :
#
#
# Convention : Reuss Voigt Hill
#
# Bulk Modulus (GPa) = 34.47787 68.57316 51.52551
# Shear Modulus (GPa) = 13.25638 40.34705 26.80172
#
# Velocity S-wave (km/s) = 2.29378 4.00170 3.26152
# Velocity P-wave (km/s) = 4.54966 6.96908 5.88504
#
# Compressibility (1/GPa) = 0.02900411
#
# Stress axis : x y z
#
# Youngs Moduli (GPa) = 150.32443 25.14266 80.67020
#
# Poissons Ratio (x) = -0.03192 0.20683
# Poissons Ratio (y) = -0.19084 1.09827
# Poissons Ratio (z) = 0.38542 0.34230
#
# Static dielectric constant tensor:
#      x y z
#    x 2.008290 -0.082390 -0.051750 
#    y -0.082390 2.107400 0.069080 
#    z -0.051750 0.069080 1.801170 
# 
# From -- ./inp_files/36842.got.cif
#   From: 2010.05.17/outbox.cif.g08.bks.cpg/sg2_19_cif.got.tgz:36842.got - 2010.06.03 11:33:40.
