data_PCOD9039530
_publ_section_title
;
Structure prediction by ZEFSAII (Michael W. Deem and Ramdas Pophale) SiO2 
 PCOD9039530
Probable space group: P -1
;
_chemical_formula_sum "Si O2"
_cell_formula_units_Z 16
_cell_length_a 9.223702
_cell_length_b 14.755417
_cell_length_c 19.038196
_cell_angle_alpha 141.981517
_cell_angle_beta 150.881992
_cell_angle_gamma 37.862770
_cell_volume 730.935228
_symmetry_space_group_name_H-M "P -1"
_symmetry_group_IT_number 2
_symmetry_cell_setting 'triclinic'
loop_
_space_group_symop_operation_xyz
x,y,z
-x,-y,-z
loop_
_atom_site_type_symbol
_atom_site_label
_atom_site_fract_x
_atom_site_fract_y
_atom_site_fract_z
Si Si1 0.826936 0.303190 0.719270
Si Si2 0.866743 0.786632 0.065981
Si Si3 0.215596 0.665680 0.994237
Si Si4 0.493068 0.058741 0.452411
Si Si5 0.792686 0.466068 0.453731
Si Si6 0.269420 0.202777 0.714815
Si Si7 0.840646 0.521723 0.657501
Si Si8 0.175884 0.865786 0.761834
O O1 0.601780 0.207082 0.587847
O O2 0.579757 0.459294 0.677225
O O3 0.014488 0.313200 0.874798
O O4 0.072561 0.213489 0.708749
O O5 0.857380 0.966653 0.184604
O O6 0.509547 0.807890 0.906742
O O7 0.097460 0.708836 0.050679
O O8 0.917078 0.652415 0.816154
O O9 0.500000 0.500000 0.000000
O O10 0.383137 0.788676 0.116950
O O11 0.133556 0.096637 0.298048
O O12 0.500000 0.000000 0.500000
O O13 0.706013 0.935961 0.412569
O O14 0.886565 0.544808 0.609232
O O15 0.849952 0.283488 0.382720
O O16 0.000000 0.500000 0.500000
O O17 0.082688 0.359040 0.688096
O O18 0.500000 0.500000 0.500000
#
# Coordination Sequence:
#
# PCOD9039530 Si02
#       8
#     2   2   2   2   2   2   2   2
#     4  12  26  44  69 109 138 181 233 298 350 406
#     4  11  25  47  73 101 138 187 240 279 353 427
#     4  10  23  42  69 100 137 187 230 279 347 422
#     4  12  22  45  73  99 140 186 233 288 345 427
#     4  12  26  42  71 105 139 177 238 290 351 408
#     4  11  24  44  66 104 142 184 230 286 355 413
#     4  11  23  44  67 102 139 183 229 284 352 416
#     4  11  24  45  72 101 135 186 235 282 348 422
#
# _framework density 21.889765000000001
#
# number of rings (size 3 to 8) (size 9 to 14) (size 15 to 20)
#    0.000    0.750    5.000    1.875    5.250    1.500 
#    0.000    0.625    0.000    0.000    0.000    0.000 
#    0.000    0.000    0.000    0.000    0.000    0.000 
#
# Total GULP energy -89305.377482 kJ/mol
# GULP energy per Si atom -5581.586093 kJ/mol
# Density = 2.183994 g / cm^3
# Si number density = 21.889765 Si / 1000 Ang^3
#
#
#
# Elastic Constant Matrix: (Units=GPa)
#
#
# Indices 1 2 3 4 5 6 
#
# 1 138.3024 18.1055 29.2302 -11.2484 -14.9056 -12.3736
# 2 18.1055 74.4008 25.4246 3.3712 -11.7700 -11.7273
# 3 29.2302 25.4246 94.0211 -6.8750 1.9659 0.2143
# 4 -11.2484 3.3712 -6.8750 32.5158 -9.3934 2.4322
# 5 -14.9056 -11.7700 1.9659 -9.3934 39.6598 -2.6142
# 6 -12.3736 -11.7273 0.2143 2.4322 -2.6142 28.7161
#
#
#
# Elastic Compliance Matrix: (Units=1/GPa)
#
#
# Indices 1 2 3 4 5 6 
#
# 1 0.008925 -0.000109 -0.002588 0.003574 0.004556 0.003933
# 2 -0.000109 0.017300 -0.004913 -0.001887 0.005398 0.007706
# 3 -0.002588 -0.004913 0.012969 0.001793 -0.002888 -0.003633
# 4 0.003574 -0.001887 0.001793 0.035257 0.008951 -0.001415
# 5 0.004556 0.005398 -0.002888 0.008951 0.031206 0.006272
# 6 0.003933 0.007706 -0.003633 -0.001415 0.006272 0.040383
#
#
# Mechanical properties :
#
#
# Convention : Reuss Voigt Hill
#
# Bulk Modulus (GPa) = 41.71069 50.24943 45.98006
# Shear Modulus (GPa) = 29.54178 35.77595 32.65886
#
# Velocity S-wave (km/s) = 3.67764 4.04712 3.86679
# Velocity P-wave (km/s) = 6.09341 6.69660 6.40211
#
# Compressibility (1/GPa) = 0.02397467
#
# Stress axis : x y z
#
# Youngs Moduli (GPa) = 112.04025 57.80300 77.10753
#
# Poissons Ratio (x) = 0.00629 0.19958
# Poissons Ratio (y) = 0.01218 0.37882
# Poissons Ratio (z) = 0.28999 0.28398
#
# Static dielectric constant tensor:
#      x y z
#    x 1.778070 -0.001650 0.013460 
#    y -0.001650 1.819870 0.001880 
#    z 0.013460 0.001880 1.851130 
# 
# From -- ./inp_files/466068.got.cif
#   From: 2010.05.17/outbox.cif.g08.bks.cpg/sg2_234_cif.got.tgz:466068.got - 2010.06.03 11:33:40.
