data_PCOD9039519
_publ_section_title
;
Structure prediction by ZEFSAII (Michael W. Deem and Ramdas Pophale) SiO2 
 PCOD9039519
Probable space group: P -1
;
_chemical_formula_sum "Si O2"
_cell_formula_units_Z 16
_cell_length_a 5.348312
_cell_length_b 15.411141
_cell_length_c 8.672379
_cell_angle_alpha 98.047654
_cell_angle_beta 104.293478
_cell_angle_gamma 100.692235
_cell_volume 667.571100
_symmetry_space_group_name_H-M "P -1"
_symmetry_group_IT_number 2
_symmetry_cell_setting 'triclinic'
loop_
_space_group_symop_operation_xyz
x,y,z
-x,-y,-z
loop_
_atom_site_type_symbol
_atom_site_label
_atom_site_fract_x
_atom_site_fract_y
_atom_site_fract_z
Si Si1 0.006118 0.540431 0.183441
Si Si2 0.844037 0.778477 0.873210
Si Si3 0.029265 0.371153 0.344445
Si Si4 0.384418 0.362871 0.680418
Si Si5 0.251039 0.187466 0.799513
Si Si6 0.366683 0.899717 0.000950
Si Si7 0.377977 0.794523 0.660736
Si Si8 0.202087 0.939349 0.459707
O O1 0.984243 0.462279 0.289328
O O2 0.299646 0.604276 0.257362
O O3 0.772346 0.589535 0.205666
O O4 0.000000 0.500000 0.000000
O O5 0.944492 0.691505 0.813979
O O6 0.684504 0.793390 0.697136
O O7 0.051957 0.873145 0.956348
O O8 0.737360 0.757441 0.025166
O O9 0.273068 0.384816 0.503224
O O10 0.788237 0.307427 0.385991
O O11 0.310335 0.257260 0.686250
O O12 0.970139 0.117836 0.716700
O O13 0.477474 0.131535 0.841661
O O14 0.399459 0.837256 0.845592
O O15 0.500000 0.000000 0.000000
O O16 0.252853 0.860413 0.558632
O O17 0.500000 0.000000 0.500000
O O18 0.000000 0.000000 0.500000
#
# Coordination Sequence:
#
# PCOD9039519 Si02
#       8
#     2   2   2   2   2   2   2   2
#     4  12  29  48  79 110 148 188 245 302 361 448
#     4  10  25  43  74 100 146 194 247 302 371 430
#     4  11  25  48  72 106 149 188 244 299 373 438
#     4  12  28  48  76 110 146 194 240 298 377 432
#     4  11  26  45  72 106 147 195 248 309 366 443
#     4  10  23  42  68  99 145 190 255 298 366 433
#     4  10  24  43  69 104 142 197 239 307 364 433
#     4  12  29  46  73 107 150 194 249 307 370 433
#
# _framework density 23.967483999999999
#
# number of rings (size 3 to 8) (size 9 to 14) (size 15 to 20)
#    0.000    1.000    1.250    2.625   19.250    1.000 
#    0.000    0.000    0.000    0.000    0.000    0.000 
#    0.000    0.000    0.000    0.000    0.000    0.000 
#
# Total GULP energy -89322.235362 kJ/mol
# GULP energy per Si atom -5582.639710 kJ/mol
# Density = 2.391293 g / cm^3
# Si number density = 23.967484 Si / 1000 Ang^3
#
#
#
# Elastic Constant Matrix: (Units=GPa)
#
#
# Indices 1 2 3 4 5 6 
#
# 1 97.7911 40.8516 19.0998 0.7049 16.0277 6.1808
# 2 40.8516 110.8989 6.6392 -14.9943 1.2083 3.3419
# 3 19.0998 6.6392 93.0037 0.2590 0.9935 -3.4908
# 4 0.7049 -14.9943 0.2590 36.9867 -2.4196 9.5715
# 5 16.0277 1.2083 0.9935 -2.4196 33.3739 5.1633
# 6 6.1808 3.3419 -3.4908 9.5715 5.1633 32.1042
#
#
#
# Elastic Compliance Matrix: (Units=1/GPa)
#
#
# Indices 1 2 3 4 5 6 
#
# 1 0.014057 -0.005306 -0.002451 -0.002689 -0.006594 -0.000558
# 2 -0.005306 0.011771 0.000115 0.005669 0.002893 -0.002346
# 3 -0.002451 0.000115 0.011307 -0.000396 0.000541 0.001720
# 4 -0.002689 0.005669 -0.000396 0.032469 0.005094 -0.010615
# 5 -0.006594 0.002893 0.000541 0.005094 0.034309 -0.006009
# 6 -0.000558 -0.002346 0.001720 -0.010615 -0.006009 0.035819
#
#
# Mechanical properties :
#
#
# Convention : Reuss Voigt Hill
#
# Bulk Modulus (GPa) = 45.76741 48.31945 47.04343
# Shear Modulus (GPa) = 30.80736 36.16648 33.48692
#
# Velocity S-wave (km/s) = 3.58911 3.88877 3.74194
# Velocity P-wave (km/s) = 6.02600 6.35355 6.19194
#
# Compressibility (1/GPa) = 0.02184961
#
# Stress axis : x y z
#
# Youngs Moduli (GPa) = 71.14080 84.95739 88.43838
#
# Poissons Ratio (x) = 0.45080 0.21676
# Poissons Ratio (y) = 0.37748 -0.01014
# Poissons Ratio (z) = 0.17437 -0.00974
#
# Static dielectric constant tensor:
#      x y z
#    x 2.467700 -0.109060 0.085290 
#    y -0.109060 1.994470 -0.059990 
#    z 0.085290 -0.059990 2.014070 
# 
# From -- ./inp_files/77715.got.cif
#   From: 2010.05.17/outbox.cif.g08.bks.cpg/sg2_39_cif.got.tgz:77715.got - 2010.06.03 11:33:40.
