data_PCOD9039150
_publ_section_title
;
Structure prediction by ZEFSAII (Michael W. Deem and Ramdas Pophale) SiO2 
 PCOD9039150
Probable space group: P -1
;
_chemical_formula_sum "Si O2"
_cell_formula_units_Z 16
_cell_length_a 12.554433
_cell_length_b 9.764944
_cell_length_c 21.842686
_cell_angle_alpha 142.212239
_cell_angle_beta 27.147601
_cell_angle_gamma 133.134139
_cell_volume 746.832057
_symmetry_space_group_name_H-M "P -1"
_symmetry_group_IT_number 2
_symmetry_cell_setting 'triclinic'
loop_
_space_group_symop_operation_xyz
x,y,z
-x,-y,-z
loop_
_atom_site_type_symbol
_atom_site_label
_atom_site_fract_x
_atom_site_fract_y
_atom_site_fract_z
Si Si1 0.149256 0.562687 0.529302
Si Si2 0.285903 0.143845 0.085062
Si Si3 0.563920 0.201893 0.436383
Si Si4 0.287555 0.697288 0.004281
Si Si5 0.587031 0.271617 0.659221
Si Si6 0.016680 0.172679 0.108831
Si Si7 0.985320 0.091249 0.471578
Si Si8 0.042103 0.343276 0.741454
O O1 0.347862 0.653849 0.502562
O O2 0.217311 0.633237 0.451310
O O3 0.910954 0.693210 0.721827
O O4 0.138455 0.299084 0.452808
O O5 0.530630 0.241646 0.013219
O O6 0.211361 0.125313 0.045749
O O7 0.283163 0.899443 0.030312
O O8 0.767895 0.181670 0.274562
O O9 0.319372 0.317867 0.579938
O O10 0.514428 0.951229 0.393943
O O11 0.391107 0.466615 0.840813
O O12 0.035713 0.672310 0.154058
O O13 0.723133 0.186925 0.621082
O O14 0.054490 0.419959 0.151630
O O15 0.000000 0.000000 0.000000
O O16 0.047181 0.876626 0.322241
O O17 0.000000 0.000000 0.500000
#
# Coordination Sequence:
#
# PCOD9039150 Si02
#       8
#     2   2   2   2   2   2   2   2
#     4  11  22  43  71  97 130 174 225 275 331 390
#     4  10  23  42  66  97 135 175 218 278 334 389
#     4  10  23  44  69  98 133 172 222 278 331 396
#     4  11  24  42  65  98 138 171 224 277 331 392
#     4  11  23  40  69  99 129 172 223 273 329 394
#     4  11  24  46  70  97 135 177 222 276 338 400
#     4  11  23  41  65  96 130 170 222 270 327 393
#     4  11  25  44  66  98 134 175 220 272 331 402
#
# _framework density 21.423826999999999
#
# number of rings (size 3 to 8) (size 9 to 14) (size 15 to 20)
#    0.000    1.250    1.250    4.875    3.500    3.500 
#    4.500    3.750    0.000    0.000    0.000    0.000 
#    0.000    0.000    0.000    0.000    0.000    0.000 
#
# Total GULP energy -89455.224653 kJ/mol
# GULP energy per Si atom -5590.951541 kJ/mol
# Density = 2.137507 g / cm^3
# Si number density = 21.423827 Si / 1000 Ang^3
#
#
#
# Elastic Constant Matrix: (Units=GPa)
#
#
# Indices 1 2 3 4 5 6 
#
# 1 97.1200 30.9527 29.2153 23.9818 -2.0100 0.7872
# 2 30.9527 129.5635 22.8691 37.6954 -8.6717 7.1282
# 3 29.2153 22.8691 55.1627 25.6124 8.6691 -3.8074
# 4 23.9818 37.6954 25.6124 43.7682 -0.5630 -0.1196
# 5 -2.0100 -8.6717 8.6691 -0.5630 12.6883 -1.3629
# 6 0.7872 7.1282 -3.8074 -0.1196 -1.3629 30.2006
#
#
#
# Elastic Compliance Matrix: (Units=1/GPa)
#
#
# Indices 1 2 3 4 5 6 
#
# 1 0.013276 -0.000825 -0.006336 -0.002786 0.005669 -0.000705
# 2 -0.000825 0.011297 -0.002023 -0.007994 0.008343 -0.002555
# 3 -0.006336 -0.002023 0.033363 -0.014627 -0.025439 0.003643
# 4 -0.002786 -0.007994 -0.014627 0.039896 0.005918 0.000540
# 5 0.005669 0.008343 -0.025439 0.005918 0.102986 -0.000653
# 6 -0.000705 -0.002555 0.003643 0.000540 -0.000653 0.034165
#
#
# Mechanical properties :
#
#
# Convention : Reuss Voigt Hill
#
# Bulk Modulus (GPa) = 25.27161 49.76893 37.52027
# Shear Modulus (GPa) = 18.75901 30.58538 24.67220
#
# Velocity S-wave (km/s) = 2.96229 3.78250 3.39724
# Velocity P-wave (km/s) = 4.84993 6.50827 5.73931
#
# Compressibility (1/GPa) = 0.03957009
#
# Stress axis : x y z
#
# Youngs Moduli (GPa) = 75.32323 88.51991 29.97338
#
# Poissons Ratio (x) = 0.07300 0.18990
# Poissons Ratio (y) = 0.06212 0.06062
# Poissons Ratio (z) = 0.47722 0.17904
#
# Static dielectric constant tensor:
#      x y z
#    x 1.802720 0.023790 0.003450 
#    y 0.023790 1.759560 -0.020330 
#    z 0.003450 -0.020330 1.789230 
# 
# From -- ./inp_files/158698.got.cif
#   From: 2010.05.17/outbox.cif.g08.bks.cpg/sg2_80_cif.got.tgz:158698.got - 2010.06.03 11:33:40.
