data_PCOD9039157
_publ_section_title
;
Structure prediction by ZEFSAII (Michael W. Deem and Ramdas Pophale) SiO2 
 PCOD9039157
Probable space group: P -1
;
_chemical_formula_sum "Si O2"
_cell_formula_units_Z 14
_cell_length_a 13.409928
_cell_length_b 10.277055
_cell_length_c 4.861722
_cell_angle_alpha 96.034960
_cell_angle_beta 103.879036
_cell_angle_gamma 120.521644
_cell_volume 539.296884
_symmetry_space_group_name_H-M "P -1"
_symmetry_group_IT_number 2
_symmetry_cell_setting 'triclinic'
loop_
_space_group_symop_operation_xyz
x,y,z
-x,-y,-z
loop_
_atom_site_type_symbol
_atom_site_label
_atom_site_fract_x
_atom_site_fract_y
_atom_site_fract_z
Si Si1 0.217821 0.045783 0.119038
Si Si2 0.889542 0.327818 0.464627
Si Si3 0.265641 0.358517 0.133411
Si Si4 0.724246 0.197702 0.818752
Si Si5 0.402153 0.259414 0.882470
Si Si6 0.436343 0.698827 0.500589
Si Si7 0.000096 0.142324 0.675647
O O1 0.271915 0.099249 0.853793
O O2 0.289306 0.967888 0.254251
O O3 0.242028 0.212423 0.270132
O O4 0.918997 0.074534 0.885518
O O5 0.840091 0.318729 0.733814
O O6 0.000000 0.500000 0.500000
O O7 0.939932 0.214951 0.471052
O O8 0.771599 0.258459 0.170889
O O9 0.136871 0.285659 0.877540
O O10 0.369687 0.382633 0.991415
O O11 0.319253 0.519159 0.362449
O O12 0.609626 0.196799 0.629128
O O13 0.502948 0.264671 0.153560
O O14 0.460128 0.285017 0.631400
O O15 0.000000 0.000000 0.500000
#
# Coordination Sequence:
#
# PCOD9039157 Si02
#       7
#     2   2   2   2   2   2   2
#     4   9  24  42  64  98 136 166 219 270 335 381
#     4  11  24  43  65  98 135 171 217 274 327 391
#     4  10  23  42  66  98 132 174 219 275 328 389
#     4  11  24  43  66  95 134 171 222 269 327 393
#     4  10  26  42  70  95 138 169 227 274 322 386
#     4  12  24  45  69  98 129 182 224 268 326 389
#     4  11  23  40  72  99 135 173 220 270 339 398
#
# _framework density 25.95973
#
# number of rings (size 3 to 8) (size 9 to 14) (size 15 to 20)
#    0.857    0.571    0.000    4.286    2.000    6.857 
#    0.000    0.000    0.000    0.000    0.000    0.000 
#    0.000    0.000    0.000    0.000    0.000    0.000 
#
# Total GULP energy -78314.410524 kJ/mol
# GULP energy per Si atom -5593.886466 kJ/mol
# Density = 2.590064 g / cm^3
# Si number density = 25.959730 Si / 1000 Ang^3
#
#
#
# Elastic Constant Matrix: (Units=GPa)
#
#
# Indices 1 2 3 4 5 6 
#
# 1 73.6356 3.6742 2.8180 0.5274 10.7875 0.7341
# 2 3.6742 97.3323 -1.2935 5.3769 -1.2358 9.1300
# 3 2.8180 -1.2935 73.2979 -4.1400 15.0393 6.6093
# 4 0.5274 5.3769 -4.1400 33.1221 5.7411 9.0632
# 5 10.7875 -1.2358 15.0393 5.7411 48.5178 -11.5826
# 6 0.7341 9.1300 6.6093 9.0632 -11.5826 49.7665
#
#
#
# Elastic Compliance Matrix: (Units=1/GPa)
#
#
# Indices 1 2 3 4 5 6 
#
# 1 0.014132 -0.000513 0.000348 0.000851 -0.003641 -0.001163
# 2 -0.000513 0.010527 0.000292 -0.001191 0.000017 -0.001742
# 3 0.000348 0.000292 0.015594 0.004219 -0.006453 -0.004400
# 4 0.000851 -0.001191 0.004219 0.034522 -0.007621 -0.008415
# 5 -0.003641 0.000017 -0.006453 -0.007621 0.026334 0.008425
# 6 -0.001163 -0.001742 -0.004400 -0.008415 0.008425 0.024508
#
#
# Mechanical properties :
#
#
# Convention : Reuss Voigt Hill
#
# Bulk Modulus (GPa) = 24.68821 28.29591 26.49206
# Shear Modulus (GPa) = 36.00621 42.21910 39.11265
#
# Velocity S-wave (km/s) = 3.72829 4.03715 3.88579
# Velocity P-wave (km/s) = 5.29758 5.71446 5.50996
#
# Compressibility (1/GPa) = 0.04050516
#
# Stress axis : x y z
#
# Youngs Moduli (GPa) = 70.76334 94.99676 64.12804
#
# Poissons Ratio (x) = 0.04873 -0.02230
# Poissons Ratio (y) = 0.03630 -0.01872
# Poissons Ratio (z) = -0.02460 -0.02772
#
# Static dielectric constant tensor:
#      x y z
#    x 2.019540 0.001730 0.046980 
#    y 0.001730 2.042110 0.059870 
#    z 0.046980 0.059870 2.129590 
# 
# From -- ./inp_files/89159.got.cif
#   From: 2010.05.17/outbox.cif.g08.bks.cpg/sg2_45_cif.got.tgz:89159.got - 2010.06.03 11:33:40.
