data_PCOD9039841
_publ_section_title
;
Structure prediction by ZEFSAII (Michael W. Deem and Ramdas Pophale) SiO2 
 PCOD9039841
Probable space group: P -1
;
_chemical_formula_sum "Si O2"
_cell_formula_units_Z 16
_cell_length_a 16.796087
_cell_length_b 10.013790
_cell_length_c 19.044035
_cell_angle_alpha 34.810900
_cell_angle_beta 146.156125
_cell_angle_gamma 153.342704
_cell_volume 759.541849
_symmetry_space_group_name_H-M "P -1"
_symmetry_group_IT_number 2
_symmetry_cell_setting 'triclinic'
loop_
_space_group_symop_operation_xyz
x,y,z
-x,-y,-z
loop_
_atom_site_type_symbol
_atom_site_label
_atom_site_fract_x
_atom_site_fract_y
_atom_site_fract_z
Si Si1 0.778700 0.757357 0.968686
Si Si2 0.426545 0.183487 0.881862
Si Si3 0.944934 0.216915 0.132332
Si Si4 0.199669 0.714968 0.223646
Si Si5 0.931485 0.497617 0.258821
Si Si6 0.788479 0.878777 0.389294
Si Si7 0.497222 0.310364 0.517552
Si Si8 0.933095 0.194665 0.626966
O O1 0.612077 0.545834 0.879914
O O2 0.767473 0.982974 0.906167
O O3 0.775747 0.518863 0.113337
O O4 0.000000 0.000000 0.000000
O O5 0.298834 0.141110 0.741418
O O6 0.278352 0.010511 0.912520
O O7 0.500000 0.000000 0.000000
O O8 0.071546 0.418526 0.206721
O O9 0.983671 0.982564 0.244548
O O10 0.000000 0.500000 0.000000
O O11 0.407441 0.827945 0.330857
O O12 0.080058 0.605498 0.256894
O O13 0.040365 0.708677 0.314483
O O14 0.812224 0.136023 0.342147
O O15 0.637053 0.545669 0.456891
O O16 0.000000 0.000000 0.500000
O O17 0.500000 0.500000 0.500000
O O18 0.286591 0.065117 0.441091
O O19 0.000000 0.500000 0.500000
#
# Coordination Sequence:
#
# PCOD9039841 Si02
#       8
#     2   2   2   2   2   2   2   2
#     4  10  23  42  71 108 146 178 247 315 361 433
#     4  12  25  46  79 113 144 204 253 310 381 457
#     4  12  27  50  75 109 152 198 250 309 382 455
#     4  11  23  46  73 104 145 192 248 309 361 450
#     4  11  23  46  70 105 148 190 243 315 368 438
#     4  12  25  45  77 110 152 193 256 309 374 453
#     4  12  26  45  74 105 148 199 247 303 386 456
#     4  12  30  47  72 109 158 197 245 316 389 452
#
# _framework density 21.065329999999999
#
# number of rings (size 3 to 8) (size 9 to 14) (size 15 to 20)
#    0.000    0.500    5.000    2.250    8.750    0.500 
#    2.250    1.250    0.000    0.000    0.000    0.000 
#    0.000    0.000    0.000    0.000    0.000    0.000 
#
# Total GULP energy -89242.753866 kJ/mol
# GULP energy per Si atom -5577.672117 kJ/mol
# Density = 2.101738 g / cm^3
# Si number density = 21.065330 Si / 1000 Ang^3
#
#
#
# Elastic Constant Matrix: (Units=GPa)
#
#
# Indices 1 2 3 4 5 6 
#
# 1 77.7305 35.3346 45.4297 2.9239 -1.4931 -6.1835
# 2 35.3346 143.3103 37.9551 17.2690 6.2282 -5.1708
# 3 45.4297 37.9551 130.3816 -0.0050 23.7095 2.9864
# 4 2.9239 17.2690 -0.0050 47.9238 -12.6520 1.4456
# 5 -1.4931 6.2282 23.7095 -12.6520 31.0385 5.6124
# 6 -6.1835 -5.1708 2.9864 1.4456 5.6124 47.9000
#
#
#
# Elastic Compliance Matrix: (Units=1/GPa)
#
#
# Indices 1 2 3 4 5 6 
#
# 1 0.018556 -0.003244 -0.006885 0.001916 0.007301 0.001561
# 2 -0.003244 0.008619 -0.000872 -0.003708 -0.002915 0.001020
# 3 -0.006885 -0.000872 0.012181 -0.001932 -0.010159 -0.000494
# 4 0.001916 -0.003708 -0.001932 0.025638 0.013188 -0.002351
# 5 0.007301 -0.002915 -0.010159 0.013188 0.047133 -0.004659
# 6 0.001561 0.001020 -0.000494 -0.002351 -0.004659 0.021836
#
#
# Mechanical properties :
#
#
# Convention : Reuss Voigt Hill
#
# Bulk Modulus (GPa) = 57.62098 65.42902 61.52500
# Shear Modulus (GPa) = 30.91222 40.88597 35.89910
#
# Velocity S-wave (km/s) = 3.83488 4.41036 4.13265
# Velocity P-wave (km/s) = 6.85721 7.55397 7.21401
#
# Compressibility (1/GPa) = 0.01735479
#
# Stress axis : x y z
#
# Youngs Moduli (GPa) = 53.89235 116.02325 82.09379
#
# Poissons Ratio (x) = 0.37634 0.56518
# Poissons Ratio (y) = 0.17481 0.07160
# Poissons Ratio (z) = 0.37103 0.10120
#
# Static dielectric constant tensor:
#      x y z
#    x 1.809360 0.038060 -0.044760 
#    y 0.038060 1.773700 -0.065250 
#    z -0.044760 -0.065250 1.823590 
# 
# From -- ./inp_files/572825.got.cif
#   From: 2010.05.17/outbox.cif.g08.bks.cpg/sg2_287_cif.got.tgz:572825.got - 2010.06.03 11:33:40.
