data_PCOD9039077
_publ_section_title
;
Structure prediction by ZEFSAII (Michael W. Deem and Ramdas Pophale) SiO2 
 PCOD9039077
Probable space group: P -1
;
_chemical_formula_sum "Si O2"
_cell_formula_units_Z 14
_cell_length_a 14.162932
_cell_length_b 8.483816
_cell_length_c 10.305054
_cell_angle_alpha 59.622420
_cell_angle_beta 32.793451
_cell_angle_gamma 73.731507
_cell_volume 550.012191
_symmetry_space_group_name_H-M "P -1"
_symmetry_group_IT_number 2
_symmetry_cell_setting 'triclinic'
loop_
_space_group_symop_operation_xyz
x,y,z
-x,-y,-z
loop_
_atom_site_type_symbol
_atom_site_label
_atom_site_fract_x
_atom_site_fract_y
_atom_site_fract_z
Si Si1 0.058251 0.877216 0.824363
Si Si2 0.168686 0.521718 0.198349
Si Si3 0.067163 0.818990 0.538566
Si Si4 0.662391 0.597956 0.453426
Si Si5 0.624479 0.126463 0.053167
Si Si6 0.628311 0.280510 0.410851
Si Si7 0.709384 0.706504 0.635907
O O1 0.102913 0.837239 0.641263
O O2 0.194000 0.790464 0.786624
O O3 0.114563 0.107600 0.672512
O O4 0.844155 0.774820 0.137379
O O5 0.277700 0.405339 0.202989
O O6 0.000000 0.500000 0.500000
O O7 0.081930 0.389054 0.231575
O O8 0.269653 0.748239 0.000090
O O9 0.242629 0.839059 0.237704
O O10 0.000000 0.000000 0.500000
O O11 0.671523 0.428652 0.418714
O O12 0.468460 0.631590 0.627453
O O13 0.678672 0.575092 0.598019
O O14 0.453359 0.203160 0.196931
O O15 0.537875 0.904900 0.277659
#
# Coordination Sequence:
#
# PCOD9039077 Si02
#       7
#     2   2   2   2   2   2   2
#     4  11  24  45  70 101 136 181 225 284 336 410
#     4  10  23  42  66 104 136 179 220 275 348 405
#     4  11  22  43  70 101 138 175 226 275 346 405
#     4  11  25  47  69  98 138 179 233 281 334 410
#     4  10  24  43  67 100 138 173 225 285 335 406
#     4  10  25  45  67 102 131 185 230 276 349 389
#     4  11  24  44  67 103 137 178 224 278 348 400
#
# _framework density 25.453982
#
# number of rings (size 3 to 8) (size 9 to 14) (size 15 to 20)
#    0.000    1.429    1.429    2.143    6.000    8.000 
#    7.714    0.000    0.000    0.000    0.000    0.000 
#    0.000    0.000    0.000    0.000    0.000    0.000 
#
# Total GULP energy -78424.706212 kJ/mol
# GULP energy per Si atom -5601.764729 kJ/mol
# Density = 2.539605 g / cm^3
# Si number density = 25.453982 Si / 1000 Ang^3
#
#
#
# Elastic Constant Matrix: (Units=GPa)
#
#
# Indices 1 2 3 4 5 6 
#
# 1 119.8664 37.7004 -3.4560 -2.5330 -4.8161 15.3670
# 2 37.7004 77.8033 39.8298 -26.1306 2.9347 33.5992
# 3 -3.4560 39.8298 90.9717 -14.2794 -24.6053 5.6118
# 4 -2.5330 -26.1306 -14.2794 59.4191 7.9709 -10.0620
# 5 -4.8161 2.9347 -24.6053 7.9709 30.2294 2.4065
# 6 15.3670 33.5992 5.6118 -10.0620 2.4065 47.0917
#
#
#
# Elastic Compliance Matrix: (Units=1/GPa)
#
#
# Indices 1 2 3 4 5 6 
#
# 1 0.013102 -0.014465 0.009102 -0.004636 0.011855 0.003364
# 2 -0.014465 0.049801 -0.027050 0.015134 -0.031336 -0.022753
# 3 0.009102 -0.027050 0.029349 -0.006653 0.028928 0.009932
# 4 -0.004636 0.015134 -0.006653 0.023005 -0.013459 -0.002889
# 5 0.011855 -0.031336 0.028928 -0.013459 0.064400 0.008875
# 6 0.003364 -0.022753 0.009932 -0.002889 0.008875 0.034117
#
#
# Mechanical properties :
#
#
# Convention : Reuss Voigt Hill
#
# Bulk Modulus (GPa) = 36.46319 48.53219 42.49769
# Shear Modulus (GPa) = 17.37675 41.65253 29.51464
#
# Velocity S-wave (km/s) = 2.61564 4.04962 3.40888
# Velocity P-wave (km/s) = 4.84544 6.40108 5.67680
#
# Compressibility (1/GPa) = 0.02742492
#
# Stress axis : x y z
#
# Youngs Moduli (GPa) = 76.32554 20.08002 34.07311
#
# Poissons Ratio (x) = 0.29047 -0.31015
# Poissons Ratio (y) = 1.10409 0.92168
# Poissons Ratio (z) = -0.69474 0.54316
#
# Static dielectric constant tensor:
#      x y z
#    x 2.095830 -0.103920 -0.042510 
#    y -0.103920 2.040750 0.008270 
#    z -0.042510 0.008270 2.084860 
# 
# From -- ./inp_files/299168.got.cif
#   From: 2010.05.17/outbox.cif.g08.bks.cpg/sg2_150_cif.got.tgz:299168.got - 2010.06.03 11:33:40.
