data_PCOD9039229
_publ_section_title
;
Structure prediction by ZEFSAII (Michael W. Deem and Ramdas Pophale) SiO2 
 PCOD9039229
Probable space group: P -1
;
_chemical_formula_sum "Si O2"
_cell_formula_units_Z 14
_cell_length_a 5.007520
_cell_length_b 26.730835
_cell_length_c 5.086654
_cell_angle_alpha 131.460218
_cell_angle_beta 87.888310
_cell_angle_gamma 92.657726
_cell_volume 509.692353
_symmetry_space_group_name_H-M "P -1"
_symmetry_group_IT_number 2
_symmetry_cell_setting 'triclinic'
loop_
_space_group_symop_operation_xyz
x,y,z
-x,-y,-z
loop_
_atom_site_type_symbol
_atom_site_label
_atom_site_fract_x
_atom_site_fract_y
_atom_site_fract_z
Si Si1 0.633596 0.374098 0.816426
Si Si2 0.002942 0.347965 0.209059
Si Si3 0.694153 0.742406 0.776896
Si Si4 0.743486 0.954850 0.917737
Si Si5 0.635698 0.148890 0.629187
Si Si6 0.814040 0.512998 0.303025
Si Si7 0.010324 0.866672 0.960823
O O1 0.383773 0.323103 0.617198
O O2 0.805690 0.364258 0.512918
O O3 0.587459 0.454004 0.108664
O O4 0.821946 0.351623 0.970263
O O5 0.143722 0.281093 0.057292
O O6 0.231053 0.408108 0.411857
O O7 0.429566 0.777647 0.012826
O O8 0.854326 0.797943 0.797103
O O9 0.197803 0.856113 0.661966
O O10 0.808792 0.925353 0.100035
O O11 0.500000 0.000000 0.000000
O O12 0.000000 0.000000 0.000000
O O13 0.346956 0.113482 0.465438
O O14 0.796053 0.115324 0.741698
O O15 0.000000 0.500000 0.500000
O O16 0.000000 0.500000 0.000000
#
# Coordination Sequence:
#
# PCOD9039229 Si02
#       7
#     2   2   2   2   2   2   2
#     4  10  23  42  67 102 146 195 258 324 394 467
#     4  10  23  42  67 102 146 195 258 324 394 467
#     4  12  28  45  78 112 156 208 260 322 400 476
#     4  12  28  56  90 124 158 211 270 327 396 476
#     4  12  29  54  80 116 163 208 261 325 395 476
#     4   8  16  37  64  93 137 192 249 323 390 458
#     4  12  29  54  80 116 163 208 261 325 395 476
#
# _framework density 27.467549999999999
#
# number of rings (size 3 to 8) (size 9 to 14) (size 15 to 20)
#    0.000    1.143    1.429    2.571    0.000   14.286 
#    0.000    0.000    0.000   10.286    0.000    3.000 
#    0.000    0.000    0.000    0.000    0.000    0.000 
#
# Total GULP energy -78564.774319 kJ/mol
# GULP energy per Si atom -5611.769594 kJ/mol
# Density = 2.740503 g / cm^3
# Si number density = 27.467550 Si / 1000 Ang^3
#
#
#
# Elastic Constant Matrix: (Units=GPa)
#
#
# Indices 1 2 3 4 5 6 
#
# 1 141.1526 68.5496 41.2342 -8.6364 21.5864 5.0064
# 2 68.5496 192.7852 47.7690 -10.0056 15.7287 8.3619
# 3 41.2342 47.7690 132.2129 -19.4641 14.6794 15.7517
# 4 -8.6364 -10.0056 -19.4641 69.3476 8.7417 5.7388
# 5 21.5864 15.7287 14.6794 8.7417 52.2825 7.1714
# 6 5.0064 8.3619 15.7517 5.7388 7.1714 59.9013
#
#
#
# Elastic Compliance Matrix: (Units=1/GPa)
#
#
# Indices 1 2 3 4 5 6 
#
# 1 0.009287 -0.002669 -0.001564 0.000655 -0.002739 0.000273
# 2 -0.002669 0.006552 -0.001401 0.000305 -0.000486 -0.000294
# 3 -0.001564 -0.001401 0.009397 0.002638 -0.001712 -0.002193
# 4 0.000655 0.000305 0.002638 0.015884 -0.003499 -0.001894
# 5 -0.002739 -0.000486 -0.001712 -0.003499 0.021677 -0.001513
# 6 0.000273 -0.000294 -0.002193 -0.001894 -0.001513 0.017652
#
#
# Mechanical properties :
#
#
# Convention : Reuss Voigt Hill
#
# Bulk Modulus (GPa) = 71.59139 86.80625 79.19882
# Shear Modulus (GPa) = 51.88250 56.87947 54.38098
#
# Velocity S-wave (km/s) = 4.35082 4.55553 4.45435
# Velocity P-wave (km/s) = 7.16660 7.70339 7.43984
#
# Compressibility (1/GPa) = 0.01396816
#
# Stress axis : x y z
#
# Youngs Moduli (GPa) = 107.67832 152.63658 106.41706
#
# Poissons Ratio (x) = 0.40739 0.16643
# Poissons Ratio (y) = 0.28739 0.14905
# Poissons Ratio (z) = 0.16840 0.21379
#
# Static dielectric constant tensor:
#      x y z
#    x 2.156000 0.038680 -0.063060 
#    y 0.038680 2.118300 0.047890 
#    z -0.063060 0.047890 2.194000 
# 
# From -- ./inp_files/12616.got.cif
#   From: 2010.05.17/outbox.cif.g08.bks.cpg/sg2_7_cif.got.tgz:12616.got - 2010.06.03 11:33:40.
