data_PCOD9039193
_publ_section_title
;
Structure prediction by ZEFSAII (Michael W. Deem and Ramdas Pophale) SiO2 
 PCOD9039193
Probable space group: P -1
;
_chemical_formula_sum "Si O2"
_cell_formula_units_Z 14
_cell_length_a 9.193411
_cell_length_b 12.071476
_cell_length_c 7.878237
_cell_angle_alpha 98.868604
_cell_angle_beta 60.336341
_cell_angle_gamma 132.124476
_cell_volume 541.618859
_symmetry_space_group_name_H-M "P -1"
_symmetry_group_IT_number 2
_symmetry_cell_setting 'triclinic'
loop_
_space_group_symop_operation_xyz
x,y,z
-x,-y,-z
loop_
_atom_site_type_symbol
_atom_site_label
_atom_site_fract_x
_atom_site_fract_y
_atom_site_fract_z
Si Si1 0.171171 0.167558 0.748735
Si Si2 0.941185 0.137849 0.178842
Si Si3 0.650916 0.958164 0.864008
Si Si4 0.674782 0.415648 0.384487
Si Si5 0.399627 0.612222 0.960335
Si Si6 0.589530 0.135189 0.353498
Si Si7 0.208786 0.393409 0.327975
O O1 0.399012 0.311184 0.551763
O O2 0.170594 0.034654 0.763110
O O3 0.924005 0.077816 0.779800
O O4 0.164552 0.221289 0.951343
O O5 0.793919 0.157061 0.157954
O O6 0.993946 0.222775 0.343956
O O7 0.526194 0.788790 0.969767
O O8 0.603242 0.919426 0.682502
O O9 0.500000 0.000000 0.000000
O O10 0.733366 0.441421 0.157180
O O11 0.693829 0.296174 0.407697
O O12 0.809207 0.560241 0.466326
O O13 0.584990 0.601281 0.806637
O O14 0.256995 0.508334 0.182020
O O15 0.500000 0.000000 0.500000
#
# Coordination Sequence:
#
# PCOD9039193 Si02
#       7
#     2   2   2   2   2   2   2
#     4  11  22  41  73 103 130 181 234 287 337 412
#     4  11  23  41  70 104 134 184 237 269 350 416
#     4  11  23  41  68  99 137 172 227 289 344 397
#     4  11  25  42  71 102 137 178 235 287 342 405
#     4  10  23  42  67 100 135 181 229 281 339 410
#     4  11  24  42  65 102 143 172 221 297 344 397
#     4  11  23  43  71  96 141 188 224 280 343 416
#
# _framework density 25.848436
#
# number of rings (size 3 to 8) (size 9 to 14) (size 15 to 20)
#    0.000    1.143    4.286    2.143    4.000    4.000 
#    0.000    2.857    3.143    0.000    0.000    0.000 
#    0.000    0.000    0.000    0.000    0.000    0.000 
#
# Total GULP energy -78323.123172 kJ/mol
# GULP energy per Si atom -5594.508798 kJ/mol
# Density = 2.578960 g / cm^3
# Si number density = 25.848436 Si / 1000 Ang^3
#
#
#
# Elastic Constant Matrix: (Units=GPa)
#
#
# Indices 1 2 3 4 5 6 
#
# 1 99.6475 57.6426 20.3301 22.6379 -0.8326 -5.7265
# 2 57.6426 113.7765 18.0178 15.3687 6.2109 -6.7998
# 3 20.3301 18.0178 54.7926 7.9101 3.1077 -3.8315
# 4 22.6379 15.3687 7.9101 44.8927 -1.2745 8.5424
# 5 -0.8326 6.2109 3.1077 -1.2745 30.7636 2.3361
# 6 -5.7265 -6.7998 -3.8315 8.5424 2.3361 44.3295
#
#
#
# Elastic Compliance Matrix: (Units=1/GPa)
#
#
# Indices 1 2 3 4 5 6 
#
# 1 0.015955 -0.006887 -0.002845 -0.005464 0.001753 0.001719
# 2 -0.006887 0.012851 -0.001270 -0.001032 -0.002795 0.001318
# 3 -0.002845 -0.001270 0.020262 -0.002083 -0.002083 0.001700
# 4 -0.005464 -0.001032 -0.002083 0.027012 0.001872 -0.006348
# 5 0.001753 -0.002795 -0.002083 0.001872 0.033597 -0.002514
# 6 0.001719 0.001318 0.001700 -0.006348 -0.002514 0.024485
#
#
# Mechanical properties :
#
#
# Convention : Reuss Voigt Hill
#
# Bulk Modulus (GPa) = 36.95429 51.13307 44.04368
# Shear Modulus (GPa) = 30.26857 35.47889 32.87373
#
# Velocity S-wave (km/s) = 3.42570 3.70885 3.57008
# Velocity P-wave (km/s) = 5.47493 6.17783 5.83697
#
# Compressibility (1/GPa) = 0.02706046
#
# Stress axis : x y z
#
# Youngs Moduli (GPa) = 62.67741 77.81755 49.35372
#
# Poissons Ratio (x) = 0.53597 0.14043
# Poissons Ratio (y) = 0.43169 0.06270
# Poissons Ratio (z) = 0.17834 0.09887
#
# Static dielectric constant tensor:
#      x y z
#    x 2.213250 0.113510 -0.037050 
#    y 0.113510 2.093080 0.014480 
#    z -0.037050 0.014480 2.107910 
# 
# From -- ./inp_files/180114.got.cif
#   From: 2010.05.17/outbox.cif.g08.bks.cpg/sg2_91_cif.got.tgz:180114.got - 2010.06.03 11:33:40.
