data_PCOD9039577
_publ_section_title
;
Structure prediction by ZEFSAII (Michael W. Deem and Ramdas Pophale) SiO2 
 PCOD9039577
Probable space group: P -1
;
_chemical_formula_sum "Si O2"
_cell_formula_units_Z 16
_cell_length_a 12.212652
_cell_length_b 5.188110
_cell_length_c 11.345511
_cell_angle_alpha 87.063976
_cell_angle_beta 61.505002
_cell_angle_gamma 97.932443
_cell_volume 620.045461
_symmetry_space_group_name_H-M "P -1"
_symmetry_group_IT_number 2
_symmetry_cell_setting 'triclinic'
loop_
_space_group_symop_operation_xyz
x,y,z
-x,-y,-z
loop_
_atom_site_type_symbol
_atom_site_label
_atom_site_fract_x
_atom_site_fract_y
_atom_site_fract_z
Si Si1 0.670183 0.898160 0.115465
Si Si2 0.022404 0.046702 0.347979
Si Si3 0.126848 0.499250 0.598220
Si Si4 0.332455 0.521684 0.676787
Si Si5 0.687303 0.384222 0.684619
Si Si6 0.135137 0.657451 0.961451
Si Si7 0.259391 0.401459 0.113759
Si Si8 0.535833 0.842488 0.692484
O O1 0.642856 0.724736 0.252431
O O2 0.578761 0.110413 0.163682
O O3 0.646693 0.727754 0.013517
O O4 0.819148 0.033831 0.041450
O O5 0.932288 0.247566 0.347257
O O6 0.165789 0.173784 0.238514
O O7 0.973297 0.764156 0.321528
O O8 0.000000 0.000000 0.500000
O O9 0.259205 0.468676 0.593759
O O10 0.169923 0.530998 0.438975
O O11 0.461228 0.737627 0.612854
O O12 0.225173 0.624194 0.806115
O O13 0.688111 0.373044 0.825332
O O14 0.607681 0.612998 0.697868
O O15 0.630506 0.118074 0.650633
O O16 0.177323 0.519097 0.057373
O O17 0.000000 0.500000 0.000000
#
# Coordination Sequence:
#
# PCOD9039577 Si02
#       8
#     2   2   2   2   2   2   2   2
#     4  10  24  47  70 106 147 184 241 299 354 427
#     4  12  27  48  73 107 152 186 232 295 362 431
#     4  12  28  46  76 107 145 192 239 299 356 430
#     4  10  24  46  69 106 143 190 241 295 359 417
#     4  12  27  46  74 105 140 194 245 290 363 418
#     4  10  23  42  69 105 144 188 237 291 359 428
#     4  11  27  42  73 109 143 190 237 291 360 439
#     4  11  25  49  71 103 147 187 243 302 350 421
#
# _framework density 25.804561
#
# number of rings (size 3 to 8) (size 9 to 14) (size 15 to 20)
#    0.000    1.000    2.500    1.875   10.500    3.000 
#    0.000    0.000    0.000    0.000    0.000    0.000 
#    0.000    0.000    0.000    0.000    0.000    0.000 
#
# Total GULP energy -89529.227364 kJ/mol
# GULP energy per Si atom -5595.576710 kJ/mol
# Density = 2.574583 g / cm^3
# Si number density = 25.804561 Si / 1000 Ang^3
#
#
#
# Elastic Constant Matrix: (Units=GPa)
#
#
# Indices 1 2 3 4 5 6 
#
# 1 69.5376 28.0930 4.5180 -2.6815 -6.3540 -3.9014
# 2 28.0930 148.7295 8.4051 -19.4502 0.3766 4.2629
# 3 4.5180 8.4051 69.1501 -5.0018 8.4750 -4.1796
# 4 -2.6815 -19.4502 -5.0018 36.9685 5.7713 -11.8351
# 5 -6.3540 0.3766 8.4750 5.7713 30.5476 -0.7047
# 6 -3.9014 4.2629 -4.1796 -11.8351 -0.7047 45.2270
#
#
#
# Elastic Compliance Matrix: (Units=1/GPa)
#
#
# Indices 1 2 3 4 5 6 
#
# 1 0.016126 -0.003135 -0.001117 -0.000776 0.003883 0.001441
# 2 -0.003135 0.007872 -0.000277 0.004107 -0.001448 0.000014
# 3 -0.001117 -0.000277 0.015573 0.003378 -0.005138 0.002173
# 4 -0.000776 0.004107 0.003378 0.033470 -0.007277 0.008503
# 5 0.003883 -0.001448 -0.005138 -0.007277 0.036330 -0.001341
# 6 0.001441 0.000014 0.002173 0.008503 -0.001341 0.024639
#
#
# Mechanical properties :
#
#
# Convention : Reuss Voigt Hill
#
# Bulk Modulus (GPa) = 32.77374 41.04994 36.91184
# Shear Modulus (GPa) = 32.62869 38.97537 35.80203
#
# Velocity S-wave (km/s) = 3.55977 3.89061 3.72886
# Velocity P-wave (km/s) = 5.44282 6.01041 5.73364
#
# Compressibility (1/GPa) = 0.03051223
#
# Stress axis : x y z
#
# Youngs Moduli (GPa) = 62.01291 127.03435 64.21264
#
# Poissons Ratio (x) = 0.39830 0.07175
# Poissons Ratio (y) = 0.19443 0.01775
# Poissons Ratio (z) = 0.06929 0.03513
#
# Static dielectric constant tensor:
#      x y z
#    x 2.065230 0.074020 0.016850 
#    y 0.074020 2.134200 0.011200 
#    z 0.016850 0.011200 2.055660 
# 
# From -- ./inp_files/410491.got.cif
#   From: 2010.05.17/outbox.cif.g08.bks.cpg/sg2_206_cif.got.tgz:410491.got - 2010.06.03 11:33:40.
