data_PCOD9039787
_publ_section_title
;
Structure prediction by ZEFSAII (Michael W. Deem and Ramdas Pophale) SiO2 
 PCOD9039787
Probable space group: P -1
;
_chemical_formula_sum "Si O2"
_cell_formula_units_Z 14
_cell_length_a 11.176017
_cell_length_b 8.953949
_cell_length_c 8.361189
_cell_angle_alpha 76.621847
_cell_angle_beta 120.963639
_cell_angle_gamma 130.077639
_cell_volume 542.588394
_symmetry_space_group_name_H-M "P -1"
_symmetry_group_IT_number 2
_symmetry_cell_setting 'triclinic'
loop_
_space_group_symop_operation_xyz
x,y,z
-x,-y,-z
loop_
_atom_site_type_symbol
_atom_site_label
_atom_site_fract_x
_atom_site_fract_y
_atom_site_fract_z
Si Si1 0.091637 0.726442 0.475181
Si Si2 0.265875 0.797501 0.043751
Si Si3 0.395371 0.768869 0.803031
Si Si4 0.969841 0.779413 0.709919
Si Si5 0.533044 0.591617 0.771784
Si Si6 0.083527 0.146941 0.872503
Si Si7 0.410080 0.621230 0.370894
O O1 0.299904 0.823652 0.603742
O O2 0.000000 0.500000 0.500000
O O3 0.037197 0.783391 0.580206
O O4 0.015731 0.763835 0.262259
O O5 0.324809 0.723472 0.240991
O O6 0.400805 0.035363 0.082795
O O7 0.302242 0.731607 0.918973
O O8 0.069182 0.731378 0.913246
O O9 0.391808 0.593739 0.776584
O O10 0.760341 0.600844 0.635585
O O11 0.039145 0.996961 0.738846
O O12 0.545190 0.708053 0.591743
O O13 0.504212 0.404108 0.718934
O O14 0.709929 0.697392 0.973387
O O15 0.000000 0.000000 0.000000
#
# Coordination Sequence:
#
# PCOD9039787 Si02
#       7
#     2   2   2   2   2   2   2
#     4  11  27  47  73 106 142 185 234 289 354 414
#     4  10  23  42  71 101 139 182 237 288 350 412
#     4  10  23  45  67 101 138 184 232 288 351 421
#     4  11  23  47  70 104 138 185 234 286 350 419
#     4  11  25  45  63 104 136 182 232 288 350 409
#     4  12  26  46  74 104 142 186 238 284 350 422
#     4  11  25  43  68 102 145 182 234 293 348 411
#
# _framework density 25.802247000000001
#
# number of rings (size 3 to 8) (size 9 to 14) (size 15 to 20)
#    0.000    1.143    2.857    1.714    6.000    3.429 
#    5.143    0.000    0.000    0.000    0.000    0.000 
#    0.000    0.000    0.000    0.000    0.000    0.000 
#
# Total GULP energy -78361.872848 kJ/mol
# GULP energy per Si atom -5597.276632 kJ/mol
# Density = 2.574352 g / cm^3
# Si number density = 25.802247 Si / 1000 Ang^3
#
#
#
# Elastic Constant Matrix: (Units=GPa)
#
#
# Indices 1 2 3 4 5 6 
#
# 1 91.4629 17.6929 40.1523 1.7626 7.3262 -18.2857
# 2 17.6929 60.4830 50.6232 -12.1885 1.3333 -16.5979
# 3 40.1523 50.6232 164.7128 -33.5939 22.1777 -11.0562
# 4 1.7626 -12.1885 -33.5939 52.1786 -16.6405 6.6626
# 5 7.3262 1.3333 22.1777 -16.6405 48.9245 7.9575
# 6 -18.2857 -16.5979 -11.0562 6.6626 7.9575 27.0350
#
#
#
# Elastic Compliance Matrix: (Units=1/GPa)
#
#
# Indices 1 2 3 4 5 6 
#
# 1 0.015300 0.000953 -0.003763 -0.005710 -0.004527 0.012134
# 2 0.000953 0.026180 -0.007464 -0.000428 0.000150 0.013726
# 3 -0.003763 -0.007464 0.010261 0.004948 -0.001603 -0.003679
# 4 -0.005710 -0.000428 0.004948 0.027022 0.009704 -0.011616
# 5 -0.004527 0.000150 -0.001603 0.009704 0.027432 -0.014091
# 6 0.012134 0.013726 -0.003679 -0.011616 -0.014091 0.059129
#
#
# Mechanical properties :
#
#
# Convention : Reuss Voigt Hill
#
# Bulk Modulus (GPa) = 32.06061 59.28836 45.67448
# Shear Modulus (GPa) = 25.47529 39.50697 32.49113
#
# Velocity S-wave (km/s) = 3.14559 3.91723 3.55242
# Velocity P-wave (km/s) = 5.06413 6.59450 5.87932
#
# Compressibility (1/GPa) = 0.03119092
#
# Stress axis : x y z
#
# Youngs Moduli (GPa) = 65.36139 38.19764 97.45938
#
# Poissons Ratio (x) = -0.03640 0.36675
# Poissons Ratio (y) = -0.06229 0.72748
# Poissons Ratio (z) = 0.24596 0.28512
#
# Static dielectric constant tensor:
#      x y z
#    x 2.039160 0.096170 0.030550 
#    y 0.096170 1.893250 -0.034620 
#    z 0.030550 -0.034620 2.062470 
# 
# From -- ./inp_files/224078.got.cif
#   From: 2010.05.17/outbox.cif.g08.bks.cpg/sg2_113_cif.got.tgz:224078.got - 2010.06.03 11:33:40.
