data_PCOD9039288
_publ_section_title
;
Structure prediction by ZEFSAII (Michael W. Deem and Ramdas Pophale) SiO2 
 PCOD9039288
Probable space group: P -1
;
_chemical_formula_sum "Si O2"
_cell_formula_units_Z 16
_cell_length_a 9.518747
_cell_length_b 19.084966
_cell_length_c 6.666382
_cell_angle_alpha 128.562971
_cell_angle_beta 64.570154
_cell_angle_gamma 125.949808
_cell_volume 762.724081
_symmetry_space_group_name_H-M "P -1"
_symmetry_group_IT_number 2
_symmetry_cell_setting 'triclinic'
loop_
_space_group_symop_operation_xyz
x,y,z
-x,-y,-z
loop_
_atom_site_type_symbol
_atom_site_label
_atom_site_fract_x
_atom_site_fract_y
_atom_site_fract_z
Si Si1 0.358971 0.773926 0.332189
Si Si2 0.525454 0.310940 0.514255
Si Si3 0.958527 0.811615 0.930641
Si Si4 0.831430 0.493119 0.473718
Si Si5 0.754122 0.642662 0.056678
Si Si6 0.326626 0.148849 0.030251
Si Si7 0.662874 0.043342 0.128241
Si Si8 0.967192 0.645223 0.321246
O O1 0.392853 0.733697 0.451276
O O2 0.354915 0.878711 0.568287
O O3 0.170926 0.692067 0.224734
O O4 0.516733 0.797024 0.127078
O O5 0.675462 0.382663 0.399521
O O6 0.434931 0.369249 0.790983
O O7 0.375564 0.222473 0.322732
O O8 0.848605 0.861985 0.985474
O O9 0.157209 0.891985 0.985508
O O10 0.958463 0.727875 0.626003
O O11 0.862307 0.751282 0.080062
O O12 0.000000 0.500000 0.500000
O O13 0.893859 0.541323 0.303533
O O14 0.759986 0.563170 0.754626
O O15 0.851310 0.634587 0.181087
O O16 0.322009 0.045816 0.922702
O O17 0.500000 0.000000 0.000000
#
# Coordination Sequence:
#
# PCOD9039288 Si02
#       8
#     2   2   2   2   2   2   2   2
#     4  11  24  42  67  96 134 170 217 266 323 383
#     4  12  24  44  65  97 133 172 219 267 319 384
#     4  10  23  44  65  95 131 167 215 266 318 389
#     4  11  25  42  66  99 134 166 219 271 317 387
#     4  11  24  44  68  94 132 172 216 265 327 379
#     4  12  24  43  68  93 132 176 215 266 325 381
#     4  11  24  43  67  99 131 167 215 272 322 383
#     4  10  23  42  67  95 128 173 213 264 324 381
#
# _framework density 20.977440999999999
#
# number of rings (size 3 to 8) (size 9 to 14) (size 15 to 20)
#    0.000    1.000    5.000    1.125    3.500    2.000 
#    0.000    1.250    0.000    0.000    0.000    0.000 
#    0.000    0.000    0.000    0.000    0.000    0.000 
#
# Total GULP energy -89519.911831 kJ/mol
# GULP energy per Si atom -5594.994489 kJ/mol
# Density = 2.092970 g / cm^3
# Si number density = 20.977441 Si / 1000 Ang^3
#
#
#
# Elastic Constant Matrix: (Units=GPa)
#
#
# Indices 1 2 3 4 5 6 
#
# 1 86.6383 33.2929 -4.3506 -0.2400 -8.7909 -8.8616
# 2 33.2929 107.1312 14.5926 -5.8854 4.3034 -7.5955
# 3 -4.3506 14.5926 42.8737 1.9407 -17.6298 -1.2025
# 4 -0.2400 -5.8854 1.9407 27.6624 -1.2938 -3.8564
# 5 -8.7909 4.3034 -17.6298 -1.2938 32.0464 -9.4472
# 6 -8.8616 -7.5955 -1.2025 -3.8564 -9.4472 40.4572
#
#
#
# Elastic Compliance Matrix: (Units=1/GPa)
#
#
# Indices 1 2 3 4 5 6 
#
# 1 0.016125 -0.006324 0.008734 -0.000542 0.011607 0.005263
# 2 -0.006324 0.012898 -0.008623 0.002776 -0.008367 -0.000909
# 3 0.008734 -0.008623 0.038498 -0.002157 0.026858 0.007504
# 4 -0.000542 0.002776 -0.002157 0.037515 0.001031 0.004155
# 5 0.011607 -0.008367 0.026858 0.001031 0.054641 0.014627
# 6 0.005263 -0.000909 0.007504 0.004155 0.014627 0.029734
#
#
# Mechanical properties :
#
#
# Convention : Reuss Voigt Hill
#
# Bulk Modulus (GPa) = 18.15058 35.96811 27.05934
# Shear Modulus (GPa) = 22.70621 32.90709 27.80665
#
# Velocity S-wave (km/s) = 3.29357 3.96497 3.64476
# Velocity P-wave (km/s) = 4.80985 6.17613 5.53531
#
# Compressibility (1/GPa) = 0.05509467
#
# Stress axis : x y z
#
# Youngs Moduli (GPa) = 62.01399 77.52952 25.97551
#
# Poissons Ratio (x) = 0.49027 -0.22686
# Poissons Ratio (y) = 0.39216 0.22400
# Poissons Ratio (z) = -0.54161 0.66856
#
# Static dielectric constant tensor:
#      x y z
#    x 1.705250 0.005890 -0.023790 
#    y 0.005890 1.739280 0.014510 
#    z -0.023790 0.014510 1.755460 
# 
# From -- ./inp_files/37232.got.cif
#   From: 2010.05.17/outbox.cif.g08.bks.cpg/sg2_19_cif.got.tgz:37232.got - 2010.06.03 11:33:40.
