data_PCOD9039412
_publ_section_title
;
Structure prediction by ZEFSAII (Michael W. Deem and Ramdas Pophale) SiO2 
 PCOD9039412
Probable space group: P -1
;
_chemical_formula_sum "Si O2"
_cell_formula_units_Z 14
_cell_length_a 9.867507
_cell_length_b 13.832750
_cell_length_c 7.516358
_cell_angle_alpha 143.079535
_cell_angle_beta 70.856975
_cell_angle_gamma 124.155870
_cell_volume 494.666403
_symmetry_space_group_name_H-M "P -1"
_symmetry_group_IT_number 2
_symmetry_cell_setting 'triclinic'
loop_
_space_group_symop_operation_xyz
x,y,z
-x,-y,-z
loop_
_atom_site_type_symbol
_atom_site_label
_atom_site_fract_x
_atom_site_fract_y
_atom_site_fract_z
Si Si1 0.946441 0.722229 0.709362
Si Si2 0.165050 0.928274 0.237778
Si Si3 0.806251 0.967392 0.223877
Si Si4 0.298524 0.691529 0.771284
Si Si5 0.343200 0.647363 0.288933
Si Si6 0.673849 0.668960 0.318412
Si Si7 0.500000 0.500000 0.500000
Si Si8 0.500000 0.000000 0.500000
O O1 0.071408 0.866080 0.718729
O O2 0.863775 0.503636 0.377542
O O3 0.035741 0.762912 0.921965
O O4 0.801910 0.775781 0.884789
O O5 0.126259 0.971034 0.512198
O O6 0.211111 0.110072 0.366541
O O7 0.314170 0.879648 0.126048
O O8 0.621222 0.927474 0.262407
O O9 0.290475 0.700985 0.573763
O O10 0.445633 0.650509 0.673229
O O11 0.527570 0.674252 0.279291
O O12 0.363899 0.787050 0.332158
O O13 0.238259 0.423468 0.963879
O O14 0.603129 0.537678 0.325150
#
# Coordination Sequence:
#
# PCOD9039412 Si02
#       8
#     2   2   2   2   2   2   1   1
#     4  11  27  51  74 107 158 206 247 311 386 460
#     4  12  25  48  74 108 147 201 260 311 368 465
#     4  11  27  46  77 112 148 203 253 316 384 450
#     4  11  26  47  72 112 151 199 251 316 384 449
#     4  10  23  44  72 104 154 192 242 317 382 444
#     4  10  23  42  68 105 146 198 248 305 384 444
#     4  10  26  40  72 110 150 192 250 318 374 458
#     4  12  24  44  78 116 146 188 262 316 370 446
#
# _framework density 28.3019
#
# number of rings (size 3 to 8) (size 9 to 14) (size 15 to 20)
#    0.000    1.143    1.429    2.571   10.000    4.000 
#    2.571    0.000    0.000    0.000    0.000    0.000 
#    0.000    0.000    0.000    0.000    0.000    0.000 
#
# Total GULP energy -78088.355951 kJ/mol
# GULP energy per Si atom -5577.739711 kJ/mol
# Density = 2.823748 g / cm^3
# Si number density = 28.301900 Si / 1000 Ang^3
#
#
#
# Elastic Constant Matrix: (Units=GPa)
#
#
# Indices 1 2 3 4 5 6 
#
# 1 78.4651 11.8929 9.3401 -6.7165 -26.3539 -9.8998
# 2 11.8929 179.5937 58.2635 -7.2067 -26.5100 -15.4060
# 3 9.3401 58.2635 189.0267 9.1545 -29.5529 -1.6723
# 4 -6.7165 -7.2067 9.1545 47.5223 -1.2018 -6.2894
# 5 -26.3539 -26.5100 -29.5529 -1.2018 50.8933 -7.4133
# 6 -9.8998 -15.4060 -1.6723 -6.2894 -7.4133 47.1530
#
#
#
# Elastic Compliance Matrix: (Units=1/GPa)
#
#
# Indices 1 2 3 4 5 6 
#
# 1 0.017184 0.000964 0.000391 0.003572 0.010598 0.006079
# 2 0.000964 0.006955 -0.001688 0.002041 0.003665 0.003263
# 3 0.000391 -0.001688 0.006320 -0.001338 0.002968 0.000043
# 4 0.003572 0.002041 -0.001338 0.022856 0.003397 0.004952
# 5 0.010598 0.003665 0.002968 0.003397 0.030119 0.008716
# 6 0.006079 0.003263 0.000043 0.004952 0.008716 0.025583
#
#
# Mechanical properties :
#
#
# Convention : Reuss Voigt Hill
#
# Bulk Modulus (GPa) = 33.56370 67.34207 50.45288
# Shear Modulus (GPa) = 41.80118 53.61965 47.71041
#
# Velocity S-wave (km/s) = 3.84731 4.35738 4.11026
# Velocity P-wave (km/s) = 5.62322 7.01153 6.35540
#
# Compressibility (1/GPa) = 0.02979410
#
# Stress axis : x y z
#
# Youngs Moduli (GPa) = 58.19363 143.78503 158.21557
#
# Poissons Ratio (x) = -0.13865 -0.06192
# Poissons Ratio (y) = -0.05611 0.26711
# Poissons Ratio (z) = -0.02277 0.24275
#
# Static dielectric constant tensor:
#      x y z
#    x 1.626770 -0.061360 -0.126910 
#    y -0.061360 2.520130 0.102510 
#    z -0.126910 0.102510 2.187920 
# 
# From -- ./inp_files/274807.got.cif
#   From: 2010.05.17/outbox.cif.g08.bks.cpg/sg2_138_cif.got.tgz:274807.got - 2010.06.03 11:33:40.
