data_PCOD9039373
_publ_section_title
;
Structure prediction by ZEFSAII (Michael W. Deem and Ramdas Pophale) SiO2 
 PCOD9039373
Probable space group: P -1
;
_chemical_formula_sum "Si O2"
_cell_formula_units_Z 10
_cell_length_a 11.211428
_cell_length_b 6.134439
_cell_length_c 19.410014
_cell_angle_alpha 52.872132
_cell_angle_beta 154.131352
_cell_angle_gamma 131.049087
_cell_volume 438.923651
_symmetry_space_group_name_H-M "P -1"
_symmetry_group_IT_number 2
_symmetry_cell_setting 'triclinic'
loop_
_space_group_symop_operation_xyz
x,y,z
-x,-y,-z
loop_
_atom_site_type_symbol
_atom_site_label
_atom_site_fract_x
_atom_site_fract_y
_atom_site_fract_z
Si Si1 0.586057 0.327774 0.138262
Si Si2 0.113071 0.097330 0.616812
Si Si3 0.095948 0.773172 0.386737
Si Si4 0.274322 0.712145 0.140846
Si Si5 0.601367 0.596497 0.611778
O O1 0.774765 0.561857 0.245237
O O2 0.811380 0.170398 0.258512
O O3 0.335246 0.055350 0.093209
O O4 0.500000 0.500000 0.000000
O O5 0.432948 0.324248 0.732411
O O6 0.890758 0.181403 0.532910
O O7 0.000000 0.000000 0.500000
O O8 0.329470 0.646255 0.500106
O O9 0.159231 0.086861 0.325835
O O10 0.287008 0.623847 0.243912
O O11 0.000000 0.500000 0.000000
O O12 0.500000 0.500000 0.500000
#
# Coordination Sequence:
#
# PCOD9039373 Si02
#       5
#     2   2   2   2   2
#     4  10  23  42  68 101 138 184 239 285 358 421
#     4  10  23  44  74 102 138 184 245 290 350 426
#     4  11  23  43  73  99 140 190 235 290 357 421
#     4  10  23  45  70 101 145 183 238 301 354 417
#     4  11  24  44  70 106 144 183 242 296 355 427
#
# _framework density 22.783004999999999
#
# number of rings (size 3 to 8) (size 9 to 14) (size 15 to 20)
#    1.200    0.400    0.000    4.800    0.000    4.000 
#    7.200    1.000    0.000    0.000    0.000    0.000 
#    0.000    0.000    0.000    0.000    0.000    0.000 
#
# Total GULP energy -55779.105470 kJ/mol
# GULP energy per Si atom -5577.910547 kJ/mol
# Density = 2.273115 g / cm^3
# Si number density = 22.783005 Si / 1000 Ang^3
#
#
#
# Elastic Constant Matrix: (Units=GPa)
#
#
# Indices 1 2 3 4 5 6 
#
# 1 132.6580 38.2119 64.0166 6.6045 -20.6972 -9.6021
# 2 38.2119 179.1806 86.9209 3.4475 -20.3874 46.4359
# 3 64.0166 86.9209 136.6487 4.7248 -29.7460 14.5249
# 4 6.6045 3.4475 4.7248 61.9435 14.1126 1.0190
# 5 -20.6972 -20.3874 -29.7460 14.1126 34.8622 -0.4356
# 6 -9.6021 46.4359 14.5249 1.0190 -0.4356 39.9424
#
#
#
# Elastic Compliance Matrix: (Units=1/GPa)
#
#
# Indices 1 2 3 4 5 6 
#
# 1 0.010900 -0.001534 -0.004119 -0.001484 0.002736 0.005969
# 2 -0.001534 0.011687 -0.005089 -0.000249 0.001531 -0.012082
# 3 -0.004119 -0.005089 0.014210 -0.002078 0.007543 -0.000106
# 4 -0.001484 -0.000249 -0.002078 0.018849 -0.010429 0.000094
# 5 0.002736 0.001531 0.007543 -0.010429 0.041823 -0.003144
# 6 0.005969 -0.012082 -0.000106 0.000094 -0.003144 0.040519
#
#
# Mechanical properties :
#
#
# Convention : Reuss Voigt Hill
#
# Bulk Modulus (GPa) = 65.30005 91.86514 78.58259
# Shear Modulus (GPa) = 30.38134 44.63884 37.51009
#
# Velocity S-wave (km/s) = 3.65569 4.43120 4.06200
# Velocity P-wave (km/s) = 6.82222 8.16027 7.52106
#
# Compressibility (1/GPa) = 0.01531392
#
# Stress axis : x y z
#
# Youngs Moduli (GPa) = 91.74178 85.56519 70.37409
#
# Poissons Ratio (x) = 0.13123 0.28984
# Poissons Ratio (y) = 0.14070 0.35815
# Poissons Ratio (z) = 0.37784 0.43547
#
# Static dielectric constant tensor:
#      x y z
#    x 1.879100 0.014170 0.010930 
#    y 0.014170 1.949370 -0.020770 
#    z 0.010930 -0.020770 1.841760 
# 
# From -- ./inp_files/486421.got.cif
#   From: 2010.05.17/outbox.cif.g08.bks.cpg/sg2_244_cif.got.tgz:486421.got - 2010.06.03 11:33:40.
