data_PCOD9039493
_publ_section_title
;
Structure prediction by ZEFSAII (Michael W. Deem and Ramdas Pophale) SiO2 
 PCOD9039493
Probable space group: P -1
;
_chemical_formula_sum "Si O2"
_cell_formula_units_Z 11
_cell_length_a 8.282507
_cell_length_b 11.433786
_cell_length_c 11.973298
_cell_angle_alpha 135.699475
_cell_angle_beta 37.537043
_cell_angle_gamma 141.093932
_cell_volume 419.221298
_symmetry_space_group_name_H-M "P -1"
_symmetry_group_IT_number 2
_symmetry_cell_setting 'triclinic'
loop_
_space_group_symop_operation_xyz
x,y,z
-x,-y,-z
loop_
_atom_site_type_symbol
_atom_site_label
_atom_site_fract_x
_atom_site_fract_y
_atom_site_fract_z
Si Si1 0.366791 0.858442 0.371109
Si Si2 0.142627 0.333770 0.329174
Si Si3 0.000000 0.000000 0.500000
Si Si4 0.199901 0.292641 0.026148
Si Si5 0.146928 0.364926 0.857425
Si Si6 0.258708 0.051063 0.210603
O O1 0.639046 0.838248 0.153648
O O2 0.102963 0.667444 0.450686
O O3 0.202053 0.923566 0.417459
O O4 0.500000 0.000000 0.500000
O O5 0.488569 0.512329 0.268303
O O6 0.177625 0.153765 0.230498
O O7 0.037701 0.282838 0.224012
O O8 0.322630 0.164100 0.366630
O O9 0.055457 0.287430 0.981752
O O10 0.500000 0.500000 0.000000
O O11 0.008515 0.155536 0.727184
O O12 0.000000 0.500000 0.000000
O O13 0.500000 0.000000 0.000000
#
# Coordination Sequence:
#
# PCOD9039493 Si02
#       6
#     2   2   1   2   2   2
#     4  11  24  45  69 103 141 177 235 287 341 418
#     4  10  23  44  67  99 135 180 225 286 350 401
#     4  10  24  40  70 102 132 180 228 280 344 408
#     4  10  23  42  68  98 138 179 224 287 346 408
#     4  11  23  41  67 101 134 178 231 278 339 415
#     4  11  21  40  67  93 135 172 224 282 331 406
#
# _framework density 26.239124
#
# number of rings (size 3 to 8) (size 9 to 14) (size 15 to 20)
#    0.000    1.455    1.818    3.273    2.545    7.273 
#    0.000    7.273    0.000    0.000    0.000    0.000 
#    0.000    0.000    0.000    0.000    0.000    0.000 
#
# Total GULP energy -61296.808109 kJ/mol
# GULP energy per Si atom -5572.437101 kJ/mol
# Density = 2.617940 g / cm^3
# Si number density = 26.239124 Si / 1000 Ang^3
#
#
#
# Elastic Constant Matrix: (Units=GPa)
#
#
# Indices 1 2 3 4 5 6 
#
# 1 189.5401 39.1652 73.0564 1.7720 24.4722 -31.7471
# 2 39.1652 123.0171 18.9204 4.9539 -3.2835 5.0765
# 3 73.0564 18.9204 116.1863 -2.2150 -8.0202 -35.3536
# 4 1.7720 4.9539 -2.2150 47.1824 -10.3916 -6.1413
# 5 24.4722 -3.2835 -8.0202 -10.3916 51.2170 -3.0761
# 6 -31.7471 5.0765 -35.3536 -6.1413 -3.0761 52.0737
#
#
#
# Elastic Compliance Matrix: (Units=1/GPa)
#
#
# Indices 1 2 3 4 5 6 
#
# 1 0.008562 -0.002124 -0.004920 -0.001252 -0.005153 0.001635
# 2 -0.002124 0.009150 -0.000993 -0.001077 0.001052 -0.002926
# 3 -0.004920 -0.000993 0.014689 0.003251 0.005715 0.007791
# 4 -0.001252 -0.001077 0.003251 0.023454 0.006078 0.004674
# 5 -0.005153 0.001052 0.005715 0.006078 0.024350 0.002791
# 6 0.001635 -0.002926 0.007791 0.004674 0.002791 0.026491
#
#
# Mechanical properties :
#
#
# Convention : Reuss Voigt Hill
#
# Bulk Modulus (GPa) = 61.24386 76.78084 69.01235
# Shear Modulus (GPa) = 38.99771 49.93472 44.46621
#
# Velocity S-wave (km/s) = 3.85936 4.36714 4.12108
# Velocity P-wave (km/s) = 6.57654 7.39965 7.00020
#
# Compressibility (1/GPa) = 0.01632817
#
# Stress axis : x y z
#
# Youngs Moduli (GPa) = 116.79472 109.29013 68.07615
#
# Poissons Ratio (x) = 0.23211 0.33494
# Poissons Ratio (y) = 0.24805 0.06758
# Poissons Ratio (z) = 0.57464 0.10850
#
# Static dielectric constant tensor:
#      x y z
#    x 1.831840 0.154530 -0.016670 
#    y 0.154530 2.238170 0.095330 
#    z -0.016670 0.095330 2.361330 
# 
# From -- ./inp_files/231518.got.cif
#   From: 2010.05.17/outbox.cif.g08.bks.cpg/sg2_116_cif.got.tgz:231518.got - 2010.06.03 11:33:40.
