data_PCOD9039683
_publ_section_title
;
Structure prediction by ZEFSAII (Michael W. Deem and Ramdas Pophale) SiO2 
 PCOD9039683
Probable space group: P -1
;
_chemical_formula_sum "Si O2"
_cell_formula_units_Z 14
_cell_length_a 8.275726
_cell_length_b 8.663209
_cell_length_c 9.596517
_cell_angle_alpha 93.195574
_cell_angle_beta 96.642675
_cell_angle_gamma 58.216715
_cell_volume 580.908423
_symmetry_space_group_name_H-M "P -1"
_symmetry_group_IT_number 2
_symmetry_cell_setting 'triclinic'
loop_
_space_group_symop_operation_xyz
x,y,z
-x,-y,-z
loop_
_atom_site_type_symbol
_atom_site_label
_atom_site_fract_x
_atom_site_fract_y
_atom_site_fract_z
Si Si1 0.008451 0.919706 0.347261
Si Si2 0.020966 0.851673 0.887959
Si Si3 0.367415 0.147046 0.111338
Si Si4 0.724764 0.553852 0.101278
Si Si5 0.557432 0.684407 0.632849
Si Si6 0.547061 0.343968 0.678259
Si Si7 0.001686 0.424795 0.649347
O O1 0.226380 0.786456 0.312554
O O2 0.927746 0.787007 0.344729
O O3 0.922893 0.089952 0.245300
O O4 0.000000 0.000000 0.500000
O O5 0.816469 0.863973 0.862845
O O6 0.191526 0.653764 0.939718
O O7 0.000000 0.000000 0.000000
O O8 0.483860 0.154276 0.257619
O O9 0.288015 0.334281 0.028688
O O10 0.500000 0.000000 0.000000
O O11 0.532015 0.656311 0.177871
O O12 0.876504 0.539923 0.228212
O O13 0.472366 0.557106 0.653260
O O14 0.523402 0.721923 0.465664
O O15 0.781051 0.545120 0.672343
O O16 0.000000 0.500000 0.500000
#
# Coordination Sequence:
#
# PCOD9039683 Si02
#       7
#     2   2   2   2   2   2   2
#     4  11  26  44  70 107 142 183 234 295 354 424
#     4  12  28  46  69 104 144 186 240 292 358 427
#     4  12  28  47  70 105 146 188 240 294 357 428
#     4  12  25  46  75 102 138 194 239 296 357 421
#     4  10  23  42  70 100 142 180 236 291 357 419
#     4  10  24  43  72 103 138 184 238 294 358 416
#     4  11  21  43  73 104 136 182 235 292 354 420
#
# _framework density 24.100183000000001
#
# number of rings (size 3 to 8) (size 9 to 14) (size 15 to 20)
#    0.000    0.857    2.857    3.000   10.000    1.714 
#    0.000    2.143    0.000    0.000    0.000    0.000 
#    0.000    0.000    0.000    0.000    0.000    0.000 
#
# Total GULP energy -78357.508177 kJ/mol
# GULP energy per Si atom -5596.964870 kJ/mol
# Density = 2.404533 g / cm^3
# Si number density = 24.100183 Si / 1000 Ang^3
#
#
#
# Elastic Constant Matrix: (Units=GPa)
#
#
# Indices 1 2 3 4 5 6 
#
# 1 69.4537 24.1353 33.2816 7.3503 -2.8584 8.0649
# 2 24.1353 133.5325 43.1884 2.9167 -6.3596 11.1476
# 3 33.2816 43.1884 133.9490 9.4428 -4.8734 29.4740
# 4 7.3503 2.9167 9.4428 48.8323 11.2228 -0.6419
# 5 -2.8584 -6.3596 -4.8734 11.2228 36.7905 -1.6115
# 6 8.0649 11.1476 29.4740 -0.6419 -1.6115 35.2026
#
#
#
# Elastic Compliance Matrix: (Units=1/GPa)
#
#
# Indices 1 2 3 4 5 6 
#
# 1 0.016956 -0.001849 -0.003317 -0.002076 0.001170 -0.000507
# 2 -0.001849 0.008616 -0.002181 -0.000063 0.001057 -0.000432
# 3 -0.003317 -0.002181 0.010829 -0.001798 0.001015 -0.007603
# 4 -0.002076 -0.000063 -0.001798 0.022844 -0.007288 0.002084
# 5 0.001170 0.001057 0.001015 -0.007288 0.029802 -0.000221
# 6 -0.000507 -0.000432 -0.007603 0.002084 -0.000221 0.035053
#
#
# Mechanical properties :
#
#
# Convention : Reuss Voigt Hill
#
# Bulk Modulus (GPa) = 46.06241 59.79398 52.92819
# Shear Modulus (GPa) = 34.23930 39.92039 37.07984
#
# Velocity S-wave (km/s) = 3.77332 4.07435 3.92672
# Velocity P-wave (km/s) = 6.17562 6.85552 6.52443
#
# Compressibility (1/GPa) = 0.02170968
#
# Stress axis : x y z
#
# Youngs Moduli (GPa) = 58.97448 116.06229 92.34172
#
# Poissons Ratio (x) = 0.21457 0.30626
# Poissons Ratio (y) = 0.10903 0.20137
# Poissons Ratio (z) = 0.19560 0.25310
#
# Static dielectric constant tensor:
#      x y z
#    x 1.878450 -0.119130 0.077690 
#    y -0.119130 1.753180 0.148500 
#    z 0.077690 0.148500 1.794300 
# 
# From -- ./inp_files/156579.got.cif
#   From: 2010.05.17/outbox.cif.g08.bks.cpg/sg2_79_cif.got.tgz:156579.got - 2010.06.03 11:33:40.
