data_PCOD9039923
_publ_section_title
;
Structure prediction by ZEFSAII (Michael W. Deem and Ramdas Pophale) SiO2 
 PCOD9039923
Probable space group: P -1
;
_chemical_formula_sum "Si O2"
_cell_formula_units_Z 12
_cell_length_a 8.968216
_cell_length_b 7.035482
_cell_length_c 11.274061
_cell_angle_alpha 53.364286
_cell_angle_beta 123.510234
_cell_angle_gamma 98.960834
_cell_volume 459.623037
_symmetry_space_group_name_H-M "P -1"
_symmetry_group_IT_number 2
_symmetry_cell_setting 'triclinic'
loop_
_space_group_symop_operation_xyz
x,y,z
-x,-y,-z
loop_
_atom_site_type_symbol
_atom_site_label
_atom_site_fract_x
_atom_site_fract_y
_atom_site_fract_z
Si Si1 0.441344 0.832876 0.136001
Si Si2 0.228990 0.766117 0.763241
Si Si3 0.957569 0.231904 0.574696
Si Si4 0.704243 0.497460 0.545489
Si Si5 0.198955 0.448158 0.172224
Si Si6 0.646013 0.770672 0.885960
O O1 0.632825 0.692458 0.336178
O O2 0.325345 0.637755 0.127564
O O3 0.306978 0.013929 0.100572
O O4 0.500000 0.000000 0.000000
O O5 0.144589 0.776561 0.591324
O O6 0.435009 0.789218 0.820610
O O7 0.117513 0.978965 0.723697
O O8 0.244289 0.493672 0.918848
O O9 0.829591 0.257809 0.625780
O O10 0.000000 0.500000 0.500000
O O11 0.196191 0.430340 0.320646
O O12 0.500000 0.500000 0.500000
O O13 0.320244 0.211440 0.244821
O O14 0.000000 0.500000 0.000000
#
# Coordination Sequence:
#
# PCOD9039923 Si02
#       6
#     2   2   2   2   2   2
#     4  11  23  47  84 111 146 207 268 325 390 475
#     4  10  23  42  72 111 147 198 255 330 382 460
#     4  11  23  42  73 110 151 194 268 325 385 460
#     4  10  23  48  77 110 154 209 258 317 403 475
#     4  11  27  49  71 111 164 207 257 324 404 470
#     4  11  23  45  72 103 150 201 257 309 396 471
#
# _framework density 26.108353000000001
#
# number of rings (size 3 to 8) (size 9 to 14) (size 15 to 20)
#    0.000    1.333    0.000    6.000    2.333    2.667 
#    6.000    1.667    0.000    0.000    0.000    0.000 
#    0.000    0.000    0.000    0.000    0.000    0.000 
#
# Total GULP energy -67072.284966 kJ/mol
# GULP energy per Si atom -5589.357081 kJ/mol
# Density = 2.604893 g / cm^3
# Si number density = 26.108353 Si / 1000 Ang^3
#
#
#
# Elastic Constant Matrix: (Units=GPa)
#
#
# Indices 1 2 3 4 5 6 
#
# 1 175.6312 64.2800 53.4987 1.3904 14.7213 -45.8819
# 2 64.2800 143.5506 44.1154 10.3312 2.0486 -29.3854
# 3 53.4987 44.1154 131.5288 26.3961 7.5654 -4.5884
# 4 1.3904 10.3312 26.3961 50.2325 -9.5339 -2.5835
# 5 14.7213 2.0486 7.5654 -9.5339 40.6083 -5.0568
# 6 -45.8819 -29.3854 -4.5884 -2.5835 -5.0568 65.1658
#
#
#
# Elastic Compliance Matrix: (Units=1/GPa)
#
#
# Indices 1 2 3 4 5 6 
#
# 1 0.008773 -0.002108 -0.002944 0.001708 -0.001506 0.004970
# 2 -0.002108 0.009078 -0.002067 -0.000421 0.000906 0.002518
# 3 -0.002944 -0.002067 0.010693 -0.005724 -0.002497 -0.002673
# 4 0.001708 -0.000421 -0.005724 0.024281 0.006427 0.002071
# 5 -0.001506 0.000906 -0.002497 0.006427 0.027292 0.001545
# 6 0.004970 0.002518 -0.002673 0.002071 0.001545 0.019994
#
#
# Mechanical properties :
#
#
# Convention : Reuss Voigt Hill
#
# Bulk Modulus (GPa) = 69.90274 86.05542 77.97908
# Shear Modulus (GPa) = 41.97535 50.45575 46.21555
#
# Velocity S-wave (km/s) = 4.01401 4.40085 4.21187
# Velocity P-wave (km/s) = 6.95092 7.67175 7.32021
#
# Compressibility (1/GPa) = 0.01430559
#
# Stress axis : x y z
#
# Youngs Moduli (GPa) = 113.98578 110.15597 93.52045
#
# Poissons Ratio (x) = 0.23217 0.27534
# Poissons Ratio (y) = 0.24024 0.19334
# Poissons Ratio (z) = 0.33559 0.22773
#
# Static dielectric constant tensor:
#      x y z
#    x 2.479330 0.024740 -0.549940 
#    y 0.024740 2.081790 -0.039740 
#    z -0.549940 -0.039740 2.859240 
# 
# From -- ./inp_files/490327.got.cif
#   From: 2010.05.17/outbox.cif.g08.bks.cpg/sg2_246_cif.got.tgz:490327.got - 2010.06.03 11:33:40.
