data_PCOD9039336
_publ_section_title
;
Structure prediction by ZEFSAII (Michael W. Deem and Ramdas Pophale) SiO2 
 PCOD9039336
Probable space group: P -1
;
_chemical_formula_sum "Si O2"
_cell_formula_units_Z 16
_cell_length_a 7.221657
_cell_length_b 8.875879
_cell_length_c 14.747555
_cell_angle_alpha 120.454907
_cell_angle_beta 71.744353
_cell_angle_gamma 124.872173
_cell_volume 668.177810
_symmetry_space_group_name_H-M "P -1"
_symmetry_group_IT_number 2
_symmetry_cell_setting 'triclinic'
loop_
_space_group_symop_operation_xyz
x,y,z
-x,-y,-z
loop_
_atom_site_type_symbol
_atom_site_label
_atom_site_fract_x
_atom_site_fract_y
_atom_site_fract_z
Si Si1 0.204540 0.255436 0.144665
Si Si2 0.306426 0.081087 0.905684
Si Si3 0.598123 0.255492 0.179975
Si Si4 0.187162 0.255171 0.507923
Si Si5 0.911982 0.701269 0.261425
Si Si6 0.224081 0.000592 0.627835
Si Si7 0.643290 0.298919 0.401174
Si Si8 0.639861 0.281122 0.746395
O O1 0.356126 0.225475 0.185715
O O2 0.246871 0.480440 0.214087
O O3 0.292444 0.230989 0.025335
O O4 0.945781 0.082759 0.136398
O O5 0.467616 0.197306 0.832249
O O6 0.385300 0.941491 0.904295
O O7 0.777780 0.472687 0.173567
O O8 0.647170 0.280679 0.287002
O O9 0.204102 0.305938 0.626713
O O10 0.380440 0.203817 0.438429
O O11 0.247849 0.467556 0.516048
O O12 0.937414 0.093821 0.463501
O O13 0.885380 0.875528 0.269898
O O14 0.162554 0.759139 0.266076
O O15 0.492602 0.165530 0.644645
O O16 0.229604 0.811456 0.613503
#
# Coordination Sequence:
#
# PCOD9039336 Si02
#       8
#     2   2   2   2   2   2   2   2
#     4  11  25  47  73 102 138 178 230 287 350 408
#     4  11  25  46  73 102 138 177 232 287 344 418
#     4  11  22  45  69  99 138 183 222 285 347 402
#     4  10  24  43  63 100 136 181 232 284 337 400
#     4  11  25  43  66  99 145 176 228 285 337 413
#     4  12  23  41  66  96 134 187 226 277 345 394
#     4  10  23  42  67  98 140 176 237 283 330 412
#     4  12  25  44  70 105 140 181 227 284 345 418
#
# _framework density 23.945723999999998
#
# number of rings (size 3 to 8) (size 9 to 14) (size 15 to 20)
#    0.000    1.000    3.750    2.250    1.750    2.000 
#    2.250    0.625    0.000    0.000    0.000    0.000 
#    0.000    0.000    0.000    0.000    0.000    0.000 
#
# Total GULP energy -89441.362212 kJ/mol
# GULP energy per Si atom -5590.085138 kJ/mol
# Density = 2.389122 g / cm^3
# Si number density = 23.945724 Si / 1000 Ang^3
#
#
#
# Elastic Constant Matrix: (Units=GPa)
#
#
# Indices 1 2 3 4 5 6 
#
# 1 167.6893 17.1794 3.3257 5.7065 5.4385 -25.8812
# 2 17.1794 63.8298 6.5616 13.3555 3.8999 -8.5224
# 3 3.3257 6.5616 27.3690 6.9522 5.2022 -0.8351
# 4 5.7065 13.3555 6.9522 31.0204 7.2177 -2.4027
# 5 5.4385 3.8999 5.2022 7.2177 31.1943 -0.0213
# 6 -25.8812 -8.5224 -0.8351 -2.4027 -0.0213 35.6185
#
#
#
# Elastic Compliance Matrix: (Units=1/GPa)
#
#
# Indices 1 2 3 4 5 6 
#
# 1 0.006841 -0.001104 -0.000199 -0.000146 -0.000985 0.004692
# 2 -0.001104 0.018030 -0.002357 -0.006776 -0.000099 0.003000
# 3 -0.000199 -0.002357 0.039739 -0.006772 -0.004731 -0.000237
# 4 -0.000146 -0.006776 -0.006772 0.038352 -0.006871 0.000697
# 5 -0.000985 -0.000099 -0.004731 -0.006871 0.034619 -0.001293
# 6 0.004692 0.003000 -0.000237 0.000697 -0.001293 0.032243
#
#
# Mechanical properties :
#
#
# Convention : Reuss Voigt Hill
#
# Bulk Modulus (GPa) = 17.45467 34.78017 26.11742
# Shear Modulus (GPa) = 25.47876 35.02142 30.25009
#
# Velocity S-wave (km/s) = 3.26547 3.82846 3.55812
# Velocity P-wave (km/s) = 4.63927 5.83943 5.27360
#
# Compressibility (1/GPa) = 0.05729124
#
# Stress axis : x y z
#
# Youngs Moduli (GPa) = 146.16683 55.46196 25.16401
#
# Poissons Ratio (x) = 0.06121 0.00501
# Poissons Ratio (y) = 0.16132 0.05931
# Poissons Ratio (z) = 0.02913 0.13073
#
# Static dielectric constant tensor:
#      x y z
#    x 1.896160 -0.043030 -0.007510 
#    y -0.043030 2.013010 0.016850 
#    z -0.007510 0.016850 1.914090 
# 
# From -- ./inp_files/340094.got.cif
#   From: 2010.05.17/outbox.cif.g08.bks.cpg/sg2_171_cif.got.tgz:340094.got - 2010.06.03 11:33:40.
