data_PCOD9039491
_publ_section_title
;
Structure prediction by ZEFSAII (Michael W. Deem and Ramdas Pophale) SiO2 
 PCOD9039491
Probable space group: P -1
;
_chemical_formula_sum "Si O2"
_cell_formula_units_Z 12
_cell_length_a 17.669358
_cell_length_b 5.542357
_cell_length_c 5.394277
_cell_angle_alpha 89.824509
_cell_angle_beta 59.270606
_cell_angle_gamma 108.132609
_cell_volume 422.957137
_symmetry_space_group_name_H-M "P -1"
_symmetry_group_IT_number 2
_symmetry_cell_setting 'triclinic'
loop_
_space_group_symop_operation_xyz
x,y,z
-x,-y,-z
loop_
_atom_site_type_symbol
_atom_site_label
_atom_site_fract_x
_atom_site_fract_y
_atom_site_fract_z
Si Si1 0.037684 0.663501 0.184276
Si Si2 0.361818 0.232925 0.009684
Si Si3 0.710600 0.597735 0.367288
Si Si4 0.463792 0.842503 0.311712
Si Si5 0.802511 0.234321 0.773303
Si Si6 0.126279 0.194692 0.587618
O O1 0.149593 0.756052 0.037222
O O2 0.000000 0.500000 0.500000
O O3 0.984972 0.867410 0.256751
O O4 0.000000 0.500000 0.000000
O O5 0.317616 0.334316 0.853863
O O6 0.473988 0.340326 0.794625
O O7 0.331847 0.295224 0.329239
O O8 0.308409 0.923724 0.063427
O O9 0.648624 0.294517 0.497734
O O10 0.821972 0.716766 0.234828
O O11 0.500000 0.000000 0.500000
O O12 0.500000 0.000000 0.000000
O O13 0.828668 0.526080 0.630838
O O14 0.847781 0.046049 0.552725
#
# Coordination Sequence:
#
# PCOD9039491 Si02
#       6
#     2   2   2   2   2   2
#     4  10  23  42  68  98 136 178 226 280 338 402
#     4  11  24  43  66  95 133 179 225 278 337 403
#     4  11  24  43  66  95 133 179 225 278 337 403
#     4  12  24  40  66  98 134 178 225 280 337 402
#     4  10  23  45  70 101 137 180 228 282 340 404
#     4  10  23  45  70 101 137 180 228 282 340 404
#
# _framework density 28.371670000000002
#
# number of rings (size 3 to 8) (size 9 to 14) (size 15 to 20)
#    0.000    1.333    0.000    4.500    0.000   14.667 
#    0.000    7.500    0.000    0.000    0.000    0.000 
#    0.000    0.000    0.000    0.000    0.000    0.000 
#
# Total GULP energy -67167.201717 kJ/mol
# GULP energy per Si atom -5597.266810 kJ/mol
# Density = 2.830709 g / cm^3
# Si number density = 28.371670 Si / 1000 Ang^3
#
#
#
# Elastic Constant Matrix: (Units=GPa)
#
#
# Indices 1 2 3 4 5 6 
#
# 1 170.8199 33.4090 42.4619 1.9627 16.0545 16.9192
# 2 33.4090 134.0578 59.9912 4.7549 15.5520 12.5423
# 3 42.4619 59.9912 127.9093 6.4068 28.7650 -6.1115
# 4 1.9627 4.7549 6.4068 74.9256 -8.0817 4.8245
# 5 16.0545 15.5520 28.7650 -8.0817 57.8277 -1.4178
# 6 16.9192 12.5423 -6.1115 4.8245 -1.4178 62.2599
#
#
#
# Elastic Compliance Matrix: (Units=1/GPa)
#
#
# Indices 1 2 3 4 5 6 
#
# 1 0.006694 -0.000560 -0.001870 0.000055 -0.000817 -0.001913
# 2 -0.000560 0.009851 -0.004458 -0.000121 -0.000349 -0.002269
# 3 -0.001870 -0.004458 0.011660 -0.001283 -0.004199 0.002555
# 4 0.000055 -0.000121 -0.001283 0.013811 0.002558 -0.001128
# 5 -0.000817 -0.000349 -0.004199 0.002558 0.020063 0.000139
# 6 -0.001913 -0.002269 0.002555 -0.001128 0.000139 0.017380
#
#
# Mechanical properties :
#
#
# Convention : Reuss Voigt Hill
#
# Bulk Modulus (GPa) = 69.30427 78.27903 73.79165
# Shear Modulus (GPa) = 50.99680 58.79763 54.89721
#
# Velocity S-wave (km/s) = 4.24424 4.55731 4.40356
# Velocity P-wave (km/s) = 6.96408 7.43926 7.20559
#
# Compressibility (1/GPa) = 0.01442912
#
# Stress axis : x y z
#
# Youngs Moduli (GPa) = 149.38632 101.51172 85.75981
#
# Poissons Ratio (x) = 0.05680 0.16039
# Poissons Ratio (y) = 0.08359 0.38236
# Poissons Ratio (z) = 0.27939 0.45259
#
# Static dielectric constant tensor:
#      x y z
#    x 2.269030 -0.041680 -0.105390 
#    y -0.041680 2.266680 -0.037040 
#    z -0.105390 -0.037040 2.296110 
# 
# From -- ./inp_files/6878.got.cif
#   From: 2010.05.17/outbox.cif.g08.bks.cpg/sg2_4_cif.got.tgz:6878.got - 2010.06.03 11:33:40.
