data_PCOD9039136
_publ_section_title
;
Structure prediction by ZEFSAII (Michael W. Deem and Ramdas Pophale) SiO2 
 PCOD9039136
Probable space group: P -1
;
_chemical_formula_sum "Si O2"
_cell_formula_units_Z 16
_cell_length_a 5.406706
_cell_length_b 5.484099
_cell_length_c 18.964563
_cell_angle_alpha 95.539967
_cell_angle_beta 95.201710
_cell_angle_gamma 90.006740
_cell_volume 557.362751
_symmetry_space_group_name_H-M "P -1"
_symmetry_group_IT_number 2
_symmetry_cell_setting 'triclinic'
loop_
_space_group_symop_operation_xyz
x,y,z
-x,-y,-z
loop_
_atom_site_type_symbol
_atom_site_label
_atom_site_fract_x
_atom_site_fract_y
_atom_site_fract_z
Si Si1 0.669246 0.558954 0.841366
Si Si2 0.811120 0.663958 0.103923
Si Si3 0.385102 0.261303 0.528109
Si Si4 0.513676 0.995951 0.349257
Si Si5 0.208086 0.990236 0.772451
Si Si6 0.259374 0.130375 0.027417
Si Si7 0.031852 0.262017 0.404989
Si Si8 0.055220 0.527632 0.282177
O O1 0.408079 0.470970 0.862869
O O2 0.711619 0.818701 0.887891
O O3 0.695057 0.521022 0.757555
O O4 0.912093 0.419722 0.873461
O O5 0.786730 0.936336 0.144012
O O6 0.757723 0.637845 0.019462
O O7 0.500000 0.500000 0.500000
O O8 0.432656 0.251767 0.612385
O O9 0.108562 0.261836 0.488619
O O10 0.500000 0.000000 0.500000
O O11 0.538808 0.987971 0.265535
O O12 0.251762 0.102316 0.369955
O O13 0.755459 0.158907 0.383560
O O14 0.053803 0.213969 0.738553
O O15 0.100849 0.717937 0.751041
O O16 0.500000 0.000000 0.000000
O O17 0.000000 0.000000 0.000000
O O18 0.061288 0.507575 0.366081
#
# Coordination Sequence:
#
# PCOD9039136 Si02
#       8
#     2   2   2   2   2   2   2   2
#     4  11  24  43  66  94 133 178 223 274 333 398
#     4  11  24  43  66  94 133 178 223 274 333 398
#     4  10  23  42  66  96 132 174 222 274 334 398
#     4  10  23  44  69  98 135 176 224 277 335 399
#     4  10  24  45  70 101 136 178 225 277 335 399
#     4  12  24  40  66  98 134 176 225 278 333 396
#     4  10  23  44  69  98 135 176 224 277 335 399
#     4  10  24  45  70 101 136 178 225 277 335 399
#
# _framework density 28.706619
#
# number of rings (size 3 to 8) (size 9 to 14) (size 15 to 20)
#    0.000    1.500    0.000    3.375    0.000   20.000 
#    0.000    5.625    0.000    0.000    0.000    0.000 
#    0.000    0.000    0.000    0.000    0.000    0.000 
#
# Total GULP energy -89580.161567 kJ/mol
# GULP energy per Si atom -5598.760098 kJ/mol
# Density = 2.864128 g / cm^3
# Si number density = 28.706619 Si / 1000 Ang^3
#
#
#
# Elastic Constant Matrix: (Units=GPa)
#
#
# Indices 1 2 3 4 5 6 
#
# 1 171.1970 72.5802 37.2088 3.8789 -7.5304 -2.5751
# 2 72.5802 131.3538 21.2537 -9.9270 1.4677 -3.4258
# 3 37.2088 21.2537 131.6009 -7.6539 -13.3670 -11.5849
# 4 3.8789 -9.9270 -7.6539 54.8291 -3.0319 -0.0504
# 5 -7.5304 1.4677 -13.3670 -3.0319 52.1125 -0.3043
# 6 -2.5751 -3.4258 -11.5849 -0.0504 -0.3043 78.5031
#
#
#
# Elastic Compliance Matrix: (Units=1/GPa)
#
#
# Indices 1 2 3 4 5 6 
#
# 1 0.008101 -0.004345 -0.001612 -0.001541 0.000789 -0.000160
# 2 -0.004345 0.010247 -0.000375 0.002061 -0.000891 0.000247
# 3 -0.001612 -0.000375 0.008506 0.001348 0.002045 0.001195
# 4 -0.001541 0.002061 0.001348 0.018974 0.001170 0.000255
# 5 0.000789 -0.000891 0.002045 0.001170 0.019923 0.000367
# 6 -0.000160 0.000247 0.001195 0.000255 0.000367 0.012922
#
#
# Mechanical properties :
#
#
# Convention : Reuss Voigt Hill
#
# Bulk Modulus (GPa) = 70.47625 77.35969 73.91797
# Shear Modulus (GPa) = 52.04687 57.29620 54.67153
#
# Velocity S-wave (km/s) = 4.26263 4.47242 4.36878
# Velocity P-wave (km/s) = 6.98788 7.32646 7.15917
#
# Compressibility (1/GPa) = 0.01418918
#
# Stress axis : x y z
#
# Youngs Moduli (GPa) = 123.44356 97.59297 117.55724
#
# Poissons Ratio (x) = 0.42402 0.18954
# Poissons Ratio (y) = 0.53633 0.04412
# Poissons Ratio (z) = 0.19903 0.03663
#
# Static dielectric constant tensor:
#      x y z
#    x 2.215680 0.031740 0.037330 
#    y 0.031740 2.304840 0.009840 
#    z 0.037330 0.009840 2.358320 
# 
# From -- ./inp_files/581090.got.cif
#   From: 2010.05.17/outbox.cif.g08.bks.cpg/sg2_291_cif.got.tgz:581090.got - 2010.06.03 11:33:40.
