data_PCOD9039935
_publ_section_title
;
Structure prediction by ZEFSAII (Michael W. Deem and Ramdas Pophale) SiO2 
 PCOD9039935
Probable space group: P -1
;
_chemical_formula_sum "Si O2"
_cell_formula_units_Z 16
_cell_length_a 19.943294
_cell_length_b 7.396228
_cell_length_c 11.439006
_cell_angle_alpha 108.765939
_cell_angle_beta 150.845311
_cell_angle_gamma 89.022092
_cell_volume 638.374083
_symmetry_space_group_name_H-M "P -1"
_symmetry_group_IT_number 2
_symmetry_cell_setting 'triclinic'
loop_
_space_group_symop_operation_xyz
x,y,z
-x,-y,-z
loop_
_atom_site_type_symbol
_atom_site_label
_atom_site_fract_x
_atom_site_fract_y
_atom_site_fract_z
Si Si1 0.543550 0.812935 0.136355
Si Si2 0.969655 0.015044 0.319614
Si Si3 0.254602 0.676985 0.483072
Si Si4 0.015792 0.416960 0.777846
Si Si5 0.756970 0.175627 0.119505
Si Si6 0.649972 0.267281 0.759881
Si Si7 0.335559 0.415331 0.906601
Si Si8 0.524900 0.331904 0.362054
O O1 0.386603 0.758221 0.807649
O O2 0.457500 0.672270 0.093277
O O3 0.624626 0.716611 0.158060
O O4 0.690540 0.078880 0.437219
O O5 0.134462 0.245965 0.567424
O O6 0.822006 0.054205 0.108375
O O7 0.000000 0.000000 0.500000
O O8 0.951912 0.785806 0.195082
O O9 0.312720 0.567829 0.453614
O O10 0.076336 0.555339 0.248613
O O11 0.891623 0.322431 0.456099
O O12 0.187410 0.656359 0.053649
O O13 0.729350 0.335514 0.025322
O O14 0.593034 0.952158 0.883044
O O15 0.575576 0.371444 0.583236
O O16 0.500000 0.000000 0.500000
O O17 0.410926 0.399919 0.140906
#
# Coordination Sequence:
#
# PCOD9039935 Si02
#       8
#     2   2   2   2   2   2   2   2
#     4   9  18  30  55  89 117 148 188 246 282 340
#     4  10  19  34  58  89 117 146 193 248 287 339
#     4  10  19  35  58  88 120 147 195 241 291 341
#     4  11  20  38  63  87 114 155 196 250 287 336
#     4  10  20  39  62  88 116 151 200 245 284 342
#     4  10  24  41  58  84 122 159 197 236 291 356
#     4  10  17  33  55  85 120 150 189 235 297 335
#     4  10  20  40  57  84 126 154 187 237 296 350
#
# _framework density 25.063676999999998
#
# number of rings (size 3 to 8) (size 9 to 14) (size 15 to 20)
#    0.000    2.000    3.750    1.875    1.750    0.500 
#    9.000    3.750    0.000    1.500    0.000    0.000 
#    0.000    0.000    0.000    0.000    0.000    0.000 
#
# Total GULP energy -89341.781088 kJ/mol
# GULP energy per Si atom -5583.861318 kJ/mol
# Density = 2.500663 g / cm^3
# Si number density = 25.063677 Si / 1000 Ang^3
#
#
#
# Elastic Constant Matrix: (Units=GPa)
#
#
# Indices 1 2 3 4 5 6 
#
# 1 116.6195 19.5649 61.3230 1.0468 31.5273 17.0756
# 2 19.5649 116.3517 31.8979 -10.0137 2.6770 28.1468
# 3 61.3230 31.8979 103.7843 15.9339 23.6595 19.3166
# 4 1.0468 -10.0137 15.9339 40.2535 22.7088 0.0091
# 5 31.5273 2.6770 23.6595 22.7088 59.4281 -1.0850
# 6 17.0756 28.1468 19.3166 0.0091 -1.0850 35.3118
#
#
#
# Elastic Compliance Matrix: (Units=1/GPa)
#
#
# Indices 1 2 3 4 5 6 
#
# 1 0.015290 0.001564 -0.008035 0.007688 -0.008003 -0.004493
# 2 0.001564 0.011803 -0.003303 0.005505 -0.002304 -0.008430
# 3 -0.008035 -0.003303 0.016959 -0.007619 0.000521 -0.002741
# 4 0.007688 0.005505 -0.007619 0.037995 -0.015893 -0.004436
# 5 -0.008003 -0.002304 0.000521 -0.015893 0.027156 0.006260
# 6 -0.004493 -0.008430 -0.002741 -0.004436 0.006260 0.038905
#
#
# Mechanical properties :
#
#
# Convention : Reuss Voigt Hill
#
# Bulk Modulus (GPa) = 40.80663 62.48078 51.64371
# Shear Modulus (GPa) = 28.43772 41.92997 35.18384
#
# Velocity S-wave (km/s) = 3.37206 4.09459 3.75077
# Velocity P-wave (km/s) = 5.61049 6.88020 6.27753
#
# Compressibility (1/GPa) = 0.02450582
#
# Stress axis : x y z
#
# Youngs Moduli (GPa) = 65.40304 84.72287 58.96512
#
# Poissons Ratio (x) = -0.13254 0.47377
# Poissons Ratio (y) = -0.10232 0.19476
# Poissons Ratio (z) = 0.52550 0.27983
#
# Static dielectric constant tensor:
#      x y z
#    x 2.063060 -0.105820 -0.024730 
#    y -0.105820 2.079830 -0.046620 
#    z -0.024730 -0.046620 1.992030 
# 
# From -- ./inp_files/470038.got.cif
#   From: 2010.05.17/outbox.cif.g08.bks.cpg/sg2_236_cif.got.tgz:470038.got - 2010.06.03 11:33:40.
