data_PCOD9039358
_publ_section_title
;
Structure prediction by ZEFSAII (Michael W. Deem and Ramdas Pophale) SiO2 
 PCOD9039358
Probable space group: P -1
;
_chemical_formula_sum "Si O2"
_cell_formula_units_Z 14
_cell_length_a 11.530828
_cell_length_b 11.128157
_cell_length_c 6.284081
_cell_angle_alpha 64.235832
_cell_angle_beta 69.587448
_cell_angle_gamma 52.802576
_cell_volume 574.284396
_symmetry_space_group_name_H-M "P -1"
_symmetry_group_IT_number 2
_symmetry_cell_setting 'triclinic'
loop_
_space_group_symop_operation_xyz
x,y,z
-x,-y,-z
loop_
_atom_site_type_symbol
_atom_site_label
_atom_site_fract_x
_atom_site_fract_y
_atom_site_fract_z
Si Si1 0.866689 0.042697 0.401594
Si Si2 0.445088 0.445865 0.378858
Si Si3 0.732979 0.351473 0.020032
Si Si4 0.902448 0.500262 0.867787
Si Si5 0.548391 0.010069 0.226258
Si Si6 0.422869 0.842811 0.249557
Si Si7 0.145839 0.232905 0.613459
O O1 0.845708 0.168190 0.138380
O O2 0.725836 0.128653 0.584797
O O3 0.877545 0.892469 0.399815
O O4 0.000000 0.000000 0.500000
O O5 0.500000 0.500000 0.500000
O O6 0.579665 0.380763 0.179745
O O7 0.445602 0.298822 0.591955
O O8 0.300750 0.581359 0.250422
O O9 0.783339 0.455236 0.035207
O O10 0.831378 0.663337 0.655856
O O11 0.009356 0.359697 0.744701
O O12 0.000000 0.500000 0.000000
O O13 0.425314 0.996525 0.190583
O O14 0.718401 0.869133 0.235734
O O15 0.500000 0.000000 0.500000
O O16 0.550324 0.160210 0.017118
#
# Coordination Sequence:
#
# PCOD9039358 Si02
#       7
#     2   2   2   2   2   2   2
#     4  11  24  45  70 106 149 188 239 299 360 435
#     4  10  23  42  68 100 138 181 239 291 355 434
#     4  10  24  44  69 100 141 191 235 294 360 428
#     4  11  26  46  69  98 143 192 240 293 362 434
#     4  11  23  42  70 101 136 179 237 299 356 420
#     4  10  24  41  66 103 135 182 233 295 361 410
#     4  11  26  43  69 103 139 185 244 295 362 427
#
# _framework density 24.378164000000002
#
# number of rings (size 3 to 8) (size 9 to 14) (size 15 to 20)
#    0.000    1.429    1.429    1.714    6.000    8.571 
#    0.000    0.000    0.000    0.000    0.000    0.000 
#    0.000    0.000    0.000    0.000    0.000    0.000 
#
# Total GULP energy -78170.424401 kJ/mol
# GULP energy per Si atom -5583.601743 kJ/mol
# Density = 2.432268 g / cm^3
# Si number density = 24.378164 Si / 1000 Ang^3
#
#
#
# Elastic Constant Matrix: (Units=GPa)
#
#
# Indices 1 2 3 4 5 6 
#
# 1 125.1124 42.1950 42.4973 -27.9017 23.8732 10.8985
# 2 42.1950 106.1041 48.7594 -31.1574 11.6742 10.1015
# 3 42.4973 48.7594 152.1466 -48.5295 8.9336 -8.8930
# 4 -27.9017 -31.1574 -48.5295 45.0323 -4.7374 6.7567
# 5 23.8732 11.6742 8.9336 -4.7374 39.2073 -6.7772
# 6 10.8985 10.1015 -8.8930 6.7567 -6.7772 39.6302
#
#
#
# Elastic Compliance Matrix: (Units=1/GPa)
#
#
# Indices 1 2 3 4 5 6 
#
# 1 0.011725 -0.001415 -0.001069 0.005197 -0.006735 -0.005141
# 2 -0.001415 0.013748 -0.001890 0.007085 -0.002850 -0.005235
# 3 -0.001069 -0.001890 0.010454 0.009076 0.000207 0.001609
# 4 0.005197 0.007085 0.009076 0.041026 -0.003916 -0.008863
# 5 -0.006735 -0.002850 0.000207 -0.003916 0.031433 0.008668
# 6 -0.005141 -0.005235 0.001609 -0.008863 0.008668 0.031336
#
#
# Mechanical properties :
#
#
# Convention : Reuss Voigt Hill
#
# Bulk Modulus (GPa) = 36.79230 72.25186 54.52208
# Shear Modulus (GPa) = 31.74003 41.43471 36.58737
#
# Velocity S-wave (km/s) = 3.61222 4.12717 3.87825
# Velocity P-wave (km/s) = 5.70286 7.23973 6.51676
#
# Compressibility (1/GPa) = 0.02717960
#
# Stress axis : x y z
#
# Youngs Moduli (GPa) = 85.28690 72.73733 95.66037
#
# Poissons Ratio (x) = 0.10292 0.10227
# Poissons Ratio (y) = 0.12068 0.18075
# Poissons Ratio (z) = 0.09118 0.13744
#
# Static dielectric constant tensor:
#      x y z
#    x 1.350690 -0.159670 -1.379890 
#    y -0.159670 1.984350 -0.439990 
#    z -1.379890 -0.439990 -0.743650 
# 
# From -- ./inp_files/68347.got.cif
#   From: 2010.05.17/outbox.cif.g08.bks.cpg/sg2_35_cif.got.tgz:68347.got - 2010.06.03 11:33:40.
