data_PCOD9039436
_publ_section_title
;
Structure prediction by ZEFSAII (Michael W. Deem and Ramdas Pophale) SiO2 
 PCOD9039436
Probable space group: P -1
;
_chemical_formula_sum "Si O2"
_cell_formula_units_Z 12
_cell_length_a 13.852839
_cell_length_b 10.373560
_cell_length_c 12.247311
_cell_angle_alpha 155.490315
_cell_angle_beta 130.826419
_cell_angle_gamma 44.475126
_cell_volume 511.461407
_symmetry_space_group_name_H-M "P -1"
_symmetry_group_IT_number 2
_symmetry_cell_setting 'triclinic'
loop_
_space_group_symop_operation_xyz
x,y,z
-x,-y,-z
loop_
_atom_site_type_symbol
_atom_site_label
_atom_site_fract_x
_atom_site_fract_y
_atom_site_fract_z
Si Si1 0.717852 0.332153 0.968167
Si Si2 0.168937 0.703134 0.579490
Si Si3 0.905222 0.697195 0.483056
Si Si4 0.440803 0.389092 0.136211
Si Si5 0.414354 0.135776 0.427793
Si Si6 0.716109 0.746183 0.891656
O O1 0.606082 0.595698 0.011620
O O2 0.805440 0.047337 0.728420
O O3 0.646075 0.155889 0.862067
O O4 0.815345 0.495006 0.218388
O O5 0.269692 0.463630 0.563241
O O6 0.232895 0.519218 0.372257
O O7 0.013947 0.728055 0.499926
O O8 0.179779 0.063651 0.869972
O O9 0.000000 0.500000 0.500000
O O10 0.488281 0.700398 0.433285
O O11 0.320223 0.402581 0.139653
O O12 0.571462 0.045267 0.984130
O O13 0.500000 0.000000 0.500000
#
# Coordination Sequence:
#
# PCOD9039436 Si02
#       6
#     2   2   2   2   2   2
#     4  11  24  41  68  99 128 169 217 266 319 384
#     4  11  23  41  65  93 127 171 219 258 319 381
#     4  12  25  43  66  93 133 173 215 263 323 380
#     4   9  22  44  67  97 133 168 212 265 326 383
#     4   9  20  38  63  95 127 159 208 267 319 375
#     4  10  23  42  68  94 130 171 210 265 322 382
#
# _framework density 23.462178999999999
#
# number of rings (size 3 to 8) (size 9 to 14) (size 15 to 20)
#    0.000    1.667    1.667    1.500    2.333   11.333 
#    0.000   11.667    0.000    0.000    0.000    0.000 
#    0.000    0.000    0.000    0.000    0.000    0.000 
#
# Total GULP energy -67098.557942 kJ/mol
# GULP energy per Si atom -5591.546495 kJ/mol
# Density = 2.340878 g / cm^3
# Si number density = 23.462179 Si / 1000 Ang^3
#
#
#
# Elastic Constant Matrix: (Units=GPa)
#
#
# Indices 1 2 3 4 5 6 
#
# 1 -166.9898 30.1790 -171.6901 -68.8926 257.2772 -32.7209
# 2 30.1790 52.3631 44.0546 -10.5522 28.8825 -5.5766
# 3 -171.6901 44.0546 6.8731 -78.5766 191.1877 -22.4130
# 4 -68.8926 -10.5522 -78.5766 29.5732 33.1488 3.0266
# 5 257.2772 28.8825 191.1877 33.1488 -136.7697 26.2610
# 6 -32.7209 -5.5766 -22.4130 3.0266 26.2610 26.8306
#
#
#
# Elastic Compliance Matrix: (Units=1/GPa)
#
#
# Indices 1 2 3 4 5 6 
#
# 1 0.006201 -0.005032 -0.002781 -0.001384 0.006073 -0.001595
# 2 -0.005032 0.037742 -0.009580 -0.007839 -0.015005 0.009276
# 3 -0.002781 -0.009580 0.009766 0.008329 0.007381 -0.005389
# 4 -0.001384 -0.007839 0.008329 0.036165 0.013525 -0.013676
# 5 0.006073 -0.015005 0.007381 0.013525 0.013681 -0.004464
# 6 -0.001595 0.009276 -0.005389 -0.013676 -0.004464 0.038665
#
#
# Mechanical properties :
#
#
# Convention : Reuss Voigt Hill
#
# Bulk Modulus (GPa) = 52.84566 -33.62962 9.60802
# Shear Modulus (GPa) = 27.27569 -16.75965 5.25802
#
# Velocity S-wave (km/s) = 3.41330 -2.67559 1.49864
# Velocity P-wave (km/s) = 6.17307 4.88975 2.66431
#
# Compressibility (1/GPa) = 0.01892303
#
# Stress axis : x y z
#
# Youngs Moduli (GPa) = 161.26226 26.49549 102.39721
#
# Poissons Ratio (x) = 0.13333 0.28481
# Poissons Ratio (y) = 0.81148 0.98093
# Poissons Ratio (z) = 0.44854 0.25382
#
# Static dielectric constant tensor:
#      x y z
#    x 1.870170 0.091090 0.032430 
#    y 0.091090 1.761000 -0.104050 
#    z 0.032430 -0.104050 1.784660 
# 
# From -- ./inp_files/61109.got.cif
#   From: 2010.05.17/outbox.cif.g08.bks.cpg/sg2_31_cif.got.tgz:61109.got - 2010.06.03 11:33:40.
