data_PCOD9039068
_publ_section_title
;
Structure prediction by ZEFSAII (Michael W. Deem and Ramdas Pophale) SiO2 
 PCOD9039068
Probable space group: P -1
;
_chemical_formula_sum "Si O2"
_cell_formula_units_Z 15
_cell_length_a 6.757005
_cell_length_b 11.977011
_cell_length_c 11.323732
_cell_angle_alpha 105.319371
_cell_angle_beta 108.842666
_cell_angle_gamma 122.307310
_cell_volume 614.088255
_symmetry_space_group_name_H-M "P -1"
_symmetry_group_IT_number 2
_symmetry_cell_setting 'triclinic'
loop_
_space_group_symop_operation_xyz
x,y,z
-x,-y,-z
loop_
_atom_site_type_symbol
_atom_site_label
_atom_site_fract_x
_atom_site_fract_y
_atom_site_fract_z
Si Si1 0.941179 0.613342 0.040546
Si Si2 0.120636 0.691151 0.497944
Si Si3 0.188401 0.029363 0.932104
Si Si4 0.051775 0.076600 0.660882
Si Si5 0.229123 0.474617 0.403739
Si Si6 0.192894 0.763470 0.912826
Si Si7 0.680079 0.585456 0.213702
Si Si8 0.500000 0.000000 0.500000
O O1 0.914182 0.625665 0.176982
O O2 0.640843 0.557655 0.926133
O O3 0.000000 0.500000 0.000000
O O4 0.184873 0.766726 0.055193
O O5 0.271380 0.626737 0.477628
O O6 0.274028 0.856259 0.514452
O O7 0.050733 0.668846 0.615516
O O8 0.795914 0.571856 0.350438
O O9 0.112117 0.032530 0.782564
O O10 0.185226 0.889719 0.899294
O O11 0.518410 0.192064 0.055954
O O12 0.000000 0.000000 0.000000
O O13 0.291986 0.264847 0.739703
O O14 0.000000 0.000000 0.500000
O O15 0.757275 0.028122 0.617671
O O16 0.500000 0.500000 0.500000
O O17 0.101623 0.409330 0.230217
#
# Coordination Sequence:
#
# PCOD9039068 Si02
#       8
#     2   2   2   2   2   2   2   1
#     4  11  22  41  71 100 140 182 241 299 366 446
#     4  10  24  43  64 103 139 184 234 300 364 433
#     4  11  27  46  70 101 147 194 243 305 370 440
#     4  11  26  44  71 102 142 192 246 303 368 437
#     4  11  25  43  72 103 145 187 243 298 373 439
#     4  11  26  43  71 102 141 189 249 291 368 451
#     4  10  23  42  66 102 138 182 238 300 368 432
#     4  10  26  42  70 102 148 184 248 306 364 438
#
# _framework density 24.426456999999999
#
# number of rings (size 3 to 8) (size 9 to 14) (size 15 to 20)
#    0.000    1.333    0.000    3.200    7.467   10.667 
#    0.000    0.000    0.000    0.000    0.000    0.000 
#    0.000    0.000    0.000    0.000    0.000    0.000 
#
# Total GULP energy -83502.553241 kJ/mol
# GULP energy per Si atom -5566.836883 kJ/mol
# Density = 2.437086 g / cm^3
# Si number density = 24.426457 Si / 1000 Ang^3
#
#
#
# Elastic Constant Matrix: (Units=GPa)
#
#
# Indices 1 2 3 4 5 6 
#
# 1 109.5823 31.1283 45.2321 -13.1042 3.8616 5.9684
# 2 31.1283 88.7548 12.2231 -31.5557 0.2267 -4.2620
# 3 45.2321 12.2231 83.0375 -24.8656 4.0879 5.6397
# 4 -13.1042 -31.5557 -24.8656 39.7108 -1.1727 7.0725
# 5 3.8616 0.2267 4.0879 -1.1727 52.5319 -5.8834
# 6 5.9684 -4.2620 5.6397 7.0725 -5.8834 43.4475
#
#
#
# Elastic Compliance Matrix: (Units=1/GPa)
#
#
# Indices 1 2 3 4 5 6 
#
# 1 0.013342 -0.005253 -0.007783 -0.004541 -0.000529 -0.000670
# 2 -0.005253 0.018021 0.004992 0.015845 0.000194 -0.000712
# 3 -0.007783 0.004992 0.020244 0.014685 -0.001101 -0.003609
# 4 -0.004541 0.015845 0.014685 0.046774 -0.000666 -0.007432
# 5 -0.000529 0.000194 -0.001101 -0.000666 0.019479 0.002981
# 6 -0.000670 -0.000712 -0.003609 -0.007432 0.002981 0.025120
#
#
# Mechanical properties :
#
#
# Convention : Reuss Voigt Hill
#
# Bulk Modulus (GPa) = 28.15301 50.94906 39.55104
# Shear Modulus (GPa) = 29.25565 39.99079 34.62322
#
# Velocity S-wave (km/s) = 3.46454 4.05061 3.76898
# Velocity P-wave (km/s) = 5.24926 6.54064 5.93021
#
# Compressibility (1/GPa) = 0.03552018
#
# Stress axis : x y z
#
# Youngs Moduli (GPa) = 74.94927 55.49203 49.39714
#
# Poissons Ratio (x) = 0.29150 0.38445
# Poissons Ratio (y) = 0.39370 -0.24661
# Poissons Ratio (z) = 0.58332 -0.27703
#
# Static dielectric constant tensor:
#      x y z
#    x 1.964360 0.034410 -0.056120 
#    y 0.034410 1.978220 0.008850 
#    z -0.056120 0.008850 1.999910 
# 
# From -- ./inp_files/364846.got.cif
#   From: 2010.05.17/outbox.cif.g08.bks.cpg/sg2_183_cif.got.tgz:364846.got - 2010.06.03 11:33:40.
