data_PCOD9039188
_publ_section_title
;
Structure prediction by ZEFSAII (Michael W. Deem and Ramdas Pophale) SiO2 
 PCOD9039188
Probable space group: P -1
;
_chemical_formula_sum "Si O2"
_cell_formula_units_Z 16
_cell_length_a 13.488340
_cell_length_b 8.823984
_cell_length_c 14.028093
_cell_angle_alpha 30.914142
_cell_angle_beta 56.295348
_cell_angle_gamma 58.380682
_cell_volume 709.044421
_symmetry_space_group_name_H-M "P -1"
_symmetry_group_IT_number 2
_symmetry_cell_setting 'triclinic'
loop_
_space_group_symop_operation_xyz
x,y,z
-x,-y,-z
loop_
_atom_site_type_symbol
_atom_site_label
_atom_site_fract_x
_atom_site_fract_y
_atom_site_fract_z
Si Si1 0.114385 0.696429 0.279903
Si Si2 0.824496 0.226696 0.473811
Si Si3 0.864906 0.916148 0.101894
Si Si4 0.565221 0.296942 0.655206
Si Si5 0.648153 0.200088 0.181085
Si Si6 0.970684 0.879940 0.432504
Si Si7 0.517018 0.277335 0.008596
Si Si8 0.349182 0.351486 0.404209
O O1 0.060420 0.460359 0.366757
O O2 0.209408 0.485552 0.405398
O O3 0.016980 0.886098 0.295854
O O4 0.177608 0.922086 0.061093
O O5 0.843837 0.574095 0.285472
O O6 0.692125 0.178856 0.602808
O O7 0.918068 0.072793 0.584356
O O8 0.861587 0.092299 0.422320
O O9 0.778963 0.072823 0.143902
O O10 0.000000 0.000000 0.000000
O O11 0.500000 0.500000 0.500000
O O12 0.591166 0.493304 0.624686
O O13 0.487589 0.037904 0.867176
O O14 0.560964 0.185412 0.142087
O O15 0.629645 0.995579 0.393208
O O16 0.616449 0.548067 0.027602
O O17 0.597199 0.515130 0.791443
#
# Coordination Sequence:
#
# PCOD9039188 Si02
#       8
#     2   2   2   2   2   2   2   2
#     4  11  23  42  70  99 136 178 222 283 343 403
#     4  11  23  43  69  95 134 177 222 282 336 404
#     4  12  23  42  69  98 135 180 223 277 347 407
#     4  12  24  44  68  96 140 181 225 279 345 397
#     4  11  24  44  67 102 133 176 226 283 336 407
#     4  10  23  42  67 100 128 174 225 277 343 401
#     4  11  25  43  70  97 133 178 231 278 338 402
#     4  12  23  46  69  98 139 178 228 282 341 405
#
# _framework density 22.565581000000002
#
# number of rings (size 3 to 8) (size 9 to 14) (size 15 to 20)
#    0.000    0.750    6.250    0.750    3.500    0.500 
#    2.250    0.000    0.000    0.000    0.000    0.000 
#    0.000    0.000    0.000    0.000    0.000    0.000 
#
# Total GULP energy -89255.393812 kJ/mol
# GULP energy per Si atom -5578.462113 kJ/mol
# Density = 2.251422 g / cm^3
# Si number density = 22.565581 Si / 1000 Ang^3
#
#
#
# Elastic Constant Matrix: (Units=GPa)
#
#
# Indices 1 2 3 4 5 6 
#
# 1 59.9719 0.6374 12.4786 2.2153 8.9628 0.3795
# 2 0.6374 79.1948 2.1311 7.3287 -6.8631 -11.4833
# 3 12.4786 2.1311 110.5238 7.0009 8.1347 -2.2931
# 4 2.2153 7.3287 7.0009 24.7177 -1.2672 -4.4406
# 5 8.9628 -6.8631 8.1347 -1.2672 29.3756 3.8445
# 6 0.3795 -11.4833 -2.2931 -4.4406 3.8445 27.0274
#
#
#
# Elastic Compliance Matrix: (Units=1/GPa)
#
#
# Indices 1 2 3 4 5 6 
#
# 1 0.017820 -0.000435 -0.001542 -0.001304 -0.005162 -0.000046
# 2 -0.000435 0.013867 -0.000117 -0.003003 0.002618 0.005022
# 3 -0.001542 -0.000117 0.009577 -0.002536 -0.002411 0.000711
# 4 -0.001304 -0.003003 -0.002536 0.043234 0.001556 0.005409
# 5 -0.005162 0.002618 -0.002411 0.001556 0.037500 -0.004098
# 6 -0.000046 0.005022 0.000711 0.005409 -0.004098 0.040666
#
#
# Mechanical properties :
#
#
# Convention : Reuss Voigt Hill
#
# Bulk Modulus (GPa) = 26.97150 31.13162 29.05156
# Shear Modulus (GPa) = 27.90036 31.85370 29.87703
#
# Velocity S-wave (km/s) = 3.52008 3.76121 3.64264
# Velocity P-wave (km/s) = 5.33851 5.71737 5.53118
#
# Compressibility (1/GPa) = 0.03707617
#
# Stress axis : x y z
#
# Youngs Moduli (GPa) = 56.11719 72.11513 104.41670
#
# Poissons Ratio (x) = 0.03139 0.16101
# Poissons Ratio (y) = 0.02442 0.01217
# Poissons Ratio (z) = 0.08653 0.00840
#
# Static dielectric constant tensor:
#      x y z
#    x 1.879040 -0.055140 0.010120 
#    y -0.055140 1.917910 0.041420 
#    z 0.010120 0.041420 1.845810 
# 
# From -- ./inp_files/328544.got.cif
#   From: 2010.05.17/outbox.cif.g08.bks.cpg/sg2_165_cif.got.tgz:328544.got - 2010.06.03 11:33:40.
