data_PCOD9039993
_publ_section_title
;
Structure prediction by ZEFSAII (Michael W. Deem and Ramdas Pophale) SiO2 
 PCOD9039993
Probable space group: P -1
;
_chemical_formula_sum "Si O2"
_cell_formula_units_Z 16
_cell_length_a 8.435611
_cell_length_b 12.694711
_cell_length_c 8.749504
_cell_angle_alpha 128.033066
_cell_angle_beta 115.122912
_cell_angle_gamma 68.592729
_cell_volume 661.125568
_symmetry_space_group_name_H-M "P -1"
_symmetry_group_IT_number 2
_symmetry_cell_setting 'triclinic'
loop_
_space_group_symop_operation_xyz
x,y,z
-x,-y,-z
loop_
_atom_site_type_symbol
_atom_site_label
_atom_site_fract_x
_atom_site_fract_y
_atom_site_fract_z
Si Si1 0.747076 0.793941 0.157577
Si Si2 0.016936 0.584090 0.929106
Si Si3 0.751927 0.531150 0.522918
Si Si4 0.886178 0.988118 0.790844
Si Si5 0.787884 0.092381 0.369885
Si Si6 0.449957 0.709893 0.761540
Si Si7 0.708210 0.246038 0.777933
Si Si8 0.291158 0.262234 0.570053
O O1 0.895649 0.729281 0.041415
O O2 0.787083 0.735019 0.289392
O O3 0.735485 0.954719 0.293907
O O4 0.564672 0.750103 0.984677
O O5 0.214380 0.618485 0.022936
O O6 0.917961 0.523587 0.696385
O O7 0.000000 0.500000 0.000000
O O8 0.588575 0.621852 0.625608
O O9 0.694399 0.385633 0.339967
O O10 0.776865 0.614373 0.456481
O O11 0.758911 0.873790 0.649105
O O12 0.027280 0.943214 0.673588
O O13 0.773164 0.129029 0.821189
O O14 0.000000 0.000000 0.000000
O O15 0.645276 0.160207 0.250346
O O16 0.791488 0.197016 0.603137
O O17 0.500095 0.259382 0.677110
#
# Coordination Sequence:
#
# PCOD9039993 Si02
#       8
#     2   2   2   2   2   2   2   2
#     4  11  25  43  70 105 141 177 232 283 346 406
#     4  11  24  46  73  99 132 191 233 276 343 417
#     4  10  23  47  67 102 138 178 234 278 341 410
#     4  12  27  43  66 103 145 176 226 290 345 407
#     4  12  23  45  71 101 137 182 233 275 350 414
#     4  10  23  42  73  98 134 186 226 284 338 414
#     4  12  24  44  71 100 139 184 227 277 348 411
#     4  12  26  43  69 104 143 176 228 291 340 403
#
# _framework density 24.201150999999999
#
# number of rings (size 3 to 8) (size 9 to 14) (size 15 to 20)
#    0.000    0.750    3.750    3.375    7.000    0.500 
#    0.000    1.250    0.000    0.000    0.000    0.000 
#    0.000    0.000    0.000    0.000    0.000    0.000 
#
# Total GULP energy -89744.354323 kJ/mol
# GULP energy per Si atom -5609.022145 kJ/mol
# Density = 2.414607 g / cm^3
# Si number density = 24.201151 Si / 1000 Ang^3
#
#
#
# Elastic Constant Matrix: (Units=GPa)
#
#
# Indices 1 2 3 4 5 6 
#
# 1 92.1414 26.9495 40.9632 6.4223 19.9095 6.0359
# 2 26.9495 137.7040 57.3767 -27.2704 13.7531 21.4741
# 3 40.9632 57.3767 150.8117 -16.0672 47.9526 19.3771
# 4 6.4223 -27.2704 -16.0672 43.4543 2.7555 5.9405
# 5 19.9095 13.7531 47.9526 2.7555 43.9891 2.3563
# 6 6.0359 21.4741 19.3771 5.9405 2.3563 36.1282
#
#
#
# Elastic Compliance Matrix: (Units=1/GPa)
#
#
# Indices 1 2 3 4 5 6 
#
# 1 0.013466 -0.002437 -0.002744 -0.004613 -0.002137 0.001568
# 2 -0.002437 0.011007 -0.001699 0.007557 -0.000615 -0.006426
# 3 -0.002744 -0.001699 0.013595 0.006011 -0.013104 -0.005957
# 4 -0.004613 0.007557 0.006011 0.032796 -0.008250 -0.011800
# 5 -0.002137 -0.000615 -0.013104 -0.008250 0.038340 0.006607
# 6 0.001568 -0.006426 -0.005957 -0.011800 0.006607 0.035941
#
#
# Mechanical properties :
#
#
# Convention : Reuss Voigt Hill
#
# Bulk Modulus (GPa) = 41.13953 70.13733 55.63843
# Shear Modulus (GPa) = 29.93868 41.73882 35.83875
#
# Velocity S-wave (km/s) = 3.52103 4.15741 3.85238
# Velocity P-wave (km/s) = 5.79362 7.21729 6.54429
#
# Compressibility (1/GPa) = 0.02430752
#
# Stress axis : x y z
#
# Youngs Moduli (GPa) = 74.26123 90.85086 73.55570
#
# Poissons Ratio (x) = 0.22137 0.20185
# Poissons Ratio (y) = 0.18095 0.12501
# Poissons Ratio (z) = 0.20379 0.15440
#
# Static dielectric constant tensor:
#      x y z
#    x 1.968230 -0.009690 -0.015870 
#    y -0.009690 1.859650 0.010050 
#    z -0.015870 0.010050 1.904050 
# 
# From -- ./inp_files/186500.got.cif
#   From: 2010.05.17/outbox.cif.g08.bks.cpg/sg2_94_cif.got.tgz:186500.got - 2010.06.03 11:33:40.
