data_PCOD9039209
_publ_section_title
;
Structure prediction by ZEFSAII (Michael W. Deem and Ramdas Pophale) SiO2 
 PCOD9039209
Probable space group: P -1
;
_chemical_formula_sum "Si O2"
_cell_formula_units_Z 12
_cell_length_a 5.413926
_cell_length_b 18.198334
_cell_length_c 5.105555
_cell_angle_alpha 91.307100
_cell_angle_beta 83.261678
_cell_angle_gamma 62.793637
_cell_volume 442.612382
_symmetry_space_group_name_H-M "P -1"
_symmetry_group_IT_number 2
_symmetry_cell_setting 'triclinic'
loop_
_space_group_symop_operation_xyz
x,y,z
-x,-y,-z
loop_
_atom_site_type_symbol
_atom_site_label
_atom_site_fract_x
_atom_site_fract_y
_atom_site_fract_z
Si Si1 0.113931 0.159509 0.289266
Si Si2 0.189389 0.683674 0.957184
Si Si3 0.804779 0.014082 0.777590
Si Si4 0.489016 0.449862 0.743079
Si Si5 0.477052 0.811015 0.378998
Si Si6 0.250930 0.357581 0.000911
O O1 0.985687 0.218857 0.057515
O O2 0.278106 0.060222 0.222847
O O3 0.317365 0.187330 0.419441
O O4 0.825118 0.176378 0.478222
O O5 0.023103 0.639725 0.842804
O O6 0.255038 0.643199 0.237493
O O7 0.507534 0.654424 0.822404
O O8 0.579773 0.109430 0.787170
O O9 0.000000 0.000000 0.500000
O O10 0.000000 0.000000 0.000000
O O11 0.500000 0.500000 0.500000
O O12 0.226497 0.430563 0.816979
O O13 0.500000 0.500000 0.000000
O O14 0.619091 0.727016 0.190033
#
# Coordination Sequence:
#
# PCOD9039209 Si02
#       6
#     2   2   2   2   2   2
#     4  11  23  41  69 102 141 186 234 284 342 406
#     4  10  23  42  67 101 138 179 231 279 350 406
#     4  10  23  44  68 102 142 186 234 284 338 402
#     4  10  26  46  72 101 138 177 228 286 352 418
#     4  11  23  41  69 102 141 186 234 284 342 406
#     4  10  23  42  67 101 138 179 231 279 350 406
#
# _framework density 27.111754999999999
#
# number of rings (size 3 to 8) (size 9 to 14) (size 15 to 20)
#    1.000    0.667    0.000    3.500    2.333    4.000 
#    0.000    7.500    0.000    0.000    0.000    0.000 
#    0.000    0.000    0.000    0.000    0.000    0.000 
#
# Total GULP energy -67143.945178 kJ/mol
# GULP energy per Si atom -5595.328765 kJ/mol
# Density = 2.705005 g / cm^3
# Si number density = 27.111755 Si / 1000 Ang^3
#
#
#
# Elastic Constant Matrix: (Units=GPa)
#
#
# Indices 1 2 3 4 5 6 
#
# 1 184.6374 38.8402 33.4303 3.0531 14.6676 16.4525
# 2 38.8402 193.4685 71.1767 -26.8316 -13.9687 21.7270
# 3 33.4303 71.1767 138.8675 -28.2789 -1.2003 6.5244
# 4 3.0531 -26.8316 -28.2789 60.5896 2.8698 -0.2489
# 5 14.6676 -13.9687 -1.2003 2.8698 40.3953 -4.7478
# 6 16.4525 21.7270 6.5244 -0.2489 -4.7478 55.3096
#
#
#
# Elastic Compliance Matrix: (Units=1/GPa)
#
#
# Indices 1 2 3 4 5 6 
#
# 1 0.006215 -0.001003 -0.001173 -0.001182 -0.002737 -0.001557
# 2 -0.001003 0.007069 -0.002926 0.001695 0.002375 -0.001922
# 3 -0.001173 -0.002926 0.009632 0.003284 -0.000493 0.000335
# 4 -0.001182 0.001695 0.003284 0.018859 -0.000303 -0.000643
# 5 -0.002737 0.002375 -0.000493 -0.000303 0.026841 0.002242
# 6 -0.001557 -0.001922 0.000335 -0.000643 0.002242 0.019448
#
#
# Mechanical properties :
#
#
# Convention : Reuss Voigt Hill
#
# Bulk Modulus (GPa) = 78.66519 89.31865 83.99192
# Shear Modulus (GPa) = 48.77799 56.16066 52.46932
#
# Velocity S-wave (km/s) = 4.24624 4.55626 4.40397
# Velocity P-wave (km/s) = 7.28827 7.79073 7.54368
#
# Compressibility (1/GPa) = 0.01271210
#
# Stress axis : x y z
#
# Youngs Moduli (GPa) = 160.89793 141.46466 103.82167
#
# Poissons Ratio (x) = 0.14185 0.12182
# Poissons Ratio (y) = 0.16134 0.30376
# Poissons Ratio (z) = 0.18880 0.41390
#
# Static dielectric constant tensor:
#      x y z
#    x 2.239650 -0.047580 -0.027080 
#    y -0.047580 2.174620 0.000160 
#    z -0.027080 0.000160 2.064150 
# 
# From -- ./inp_files/6879.got.cif
#   From: 2010.05.17/outbox.cif.g08.bks.cpg/sg2_4_cif.got.tgz:6879.got - 2010.06.03 11:33:40.
