data_PCOD9039160
_publ_section_title
;
Structure prediction by ZEFSAII (Michael W. Deem and Ramdas Pophale) SiO2 
 PCOD9039160
Probable space group: P -1
;
_chemical_formula_sum "Si O2"
_cell_formula_units_Z 14
_cell_length_a 7.581465
_cell_length_b 13.938336
_cell_length_c 8.406307
_cell_angle_alpha 72.134716
_cell_angle_beta 63.182679
_cell_angle_gamma 107.427945
_cell_volume 646.549755
_symmetry_space_group_name_H-M "P -1"
_symmetry_group_IT_number 2
_symmetry_cell_setting 'triclinic'
loop_
_space_group_symop_operation_xyz
x,y,z
-x,-y,-z
loop_
_atom_site_type_symbol
_atom_site_label
_atom_site_fract_x
_atom_site_fract_y
_atom_site_fract_z
Si Si1 0.976976 0.802095 0.989151
Si Si2 0.600053 0.520202 0.626944
Si Si3 0.870946 0.067817 0.473470
Si Si4 0.851193 0.559178 0.997222
Si Si5 0.474605 0.730199 0.201760
Si Si6 0.016207 0.696510 0.536529
Si Si7 0.438464 0.912044 0.921672
O O1 0.076082 0.885936 0.751319
O O2 0.928549 0.674434 0.016837
O O3 0.173101 0.856131 0.013369
O O4 0.731035 0.786903 0.140163
O O5 0.500000 0.500000 0.500000
O O6 0.854515 0.631581 0.484812
O O7 0.599902 0.403258 0.738731
O O8 0.416240 0.528996 0.808335
O O9 0.967570 0.183175 0.485390
O O10 0.603802 0.983510 0.671597
O O11 0.000000 0.000000 0.500000
O O12 0.894811 0.606568 0.776701
O O13 0.000000 0.500000 0.000000
O O14 0.484561 0.809236 0.009570
O O15 0.274448 0.722942 0.396892
O O16 0.500000 0.000000 0.000000
#
# Coordination Sequence:
#
# PCOD9039160 Si02
#       7
#     2   2   2   2   2   2   2
#     4  10  25  44  69 100 135 173 229 273 333 400
#     4  11  25  43  69 102 135 175 222 274 339 400
#     4  11  23  46  67  99 135 181 225 276 333 390
#     4  10  23  42  66  98 133 174 221 272 338 393
#     4  11  24  43  71 100 134 176 222 276 339 385
#     4  11  24  43  68  99 136 173 226 273 332 404
#     4  12  25  45  69  99 136 177 225 276 331 398
#
# _framework density 21.653400000000001
#
# number of rings (size 3 to 8) (size 9 to 14) (size 15 to 20)
#    0.000    1.143    2.857    2.143    6.000    1.714 
#    2.571    0.000    0.000    0.000    0.000    0.000 
#    0.000    0.000    0.000    0.000    0.000    0.000 
#
# Total GULP energy -78332.433492 kJ/mol
# GULP energy per Si atom -5595.173821 kJ/mol
# Density = 2.160412 g / cm^3
# Si number density = 21.653400 Si / 1000 Ang^3
#
#
#
# Elastic Constant Matrix: (Units=GPa)
#
#
# Indices 1 2 3 4 5 6 
#
# 1 181.6309 78.7751 42.7825 -6.4925 -12.0544 4.6395
# 2 78.7751 82.1554 25.7481 -8.9831 12.6624 2.3735
# 3 42.7825 25.7481 95.6468 -12.0237 -17.5132 -0.6924
# 4 -6.4925 -8.9831 -12.0237 30.8996 -7.9848 4.9427
# 5 -12.0544 12.6624 -17.5132 -7.9848 41.2607 -3.0173
# 6 4.6395 2.3735 -0.6924 4.9427 -3.0173 49.5226
#
#
#
# Elastic Compliance Matrix: (Units=1/GPa)
#
#
# Indices 1 2 3 4 5 6 
#
# 1 0.011009 -0.011302 -0.000632 0.000485 0.006500 -0.000151
# 2 -0.011302 0.026554 -0.004514 0.000308 -0.013390 -0.001123
# 3 -0.000632 -0.004514 0.014300 0.006259 0.008509 0.000369
# 4 0.000485 0.000308 0.006259 0.038038 0.009833 -0.003170
# 5 0.006500 -0.013390 0.008509 0.009833 0.035858 0.001355
# 6 -0.000151 -0.001123 0.000369 -0.003170 0.001355 0.020665
#
#
# Mechanical properties :
#
#
# Convention : Reuss Voigt Hill
#
# Bulk Modulus (GPa) = 52.72200 72.67163 62.69681
# Shear Modulus (GPa) = 26.93352 38.47842 32.70597
#
# Velocity S-wave (km/s) = 3.53065 4.22004 3.89064
# Velocity P-wave (km/s) = 6.40481 7.57490 7.01430
#
# Compressibility (1/GPa) = 0.01896741
#
# Stress axis : x y z
#
# Youngs Moduli (GPa) = 90.83489 37.65922 69.92856
#
# Poissons Ratio (x) = 0.42564 0.04417
# Poissons Ratio (y) = 1.02665 0.31565
# Poissons Ratio (z) = 0.05738 0.16999
#
# Static dielectric constant tensor:
#      x y z
#    x 1.774020 0.019770 -0.014230 
#    y 0.019770 1.767400 0.002200 
#    z -0.014230 0.002200 1.824310 
# 
# From -- ./inp_files/134835.got.cif
#   From: 2010.05.17/outbox.cif.g08.bks.cpg/sg2_68_cif.got.tgz:134835.got - 2010.06.03 11:33:40.
