data_PCOD9039004
_publ_section_title
;
Structure prediction by ZEFSAII (Michael W. Deem and Ramdas Pophale) SiO2 
 PCOD9039004
Probable space group: P -1
;
_chemical_formula_sum "Si O2"
_cell_formula_units_Z 16
_cell_length_a 6.610143
_cell_length_b 13.119306
_cell_length_c 11.963680
_cell_angle_alpha 88.940999
_cell_angle_beta 131.832745
_cell_angle_gamma 77.351375
_cell_volume 734.704094
_symmetry_space_group_name_H-M "P -1"
_symmetry_group_IT_number 2
_symmetry_cell_setting 'triclinic'
loop_
_space_group_symop_operation_xyz
x,y,z
-x,-y,-z
loop_
_atom_site_type_symbol
_atom_site_label
_atom_site_fract_x
_atom_site_fract_y
_atom_site_fract_z
Si Si1 0.954491 0.896741 0.205246
Si Si2 0.950482 0.444689 0.869642
Si Si3 0.736565 0.256913 0.861544
Si Si4 0.271199 0.828611 0.677370
Si Si5 0.679784 0.404828 0.387887
Si Si6 0.370118 0.858517 0.968760
Si Si7 0.161827 0.432034 0.711081
Si Si8 0.719689 0.021369 0.495066
O O1 0.193869 0.829475 0.209605
O O2 0.100960 0.913475 0.373407
O O3 0.804220 0.015473 0.099143
O O4 0.695270 0.846952 0.124584
O O5 0.933070 0.330182 0.904085
O O6 0.641354 0.519549 0.712500
O O7 0.167890 0.433816 0.847500
O O8 0.000000 0.500000 0.000000
O O9 0.418842 0.339193 0.751563
O O10 0.777258 0.199585 0.997087
O O11 0.314763 0.713952 0.640967
O O12 0.363354 0.818504 0.840548
O O13 0.420039 0.903845 0.662306
O O14 0.942669 0.906251 0.549745
O O15 0.810618 0.458506 0.334016
O O16 0.874538 0.409881 0.565377
O O17 0.500000 0.000000 0.500000
#
# Coordination Sequence:
#
# PCOD9039004 Si02
#       8
#     2   2   2   2   2   2   2   2
#     4  10  23  42  67  95 130 172 213 269 315 387
#     4  11  26  43  67  98 131 164 217 270 321 385
#     4  11  24  38  70  94 129 174 215 258 329 375
#     4  10  24  41  66  95 131 171 210 265 321 372
#     4  10  24  43  69  93 128 173 211 268 318 383
#     4  10  23  42  65  95 134 169 220 262 314 388
#     4  10  24  45  65  95 129 168 221 263 320 387
#     4  10  24  43  64  99 133 164 214 260 321 385
#
# _framework density 21.777476
#
# number of rings (size 3 to 8) (size 9 to 14) (size 15 to 20)
#    0.000    1.750    0.000    1.500   10.500    7.000 
#    0.000    0.000    0.000    0.000    0.000    0.000 
#    0.000    0.000    0.000    0.000    0.000    0.000 
#
# Total GULP energy -89438.760046 kJ/mol
# GULP energy per Si atom -5589.922503 kJ/mol
# Density = 2.172791 g / cm^3
# Si number density = 21.777476 Si / 1000 Ang^3
#
#
#
# Elastic Constant Matrix: (Units=GPa)
#
#
# Indices 1 2 3 4 5 6 
#
# 1 101.8122 36.6156 22.3984 -0.4662 -24.2706 -15.6979
# 2 36.6156 101.4687 7.6058 -4.7165 -10.7856 -6.1653
# 3 22.3984 7.6058 49.5037 5.6017 -15.8105 -7.3744
# 4 -0.4662 -4.7165 5.6017 19.1407 3.0952 -9.2619
# 5 -24.2706 -10.7856 -15.8105 3.0952 33.0941 -3.0737
# 6 -15.6979 -6.1653 -7.3744 -9.2619 -3.0737 31.0527
#
#
#
# Elastic Compliance Matrix: (Units=1/GPa)
#
#
# Indices 1 2 3 4 5 6 
#
# 1 0.015134 -0.003691 -0.002422 0.002553 0.009245 0.008020
# 2 -0.003691 0.011526 0.000034 0.003327 0.000895 0.001511
# 3 -0.002422 0.000034 0.026622 -0.007882 0.012057 0.003947
# 4 0.002553 0.003327 -0.007882 0.065515 -0.005161 0.019109
# 5 0.009245 0.000895 0.012057 -0.005161 0.044514 0.010581
# 6 0.008020 0.001511 0.003947 0.019109 0.010581 0.044242
#
#
# Mechanical properties :
#
#
# Convention : Reuss Voigt Hill
#
# Bulk Modulus (GPa) = 24.31721 42.89158 33.60440
# Shear Modulus (GPa) = 21.42056 29.06848 25.24452
#
# Velocity S-wave (km/s) = 3.13966 3.65745 3.40840
# Velocity P-wave (km/s) = 4.93292 6.12977 5.56362
#
# Compressibility (1/GPa) = 0.04112313
#
# Stress axis : x y z
#
# Youngs Moduli (GPa) = 66.07439 86.75813 37.56317
#
# Poissons Ratio (x) = 0.32023 0.09099
# Poissons Ratio (y) = 0.24389 -0.00126
# Poissons Ratio (z) = 0.16005 -0.00292
#
# Static dielectric constant tensor:
#      x y z
#    x 1.800400 0.004570 0.006880 
#    y 0.004570 1.800350 -0.014600 
#    z 0.006880 -0.014600 1.821030 
# 
# From -- ./inp_files/364635.got.cif
#   From: 2010.05.17/outbox.cif.g08.bks.cpg/sg2_183_cif.got.tgz:364635.got - 2010.06.03 11:33:40.
