data_PCOD9039656
_publ_section_title
;
Structure prediction by ZEFSAII (Michael W. Deem and Ramdas Pophale) SiO2 
 PCOD9039656
Probable space group: P -1
;
_chemical_formula_sum "Si O2"
_cell_formula_units_Z 16
_cell_length_a 5.701834
_cell_length_b 11.685050
_cell_length_c 16.467757
_cell_angle_alpha 131.318390
_cell_angle_beta 79.278160
_cell_angle_gamma 121.849665
_cell_volume 676.923039
_symmetry_space_group_name_H-M "P -1"
_symmetry_group_IT_number 2
_symmetry_cell_setting 'triclinic'
loop_
_space_group_symop_operation_xyz
x,y,z
-x,-y,-z
loop_
_atom_site_type_symbol
_atom_site_label
_atom_site_fract_x
_atom_site_fract_y
_atom_site_fract_z
Si Si1 0.757312 0.677131 0.906299
Si Si2 0.311300 0.080992 0.844793
Si Si3 0.736420 0.451402 0.935652
Si Si4 0.222370 0.818358 0.465594
Si Si5 0.876556 0.790002 0.623169
Si Si6 0.344001 0.574406 0.458187
Si Si7 0.680501 0.136271 0.125897
Si Si8 0.702444 0.503416 0.274532
O O1 0.861605 0.569556 0.901778
O O2 0.459108 0.530828 0.815843
O O3 0.988989 0.793754 0.877494
O O4 0.729165 0.810418 0.029861
O O5 0.545364 0.233592 0.841116
O O6 0.415874 0.967894 0.831837
O O7 0.021254 0.946906 0.753451
O O8 0.500000 0.500000 0.000000
O O9 0.000000 0.500000 0.000000
O O10 0.277901 0.686025 0.452924
O O11 0.055173 0.864127 0.562933
O O12 0.012061 0.688114 0.346981
O O13 0.500000 0.000000 0.500000
O O14 0.551396 0.702861 0.577043
O O15 0.889221 0.620356 0.578501
O O16 0.527681 0.523796 0.366816
O O17 0.682625 0.317863 0.207569
O O18 0.500000 0.000000 0.000000
#
# Coordination Sequence:
#
# PCOD9039656 Si02
#       8
#     2   2   2   2   2   2   2   2
#     4  11  24  42  67  98 143 182 234 286 359 428
#     4  11  23  42  65 104 139 182 236 291 351 434
#     4  10  24  46  65  94 144 192 235 289 357 432
#     4  11  25  46  71 101 133 178 237 293 354 426
#     4  10  23  42  69  99 131 182 227 288 361 412
#     4  10  23  46  68  95 139 174 237 288 355 425
#     4  12  24  40  69 104 142 178 236 284 358 425
#     4  11  24  42  71 101 137 188 225 299 355 423
#
# _framework density 23.636364
#
# number of rings (size 3 to 8) (size 9 to 14) (size 15 to 20)
#    0.000    1.250    1.250    3.750    3.500    7.000 
#    4.500    0.000    0.000    0.000    0.000    0.000 
#    0.000    0.000    0.000    0.000    0.000    0.000 
#
# Total GULP energy -89498.423080 kJ/mol
# GULP energy per Si atom -5593.651443 kJ/mol
# Density = 2.358257 g / cm^3
# Si number density = 23.636364 Si / 1000 Ang^3
#
#
#
# Elastic Constant Matrix: (Units=GPa)
#
#
# Indices 1 2 3 4 5 6 
#
# 1 72.7004 22.7446 46.3707 5.0603 22.6463 -7.8219
# 2 22.7446 125.7535 31.9019 23.1794 14.1376 -0.5761
# 3 46.3707 31.9019 172.3638 9.2200 46.7533 -0.7134
# 4 5.0603 23.1794 9.2200 30.4425 7.2680 8.1914
# 5 22.6463 14.1376 46.7533 7.2680 44.3726 -7.2511
# 6 -7.8219 -0.5761 -0.7134 8.1914 -7.2511 32.2194
#
#
#
# Elastic Compliance Matrix: (Units=1/GPa)
#
#
# Indices 1 2 3 4 5 6 
#
# 1 0.018268 -0.001855 -0.003269 -0.000433 -0.004663 0.003390
# 2 -0.001855 0.009887 -0.001027 -0.007451 0.000374 0.001682
# 3 -0.003269 -0.001027 0.009003 0.001293 -0.008156 -0.002777
# 4 -0.000433 -0.007451 0.001293 0.043659 -0.008063 -0.013124
# 5 -0.004663 0.000374 -0.008156 -0.008063 0.036163 0.008883
# 6 0.003390 0.001682 -0.002777 -0.013124 0.008883 0.037165
#
#
# Mechanical properties :
#
#
# Convention : Reuss Voigt Hill
#
# Bulk Modulus (GPa) = 40.23247 63.65022 51.94135
# Shear Modulus (GPa) = 28.61531 39.39359 34.00445
#
# Velocity S-wave (km/s) = 3.48321 4.08689 3.79707
# Velocity P-wave (km/s) = 5.76501 7.01838 6.42235
#
# Compressibility (1/GPa) = 0.02485555
#
# Stress axis : x y z
#
# Youngs Moduli (GPa) = 54.74032 101.14196 111.07629
#
# Poissons Ratio (x) = 0.18764 0.36314
# Poissons Ratio (y) = 0.10155 0.11404
# Poissons Ratio (z) = 0.17896 0.10384
#
# Static dielectric constant tensor:
#      x y z
#    x 1.999800 0.013920 -0.016640 
#    y 0.013920 1.890250 -0.008040 
#    z -0.016640 -0.008040 1.872480 
# 
# From -- ./inp_files/367895.got.cif
#   From: 2010.05.17/outbox.cif.g08.bks.cpg/sg2_184_cif.got.tgz:367895.got - 2010.06.03 11:33:40.
