data_PCOD9039937
_publ_section_title
;
Structure prediction by ZEFSAII (Michael W. Deem and Ramdas Pophale) SiO2 
 PCOD9039937
Probable space group: P -1
;
_chemical_formula_sum "Si O2"
_cell_formula_units_Z 14
_cell_length_a 4.989070
_cell_length_b 17.487725
_cell_length_c 16.431065
_cell_angle_alpha 152.146276
_cell_angle_beta 114.288347
_cell_angle_gamma 73.871295
_cell_volume 597.959421
_symmetry_space_group_name_H-M "P -1"
_symmetry_group_IT_number 2
_symmetry_cell_setting 'triclinic'
loop_
_space_group_symop_operation_xyz
x,y,z
-x,-y,-z
loop_
_atom_site_type_symbol
_atom_site_label
_atom_site_fract_x
_atom_site_fract_y
_atom_site_fract_z
Si Si1 0.281747 0.829952 0.343706
Si Si2 0.684202 0.434767 0.684558
Si Si3 0.858559 0.501665 0.396185
Si Si4 0.118814 0.248614 0.621262
Si Si5 0.851261 0.189256 0.984380
Si Si6 0.854374 0.837542 0.632170
Si Si7 0.238184 0.259039 0.936507
O O1 0.535185 0.717746 0.275940
O O2 0.012656 0.779440 0.198900
O O3 0.500000 0.000000 0.500000
O O4 0.899148 0.174032 0.597618
O O5 0.500004 0.497682 0.646540
O O6 0.496754 0.245281 0.486404
O O7 0.014817 0.410824 0.723697
O O8 0.610123 0.544949 0.854596
O O9 0.989160 0.680980 0.536233
O O10 0.000000 0.500000 0.500000
O O11 0.887852 0.337182 0.194140
O O12 0.085969 0.129328 0.425045
O O13 0.511791 0.163556 0.882962
O O14 0.071682 0.243957 0.988485
O O15 0.915374 0.009984 0.850607
#
# Coordination Sequence:
#
# PCOD9039937 Si02
#       7
#     2   2   2   2   2   2   2
#     4  12  26  38  65  98 140 179 236 294 326 388
#     4   9  23  43  67  94 135 183 216 281 351 399
#     4   9  21  46  73 106 137 170 226 286 341 412
#     4  12  23  44  63  97 133 186 232 276 342 399
#     4  11  24  43  70  99 138 183 224 274 345 413
#     4  10  23  42  72  97 136 188 219 278 344 411
#     4  11  25  44  64 101 137 180 235 280 337 402
#
# _framework density 23.412960000000002
#
# number of rings (size 3 to 8) (size 9 to 14) (size 15 to 20)
#    0.857    0.571    1.429    3.000    4.000    1.714 
#    0.000    6.429    0.000    5.143    0.000    0.000 
#    0.000    0.000    0.000    0.000    0.000    0.000 
#
# Total GULP energy -78003.692320 kJ/mol
# GULP energy per Si atom -5571.692309 kJ/mol
# Density = 2.335967 g / cm^3
# Si number density = 23.412960 Si / 1000 Ang^3
#
#
#
# Elastic Constant Matrix: (Units=GPa)
#
#
# Indices 1 2 3 4 5 6 
#
# 1 128.3343 43.7417 22.3748 -15.9986 15.3663 -1.1979
# 2 43.7417 150.7895 69.6550 -23.9131 5.6853 -9.6820
# 3 22.3748 69.6550 122.8282 2.5230 -9.6190 -8.5701
# 4 -15.9986 -23.9131 2.5230 36.7128 -10.9393 1.1909
# 5 15.3663 5.6853 -9.6190 -10.9393 30.3056 4.6072
# 6 -1.1979 -9.6820 -8.5701 1.1909 4.6072 29.8031
#
#
#
# Elastic Compliance Matrix: (Units=1/GPa)
#
#
# Indices 1 2 3 4 5 6 
#
# 1 0.009286 -0.001784 -0.001031 0.001737 -0.004083 0.000059
# 2 -0.001784 0.011149 -0.006093 0.006546 -0.001016 0.001694
# 3 -0.001031 -0.006093 0.012249 -0.004132 0.003901 0.001064
# 4 0.001737 0.006546 -0.004132 0.035489 0.009680 -0.001906
# 5 -0.004083 -0.001016 0.003901 0.009680 0.040915 -0.006084
# 6 0.000059 0.001694 0.001064 -0.001906 -0.006084 0.035429
#
#
# Mechanical properties :
#
#
# Convention : Reuss Voigt Hill
#
# Bulk Modulus (GPa) = 67.26275 74.83275 71.04775
# Shear Modulus (GPa) = 29.88811 37.10968 33.49890
#
# Velocity S-wave (km/s) = 3.57678 3.98553 3.78667
# Velocity P-wave (km/s) = 6.77119 7.29457 7.03775
#
# Compressibility (1/GPa) = 0.01486707
#
# Stress axis : x y z
#
# Youngs Moduli (GPa) = 107.68886 89.69217 81.63691
#
# Poissons Ratio (x) = 0.16004 0.08417
# Poissons Ratio (y) = 0.19215 0.49745
# Poissons Ratio (z) = 0.11103 0.54653
#
# Static dielectric constant tensor:
#      x y z
#    x 1.995360 -0.001080 -0.012200 
#    y -0.001080 1.939760 0.150250 
#    z -0.012200 0.150250 2.027350 
# 
# From -- ./inp_files/550470.got.cif
#   From: 2010.05.17/outbox.cif.g08.bks.cpg/sg2_276_cif.got.tgz:550470.got - 2010.06.03 11:33:40.
