data_PCOD9039666
_publ_section_title
;
Structure prediction by ZEFSAII (Michael W. Deem and Ramdas Pophale) SiO2 
 PCOD9039666
Probable space group: P -1
;
_chemical_formula_sum "Si O2"
_cell_formula_units_Z 12
_cell_length_a 9.434795
_cell_length_b 18.805715
_cell_length_c 5.205532
_cell_angle_alpha 105.699658
_cell_angle_beta 70.234154
_cell_angle_gamma 149.368809
_cell_volume 442.460576
_symmetry_space_group_name_H-M "P -1"
_symmetry_group_IT_number 2
_symmetry_cell_setting 'triclinic'
loop_
_space_group_symop_operation_xyz
x,y,z
-x,-y,-z
loop_
_atom_site_type_symbol
_atom_site_label
_atom_site_fract_x
_atom_site_fract_y
_atom_site_fract_z
Si Si1 0.277689 0.311822 0.517330
Si Si2 0.751370 0.822457 0.237157
Si Si3 0.765519 0.587362 0.756415
Si Si4 0.270051 0.880627 0.230217
Si Si5 0.702272 0.966567 0.262029
Si Si6 0.127159 0.513852 0.185624
O O1 0.253349 0.215543 0.512158
O O2 0.603493 0.470254 0.516493
O O3 0.156052 0.306844 0.345399
O O4 0.050392 0.250998 0.805035
O O5 0.707734 0.891815 0.333895
O O6 0.473363 0.669393 0.123367
O O7 0.044870 0.931038 0.005754
O O8 0.940909 0.600597 0.823875
O O9 0.500000 0.500000 0.000000
O O10 0.387595 0.851510 0.228455
O O11 0.271966 0.950917 0.493877
O O12 0.500000 0.000000 0.000000
O O13 0.000000 0.500000 0.500000
O O14 0.000000 0.500000 0.000000
#
# Coordination Sequence:
#
# PCOD9039666 Si02
#       6
#     2   2   2   2   2   2
#     4  10  23  42  69  99 140 180 244 294 364 429
#     4  10  23  47  70 104 143 191 242 298 371 435
#     4  10  25  43  71 100 137 191 243 294 369 432
#     4  11  23  42  67 102 139 185 242 298 366 434
#     4  10  24  44  67 103 141 189 240 299 363 438
#     4  11  28  49  72 111 148 190 245 306 369 436
#
# _framework density 27.12106
#
# number of rings (size 3 to 8) (size 9 to 14) (size 15 to 20)
#    0.000    1.667    1.667    0.000   14.000    0.667 
#    3.000    0.000    0.000    0.000    0.000    0.000 
#    0.000    0.000    0.000    0.000    0.000    0.000 
#
# Total GULP energy -67050.959476 kJ/mol
# GULP energy per Si atom -5587.579956 kJ/mol
# Density = 2.705933 g / cm^3
# Si number density = 27.121060 Si / 1000 Ang^3
#
#
#
# Elastic Constant Matrix: (Units=GPa)
#
#
# Indices 1 2 3 4 5 6 
#
# 1 267.5697 54.1518 67.5738 -9.0572 35.9099 -46.3322
# 2 54.1518 100.1562 11.5096 -12.6060 13.5889 -13.8916
# 3 67.5738 11.5096 102.1337 -9.6046 21.8075 -29.5428
# 4 -9.0572 -12.6060 -9.6046 33.6522 -9.2784 6.0486
# 5 35.9099 13.5889 21.8075 -9.2784 63.7552 -12.3093
# 6 -46.3322 -13.8916 -29.5428 6.0486 -12.3093 78.1277
#
#
#
# Elastic Compliance Matrix: (Units=1/GPa)
#
#
# Indices 1 2 3 4 5 6 
#
# 1 0.005278 -0.002248 -0.002546 -0.000832 -0.001434 0.001606
# 2 -0.002248 0.011776 0.000891 0.003697 -0.000880 0.000672
# 3 -0.002546 0.000891 0.012939 0.002170 -0.002284 0.003013
# 4 -0.000832 0.003697 0.002170 0.032638 0.003497 -0.000992
# 5 -0.001434 -0.000880 -0.002284 0.003497 0.018108 0.000712
# 6 0.001606 0.000672 0.003013 -0.000992 0.000712 0.015200
#
#
# Mechanical properties :
#
#
# Convention : Reuss Voigt Hill
#
# Bulk Modulus (GPa) = 45.07728 81.81443 63.44586
# Shear Modulus (GPa) = 44.98824 57.54864 51.26844
#
# Velocity S-wave (km/s) = 4.07725 4.61142 4.35254
# Velocity P-wave (km/s) = 6.23074 7.65412 6.97881
#
# Compressibility (1/GPa) = 0.02218412
#
# Stress axis : x y z
#
# Youngs Moduli (GPa) = 189.47631 84.92070 77.28830
#
# Poissons Ratio (x) = 0.19094 0.19679
# Poissons Ratio (y) = 0.42603 -0.06884
# Poissons Ratio (z) = 0.48243 -0.07564
#
# Static dielectric constant tensor:
#      x y z
#    x 2.153420 0.163560 0.112580 
#    y 0.163560 2.541010 0.158660 
#    z 0.112580 0.158660 2.381330 
# 
# From -- ./inp_files/47767.got.cif
#   From: 2010.05.17/outbox.cif.g08.bks.cpg/sg2_24_cif.got.tgz:47767.got - 2010.06.03 11:33:40.
