data_PCOD9039791
_publ_section_title
;
Structure prediction by ZEFSAII (Michael W. Deem and Ramdas Pophale) SiO2 
 PCOD9039791
Probable space group: P -1
;
_chemical_formula_sum "Si O2"
_cell_formula_units_Z 14
_cell_length_a 13.886904
_cell_length_b 12.209504
_cell_length_c 8.138005
_cell_angle_alpha 65.831208
_cell_angle_beta 142.654586
_cell_angle_gamma 129.986716
_cell_volume 625.859524
_symmetry_space_group_name_H-M "P -1"
_symmetry_group_IT_number 2
_symmetry_cell_setting 'triclinic'
loop_
_space_group_symop_operation_xyz
x,y,z
-x,-y,-z
loop_
_atom_site_type_symbol
_atom_site_label
_atom_site_fract_x
_atom_site_fract_y
_atom_site_fract_z
Si Si1 0.608715 0.791428 0.623038
Si Si2 0.212310 0.922222 0.094053
Si Si3 0.810610 0.363409 0.743855
Si Si4 0.211928 0.187764 0.500642
Si Si5 0.219849 0.587074 0.691112
Si Si6 0.538459 0.918826 0.963639
Si Si7 0.528487 0.502196 0.736237
O O1 0.377124 0.711469 0.346491
O O2 0.714682 0.810450 0.585213
O O3 0.607281 0.665456 0.798935
O O4 0.714443 0.948030 0.755937
O O5 0.165622 0.767452 0.186704
O O6 0.386645 0.989918 0.158014
O O7 0.014865 0.886570 0.767193
O O8 0.770793 0.420356 0.488629
O O9 0.000000 0.500000 0.000000
O O10 0.324119 0.357220 0.605545
O O11 0.297195 0.110537 0.759159
O O12 0.340895 0.760003 0.779568
O O13 0.000000 0.500000 0.500000
O O14 0.320040 0.528959 0.973028
O O15 0.500000 0.000000 0.000000
O O16 0.500000 0.500000 0.500000
#
# Coordination Sequence:
#
# PCOD9039791 Si02
#       7
#     2   2   2   2   2   2   2
#     4  11  23  44  72 101 142 185 237 300 361 416
#     4  12  25  45  69 106 141 185 241 296 364 428
#     4  12  28  45  70 103 148 192 240 298 361 429
#     4  10  23  42  71 101 140 190 235 285 369 432
#     4  11  27  45  72 108 140 189 249 288 355 437
#     4  11  25  46  70 102 147 186 235 306 358 424
#     4   9  22  45  72 100 142 186 235 293 361 427
#
# _framework density 22.369235
#
# number of rings (size 3 to 8) (size 9 to 14) (size 15 to 20)
#    0.000    1.143    1.429    3.000   14.000    1.714 
#    2.571    0.000    0.000    0.000    0.000    0.000 
#    0.000    0.000    0.000    0.000    0.000    0.000 
#
# Total GULP energy -78237.316046 kJ/mol
# GULP energy per Si atom -5588.379718 kJ/mol
# Density = 2.231832 g / cm^3
# Si number density = 22.369235 Si / 1000 Ang^3
#
#
#
# Elastic Constant Matrix: (Units=GPa)
#
#
# Indices 1 2 3 4 5 6 
#
# 1 76.5597 43.8617 15.1445 5.7761 3.2924 7.3626
# 2 43.8617 171.1105 77.0693 7.1783 1.3357 -9.0734
# 3 15.1445 77.0693 118.0284 17.5510 5.9101 7.9707
# 4 5.7761 7.1783 17.5510 39.3586 15.3775 0.7587
# 5 3.2924 1.3357 5.9101 15.3775 31.8775 9.2602
# 6 7.3626 -9.0734 7.9707 0.7587 9.2602 34.1941
#
#
#
# Elastic Compliance Matrix: (Units=1/GPa)
#
#
# Indices 1 2 3 4 5 6 
#
# 1 0.016417 -0.005363 0.002125 -0.002694 0.001087 -0.005688
# 2 -0.005363 0.010539 -0.006874 0.002396 -0.001484 0.005902
# 3 0.002125 -0.006874 0.013870 -0.005946 0.002094 -0.005950
# 4 -0.002694 0.002396 -0.005946 0.034666 -0.017339 0.006528
# 5 0.001087 -0.001484 0.002094 -0.017339 0.042882 -0.012344
# 6 -0.005688 0.005902 -0.005950 0.006528 -0.012344 0.036621
#
#
# Mechanical properties :
#
#
# Convention : Reuss Voigt Hill
#
# Bulk Modulus (GPa) = 48.53667 70.87217 59.70442
# Shear Modulus (GPa) = 27.45972 36.39424 31.92698
#
# Velocity S-wave (km/s) = 3.50747 4.03796 3.78202
# Velocity P-wave (km/s) = 6.17642 7.31381 6.76904
#
# Compressibility (1/GPa) = 0.02060298
#
# Stress axis : x y z
#
# Youngs Moduli (GPa) = 60.91209 94.88497 72.09953
#
# Poissons Ratio (x) = 0.50884 -0.15325
# Poissons Ratio (y) = 0.32665 0.49563
# Poissons Ratio (z) = -0.12947 0.65226
#
# Static dielectric constant tensor:
#      x y z
#    x 1.853860 -0.000610 -0.051010 
#    y -0.000610 1.859980 -0.055730 
#    z -0.051010 -0.055730 1.883740 
# 
# From -- ./inp_files/156881.got.cif
#   From: 2010.05.17/outbox.cif.g08.bks.cpg/sg2_79_cif.got.tgz:156881.got - 2010.06.03 11:33:40.
