data_PCOD9039954
_publ_section_title
;
Structure prediction by ZEFSAII (Michael W. Deem and Ramdas Pophale) SiO2 
 PCOD9039954
Probable space group: P -1
;
_chemical_formula_sum "Si O2"
_cell_formula_units_Z 14
_cell_length_a 13.377880
_cell_length_b 10.212431
_cell_length_c 17.236166
_cell_angle_alpha 70.228182
_cell_angle_beta 138.076561
_cell_angle_gamma 142.712677
_cell_volume 742.712141
_symmetry_space_group_name_H-M "P -1"
_symmetry_group_IT_number 2
_symmetry_cell_setting 'triclinic'
loop_
_space_group_symop_operation_xyz
x,y,z
-x,-y,-z
loop_
_atom_site_type_symbol
_atom_site_label
_atom_site_fract_x
_atom_site_fract_y
_atom_site_fract_z
Si Si1 0.126204 0.827236 0.775571
Si Si2 0.036422 0.237182 0.007925
Si Si3 0.471500 0.592777 0.782198
Si Si4 0.815414 0.435665 0.092801
Si Si5 0.187806 0.321532 0.834005
Si Si6 0.803582 0.738316 0.737077
Si Si7 0.156352 0.267799 0.510518
O O1 0.065637 0.617205 0.800257
O O2 0.923443 0.759350 0.726647
O O3 0.059539 0.815353 0.651149
O O4 0.464462 0.133341 0.933871
O O5 0.317435 0.376095 0.106150
O O6 0.082378 0.255353 0.122639
O O7 0.047677 0.395014 0.941897
O O8 0.722588 0.912963 0.870975
O O9 0.246105 0.409871 0.760826
O O10 0.285528 0.448114 0.624803
O O11 0.861480 0.588131 0.155790
O O12 0.500000 0.500000 0.000000
O O13 0.939874 0.003471 0.766048
O O14 0.450226 0.463717 0.592643
O O15 0.000000 0.000000 0.500000
#
# Coordination Sequence:
#
# PCOD9039954 Si02
#       7
#     2   2   2   2   2   2   2
#     4  11  23  39  54  88 122 156 186 236 301 346
#     4  10  17  33  55  86 107 146 193 247 279 322
#     4  10  19  32  57  85 112 141 202 242 274 329
#     4  11  22  36  60  85 122 150 191 246 291 339
#     4  12  18  36  64  89 109 149 204 242 275 335
#     4  11  21  36  64  86 111 152 205 237 278 346
#     4  11  23  38  59  84 119 156 193 237 287 352
#
# _framework density 18.849831999999999
#
# number of rings (size 3 to 8) (size 9 to 14) (size 15 to 20)
#    0.000    1.143    4.286    4.714    0.000    0.571 
#    0.000    5.000    0.000    0.000    0.000    0.000 
#    0.000    0.000    0.000    0.000    0.000    0.000 
#
# Total GULP energy -78199.865610 kJ/mol
# GULP energy per Si atom -5585.704686 kJ/mol
# Density = 1.880693 g / cm^3
# Si number density = 18.849832 Si / 1000 Ang^3
#
#
#
# Elastic Constant Matrix: (Units=GPa)
#
#
# Indices 1 2 3 4 5 6 
#
# 1 51.9046 26.5393 29.1382 -9.6310 -31.3577 -1.7196
# 2 26.5393 138.1390 41.2399 -13.7029 -6.9271 -1.8026
# 3 29.1382 41.2399 75.7179 -8.1335 -16.2852 -0.2232
# 4 -9.6310 -13.7029 -8.1335 31.0889 15.0609 0.9020
# 5 -31.3577 -6.9271 -16.2852 15.0609 14.1680 -8.6559
# 6 -1.7196 -1.8026 -0.2232 0.9020 -8.6559 28.0514
#
#
#
# Elastic Compliance Matrix: (Units=1/GPa)
#
#
# Indices 1 2 3 4 5 6 
#
# 1 -0.003329 0.002665 -0.008344 0.022064 -0.048804 -0.015868
# 2 0.002665 0.008283 -0.003903 -0.000385 0.007744 0.003066
# 3 -0.008344 -0.003903 0.018611 0.000562 0.000041 -0.000620
# 4 0.022064 -0.000385 0.000562 0.024868 0.028567 0.009348
# 5 -0.048804 0.007744 0.000041 0.028567 -0.081400 -0.028530
# 6 -0.015868 0.003066 -0.000620 0.009348 -0.028530 0.025764
#
#
# Mechanical properties :
#
#
# Convention : Reuss Voigt Hill
#
# Bulk Modulus (GPa) = 227.27191 51.06624 139.16908
# Shear Modulus (GPa) = 372.35492 25.91792 199.13642
#
# Velocity S-wave (km/s) = 14.07005 3.71208 10.28946
# Velocity P-wave (km/s) = 19.61598 6.74704 14.66815
#
# Compressibility (1/GPa) = 0.00440002
#
# Stress axis : x y z
#
# Youngs Moduli (GPa) = -300.40808 120.73547 53.73130
#
# Poissons Ratio (x) = -0.32172 0.44832
# Poissons Ratio (y) = 0.80050 0.20974
# Poissons Ratio (z) = -2.50651 0.47128
#
# Static dielectric constant tensor:
#      x y z
#    x 1.659920 0.025340 -0.025080 
#    y 0.025340 1.712690 -0.034910 
#    z -0.025080 -0.034910 1.656760 
# 
# From -- ./inp_files/224076.got.cif
#   From: 2010.05.17/outbox.cif.g08.bks.cpg/sg2_113_cif.got.tgz:224076.got - 2010.06.03 11:33:40.
