data_PCOD9039630
_publ_section_title
;
Structure prediction by ZEFSAII (Michael W. Deem and Ramdas Pophale) SiO2 
 PCOD9039630
Probable space group: P -1
;
_chemical_formula_sum "Si O2"
_cell_formula_units_Z 16
_cell_length_a 10.697370
_cell_length_b 10.758231
_cell_length_c 16.776003
_cell_angle_alpha 29.881836
_cell_angle_beta 110.478130
_cell_angle_gamma 129.116578
_cell_volume 641.895938
_symmetry_space_group_name_H-M "P -1"
_symmetry_group_IT_number 2
_symmetry_cell_setting 'triclinic'
loop_
_space_group_symop_operation_xyz
x,y,z
-x,-y,-z
loop_
_atom_site_type_symbol
_atom_site_label
_atom_site_fract_x
_atom_site_fract_y
_atom_site_fract_z
Si Si1 0.287443 0.262715 0.370563
Si Si2 0.298848 0.737912 0.644360
Si Si3 0.873970 0.797237 0.474744
Si Si4 0.883413 0.099284 0.085193
Si Si5 0.233024 0.810591 0.837192
Si Si6 0.665113 0.774137 0.062548
Si Si7 0.621485 0.084578 0.735729
Si Si8 0.840393 0.446384 0.450399
O O1 0.255153 0.389161 0.370835
O O2 0.473413 0.534456 0.207105
O O3 0.289254 0.976103 0.560576
O O4 0.093425 0.055274 0.396338
O O5 0.274663 0.424742 0.840785
O O6 0.153871 0.593245 0.620416
O O7 0.500000 0.000000 0.500000
O O8 0.796180 0.489090 0.570533
O O9 0.835901 0.016568 0.307768
O O10 0.774651 0.149605 0.091278
O O11 0.825780 0.075004 0.994048
O O12 0.836713 0.745384 0.285615
O O13 0.093629 0.424050 0.982609
O O14 0.438582 0.005068 0.751875
O O15 0.630027 0.877813 0.916466
O O16 0.652944 0.080385 0.651605
O O17 0.000000 0.500000 0.500000
#
# Coordination Sequence:
#
# PCOD9039630 Si02
#       8
#     2   2   2   2   2   2   2   2
#     4  10  23  42  69  97 136 178 224 267 338 395
#     4   9  21  43  69  90 127 178 217 265 327 393
#     4  11  24  40  67 102 136 174 220 280 329 400
#     4  10  24  45  67  95 142 176 220 271 340 390
#     4  11  25  41  68 100 136 176 223 279 329 396
#     4  10  24  44  68 100 133 178 222 277 328 399
#     4  12  26  42  70 102 134 172 227 275 339 391
#     4  11  24  47  69  96 133 178 220 278 332 397
#
# _framework density 24.926158999999998
#
# number of rings (size 3 to 8) (size 9 to 14) (size 15 to 20)
#    0.000    1.500    1.250    1.875   12.250    2.000 
#    2.250    5.000    0.000    0.000    0.000    0.000 
#    0.000    0.000    0.000    0.000    0.000    0.000 
#
# Total GULP energy -89474.588012 kJ/mol
# GULP energy per Si atom -5592.161751 kJ/mol
# Density = 2.486943 g / cm^3
# Si number density = 24.926159 Si / 1000 Ang^3
#
#
#
# Elastic Constant Matrix: (Units=GPa)
#
#
# Indices 1 2 3 4 5 6 
#
# 1 113.1133 33.2932 17.6200 7.3290 5.1807 9.0470
# 2 33.2932 84.1903 30.4346 6.9614 7.4347 8.4899
# 3 17.6200 30.4346 72.6017 19.8155 12.8665 -6.7732
# 4 7.3290 6.9614 19.8155 31.5712 10.3898 2.8001
# 5 5.1807 7.4347 12.8665 10.3898 34.4121 6.3512
# 6 9.0470 8.4899 -6.7732 2.8001 6.3512 39.1509
#
#
#
# Elastic Compliance Matrix: (Units=1/GPa)
#
#
# Indices 1 2 3 4 5 6 
#
# 1 0.010196 -0.003443 -0.000979 -0.000893 0.000166 -0.001742
# 2 -0.003443 0.015911 -0.006671 0.001917 -0.000284 -0.003900
# 3 -0.000979 -0.006671 0.021144 -0.010752 -0.004326 0.006802
# 4 -0.000893 0.001917 -0.010752 0.041171 -0.008004 -0.003716
# 5 0.000166 -0.000284 -0.004326 -0.008004 0.034182 -0.005698
# 6 -0.001742 -0.003900 0.006802 -0.003716 -0.005698 0.029157
#
#
# Mechanical properties :
#
#
# Convention : Reuss Voigt Hill
#
# Bulk Modulus (GPa) = 39.89828 48.06677 43.98252
# Shear Modulus (GPa) = 27.42693 33.59734 30.51214
#
# Velocity S-wave (km/s) = 3.32072 3.67532 3.50251
# Velocity P-wave (km/s) = 5.54475 6.11034 5.83440
#
# Compressibility (1/GPa) = 0.02506374
#
# Stress axis : x y z
#
# Youngs Moduli (GPa) = 98.07463 62.85024 47.29541
#
# Poissons Ratio (x) = 0.21641 0.04632
# Poissons Ratio (y) = 0.33770 0.31550
# Poissons Ratio (z) = 0.09605 0.41927
#
# Static dielectric constant tensor:
#      x y z
#    x 1.928050 -0.064130 -0.061270 
#    y -0.064130 2.076840 0.032880 
#    z -0.061270 0.032880 2.027180 
# 
# From -- ./inp_files/568484.got.cif
#   From: 2010.05.17/outbox.cif.g08.bks.cpg/sg2_285_cif.got.tgz:568484.got - 2010.06.03 11:33:40.
