data_PCOD9039721
_publ_section_title
;
Structure prediction by ZEFSAII (Michael W. Deem and Ramdas Pophale) SiO2 
 PCOD9039721
Probable space group: P -1
;
_chemical_formula_sum "Si O2"
_cell_formula_units_Z 16
_cell_length_a 18.409935
_cell_length_b 10.663616
_cell_length_c 9.840475
_cell_angle_alpha 114.247484
_cell_angle_beta 43.771153
_cell_angle_gamma 146.418621
_cell_volume 640.618724
_symmetry_space_group_name_H-M "P -1"
_symmetry_group_IT_number 2
_symmetry_cell_setting 'triclinic'
loop_
_space_group_symop_operation_xyz
x,y,z
-x,-y,-z
loop_
_atom_site_type_symbol
_atom_site_label
_atom_site_fract_x
_atom_site_fract_y
_atom_site_fract_z
Si Si1 0.821105 0.206099 0.800508
Si Si2 0.567983 0.075501 0.286587
Si Si3 0.410030 0.493138 0.366966
Si Si4 0.814176 0.217353 0.407486
Si Si5 0.432361 0.216809 0.248726
Si Si6 0.937092 0.779752 0.431274
Si Si7 0.137293 0.923513 0.939784
Si Si8 0.233634 0.412996 0.834346
O O1 0.975175 0.500746 0.692436
O O2 0.966004 0.234108 0.617584
O O3 0.640416 0.984098 0.841668
O O4 0.709563 0.115280 0.052566
O O5 0.689881 0.352578 0.218955
O O6 0.500000 0.000000 0.500000
O O7 0.358536 0.859903 0.392657
O O8 0.390663 0.312957 0.273013
O O9 0.297414 0.463725 0.396957
O O10 0.315761 0.401698 0.604128
O O11 0.638211 0.782769 0.209130
O O12 0.855131 0.220780 0.197565
O O13 0.709362 0.972549 0.514868
O O14 0.655887 0.475873 0.121515
O O15 0.000000 0.000000 0.500000
O O16 0.025026 0.836742 0.190518
O O17 0.003954 0.851496 0.972991
#
# Coordination Sequence:
#
# PCOD9039721 Si02
#       8
#     2   2   2   2   2   2   2   2
#     4  12  26  46  73 104 147 189 228 296 359 415
#     4  11  24  43  70 104 141 185 237 289 351 421
#     4  11  23  47  72 100 143 184 238 294 343 420
#     4  11  25  44  73 106 139 189 237 290 351 422
#     4  11  24  48  69 103 149 186 236 290 350 424
#     4  11  26  48  70 105 142 182 240 288 358 419
#     4  11  23  44  74 103 138 187 231 293 350 414
#     4  10  23  42  70 106 139 182 239 287 349 422
#
# _framework density 24.975854000000002
#
# number of rings (size 3 to 8) (size 9 to 14) (size 15 to 20)
#    0.000    1.000    5.000    1.500    3.500    4.000 
#    6.750    0.000    0.000    0.000    0.000    0.000 
#    0.000    0.000    0.000    0.000    0.000    0.000 
#
# Total GULP energy -89397.438219 kJ/mol
# GULP energy per Si atom -5587.339889 kJ/mol
# Density = 2.491901 g / cm^3
# Si number density = 24.975854 Si / 1000 Ang^3
#
#
#
# Elastic Constant Matrix: (Units=GPa)
#
#
# Indices 1 2 3 4 5 6 
#
# 1 54.7060 -7.0815 -1.6314 -4.4631 -12.6574 5.5333
# 2 -7.0815 88.1356 5.8365 -4.0892 -11.0156 24.7866
# 3 -1.6314 5.8365 66.8322 -15.5773 -18.5277 5.7243
# 4 -4.4631 -4.0892 -15.5773 34.7539 14.2037 -13.7631
# 5 -12.6574 -11.0156 -18.5277 14.2037 29.7856 0.9586
# 6 5.5333 24.7866 5.7243 -13.7631 0.9586 43.1731
#
#
#
# Elastic Compliance Matrix: (Units=1/GPa)
#
#
# Indices 1 2 3 4 5 6 
#
# 1 0.023968 0.006288 0.004666 -0.005251 0.018219 -0.009379
# 2 0.006288 0.016933 0.002027 -0.007418 0.014167 -0.013476
# 3 0.004666 0.002027 0.019660 0.002402 0.013942 -0.003912
# 4 -0.005251 -0.007418 0.002402 0.047216 -0.026648 0.020257
# 5 0.018219 0.014167 0.013942 -0.026648 0.068654 -0.022337
# 6 -0.009379 -0.013476 -0.003912 0.020257 -0.022337 0.039574
#
#
# Mechanical properties :
#
#
# Convention : Reuss Voigt Hill
#
# Bulk Modulus (GPa) = 11.55738 22.65789 17.10763
# Shear Modulus (GPa) = 22.84314 35.71254 29.27784
#
# Velocity S-wave (km/s) = 3.02753 3.78548 3.42752
# Velocity P-wave (km/s) = 4.10594 5.31019 4.74641
#
# Compressibility (1/GPa) = 0.08652482
#
# Stress axis : x y z
#
# Youngs Moduli (GPa) = 41.72179 59.05478 50.86497
#
# Poissons Ratio (x) = -0.37134 -0.23735
# Poissons Ratio (y) = -0.26235 -0.10312
# Poissons Ratio (z) = -0.19468 -0.11972
#
# Static dielectric constant tensor:
#      x y z
#    x 2.087670 -0.021490 -0.034600 
#    y -0.021490 1.996230 0.012690 
#    z -0.034600 0.012690 1.963590 
# 
# From -- ./inp_files/471205.got.cif
#   From: 2010.05.17/outbox.cif.g08.bks.cpg/sg2_236_cif.got.tgz:471205.got - 2010.06.03 11:33:40.
