data_PCOD9039861
_publ_section_title
;
Structure prediction by ZEFSAII (Michael W. Deem and Ramdas Pophale) SiO2 
 PCOD9039861
Probable space group: P -1
;
_chemical_formula_sum "Si O2"
_cell_formula_units_Z 14
_cell_length_a 9.127310
_cell_length_b 5.044407
_cell_length_c 13.908124
_cell_angle_alpha 104.385903
_cell_angle_beta 99.571399
_cell_angle_gamma 85.565387
_cell_volume 611.207593
_symmetry_space_group_name_H-M "P -1"
_symmetry_group_IT_number 2
_symmetry_cell_setting 'triclinic'
loop_
_space_group_symop_operation_xyz
x,y,z
-x,-y,-z
loop_
_atom_site_type_symbol
_atom_site_label
_atom_site_fract_x
_atom_site_fract_y
_atom_site_fract_z
Si Si1 0.916954 0.395262 0.262510
Si Si2 0.512046 0.111620 0.371067
Si Si3 0.981755 0.058398 0.615810
Si Si4 0.336964 0.664694 0.417348
Si Si5 0.616055 0.697692 0.978617
Si Si6 0.631630 0.067791 0.171336
Si Si7 0.067035 0.291271 0.065382
O O1 0.754326 0.290191 0.214298
O O2 0.906293 0.711550 0.319075
O O3 0.012874 0.350668 0.172760
O O4 0.989713 0.209016 0.339677
O O5 0.378306 0.345364 0.376681
O O6 0.638871 0.256462 0.460793
O O7 0.566988 0.025427 0.264969
O O8 0.459931 0.840600 0.393287
O O9 0.820899 0.214147 0.624087
O O10 0.000000 0.000000 0.500000
O O11 0.698658 0.819616 0.092597
O O12 0.500000 0.500000 0.000000
O O13 0.504821 0.854461 0.906750
O O14 0.757632 0.653309 0.920308
O O15 0.000000 0.500000 0.000000
O O16 0.000000 0.000000 0.000000
#
# Coordination Sequence:
#
# PCOD9039861 Si02
#       7
#     2   2   2   2   2   2   2
#     4  12  27  46  76 106 145 200 241 296 382 439
#     4  10  23  42  71  96 142 181 229 295 355 423
#     4  12  27  46  73 106 148 188 249 303 364 440
#     4  10  23  44  65 105 136 182 234 291 355 423
#     4  11  27  46  74 105 146 189 249 305 361 438
#     4  11  26  45  69 106 139 188 242 293 367 426
#     4  12  26  50  75 107 152 194 246 313 369 442
#
# _framework density 22.905477000000001
#
# number of rings (size 3 to 8) (size 9 to 14) (size 15 to 20)
#    0.000    0.857    1.429    3.857   10.000    3.429 
#    0.000    0.000    0.000    0.000    0.000    0.000 
#    0.000    0.000    0.000    0.000    0.000    0.000 
#
# Total GULP energy -78211.642941 kJ/mol
# GULP energy per Si atom -5586.545924 kJ/mol
# Density = 2.285334 g / cm^3
# Si number density = 22.905477 Si / 1000 Ang^3
#
#
#
# Elastic Constant Matrix: (Units=GPa)
#
#
# Indices 1 2 3 4 5 6 
#
# 1 76.3084 -17.5203 13.2014 -7.6043 6.6012 9.2431
# 2 -17.5203 86.7408 23.6761 -12.9929 -10.4790 6.3096
# 3 13.2014 23.6761 174.5531 -13.2445 -27.9790 3.5714
# 4 -7.6043 -12.9929 -13.2445 38.5370 2.3644 9.4857
# 5 6.6012 -10.4790 -27.9790 2.3644 26.7963 -3.8811
# 6 9.2431 6.3096 3.5714 9.4857 -3.8811 32.8715
#
#
#
# Elastic Compliance Matrix: (Units=1/GPa)
#
#
# Indices 1 2 3 4 5 6 
#
# 1 0.016773 0.004799 -0.002284 0.006508 -0.006375 -0.008020
# 2 0.004799 0.014494 -0.001460 0.006641 0.001549 -0.005707
# 3 -0.002284 -0.001460 0.007396 0.000936 0.007742 0.000763
# 4 0.006508 0.006641 0.000936 0.033200 -0.002859 -0.013125
# 5 -0.006375 0.001549 0.007742 -0.002859 0.048881 0.007251
# 6 -0.008020 -0.005707 0.000763 -0.013125 0.007251 0.038333
#
#
# Mechanical properties :
#
#
# Convention : Reuss Voigt Hill
#
# Bulk Modulus (GPa) = 24.52504 41.81296 33.16900
# Shear Modulus (GPa) = 29.31582 40.85732 35.08657
#
# Velocity S-wave (km/s) = 3.58140 4.22801 3.91807
# Velocity P-wave (km/s) = 5.27562 6.49068 5.91444
#
# Compressibility (1/GPa) = 0.04077465
#
# Stress axis : x y z
#
# Youngs Moduli (GPa) = 59.61857 68.99639 135.20774
#
# Poissons Ratio (x) = -0.33114 0.30875
# Poissons Ratio (y) = -0.28613 0.19739
# Poissons Ratio (z) = 0.13614 0.10073
#
# Static dielectric constant tensor:
#      x y z
#    x 1.230380 0.452580 0.411650 
#    y 0.452580 1.573180 -0.285240 
#    z 0.411650 -0.285240 1.584440 
# 
# From -- ./inp_files/141041.got.cif
#   From: 2010.05.17/outbox.cif.g08.bks.cpg/sg2_71_cif.got.tgz:141041.got - 2010.06.03 11:33:40.
