data_PCOD9039687
_publ_section_title
;
Structure prediction by ZEFSAII (Michael W. Deem and Ramdas Pophale) SiO2 
 PCOD9039687
Probable space group: P -1
;
_chemical_formula_sum "Si O2"
_cell_formula_units_Z 12
_cell_length_a 5.476181
_cell_length_b 14.193983
_cell_length_c 20.581821
_cell_angle_alpha 160.452024
_cell_angle_beta 69.508882
_cell_angle_gamma 115.029752
_cell_volume 478.734288
_symmetry_space_group_name_H-M "P -1"
_symmetry_group_IT_number 2
_symmetry_cell_setting 'triclinic'
loop_
_space_group_symop_operation_xyz
x,y,z
-x,-y,-z
loop_
_atom_site_type_symbol
_atom_site_label
_atom_site_fract_x
_atom_site_fract_y
_atom_site_fract_z
Si Si1 0.676231 0.879301 0.458128
Si Si2 0.682348 0.962945 0.773382
Si Si3 0.751930 0.913602 0.886666
Si Si4 0.695508 0.696302 0.930721
Si Si5 0.772271 0.689186 0.062001
Si Si6 0.420306 0.755851 0.537275
O O1 0.555110 0.529336 0.228338
O O2 0.602118 0.911116 0.560385
O O3 0.500000 0.000000 0.500000
O O4 0.000000 0.000000 0.500000
O O5 0.770915 0.906379 0.800696
O O6 0.601210 0.747637 0.579478
O O7 0.910068 0.256531 0.914710
O O8 0.404290 0.029670 0.861410
O O9 0.733988 0.576705 0.684482
O O10 0.500000 0.000000 0.000000
O O11 0.023310 0.175186 0.049196
O O12 0.745537 0.568229 0.912450
O O13 0.762630 0.028788 0.290755
O O14 0.500000 0.500000 0.000000
#
# Coordination Sequence:
#
# PCOD9039687 Si02
#       6
#     2   2   2   2   2   2
#     4  12  30  48  76 109 155 198 261 317 382 457
#     4  10  24  43  72 106 146 192 250 309 380 446
#     4  11  25  46  74 106 153 196 251 312 377 456
#     4  10  25  45  69 106 144 196 252 307 377 448
#     4  10  23  42  70 100 146 192 247 309 376 449
#     4  11  26  43  72 107 143 201 249 312 378 448
#
# _framework density 25.066096000000002
#
# number of rings (size 3 to 8) (size 9 to 14) (size 15 to 20)
#    0.000    1.333    0.000    2.500   14.000   11.333 
#    0.000    0.000    0.000    0.000    0.000    0.000 
#    0.000    0.000    0.000    0.000    0.000    0.000 
#
# Total GULP energy -66944.067875 kJ/mol
# GULP energy per Si atom -5578.672323 kJ/mol
# Density = 2.500904 g / cm^3
# Si number density = 25.066096 Si / 1000 Ang^3
#
#
#
# Elastic Constant Matrix: (Units=GPa)
#
#
# Indices 1 2 3 4 5 6 
#
# 1 97.4023 55.6267 41.9279 5.8951 27.4138 28.8560
# 2 55.6267 176.6891 49.2462 -3.8071 20.8408 23.7531
# 3 41.9279 49.2462 130.9597 -6.1264 26.7252 10.1565
# 4 5.8951 -3.8071 -6.1264 45.1814 -1.4260 12.0456
# 5 27.4138 20.8408 26.7252 -1.4260 50.2857 4.1652
# 6 28.8560 23.7531 10.1565 12.0456 4.1652 54.5299
#
#
#
# Elastic Compliance Matrix: (Units=1/GPa)
#
#
# Indices 1 2 3 4 5 6 
#
# 1 0.016744 -0.003024 -0.002564 -0.001293 -0.006025 -0.006320
# 2 -0.003024 0.007318 -0.001524 0.001201 -0.000413 -0.001537
# 3 -0.002564 -0.001524 0.009718 0.001388 -0.003108 0.000141
# 4 -0.001293 0.001201 0.001388 0.024066 0.000604 -0.005460
# 5 -0.006025 -0.000413 -0.003108 0.000604 0.024852 0.001915
# 6 -0.006320 -0.001537 0.000141 -0.005460 0.001915 0.023386
#
#
# Mechanical properties :
#
#
# Convention : Reuss Voigt Hill
#
# Bulk Modulus (GPa) = 51.13796 77.62808 64.38302
# Shear Modulus (GPa) = 39.42377 47.21608 43.31993
#
# Velocity S-wave (km/s) = 3.97015 4.34483 4.16171
# Velocity P-wave (km/s) = 6.43907 7.49711 6.98814
#
# Compressibility (1/GPa) = 0.01955494
#
# Stress axis : x y z
#
# Youngs Moduli (GPa) = 59.72296 136.65379 102.90081
#
# Poissons Ratio (x) = 0.41329 0.26386
# Poissons Ratio (y) = 0.18062 0.15680
# Poissons Ratio (z) = 0.15314 0.20824
#
# Static dielectric constant tensor:
#      x y z
#    x 2.166140 -0.101310 -0.029940 
#    y -0.101310 2.042780 0.028250 
#    z -0.029940 0.028250 2.059450 
# 
# From -- ./inp_files/25552.got.cif
#   From: 2010.05.17/outbox.cif.g08.bks.cpg/sg2_13_cif.got.tgz:25552.got - 2010.06.03 11:33:40.
