data_PCOD9039802
_publ_section_title
;
Structure prediction by ZEFSAII (Michael W. Deem and Ramdas Pophale) SiO2 
 PCOD9039802
Probable space group: P -1
;
_chemical_formula_sum "Si O2"
_cell_formula_units_Z 14
_cell_length_a 9.198428
_cell_length_b 21.499988
_cell_length_c 5.453886
_cell_angle_alpha 104.215392
_cell_angle_beta 84.431182
_cell_angle_gamma 38.409660
_cell_volume 569.638415
_symmetry_space_group_name_H-M "P -1"
_symmetry_group_IT_number 2
_symmetry_cell_setting 'triclinic'
loop_
_space_group_symop_operation_xyz
x,y,z
-x,-y,-z
loop_
_atom_site_type_symbol
_atom_site_label
_atom_site_fract_x
_atom_site_fract_y
_atom_site_fract_z
Si Si1 0.839046 0.305645 0.917114
Si Si2 0.093138 0.851063 0.026825
Si Si3 0.570102 0.376022 0.515001
Si Si4 0.190945 0.272027 0.585005
Si Si5 0.553960 0.173008 0.806827
Si Si6 0.001483 0.425032 0.373702
Si Si7 0.438519 0.947409 0.989806
O O1 0.679097 0.359964 0.740907
O O2 0.056091 0.280682 0.828493
O O3 0.964414 0.188863 0.825669
O O4 0.670238 0.378517 0.261838
O O5 0.304211 0.740349 0.692492
O O6 0.216271 0.864451 0.172235
O O7 0.827380 0.967019 0.040725
O O8 0.252725 0.492610 0.674652
O O9 0.456922 0.209639 0.577489
O O10 0.984677 0.393780 0.603213
O O11 0.295637 0.181356 0.290295
O O12 0.286447 0.299665 0.100646
O O13 0.603819 0.080558 0.787101
O O14 0.000000 0.500000 0.500000
O O15 0.500000 0.000000 0.000000
#
# Coordination Sequence:
#
# PCOD9039802 Si02
#       7
#     2   2   2   2   2   2   2
#     4  10  24  44  69 105 143 185 239 291 357 417
#     4  10  23  42  71 102 144 186 238 291 354 427
#     4  10  24  43  72 104 141 191 238 292 352 425
#     4  11  27  42  69 104 139 187 240 295 357 428
#     4  11  25  43  69 106 139 186 240 293 359 426
#     4  11  24  44  69  99 145 186 236 293 359 422
#     4  11  24  45  71 101 142 186 237 297 358 424
#
# _framework density 24.576992000000001
#
# number of rings (size 3 to 8) (size 9 to 14) (size 15 to 20)
#    0.857    0.571    1.429    2.143    8.000    5.714 
#    0.000    0.000    0.000    0.000    0.000    0.000 
#    0.000    0.000    0.000    0.000    0.000    0.000 
#
# Total GULP energy -78272.124855 kJ/mol
# GULP energy per Si atom -5590.866061 kJ/mol
# Density = 2.452105 g / cm^3
# Si number density = 24.576992 Si / 1000 Ang^3
#
#
#
# Elastic Constant Matrix: (Units=GPa)
#
#
# Indices 1 2 3 4 5 6 
#
# 1 89.6543 58.1839 -0.0252 7.5880 20.6716 3.1508
# 2 58.1839 161.3877 25.9683 -9.6021 10.8973 -10.9423
# 3 -0.0252 25.9683 57.1571 -3.5978 7.7051 14.6778
# 4 7.5880 -9.6021 -3.5978 36.0152 -5.3022 12.0578
# 5 20.6716 10.8973 7.7051 -5.3022 32.4041 2.4430
# 6 3.1508 -10.9423 14.6778 12.0578 2.4430 52.7405
#
#
#
# Elastic Compliance Matrix: (Units=1/GPa)
#
#
# Indices 1 2 3 4 5 6 
#
# 1 0.019506 -0.007596 0.005205 -0.006687 -0.012062 -0.002102
# 2 -0.007596 0.010035 -0.005618 0.003076 0.003065 0.003254
# 3 0.005205 -0.005618 0.022996 0.001466 -0.006061 -0.007931
# 4 -0.006687 0.003076 0.001466 0.034000 0.009016 -0.007561
# 5 -0.012062 0.003065 -0.006061 0.009016 0.040509 -0.000894
# 6 -0.002102 0.003254 -0.007931 -0.007561 -0.000894 0.023739
#
#
# Mechanical properties :
#
#
# Convention : Reuss Voigt Hill
#
# Bulk Modulus (GPa) = 27.38259 52.93923 40.16091
# Shear Modulus (GPa) = 27.93668 39.17010 33.55339
#
# Velocity S-wave (km/s) = 3.37516 3.99654 3.69892
# Velocity P-wave (km/s) = 5.13368 6.54854 5.88379
#
# Compressibility (1/GPa) = 0.03651956
#
# Stress axis : x y z
#
# Youngs Moduli (GPa) = 51.26654 99.64777 43.48538
#
# Poissons Ratio (x) = 0.75689 -0.22632
# Poissons Ratio (y) = 0.38940 0.24429
# Poissons Ratio (z) = -0.26682 0.55980
#
# Static dielectric constant tensor:
#      x y z
#    x 1.948560 0.023290 -0.001620 
#    y 0.023290 1.910850 -0.063630 
#    z -0.001620 -0.063630 2.081280 
# 
# From -- ./inp_files/38792.got.cif
#   From: 2010.05.17/outbox.cif.g08.bks.cpg/sg2_20_cif.got.tgz:38792.got - 2010.06.03 11:33:40.
