data_PCOD9039544
_publ_section_title
;
Structure prediction by ZEFSAII (Michael W. Deem and Ramdas Pophale) SiO2 
 PCOD9039544
Probable space group: P -1
;
_chemical_formula_sum "Si O2"
_cell_formula_units_Z 16
_cell_length_a 7.829683
_cell_length_b 13.913018
_cell_length_c 8.180134
_cell_angle_alpha 89.641768
_cell_angle_beta 57.277605
_cell_angle_gamma 73.100526
_cell_volume 704.592901
_symmetry_space_group_name_H-M "P -1"
_symmetry_group_IT_number 2
_symmetry_cell_setting 'triclinic'
loop_
_space_group_symop_operation_xyz
x,y,z
-x,-y,-z
loop_
_atom_site_type_symbol
_atom_site_label
_atom_site_fract_x
_atom_site_fract_y
_atom_site_fract_z
Si Si1 0.691432 0.521715 0.587090
Si Si2 0.356273 0.425234 0.045929
Si Si3 0.212108 0.911640 0.957425
Si Si4 0.810035 0.458840 0.183126
Si Si5 0.580717 0.944683 0.287102
Si Si6 0.817425 0.102745 0.641578
Si Si7 0.025960 0.752306 0.036800
Si Si8 0.210290 0.692573 0.296215
O O1 0.726364 0.583087 0.728559
O O2 0.797766 0.521970 0.356199
O O3 0.433478 0.550712 0.695152
O O4 0.785386 0.403700 0.598929
O O5 0.500000 0.500000 0.000000
O O6 0.194064 0.477285 0.982674
O O7 0.538809 0.325671 0.882422
O O8 0.193343 0.896333 0.158078
O O9 0.201983 0.805446 0.891187
O O10 0.394898 0.960854 0.830527
O O11 0.000000 0.000000 0.000000
O O12 0.963868 0.340955 0.086202
O O13 0.401623 0.901158 0.317772
O O14 0.803141 0.847401 0.169808
O O15 0.500000 0.000000 0.500000
O O16 0.872781 0.202477 0.563636
O O17 0.000000 0.000000 0.500000
O O18 0.089232 0.703052 0.185478
#
# Coordination Sequence:
#
# PCOD9039544 Si02
#       8
#     2   2   2   2   2   2   2   2
#     4   9  15  25  48  81 113 136 189 221 275 332
#     4   8  13  27  45  73 115 131 184 225 272 320
#     4   9  20  36  57  79 107 144 182 235 283 330
#     4   9  15  25  47  80 110 145 175 233 266 334
#     4  11  23  38  53  78 114 150 189 240 284 333
#     4  11  22  37  59  80 110 147 195 234 285 344
#     4  10  17  33  55  78 111 147 187 228 288 334
#     4   9  16  30  50  76 104 146 179 229 276 328
#
# _framework density 22.708147
#
# number of rings (size 3 to 8) (size 9 to 14) (size 15 to 20)
#    0.000    2.750    3.750    2.625    0.000    3.000 
#    0.000    1.250    0.000    3.000    0.000    0.875 
#    0.000    7.000    0.000    0.000    0.000    4.000 
#
# Total GULP energy -89224.345664 kJ/mol
# GULP energy per Si atom -5576.521604 kJ/mol
# Density = 2.265646 g / cm^3
# Si number density = 22.708147 Si / 1000 Ang^3
#
#
#
# Elastic Constant Matrix: (Units=GPa)
#
#
# Indices 1 2 3 4 5 6 
#
# 1 40.5682 -4.5181 -3.3294 0.7260 8.3635 -11.3045
# 2 -4.5181 77.3251 12.1502 21.0448 -3.1356 -2.3211
# 3 -3.3294 12.1502 97.3860 9.5993 13.8021 -4.9737
# 4 0.7260 21.0448 9.5993 35.1873 -2.5929 2.7128
# 5 8.3635 -3.1356 13.8021 -2.5929 32.3648 0.7648
# 6 -11.3045 -2.3211 -4.9737 2.7128 0.7648 36.0599
#
#
#
# Elastic Compliance Matrix: (Units=1/GPa)
#
#
# Indices 1 2 3 4 5 6 
#
# 1 0.030138 0.002416 0.003042 -0.004407 -0.009454 0.010555
# 2 0.002416 0.015878 -0.000918 -0.009441 0.000493 0.002353
# 3 0.003042 -0.000918 0.011865 -0.003439 -0.006280 0.002923
# 4 -0.004407 -0.009441 -0.003439 0.035846 0.004687 -0.005260
# 5 -0.009454 0.000493 -0.006280 0.004687 0.036558 -0.004926
# 6 0.010555 0.002353 0.002923 -0.005260 -0.004926 0.032095
#
#
# Mechanical properties :
#
#
# Convention : Reuss Voigt Hill
#
# Bulk Modulus (GPa) = 14.93397 24.87607 19.90502
# Shear Modulus (GPa) = 28.47065 34.78751 31.62908
#
# Velocity S-wave (km/s) = 3.54469 3.91825 3.73614
# Velocity P-wave (km/s) = 4.83155 5.60791 5.23415
#
# Compressibility (1/GPa) = 0.06696145
#
# Stress axis : x y z
#
# Youngs Moduli (GPa) = 33.18106 62.98118 84.28049
#
# Poissons Ratio (x) = -0.15215 -0.25640
# Poissons Ratio (y) = -0.08016 0.07733
# Poissons Ratio (z) = -0.10095 0.05779
#
# Static dielectric constant tensor:
#      x y z
#    x 1.959980 0.028770 -0.043810 
#    y 0.028770 1.875440 0.001580 
#    z -0.043810 0.001580 1.962160 
# 
# From -- ./inp_files/196788.got.cif
#   From: 2010.05.17/outbox.cif.g08.bks.cpg/sg2_99_cif.got.tgz:196788.got - 2010.06.03 11:33:40.
