data_PCOD9039211
_publ_section_title
;
Structure prediction by ZEFSAII (Michael W. Deem and Ramdas Pophale) SiO2 
 PCOD9039211
Probable space group: P -1
;
_chemical_formula_sum "Si O2"
_cell_formula_units_Z 14
_cell_length_a 6.740251
_cell_length_b 10.677612
_cell_length_c 20.381460
_cell_angle_alpha 26.372884
_cell_angle_beta 115.254625
_cell_angle_gamma 113.518468
_cell_volume 588.796426
_symmetry_space_group_name_H-M "P -1"
_symmetry_group_IT_number 2
_symmetry_cell_setting 'triclinic'
loop_
_space_group_symop_operation_xyz
x,y,z
-x,-y,-z
loop_
_atom_site_type_symbol
_atom_site_label
_atom_site_fract_x
_atom_site_fract_y
_atom_site_fract_z
Si Si1 0.105592 0.016010 0.838753
Si Si2 0.141915 0.546184 0.169318
Si Si3 0.289894 0.778780 0.860698
Si Si4 0.613539 0.737087 0.450667
Si Si5 0.072753 0.915630 0.476934
Si Si6 0.747785 0.771625 0.970865
Si Si7 0.428174 0.554874 0.645552
O O1 0.096197 0.914719 0.809770
O O2 0.869261 0.044000 0.827362
O O3 0.262021 0.290472 0.734222
O O4 0.191326 0.759706 0.016286
O O5 0.343702 0.553826 0.243558
O O6 0.101643 0.215866 0.302830
O O7 0.903622 0.663909 0.101656
O O8 0.492445 0.789843 0.935799
O O9 0.385928 0.967067 0.726341
O O10 0.237358 0.471724 0.968883
O O11 0.500000 0.500000 0.500000
O O12 0.486242 0.719254 0.509634
O O13 0.874014 0.724313 0.508388
O O14 0.299073 0.758565 0.579878
O O15 0.000000 0.000000 0.500000
#
# Coordination Sequence:
#
# PCOD9039211 Si02
#       7
#     2   2   2   2   2   2   2
#     4  10  23  42  67 101 140 173 230 287 347 406
#     4  10  23  46  69 101 131 183 236 290 338 417
#     4  11  21  43  67 100 136 188 227 280 344 423
#     4  12  26  43  70 105 145 180 233 282 354 421
#     4  12  27  48  73 102 140 191 238 284 354 422
#     4   9  23  39  67  97 135 179 234 280 342 414
#     4  12  26  45  72 103 144 180 232 299 349 408
#
# _framework density 23.77732
#
# number of rings (size 3 to 8) (size 9 to 14) (size 15 to 20)
#    0.857    0.286    4.286    1.286    2.000    5.143 
#    0.000    1.429    0.000    0.000    0.000    0.000 
#    0.000    0.000    0.000    0.000    0.000    0.000 
#
# Total GULP energy -78141.241956 kJ/mol
# GULP energy per Si atom -5581.517283 kJ/mol
# Density = 2.372320 g / cm^3
# Si number density = 23.777320 Si / 1000 Ang^3
#
#
#
# Elastic Constant Matrix: (Units=GPa)
#
#
# Indices 1 2 3 4 5 6 
#
# 1 51.7607 5.2172 13.2177 14.5335 -2.3084 -3.6480
# 2 5.2172 69.4661 -0.5567 -2.4024 -2.1204 12.6510
# 3 13.2177 -0.5567 91.8717 -5.2232 -18.1503 -7.5509
# 4 14.5335 -2.4024 -5.2232 42.0878 13.0213 -3.7540
# 5 -2.3084 -2.1204 -18.1503 13.0213 33.3502 5.5339
# 6 -3.6480 12.6510 -7.5509 -3.7540 5.5339 37.2571
#
#
#
# Elastic Compliance Matrix: (Units=1/GPa)
#
#
# Indices 1 2 3 4 5 6 
#
# 1 0.023217 -0.002164 -0.003166 -0.009469 0.003290 0.000924
# 2 -0.002164 0.015665 0.000315 0.000650 0.001702 -0.005655
# 3 -0.003166 0.000315 0.012718 0.000907 0.006146 0.001339
# 4 -0.009469 0.000650 0.000907 0.031624 -0.013161 0.004177
# 5 0.003290 0.001702 0.006146 -0.013161 0.039842 -0.006254
# 6 0.000924 -0.005655 0.001339 0.004177 -0.006254 0.030472
#
#
# Mechanical properties :
#
#
# Convention : Reuss Voigt Hill
#
# Bulk Modulus (GPa) = 24.05638 27.65055 25.85346
# Shear Modulus (GPa) = 28.18103 35.55371 31.86737
#
# Velocity S-wave (km/s) = 3.44642 3.87108 3.66490
# Velocity P-wave (km/s) = 5.09670 5.62446 5.36707
#
# Compressibility (1/GPa) = 0.04156902
#
# Stress axis : x y z
#
# Youngs Moduli (GPa) = 43.07215 63.83740 78.62892
#
# Poissons Ratio (x) = 0.13817 0.24892
# Poissons Ratio (y) = 0.09322 -0.02475
# Poissons Ratio (z) = 0.13635 -0.02009
#
# Static dielectric constant tensor:
#      x y z
#    x 1.899750 0.052890 0.042950 
#    y 0.052890 1.931580 0.047610 
#    z 0.042950 0.047610 1.916670 
# 
# From -- ./inp_files/617193.got.cif
#   From: 2010.05.17/outbox.cif.g08.bks.cpg/sg2_309_cif.got.tgz:617193.got - 2010.06.03 11:33:40.
