data_PCOD9039511
_publ_section_title
;
Structure prediction by ZEFSAII (Michael W. Deem and Ramdas Pophale) SiO2 
 PCOD9039511
Probable space group: P -1
;
_chemical_formula_sum "Si O2"
_cell_formula_units_Z 16
_cell_length_a 8.732905
_cell_length_b 12.238572
_cell_length_c 21.515540
_cell_angle_alpha 35.681576
_cell_angle_beta 41.079070
_cell_angle_gamma 68.317207
_cell_volume 681.900609
_symmetry_space_group_name_H-M "P -1"
_symmetry_group_IT_number 2
_symmetry_cell_setting 'triclinic'
loop_
_space_group_symop_operation_xyz
x,y,z
-x,-y,-z
loop_
_atom_site_type_symbol
_atom_site_label
_atom_site_fract_x
_atom_site_fract_y
_atom_site_fract_z
Si Si1 0.699886 0.632379 0.037700
Si Si2 0.052846 0.930724 0.682409
Si Si3 0.761466 0.766845 0.722675
Si Si4 0.325079 0.603920 0.489552
Si Si5 0.278737 0.615777 0.748480
Si Si6 0.682616 0.940899 0.114855
Si Si7 0.997402 0.521865 0.231293
Si Si8 0.650164 0.270800 0.810011
O O1 0.548565 0.407683 0.139339
O O2 0.852648 0.583884 0.065961
O O3 0.458199 0.628938 0.153111
O O4 0.910147 0.874364 0.820433
O O5 0.165119 0.771101 0.719544
O O6 0.805201 0.850436 0.742088
O O7 0.356407 0.197100 0.449907
O O8 0.848601 0.593346 0.778505
O O9 0.000000 0.000000 0.500000
O O10 0.500000 0.500000 0.500000
O O11 0.519348 0.835116 0.279468
O O12 0.232923 0.635403 0.570129
O O13 0.007085 0.421783 0.635332
O O14 0.175886 0.497680 0.767253
O O15 0.481107 0.754003 0.207073
O O16 0.000000 0.000000 0.000000
O O17 0.767798 0.197023 0.953884
O O18 0.500000 0.000000 0.000000
#
# Coordination Sequence:
#
# PCOD9039511 Si02
#       8
#     2   2   2   2   2   2   2   2
#     4  12  23  43  70 100 135 180 235 283 356 417
#     4  10  23  43  67  98 137 181 224 291 348 420
#     4  11  22  46  69  97 141 176 231 293 347 420
#     4  12  25  46  73 102 145 191 237 294 363 422
#     4  10  23  42  68  99 138 176 234 281 348 424
#     4  12  24  47  74 103 146 188 235 299 356 427
#     4  11  24  47  67 104 140 185 233 290 354 421
#     4  12  25  48  70 106 145 183 243 295 349 432
#
# _framework density 23.463832
#
# number of rings (size 3 to 8) (size 9 to 14) (size 15 to 20)
#    0.000    0.750    5.000    1.875    0.000    3.000 
#   13.500    0.000    0.000    0.000    0.000    0.000 
#    0.000    0.000    0.000    0.000    0.000    0.000 
#
# Total GULP energy -89481.724575 kJ/mol
# GULP energy per Si atom -5592.607786 kJ/mol
# Density = 2.341043 g / cm^3
# Si number density = 23.463832 Si / 1000 Ang^3
#
#
#
# Elastic Constant Matrix: (Units=GPa)
#
#
# Indices 1 2 3 4 5 6 
#
# 1 145.5380 32.0144 27.6240 12.2117 9.2792 28.0654
# 2 32.0144 41.2781 29.8566 -1.1848 -3.8798 11.5918
# 3 27.6240 29.8566 109.2882 19.8216 18.7306 4.0411
# 4 12.2117 -1.1848 19.8216 28.2542 4.0149 11.5440
# 5 9.2792 -3.8798 18.7306 4.0149 50.4686 4.4854
# 6 28.0654 11.5918 4.0411 11.5440 4.4854 41.1099
#
#
#
# Elastic Compliance Matrix: (Units=1/GPa)
#
#
# Indices 1 2 3 4 5 6 
#
# 1 0.009327 -0.006935 0.000541 -0.003040 -0.001904 -0.003403
# 2 -0.006935 0.046441 -0.015859 0.020154 0.010335 -0.013588
# 3 0.000541 -0.015859 0.016975 -0.014809 -0.007095 0.007366
# 4 -0.003040 0.020154 -0.014809 0.054612 0.004861 -0.018018
# 5 -0.001904 0.010335 -0.007095 0.004861 0.023638 -0.004861
# 6 -0.003403 -0.013588 0.007366 -0.018018 -0.004861 0.035346
#
#
# Mechanical properties :
#
#
# Convention : Reuss Voigt Hill
#
# Bulk Modulus (GPa) = 35.41401 52.78826 44.10114
# Shear Modulus (GPa) = 20.81095 37.74049 29.27572
#
# Velocity S-wave (km/s) = 2.98138 4.01490 3.53611
# Velocity P-wave (km/s) = 5.19397 6.63620 5.95888
#
# Compressibility (1/GPa) = 0.02823741
#
# Stress axis : x y z
#
# Youngs Moduli (GPa) = 107.21755 21.53254 58.90850
#
# Poissons Ratio (x) = 0.14934 -0.03186
# Poissons Ratio (y) = 0.74360 0.93420
# Poissons Ratio (z) = -0.05799 0.34148
#
# Static dielectric constant tensor:
#      x y z
#    x 1.985740 0.010400 -0.068610 
#    y 0.010400 1.885300 0.024820 
#    z -0.068610 0.024820 1.897330 
# 
# From -- ./inp_files/589451.got.cif
#   From: 2010.05.17/outbox.cif.g08.bks.cpg/sg2_295_cif.got.tgz:589451.got - 2010.06.03 11:33:40.
