data_PCOD9039115
_publ_section_title
;
Structure prediction by ZEFSAII (Michael W. Deem and Ramdas Pophale) SiO2 
 PCOD9039115
Probable space group: P -1
;
_chemical_formula_sum "Si O2"
_cell_formula_units_Z 16
_cell_length_a 9.505691
_cell_length_b 26.601589
_cell_length_c 9.659630
_cell_angle_alpha 44.123632
_cell_angle_beta 45.744360
_cell_angle_gamma 28.199765
_cell_volume 787.642124
_symmetry_space_group_name_H-M "P -1"
_symmetry_group_IT_number 2
_symmetry_cell_setting 'triclinic'
loop_
_space_group_symop_operation_xyz
x,y,z
-x,-y,-z
loop_
_atom_site_type_symbol
_atom_site_label
_atom_site_fract_x
_atom_site_fract_y
_atom_site_fract_z
Si Si1 0.816953 0.952896 0.899125
Si Si2 0.251196 0.738857 0.221238
Si Si3 0.820305 0.205837 0.285368
Si Si4 0.754963 0.505406 0.689643
Si Si5 0.069149 0.744852 0.635841
Si Si6 0.212707 0.314226 0.947996
Si Si7 0.525397 0.811450 0.277491
Si Si8 0.190266 0.659587 0.176639
O O1 0.997520 0.896077 0.743423
O O2 0.739776 0.055397 0.797658
O O3 0.028992 0.853203 0.061616
O O4 0.500000 0.000000 0.000000
O O5 0.098590 0.765734 0.420378
O O6 0.572550 0.687266 0.128128
O O7 0.303852 0.653271 0.260085
O O8 0.027392 0.174207 0.334556
O O9 0.555677 0.233720 0.482210
O O10 0.721935 0.303693 0.069473
O O11 0.415924 0.629780 0.671484
O O12 0.748800 0.438816 0.720375
O O13 0.000000 0.500000 0.500000
O O14 0.888745 0.435504 0.878116
O O15 0.861535 0.732743 0.812532
O O16 0.385296 0.239380 0.837465
O O17 0.825084 0.765263 0.221627
#
# Coordination Sequence:
#
# PCOD9039115 Si02
#       8
#     2   2   2   2   2   2   2   2
#     4  11  22  44  67  91 131 175 214 262 327 389
#     4  11  24  42  63  95 138 160 214 278 320 362
#     4  11  21  39  68  95 124 170 219 262 319 386
#     4  11  21  42  73  93 125 181 214 251 328 398
#     4  12  22  42  66  94 132 170 214 267 322 376
#     4  11  23  41  63  99 130 166 216 269 313 384
#     4  11  20  42  68  92 126 175 219 258 317 394
#     4  10  23  42  66  94 134 167 214 267 316 387
#
# _framework density 20.313791999999999
#
# number of rings (size 3 to 8) (size 9 to 14) (size 15 to 20)
#    0.000    1.000    7.500    1.500    0.000    3.000 
#    2.250    1.875    0.000    0.000    0.000    0.000 
#    0.000    0.000    0.000    0.000    0.000    0.000 
#
# Total GULP energy -89329.619826 kJ/mol
# GULP energy per Si atom -5583.101239 kJ/mol
# Density = 2.026756 g / cm^3
# Si number density = 20.313792 Si / 1000 Ang^3
#
#
#
# Elastic Constant Matrix: (Units=GPa)
#
#
# Indices 1 2 3 4 5 6 
#
# 1 134.5919 31.6286 35.2876 -3.0139 7.4083 3.2904
# 2 31.6286 62.6899 18.2233 4.1564 -6.6379 11.1959
# 3 35.2876 18.2233 122.3060 12.4253 -1.7117 3.3036
# 4 -3.0139 4.1564 12.4253 19.9457 3.9016 -3.9223
# 5 7.4083 -6.6379 -1.7117 3.9016 30.2247 -3.6140
# 6 3.2904 11.1959 3.3036 -3.9223 -3.6140 24.1640
#
#
#
# Elastic Compliance Matrix: (Units=1/GPa)
#
#
# Indices 1 2 3 4 5 6 
#
# 1 0.009654 -0.005195 -0.002658 0.005343 -0.004144 0.001703
# 2 -0.005195 0.021610 -0.000568 -0.007978 0.005864 -0.009646
# 3 -0.002658 -0.000568 0.009814 -0.007063 0.001804 -0.001593
# 4 0.005343 -0.007978 -0.007063 0.061384 -0.009901 0.012418
# 5 -0.004144 0.005864 0.001804 -0.009901 0.036951 0.001520
# 6 0.001703 -0.009646 -0.001593 0.012418 0.001520 0.048082
#
#
# Mechanical properties :
#
#
# Convention : Reuss Voigt Hill
#
# Bulk Modulus (GPa) = 41.26174 54.42964 47.84569
# Shear Modulus (GPa) = 23.53886 30.49676 27.01781
#
# Velocity S-wave (km/s) = 3.40775 3.87884 3.65090
# Velocity P-wave (km/s) = 5.98665 6.84932 6.43246
#
# Compressibility (1/GPa) = 0.02423552
#
# Stress axis : x y z
#
# Youngs Moduli (GPa) = 103.58806 46.27466 101.90028
#
# Poissons Ratio (x) = 0.24040 0.27085
# Poissons Ratio (y) = 0.53814 0.05787
# Poissons Ratio (z) = 0.27533 0.02628
#
# Static dielectric constant tensor:
#      x y z
#    x 1.744890 0.055810 -0.022100 
#    y 0.055810 1.762730 -0.010540 
#    z -0.022100 -0.010540 1.735740 
# 
# From -- ./inp_files/227359.got.cif
#   From: 2010.05.17/outbox.cif.g08.bks.cpg/sg2_114_cif.got.tgz:227359.got - 2010.06.03 11:33:40.
