data_PCOD9039508
_publ_section_title
;
Structure prediction by ZEFSAII (Michael W. Deem and Ramdas Pophale) SiO2 
 PCOD9039508
Probable space group: P -1
;
_chemical_formula_sum "Si O2"
_cell_formula_units_Z 14
_cell_length_a 9.501567
_cell_length_b 7.479545
_cell_length_c 8.907049
_cell_angle_alpha 100.391407
_cell_angle_beta 104.907956
_cell_angle_gamma 67.043570
_cell_volume 560.966331
_symmetry_space_group_name_H-M "P -1"
_symmetry_group_IT_number 2
_symmetry_cell_setting 'triclinic'
loop_
_space_group_symop_operation_xyz
x,y,z
-x,-y,-z
loop_
_atom_site_type_symbol
_atom_site_label
_atom_site_fract_x
_atom_site_fract_y
_atom_site_fract_z
Si Si1 0.491605 0.162846 0.148628
Si Si2 0.324870 0.650376 0.940700
Si Si3 0.517986 0.710919 0.506874
Si Si4 0.166682 0.391607 0.950307
Si Si5 0.012968 0.263663 0.662854
Si Si6 0.150428 0.288223 0.396784
Si Si7 0.222818 0.889372 0.249938
O O1 0.636093 0.230734 0.161731
O O2 0.502892 0.154964 0.329729
O O3 0.315680 0.321118 0.091754
O O4 0.500000 0.000000 0.000000
O O5 0.214494 0.530021 0.868848
O O6 0.500000 0.500000 0.000000
O O7 0.249653 0.786689 0.081507
O O8 0.500000 0.500000 0.500000
O O9 0.689575 0.691793 0.498765
O O10 0.388808 0.816258 0.366493
O O11 0.148316 0.221941 0.817895
O O12 0.000000 0.500000 0.000000
O O13 0.938456 0.498652 0.660961
O O14 0.889620 0.181391 0.687253
O O15 0.075099 0.212700 0.504482
O O16 0.168453 0.120954 0.254789
#
# Coordination Sequence:
#
# PCOD9039508 Si02
#       7
#     2   2   2   2   2   2   2
#     4  11  26  44  68 106 140 181 240 294 347 426
#     4  10  23  42  68  99 136 183 233 282 353 419
#     4  12  24  43  73  99 143 185 238 289 349 419
#     4  11  22  43  69  92 140 186 226 279 363 415
#     4  11  25  45  69 101 144 182 227 294 352 424
#     4  11  26  43  68 105 138 181 237 286 355 413
#     4  12  24  46  73 104 138 183 237 292 349 421
#
# _framework density 24.956935000000001
#
# number of rings (size 3 to 8) (size 9 to 14) (size 15 to 20)
#    0.000    0.857    2.857    4.286    8.000    0.000 
#    2.571    1.429    0.000    0.000    0.000    0.000 
#    0.000    0.000    0.000    0.000    0.000    0.000 
#
# Total GULP energy -78284.627037 kJ/mol
# GULP energy per Si atom -5591.759074 kJ/mol
# Density = 2.490013 g / cm^3
# Si number density = 24.956935 Si / 1000 Ang^3
#
#
#
# Elastic Constant Matrix: (Units=GPa)
#
#
# Indices 1 2 3 4 5 6 
#
# 1 180.7545 23.3101 10.6143 -0.4182 -3.2966 23.4090
# 2 23.3101 70.2444 -4.9446 21.8344 -1.1439 5.0701
# 3 10.6143 -4.9446 53.4056 9.1057 -0.2825 -2.9728
# 4 -0.4182 21.8344 9.1057 35.5149 -3.2487 -5.2452
# 5 -3.2966 -1.1439 -0.2825 -3.2487 47.3212 -4.5396
# 6 23.4090 5.0701 -2.9728 -5.2452 -4.5396 26.3714
#
#
#
# Elastic Compliance Matrix: (Units=1/GPa)
#
#
# Indices 1 2 3 4 5 6 
#
# 1 0.006665 -0.002349 -0.002058 0.001240 -0.000043 -0.005457
# 2 -0.002349 0.020049 0.004507 -0.014235 -0.001039 -0.004272
# 3 -0.002058 0.004507 0.021000 -0.007956 -0.000293 0.001695
# 4 0.001240 -0.014235 -0.007956 0.040663 0.003389 0.009410
# 5 -0.000043 -0.001039 -0.000293 0.003389 0.021779 0.004628
# 6 -0.005457 -0.004272 0.001695 0.009410 0.004628 0.046445
#
#
# Mechanical properties :
#
#
# Convention : Reuss Voigt Hill
#
# Bulk Modulus (GPa) = 20.87035 40.26267 30.56651
# Shear Modulus (GPa) = 29.00713 40.20316 34.60515
#
# Velocity S-wave (km/s) = 3.41293 4.01796 3.72774
# Velocity P-wave (km/s) = 4.88994 6.13948 5.54999
#
# Compressibility (1/GPa) = 0.04791486
#
# Stress axis : x y z
#
# Youngs Moduli (GPa) = 150.03876 49.87815 47.61886
#
# Poissons Ratio (x) = 0.11716 0.09798
# Poissons Ratio (y) = 0.35241 -0.21461
# Poissons Ratio (z) = 0.30871 -0.22479
#
# Static dielectric constant tensor:
#      x y z
#    x 1.999690 -0.020450 -0.084190 
#    y -0.020450 2.090710 -0.024240 
#    z -0.084190 -0.024240 2.000200 
# 
# From -- ./inp_files/159924.got.cif
#   From: 2010.05.17/outbox.cif.g08.bks.cpg/sg2_80_cif.got.tgz:159924.got - 2010.06.03 11:33:40.
