data_PCOD9039988
_publ_section_title
;
Structure prediction by ZEFSAII (Michael W. Deem and Ramdas Pophale) SiO2 
 PCOD9039988
Probable space group: P -1
;
_chemical_formula_sum "Si O2"
_cell_formula_units_Z 10
_cell_length_a 9.866951
_cell_length_b 5.196096
_cell_length_c 18.844975
_cell_angle_alpha 116.999768
_cell_angle_beta 150.608291
_cell_angle_gamma 75.234843
_cell_volume 400.030314
_symmetry_space_group_name_H-M "P -1"
_symmetry_group_IT_number 2
_symmetry_cell_setting 'triclinic'
loop_
_space_group_symop_operation_xyz
x,y,z
-x,-y,-z
loop_
_atom_site_type_symbol
_atom_site_label
_atom_site_fract_x
_atom_site_fract_y
_atom_site_fract_z
Si Si1 0.157337 0.113672 0.836325
Si Si2 0.807168 0.155659 0.555061
Si Si3 0.637856 0.430684 0.773330
Si Si4 0.213842 0.151265 0.234494
Si Si5 0.623301 0.395779 0.186730
O O1 0.290758 0.909728 0.822149
O O2 0.006663 0.902436 0.807807
O O3 0.916872 0.197701 0.691197
O O4 0.407611 0.386345 0.021137
O O5 0.542673 0.281172 0.431999
O O6 0.084357 0.320870 0.653882
O O7 0.661177 0.798168 0.426603
O O8 0.812953 0.650852 0.819429
O O9 0.538860 0.593846 0.813273
O O10 0.796544 0.188127 0.838259
#
# Coordination Sequence:
#
# PCOD9039988 Si02
#       5
#     2   2   2   2   2
#     4  11  25  43  68 101 139 177 222 280 340 398
#     4  10  23  42  73  96 136 176 230 274 331 400
#     4  10  25  45  72  99 133 179 229 274 331 399
#     4  10  25  45  72  99 133 179 229 274 331 399
#     4  11  25  43  68 101 139 177 222 280 340 398
#
# _framework density 24.998107000000001
#
# number of rings (size 3 to 8) (size 9 to 14) (size 15 to 20)
#    1.200    0.400    0.000    3.000    5.600    4.800 
#    0.000    0.000    0.000    0.000    0.000    0.000 
#    0.000    0.000    0.000    0.000    0.000    0.000 
#
# Total GULP energy -56001.722147 kJ/mol
# GULP energy per Si atom -5600.172215 kJ/mol
# Density = 2.494121 g / cm^3
# Si number density = 24.998107 Si / 1000 Ang^3
#
#
#
# Elastic Constant Matrix: (Units=GPa)
#
#
# Indices 1 2 3 4 5 6 
#
# 1 132.2653 35.9066 5.5845 10.0741 1.7322 -16.2146
# 2 35.9066 78.3880 10.7863 6.9989 -6.1166 9.1521
# 3 5.5845 10.7863 85.1421 -15.4081 10.7893 -8.0901
# 4 10.0741 6.9989 -15.4081 27.4769 1.5171 -6.0807
# 5 1.7322 -6.1166 10.7893 1.5171 40.1251 9.5179
# 6 -16.2146 9.1521 -8.0901 -6.0807 9.5179 36.4646
#
#
#
# Elastic Compliance Matrix: (Units=1/GPa)
#
#
# Indices 1 2 3 4 5 6 
#
# 1 0.009996 -0.005868 0.001242 0.000287 -0.003359 0.007118
# 2 -0.005868 0.019151 -0.005902 -0.009216 0.008040 -0.012361
# 3 0.001242 -0.005902 0.016827 0.013195 -0.008386 0.010156
# 4 0.000287 -0.009216 0.013195 0.050300 -0.010798 0.016574
# 5 -0.003359 0.008040 -0.008386 -0.010798 0.032681 -0.015703
# 6 0.007118 -0.012361 0.010156 0.016574 -0.015703 0.042807
#
#
# Mechanical properties :
#
#
# Convention : Reuss Voigt Hill
#
# Bulk Modulus (GPa) = 40.13571 44.48336 42.30953
# Shear Modulus (GPa) = 24.86017 37.04786 30.95402
#
# Velocity S-wave (km/s) = 3.15696 3.85389 3.52270
# Velocity P-wave (km/s) = 5.42023 6.13487 5.78859
#
# Compressibility (1/GPa) = 0.02491547
#
# Stress axis : x y z
#
# Youngs Moduli (GPa) = 100.03982 52.21714 59.42875
#
# Poissons Ratio (x) = 0.30643 -0.07380
# Poissons Ratio (y) = 0.58708 0.35077
# Poissons Ratio (z) = -0.12423 0.30821
#
# Static dielectric constant tensor:
#      x y z
#    x 1.892950 -0.016900 0.003110 
#    y -0.016900 1.991330 0.004070 
#    z 0.003110 0.004070 2.048450 
# 
# From -- ./inp_files/17483.got.cif
#   From: 2010.05.17/outbox.cif.g08.bks.cpg/sg2_9_cif.got.tgz:17483.got - 2010.06.03 11:33:40.
