data_PCOD9039881
_publ_section_title
;
Structure prediction by ZEFSAII (Michael W. Deem and Ramdas Pophale) SiO2 
 PCOD9039881
Probable space group: P -1
;
_chemical_formula_sum "Si O2"
_cell_formula_units_Z 16
_cell_length_a 16.144698
_cell_length_b 10.735869
_cell_length_c 9.489122
_cell_angle_alpha 83.877133
_cell_angle_beta 155.712819
_cell_angle_gamma 89.120141
_cell_volume 646.646831
_symmetry_space_group_name_H-M "P -1"
_symmetry_group_IT_number 2
_symmetry_cell_setting 'triclinic'
loop_
_space_group_symop_operation_xyz
x,y,z
-x,-y,-z
loop_
_atom_site_type_symbol
_atom_site_label
_atom_site_fract_x
_atom_site_fract_y
_atom_site_fract_z
Si Si1 0.575504 0.991045 0.914246
Si Si2 0.152412 0.919928 0.367243
Si Si3 0.460887 0.484479 0.604743
Si Si4 0.700694 0.752458 0.580499
Si Si5 0.159809 0.248330 0.497684
Si Si6 0.182142 0.128313 0.964359
Si Si7 0.924503 0.373838 0.362128
Si Si8 0.447473 0.641617 0.825117
O O1 0.367373 0.957895 0.655423
O O2 0.519091 0.146736 0.824549
O O3 0.761337 0.898337 0.304015
O O4 0.640202 0.952362 0.857496
O O5 0.245152 0.760834 0.532931
O O6 0.990554 0.942864 0.245867
O O7 0.000000 0.000000 0.000000
O O8 0.500000 0.500000 0.500000
O O9 0.307350 0.394096 0.394838
O O10 0.417387 0.612436 0.617054
O O11 0.684257 0.400610 0.021820
O O12 0.858438 0.751191 0.697566
O O13 0.742969 0.817871 0.782309
O O14 0.959422 0.333383 0.257585
O O15 0.347313 0.310512 0.827777
O O16 0.068599 0.254871 0.684050
O O17 0.000000 0.500000 0.500000
O O18 0.500000 0.500000 0.000000
#
# Coordination Sequence:
#
# PCOD9039881 Si02
#       8
#     2   2   2   2   2   2   2   2
#     4  10  24  47  71  99 149 193 235 301 369 427
#     4  11  24  42  75 106 138 195 249 290 361 445
#     4  12  27  43  69 105 140 183 235 306 361 429
#     4  12  24  43  69 105 143 183 240 300 362 425
#     4  10  23  42  71  99 141 189 234 300 361 426
#     4  11  25  45  74 104 139 196 243 299 361 438
#     4  11  23  46  71  99 141 189 245 290 368 443
#     4  11  22  45  70 100 141 190 234 294 371 422
#
# _framework density 24.743027999999999
#
# number of rings (size 3 to 8) (size 9 to 14) (size 15 to 20)
#    0.000    1.000    3.750    2.250    5.250    1.000 
#    2.250    3.125    0.000    0.000    0.000    0.000 
#    0.000    0.000    0.000    0.000    0.000    0.000 
#
# Total GULP energy -89441.363167 kJ/mol
# GULP energy per Si atom -5590.085198 kJ/mol
# Density = 2.468671 g / cm^3
# Si number density = 24.743028 Si / 1000 Ang^3
#
#
#
# Elastic Constant Matrix: (Units=GPa)
#
#
# Indices 1 2 3 4 5 6 
#
# 1 185.1236 32.6846 16.8342 8.1701 -9.6871 -27.2941
# 2 32.6846 86.1955 26.6022 9.3164 -5.5275 7.0712
# 3 16.8342 26.6022 59.5359 -1.2239 3.2570 -4.7765
# 4 8.1701 9.3164 -1.2239 42.8369 1.6551 -4.1034
# 5 -9.6871 -5.5275 3.2570 1.6551 40.2145 -6.7645
# 6 -27.2941 7.0712 -4.7765 -4.1034 -6.7645 44.0546
#
#
#
# Elastic Compliance Matrix: (Units=1/GPa)
#
#
# Indices 1 2 3 4 5 6 
#
# 1 0.006752 -0.002642 -0.000463 -0.000344 0.002131 0.004853
# 2 -0.002642 0.015578 -0.006763 -0.003609 0.001360 -0.004998
# 3 -0.000463 -0.006763 0.020359 0.002506 -0.002308 0.002885
# 4 -0.000344 -0.003609 0.002506 0.024579 -0.001336 0.002722
# 5 0.002131 0.001360 -0.002308 -0.001336 0.026619 0.004815
# 6 0.004853 -0.004998 0.002885 0.002722 0.004815 0.027813
#
#
# Mechanical properties :
#
#
# Convention : Reuss Voigt Hill
#
# Bulk Modulus (GPa) = 43.56775 53.67743 48.62259
# Shear Modulus (GPa) = 33.53741 42.40348 37.97044
#
# Velocity S-wave (km/s) = 3.68561 4.14424 3.92164
# Velocity P-wave (km/s) = 5.97979 6.68137 6.34029
#
# Compressibility (1/GPa) = 0.02295276
#
# Stress axis : x y z
#
# Youngs Moduli (GPa) = 148.09340 64.19394 49.11887
#
# Poissons Ratio (x) = 0.16958 0.02276
# Poissons Ratio (y) = 0.39122 0.33220
# Poissons Ratio (z) = 0.06861 0.43415
#
# Static dielectric constant tensor:
#      x y z
#    x 2.008180 -0.149870 -0.059190 
#    y -0.149870 2.988700 0.053060 
#    z -0.059190 0.053060 1.991580 
# 
# From -- ./inp_files/307440.got.cif
#   From: 2010.05.17/outbox.cif.g08.bks.cpg/sg2_154_cif.got.tgz:307440.got - 2010.06.03 11:33:40.
