data_PCOD9039466
_publ_section_title
;
Structure prediction by ZEFSAII (Michael W. Deem and Ramdas Pophale) SiO2 
 PCOD9039466
Probable space group: P -1
;
_chemical_formula_sum "Si O2"
_cell_formula_units_Z 13
_cell_length_a 11.476747
_cell_length_b 13.504149
_cell_length_c 12.544639
_cell_angle_alpha 37.058352
_cell_angle_beta 36.541262
_cell_angle_gamma 31.010847
_cell_volume 557.151375
_symmetry_space_group_name_H-M "P -1"
_symmetry_group_IT_number 2
_symmetry_cell_setting 'triclinic'
loop_
_space_group_symop_operation_xyz
x,y,z
-x,-y,-z
loop_
_atom_site_type_symbol
_atom_site_label
_atom_site_fract_x
_atom_site_fract_y
_atom_site_fract_z
Si Si1 0.626339 0.836808 0.847817
Si Si2 0.115686 0.227762 0.856070
Si Si3 0.645798 0.285065 0.136825
Si Si4 0.036885 0.293889 0.112835
Si Si5 0.469840 0.499412 0.741792
Si Si6 0.989823 0.653489 0.545340
Si Si7 0.500000 0.000000 0.500000
O O1 0.726210 0.875423 0.847922
O O2 0.849998 0.731669 0.693017
O O3 0.397564 0.046674 0.785111
O O4 0.551530 0.683645 0.053470
O O5 0.040382 0.434676 0.677184
O O6 0.084080 0.260244 0.980422
O O7 0.931629 0.176443 0.002981
O O8 0.582205 0.352555 0.248733
O O9 0.540027 0.165436 0.286373
O O10 0.500000 0.500000 0.000000
O O11 0.770931 0.348140 0.285284
O O12 0.000000 0.500000 0.000000
O O13 0.745782 0.394916 0.594871
O O14 0.803227 0.830937 0.447855
#
# Coordination Sequence:
#
# PCOD9039466 Si02
#       7
#     2   2   2   2   2   2   1
#     4  11  22  44  69  97 138 184 225 279 353 401
#     4  11  22  42  70  97 139 182 225 285 346 403
#     4  11  22  46  71  98 138 183 230 284 351 399
#     4   9  18  42  69  96 136 184 225 278 347 407
#     4  10  23  42  68  96 140 174 225 289 334 414
#     4  12  25  43  64 104 133 180 232 282 338 412
#     4  12  26  42  70 102 132 180 236 278 342 418
#
# _framework density 23.332977
#
# number of rings (size 3 to 8) (size 9 to 14) (size 15 to 20)
#    0.000    1.231    6.154    1.385    2.154    2.462 
#    0.000    3.846    0.000    0.000    0.000    0.000 
#    0.000    0.000    0.000    0.000    0.000    0.000 
#
# Total GULP energy -72428.981263 kJ/mol
# GULP energy per Si atom -5571.460097 kJ/mol
# Density = 2.327987 g / cm^3
# Si number density = 23.332977 Si / 1000 Ang^3
#
#
#
# Elastic Constant Matrix: (Units=GPa)
#
#
# Indices 1 2 3 4 5 6 
#
# 1 70.3029 20.8843 18.8143 13.1072 -19.9795 -12.0374
# 2 20.8843 112.7690 45.9947 28.4512 -7.5368 -30.6293
# 3 18.8143 45.9947 120.9100 28.8378 -21.5985 -14.1122
# 4 13.1072 28.4512 28.8378 50.6247 -20.5091 -2.9510
# 5 -19.9795 -7.5368 -21.5985 -20.5091 18.0751 7.2124
# 6 -12.0374 -30.6293 -14.1122 -2.9510 7.2124 35.8936
#
#
#
# Elastic Compliance Matrix: (Units=1/GPa)
#
#
# Indices 1 2 3 4 5 6 
#
# 1 0.026008 -0.008576 0.003656 0.015877 0.049903 -0.005880
# 2 -0.008576 0.020652 -0.006492 -0.020513 -0.039240 0.018393
# 3 0.003656 -0.006492 0.012815 0.004658 0.023365 -0.003587
# 4 0.015877 -0.020513 0.004658 0.060901 0.093275 -0.024084
# 5 0.049903 -0.039240 0.023365 0.093275 0.247697 -0.049666
# 6 -0.005880 0.018393 -0.003587 -0.024084 -0.049666 0.048173
#
#
# Mechanical properties :
#
#
# Convention : Reuss Voigt Hill
#
# Bulk Modulus (GPa) = 27.28245 52.81871 40.05058
# Shear Modulus (GPa) = 11.07942 35.47124 23.27533
#
# Velocity S-wave (km/s) = 2.18144 3.90323 3.16180
# Velocity P-wave (km/s) = 4.25006 6.55741 5.52552
#
# Compressibility (1/GPa) = 0.03665360
#
# Stress axis : x y z
#
# Youngs Moduli (GPa) = 38.44926 48.42060 78.03161
#
# Poissons Ratio (x) = 0.41523 -0.28532
# Poissons Ratio (y) = 0.32972 0.50659
# Poissons Ratio (z) = -0.14059 0.31435
#
# Static dielectric constant tensor:
#      x y z
#    x 1.786110 0.033100 -0.119150 
#    y 0.033100 1.906460 0.054220 
#    z -0.119150 0.054220 1.731420 
# 
# From -- ./inp_files/521262.got.cif
#   From: 2010.05.17/outbox.cif.g08.bks.cpg/sg2_261_cif.got.tgz:521262.got - 2010.06.03 11:33:40.
