data_PCOD9039337
_publ_section_title
;
Structure prediction by ZEFSAII (Michael W. Deem and Ramdas Pophale) SiO2 
 PCOD9039337
Probable space group: P -1
;
_chemical_formula_sum "Si O2"
_cell_formula_units_Z 16
_cell_length_a 19.297421
_cell_length_b 10.575503
_cell_length_c 12.062959
_cell_angle_alpha 141.901104
_cell_angle_beta 27.203214
_cell_angle_gamma 139.983235
_cell_volume 675.152757
_symmetry_space_group_name_H-M "P -1"
_symmetry_group_IT_number 2
_symmetry_cell_setting 'triclinic'
loop_
_space_group_symop_operation_xyz
x,y,z
-x,-y,-z
loop_
_atom_site_type_symbol
_atom_site_label
_atom_site_fract_x
_atom_site_fract_y
_atom_site_fract_z
Si Si1 0.542703 0.664990 0.722648
Si Si2 0.010723 0.897265 0.215173
Si Si3 0.516225 0.788873 0.610319
Si Si4 0.205585 0.590582 0.243722
Si Si5 0.801179 0.582865 0.436919
Si Si6 0.961623 0.648461 0.483011
Si Si7 0.357159 0.902198 0.717605
Si Si8 0.858746 0.972357 0.265843
O O1 0.525440 0.817111 0.749438
O O2 0.554135 0.452347 0.492601
O O3 0.684942 0.717320 0.642722
O O4 0.385033 0.618711 0.984255
O O5 0.961325 0.696487 0.225502
O O6 0.970915 0.105442 0.465531
O O7 0.196041 0.973155 0.983305
O O8 0.911944 0.853596 0.213077
O O9 0.423233 0.925556 0.765080
O O10 0.696939 0.848941 0.358653
O O11 0.138291 0.407143 0.300235
O O12 0.171762 0.804643 0.493439
O O13 0.109118 0.553603 0.239806
O O14 0.849934 0.572536 0.487442
O O15 0.707517 0.346124 0.383654
O O16 0.500000 0.000000 0.500000
O O17 0.000000 0.000000 0.000000
#
# Coordination Sequence:
#
# PCOD9039337 Si02
#       8
#     2   2   2   2   2   2   2   2
#     4  10  23  44  67  96 136 171 229 272 339 398
#     4  11  24  45  65  99 134 176 227 276 337 402
#     4  10  23  42  67  99 130 179 217 281 329 397
#     4  10  25  43  67 103 130 177 222 280 338 401
#     4  11  24  45  68  98 134 179 225 276 335 401
#     4  10  25  43  67  97 132 176 223 274 343 396
#     4  11  26  42  67 101 136 175 230 274 336 401
#     4  11  24  42  71  97 133 173 225 277 336 403
#
# _framework density 23.698340999999999
#
# number of rings (size 3 to 8) (size 9 to 14) (size 15 to 20)
#    0.000    1.500    1.250    1.500   14.000    2.000 
#    0.000    0.000    0.000    0.000    0.000    0.000 
#    0.000    0.000    0.000    0.000    0.000    0.000 
#
# Total GULP energy -89347.339981 kJ/mol
# GULP energy per Si atom -5584.208749 kJ/mol
# Density = 2.364440 g / cm^3
# Si number density = 23.698341 Si / 1000 Ang^3
#
#
#
# Elastic Constant Matrix: (Units=GPa)
#
#
# Indices 1 2 3 4 5 6 
#
# 1 162.3456 22.1126 17.6927 11.4384 -33.3184 -5.6376
# 2 22.1126 95.2381 14.5122 -11.7389 -6.5360 -7.6330
# 3 17.6927 14.5122 57.6827 -13.8580 -17.6015 -2.5966
# 4 11.4384 -11.7389 -13.8580 30.0429 7.4186 -8.3839
# 5 -33.3184 -6.5360 -17.6015 7.4186 31.5220 -3.6277
# 6 -5.6376 -7.6330 -2.5966 -8.3839 -3.6277 28.9117
#
#
#
# Elastic Compliance Matrix: (Units=1/GPa)
#
#
# Indices 1 2 3 4 5 6 
#
# 1 0.009246 -0.002159 -0.000763 -0.007232 0.010647 0.000403
# 2 -0.002159 0.012253 -0.001020 0.006736 -0.001378 0.004503
# 3 -0.000763 -0.001020 0.023683 0.009851 0.010566 0.005891
# 4 -0.007232 0.006736 0.009851 0.049900 -0.010838 0.014363
# 5 0.010647 -0.001378 0.010566 -0.010838 0.051836 0.006023
# 6 0.000403 0.004503 0.005891 0.014363 0.006023 0.041305
#
#
# Mechanical properties :
#
#
# Convention : Reuss Voigt Hill
#
# Bulk Modulus (GPa) = 26.81131 47.10014 36.95572
# Shear Modulus (GPa) = 23.97628 35.49191 29.73409
#
# Velocity S-wave (km/s) = 3.18422 3.87415 3.54600
# Velocity P-wave (km/s) = 4.98569 6.31903 5.69154
#
# Compressibility (1/GPa) = 0.03729770
#
# Stress axis : x y z
#
# Youngs Moduli (GPa) = 108.15911 81.61084 42.22460
#
# Poissons Ratio (x) = 0.17618 0.03223
# Poissons Ratio (y) = 0.23350 0.04307
# Poissons Ratio (z) = 0.08255 0.08325
#
# Static dielectric constant tensor:
#      x y z
#    x 1.948050 -0.017500 -0.003070 
#    y -0.017500 1.987680 0.073310 
#    z -0.003070 0.073310 1.981100 
# 
# From -- ./inp_files/462414.got.cif
#   From: 2010.05.17/outbox.cif.g08.bks.cpg/sg2_232_cif.got.tgz:462414.got - 2010.06.03 11:33:40.
