data_PCOD9039477
_publ_section_title
;
Structure prediction by ZEFSAII (Michael W. Deem and Ramdas Pophale) SiO2 
 PCOD9039477
Probable space group: P -1
;
_chemical_formula_sum "Si O2"
_cell_formula_units_Z 12
_cell_length_a 9.139410
_cell_length_b 9.149316
_cell_length_c 10.132424
_cell_angle_alpha 71.185496
_cell_angle_beta 45.111740
_cell_angle_gamma 63.686174
_cell_volume 538.012138
_symmetry_space_group_name_H-M "P -1"
_symmetry_group_IT_number 2
_symmetry_cell_setting 'triclinic'
loop_
_space_group_symop_operation_xyz
x,y,z
-x,-y,-z
loop_
_atom_site_type_symbol
_atom_site_label
_atom_site_fract_x
_atom_site_fract_y
_atom_site_fract_z
Si Si1 0.440784 0.145179 0.383653
Si Si2 0.824033 0.491790 0.505071
Si Si3 0.081508 0.400204 0.845488
Si Si4 0.854953 0.144093 0.961514
Si Si5 0.568392 0.326594 0.581513
Si Si6 0.086563 0.003861 0.588841
O O1 0.346536 0.325445 0.450125
O O2 0.500000 0.000000 0.500000
O O3 0.239551 0.115339 0.448469
O O4 0.617412 0.157242 0.161481
O O5 0.936328 0.468720 0.297504
O O6 0.684270 0.366557 0.629971
O O7 0.000000 0.500000 0.500000
O O8 0.335617 0.294682 0.748487
O O9 0.939005 0.293495 0.908480
O O10 0.000000 0.500000 0.000000
O O11 0.916748 0.082813 0.790409
O O12 0.000000 0.000000 0.000000
O O13 0.500000 0.500000 0.500000
O O14 0.749178 0.179839 0.434918
O O15 0.000000 0.000000 0.500000
#
# Coordination Sequence:
#
# PCOD9039477 Si02
#       6
#     2   2   2   2   2   2
#     4  12  23  47  74  99 135 187 238 280 343 421
#     4  11  23  44  70  99 143 181 221 295 349 395
#     4  11  24  43  67 103 135 180 238 279 337 424
#     4  12  25  42  75 101 135 186 237 281 344 415
#     4  10  23  42  68  97 137 183 229 275 343 409
#     4  12  26  46  70 104 144 175 230 295 348 405
#
# _framework density 22.304331000000001
#
# number of rings (size 3 to 8) (size 9 to 14) (size 15 to 20)
#    0.000    0.667    3.333    5.000    4.667    0.667 
#    3.000    1.667    0.000    0.000    0.000    0.000 
#    0.000    0.000    0.000    0.000    0.000    0.000 
#
# Total GULP energy -66906.685772 kJ/mol
# GULP energy per Si atom -5575.557148 kJ/mol
# Density = 2.225357 g / cm^3
# Si number density = 22.304331 Si / 1000 Ang^3
#
#
#
# Elastic Constant Matrix: (Units=GPa)
#
#
# Indices 1 2 3 4 5 6 
#
# 1 128.5226 12.9751 85.0355 9.5721 22.2846 29.2766
# 2 12.9751 108.9347 44.5638 19.5556 5.8091 16.4079
# 3 85.0355 44.5638 177.8392 24.8614 3.3352 17.5140
# 4 9.5721 19.5556 24.8614 36.0108 11.3097 1.3483
# 5 22.2846 5.8091 3.3352 11.3097 37.5327 -1.0110
# 6 29.2766 16.4079 17.5140 1.3483 -1.0110 44.9039
#
#
#
# Elastic Compliance Matrix: (Units=1/GPa)
#
#
# Indices 1 2 3 4 5 6 
#
# 1 0.016329 0.002565 -0.007848 0.003360 -0.010646 -0.008863
# 2 0.002565 0.011679 -0.003083 -0.004111 -0.001943 -0.004657
# 3 -0.007848 -0.003083 0.010565 -0.005482 0.005915 0.002420
# 4 0.003360 -0.004111 -0.005482 0.036630 -0.011907 0.000082
# 5 -0.010646 -0.001943 0.005915 -0.011907 0.036503 0.006523
# 6 -0.008863 -0.004657 0.002420 0.000082 0.006523 0.028951
#
#
# Mechanical properties :
#
#
# Convention : Reuss Voigt Hill
#
# Bulk Modulus (GPa) = 45.78598 77.82725 61.80662
# Shear Modulus (GPa) = 30.36409 41.87096 36.11752
#
# Velocity S-wave (km/s) = 3.69366 4.33743 4.02843
# Velocity P-wave (km/s) = 6.22601 7.74942 7.02911
#
# Compressibility (1/GPa) = 0.02184074
#
# Stress axis : x y z
#
# Youngs Moduli (GPa) = 61.24198 85.62628 94.65030
#
# Poissons Ratio (x) = -0.21963 0.74279
# Poissons Ratio (y) = -0.15708 0.29182
# Poissons Ratio (z) = 0.48061 0.26400
#
# Static dielectric constant tensor:
#      x y z
#    x 1.979590 0.088750 -0.048050 
#    y 0.088750 1.970160 0.024440 
#    z -0.048050 0.024440 1.613930 
# 
# From -- ./inp_files/149767.got.cif
#   From: 2010.05.17/outbox.cif.g08.bks.cpg/sg2_75_cif.got.tgz:149767.got - 2010.06.03 11:33:40.
