data_PCOD9039272
_publ_section_title
;
Structure prediction by ZEFSAII (Michael W. Deem and Ramdas Pophale) SiO2 
 PCOD9039272
Probable space group: P -1
;
_chemical_formula_sum "Si O2"
_cell_formula_units_Z 16
_cell_length_a 14.009106
_cell_length_b 9.758366
_cell_length_c 5.150069
_cell_angle_alpha 87.322960
_cell_angle_beta 104.391007
_cell_angle_gamma 77.674470
_cell_volume 662.522638
_symmetry_space_group_name_H-M "P -1"
_symmetry_group_IT_number 2
_symmetry_cell_setting 'triclinic'
loop_
_space_group_symop_operation_xyz
x,y,z
-x,-y,-z
loop_
_atom_site_type_symbol
_atom_site_label
_atom_site_fract_x
_atom_site_fract_y
_atom_site_fract_z
Si Si1 0.494903 0.345664 0.905704
Si Si2 0.044103 0.629790 0.436222
Si Si3 0.678766 0.180941 0.313187
Si Si4 0.369778 0.339852 0.307069
Si Si5 0.241829 0.629552 0.304616
Si Si6 0.890752 0.154779 0.194460
Si Si7 0.747331 0.880864 0.519983
Si Si8 0.114552 0.140436 0.891845
O O1 0.604678 0.240700 0.022933
O O2 0.424880 0.291017 0.077756
O O3 0.500000 0.500000 0.000000
O O4 0.448646 0.353138 0.587950
O O5 0.161841 0.580108 0.444559
O O6 0.041037 0.751131 0.638705
O O7 0.000000 0.500000 0.500000
O O8 0.969923 0.715154 0.160101
O O9 0.673642 0.307882 0.499362
O O10 0.796911 0.150075 0.320805
O O11 0.666811 0.031143 0.420337
O O12 0.296799 0.493788 0.193147
O O13 0.305912 0.237496 0.397275
O O14 0.169539 0.756065 0.089763
O O15 0.936122 0.991266 0.186535
O O16 0.807790 0.845746 0.291312
O O17 0.824691 0.896630 0.798738
#
# Coordination Sequence:
#
# PCOD9039272 Si02
#       8
#     2   2   2   2   2   2   2   2
#     4  12  25  43  70  99 132 173 224 270 320 400
#     4  11  26  41  64  99 132 173 220 277 323 386
#     4  10  23  43  67  95 131 172 220 265 330 390
#     4  12  27  42  69 100 134 172 219 275 332 380
#     4  11  23  42  67  92 131 176 220 267 328 393
#     4  10  23  42  67  94 129 178 217 270 325 394
#     4  11  25  45  68  98 136 174 212 277 331 385
#     4  11  24  45  69  95 135 176 222 263 327 395
#
# _framework density 24.150120999999999
#
# number of rings (size 3 to 8) (size 9 to 14) (size 15 to 20)
#    0.000    1.000    2.500    3.000    7.000    2.000 
#    0.000    0.000    0.000    0.000    0.000    0.000 
#    0.000    0.000    0.000    0.000    0.000    0.000 
#
# Total GULP energy -89553.727659 kJ/mol
# GULP energy per Si atom -5597.107979 kJ/mol
# Density = 2.409515 g / cm^3
# Si number density = 24.150121 Si / 1000 Ang^3
#
#
#
# Elastic Constant Matrix: (Units=GPa)
#
#
# Indices 1 2 3 4 5 6 
#
# 1 82.5809 28.1526 13.0886 -3.1697 -19.2090 3.6538
# 2 28.1526 94.3462 -1.8689 -31.4100 6.6351 9.1615
# 3 13.0886 -1.8689 94.5612 -16.9549 -1.6909 -7.1092
# 4 -3.1697 -31.4100 -16.9549 31.9951 -4.6061 4.2532
# 5 -19.2090 6.6351 -1.6909 -4.6061 40.5795 -8.3460
# 6 3.6538 9.1615 -7.1092 4.2532 -8.3460 25.9682
#
#
#
# Elastic Compliance Matrix: (Units=1/GPa)
#
#
# Indices 1 2 3 4 5 6 
#
# 1 0.017525 -0.009170 -0.003619 -0.008368 0.009563 0.004223
# 2 -0.009170 0.023739 0.005293 0.025741 -0.007609 -0.012297
# 3 -0.003619 0.005293 0.013289 0.011766 -0.000660 0.000140
# 4 -0.008368 0.025741 0.011766 0.063551 -0.003823 -0.016320
# 5 0.009563 -0.007609 -0.000660 -0.003823 0.032466 0.012219
# 6 0.004223 -0.012297 0.000140 -0.016320 0.012219 0.048891
#
#
# Mechanical properties :
#
#
# Convention : Reuss Voigt Hill
#
# Bulk Modulus (GPa) = 25.27613 38.91477 32.09545
# Shear Modulus (GPa) = 21.96447 35.18296 28.57372
#
# Velocity S-wave (km/s) = 3.01906 3.82100 3.44346
# Velocity P-wave (km/s) = 4.75835 5.96787 5.39710
#
# Compressibility (1/GPa) = 0.03956302
#
# Stress axis : x y z
#
# Youngs Moduli (GPa) = 57.05994 42.12396 75.24917
#
# Poissons Ratio (x) = 0.38627 0.27233
# Poissons Ratio (y) = 0.52323 -0.39831
# Poissons Ratio (z) = 0.20650 -0.22297
#
# Static dielectric constant tensor:
#      x y z
#    x 2.001200 -0.013860 -0.050080 
#    y -0.013860 1.920760 0.035220 
#    z -0.050080 0.035220 1.943360 
# 
# From -- ./inp_files/39452.got.cif
#   From: 2010.05.17/outbox.cif.g08.bks.cpg/sg2_20_cif.got.tgz:39452.got - 2010.06.03 11:33:40.
