data_PCOD9039936
_publ_section_title
;
Structure prediction by ZEFSAII (Michael W. Deem and Ramdas Pophale) SiO2 
 PCOD9039936
Probable space group: P -1
;
_chemical_formula_sum "Si O2"
_cell_formula_units_Z 16
_cell_length_a 9.527581
_cell_length_b 9.446766
_cell_length_c 15.956276
_cell_angle_alpha 133.858912
_cell_angle_beta 58.817113
_cell_angle_gamma 135.285349
_cell_volume 727.659421
_symmetry_space_group_name_H-M "P -1"
_symmetry_group_IT_number 2
_symmetry_cell_setting 'triclinic'
loop_
_space_group_symop_operation_xyz
x,y,z
-x,-y,-z
loop_
_atom_site_type_symbol
_atom_site_label
_atom_site_fract_x
_atom_site_fract_y
_atom_site_fract_z
Si Si1 0.989642 0.207414 0.126884
Si Si2 0.786003 0.318339 0.098779
Si Si3 0.298266 0.558330 0.523380
Si Si4 0.655475 0.543990 0.347947
Si Si5 0.418586 0.645134 0.126487
Si Si6 0.002450 0.014069 0.359170
Si Si7 0.763929 0.038568 0.296763
Si Si8 0.222593 0.811926 0.134983
O O1 0.202363 0.454001 0.152882
O O2 0.830366 0.210613 0.119654
O O3 0.726672 0.166532 0.970162
O O4 0.000000 0.000000 0.000000
O O5 0.646604 0.396145 0.209309
O O6 0.002731 0.562998 0.112072
O O7 0.180969 0.996307 0.262862
O O8 0.478913 0.579289 0.426400
O O9 0.349228 0.585561 0.618032
O O10 0.268998 0.759015 0.583869
O O11 0.104085 0.287845 0.464768
O O12 0.867731 0.804432 0.381826
O O13 0.378171 0.786449 0.128063
O O14 0.568291 0.819227 0.222815
O O15 0.500000 0.500000 0.000000
O O16 0.847305 0.957683 0.310098
O O17 0.925978 0.155360 0.220586
#
# Coordination Sequence:
#
# PCOD9039936 Si02
#       8
#     2   2   2   2   2   2   2   2
#     4  11  21  40  66  95 137 178 218 267 342 407
#     4   9  18  39  65  97 130 176 216 276 332 403
#     4  11  25  45  69  99 135 178 239 277 328 403
#     4  10  23  42  72  97 135 176 232 280 336 396
#     4  11  25  41  66 100 140 179 218 276 342 405
#     4  11  25  45  71  99 137 182 225 281 341 394
#     4  12  26  44  68 100 138 178 226 282 338 402
#     4   9  21  38  68  98 134 171 225 267 339 407
#
# _framework density 21.988309999999998
#
# number of rings (size 3 to 8) (size 9 to 14) (size 15 to 20)
#    0.000    1.500    2.500    1.500    8.750    2.500 
#    0.000    1.250    0.000    0.000    0.000    0.000 
#    0.000    0.000    0.000    0.000    0.000    0.000 
#
# Total GULP energy -89496.523137 kJ/mol
# GULP energy per Si atom -5593.532696 kJ/mol
# Density = 2.193826 g / cm^3
# Si number density = 21.988310 Si / 1000 Ang^3
#
#
#
# Elastic Constant Matrix: (Units=GPa)
#
#
# Indices 1 2 3 4 5 6 
#
# 1 105.6822 19.4222 39.4814 -5.1937 -15.3883 -4.5603
# 2 19.4222 74.1744 22.0441 -7.3460 -5.4020 19.8498
# 3 39.4814 22.0441 89.2151 2.9533 -19.3853 3.9287
# 4 -5.1937 -7.3460 2.9533 39.7716 2.9008 -1.4398
# 5 -15.3883 -5.4020 -19.3853 2.9008 39.5903 5.5077
# 6 -4.5603 19.8498 3.9287 -1.4398 5.5077 33.7790
#
#
#
# Elastic Compliance Matrix: (Units=1/GPa)
#
#
# Indices 1 2 3 4 5 6 
#
# 1 0.012076 -0.002451 -0.004608 0.001480 0.001518 0.003422
# 2 -0.002451 0.018211 -0.002698 0.002740 0.001520 -0.010850
# 3 -0.004608 -0.002698 0.015353 -0.002733 0.005821 -0.001888
# 4 0.001480 0.002740 -0.002733 0.026234 -0.002369 0.000412
# 5 0.001518 0.001520 0.005821 -0.002369 0.029964 -0.006352
# 6 0.003422 -0.010850 -0.001888 0.000412 -0.006352 0.037715
#
#
# Mechanical properties :
#
#
# Convention : Reuss Voigt Hill
#
# Bulk Modulus (GPa) = 38.27612 47.88523 43.08068
# Shear Modulus (GPa) = 29.80191 35.16978 32.48585
#
# Velocity S-wave (km/s) = 3.68550 4.00368 3.84788
# Velocity P-wave (km/s) = 5.96287 6.57248 6.27509
#
# Compressibility (1/GPa) = 0.02612595
#
# Stress axis : x y z
#
# Youngs Moduli (GPa) = 82.81016 54.91246 65.13280
#
# Poissons Ratio (x) = 0.13460 0.30014
# Poissons Ratio (y) = 0.20298 0.17571
# Poissons Ratio (z) = 0.38160 0.14814
#
# Static dielectric constant tensor:
#      x y z
#    x 1.789440 0.015510 -0.015000 
#    y 0.015510 1.833030 0.022480 
#    z -0.015000 0.022480 1.806780 
# 
# From -- ./inp_files/556531.got.cif
#   From: 2010.05.17/outbox.cif.g08.bks.cpg/sg2_279_cif.got.tgz:556531.got - 2010.06.03 11:33:40.
