data_PCOD9039145
_publ_section_title
;
Structure prediction by ZEFSAII (Michael W. Deem and Ramdas Pophale) SiO2 
 PCOD9039145
Probable space group: P -1
;
_chemical_formula_sum "Si O2"
_cell_formula_units_Z 12
_cell_length_a 17.779478
_cell_length_b 14.582645
_cell_length_c 4.985009
_cell_angle_alpha 66.046956
_cell_angle_beta 64.225069
_cell_angle_gamma 22.434054
_cell_volume 444.129873
_symmetry_space_group_name_H-M "P -1"
_symmetry_group_IT_number 2
_symmetry_cell_setting 'triclinic'
loop_
_space_group_symop_operation_xyz
x,y,z
-x,-y,-z
loop_
_atom_site_type_symbol
_atom_site_label
_atom_site_fract_x
_atom_site_fract_y
_atom_site_fract_z
Si Si1 0.653993 0.566924 0.863972
Si Si2 0.881488 0.083660 0.827447
Si Si3 0.097458 0.327980 0.285293
Si Si4 0.473416 0.407026 0.447118
Si Si5 0.895551 0.908135 0.368448
Si Si6 0.334253 0.219393 0.293461
O O1 0.509472 0.698500 0.683994
O O2 0.630547 0.701169 0.876860
O O3 0.869662 0.331901 0.656643
O O4 0.627630 0.519512 0.208257
O O5 0.661006 0.365410 0.770866
O O6 0.000000 0.000000 0.500000
O O7 0.894759 0.948842 0.008942
O O8 0.000000 0.000000 0.000000
O O9 0.149253 0.154336 0.383749
O O10 0.307481 0.158609 0.196398
O O11 0.901797 0.529023 0.546683
O O12 0.000000 0.500000 0.000000
O O13 0.702221 0.183948 0.430969
O O14 0.500000 0.000000 0.500000
#
# Coordination Sequence:
#
# PCOD9039145 Si02
#       6
#     2   2   2   2   2   2
#     4  11  26  44  72 104 142 184 233 292 343 421
#     4  12  24  47  72 102 140 182 232 293 353 418
#     4  10  24  43  66 103 136 182 237 289 349 417
#     4  12  25  46  72 106 139 186 236 280 362 418
#     4  11  25  46  72 102 144 186 231 297 348 420
#     4  10  23  42  66  96 140 183 234 286 350 414
#
# _framework density 27.019126
#
# number of rings (size 3 to 8) (size 9 to 14) (size 15 to 20)
#    0.000    1.000    3.333    1.500    7.000    3.333 
#    3.000    3.333    0.000    0.000    0.000    0.000 
#    0.000    0.000    0.000    0.000    0.000    0.000 
#
# Total GULP energy -66907.362995 kJ/mol
# GULP energy per Si atom -5575.613583 kJ/mol
# Density = 2.695763 g / cm^3
# Si number density = 27.019126 Si / 1000 Ang^3
#
#
#
# Elastic Constant Matrix: (Units=GPa)
#
#
# Indices 1 2 3 4 5 6 
#
# 1 139.5557 45.5109 68.7579 -8.7558 -13.8012 -27.1297
# 2 45.5109 134.4549 22.4643 -6.6184 -5.4437 -18.9615
# 3 68.7579 22.4643 146.7314 -12.5011 -9.0477 -6.8251
# 4 -8.7558 -6.6184 -12.5011 56.4950 3.6522 -6.8808
# 5 -13.8012 -5.4437 -9.0477 3.6522 42.6678 -9.3524
# 6 -27.1297 -18.9615 -6.8251 -6.8808 -9.3524 42.4118
#
#
#
# Elastic Compliance Matrix: (Units=1/GPa)
#
#
# Indices 1 2 3 4 5 6 
#
# 1 0.011962 -0.002056 -0.004608 0.001192 0.004080 0.007084
# 2 -0.002056 0.008644 -0.000082 0.000967 0.000975 0.002908
# 3 -0.004608 -0.000082 0.009020 0.001107 0.000021 -0.001348
# 4 0.001192 0.000967 0.001107 0.018778 0.000110 0.004444
# 5 0.004080 0.000975 0.000021 0.000110 0.026846 0.008987
# 6 0.007084 0.002908 -0.001348 0.004444 0.008987 0.031896
#
#
# Mechanical properties :
#
#
# Convention : Reuss Voigt Hill
#
# Bulk Modulus (GPa) = 61.98134 77.13425 69.55780
# Shear Modulus (GPa) = 39.67754 47.24885 43.46319
#
# Velocity S-wave (km/s) = 3.83626 4.18631 4.01510
# Velocity P-wave (km/s) = 6.52779 7.20950 6.87710
#
# Compressibility (1/GPa) = 0.01613389
#
# Stress axis : x y z
#
# Youngs Moduli (GPa) = 83.59910 115.68280 110.86694
#
# Poissons Ratio (x) = 0.23786 0.51085
# Poissons Ratio (y) = 0.17189 0.00911
# Poissons Ratio (z) = 0.38521 0.00951
#
# Static dielectric constant tensor:
#      x y z
#    x 2.406630 0.259960 0.072810 
#    y 0.259960 2.135000 0.075150 
#    z 0.072810 0.075150 2.083620 
# 
# From -- ./inp_files/119830.got.cif
#   From: 2010.05.17/outbox.cif.g08.bks.cpg/sg2_60_cif.got.tgz:119830.got - 2010.06.03 11:33:40.
