data_PCOD9039585
_publ_section_title
;
Structure prediction by ZEFSAII (Michael W. Deem and Ramdas Pophale) SiO2 
 PCOD9039585
Probable space group: P -1
;
_chemical_formula_sum "Si O2"
_cell_formula_units_Z 12
_cell_length_a 11.548390
_cell_length_b 15.201407
_cell_length_c 9.367579
_cell_angle_alpha 49.524699
_cell_angle_beta 24.324136
_cell_angle_gamma 40.374257
_cell_volume 432.473347
_symmetry_space_group_name_H-M "P -1"
_symmetry_group_IT_number 2
_symmetry_cell_setting 'triclinic'
loop_
_space_group_symop_operation_xyz
x,y,z
-x,-y,-z
loop_
_atom_site_type_symbol
_atom_site_label
_atom_site_fract_x
_atom_site_fract_y
_atom_site_fract_z
Si Si1 0.094970 0.587877 0.401973
Si Si2 0.259480 0.434915 0.910551
Si Si3 0.511468 0.835575 0.367958
Si Si4 0.646124 0.138627 0.789816
Si Si5 0.249746 0.022169 0.884961
Si Si6 0.694502 0.371628 0.131726
O O1 0.442255 0.511823 0.178150
O O2 0.000000 0.500000 0.500000
O O3 0.872307 0.620066 0.758313
O O4 0.061038 0.698549 0.208954
O O5 0.611301 0.285530 0.658094
O O6 0.268247 0.559459 0.841136
O O7 0.000000 0.500000 0.000000
O O8 0.560603 0.851351 0.129905
O O9 0.790706 0.845564 0.126101
O O10 0.512264 0.699375 0.539583
O O11 0.126615 0.946821 0.739491
O O12 0.000000 0.000000 0.500000
O O13 0.574679 0.098367 0.066434
O O14 0.500000 0.000000 0.500000
#
# Coordination Sequence:
#
# PCOD9039585 Si02
#       6
#     2   2   2   2   2   2
#     4   9  21  40  64 101 143 189 239 307 380 448
#     4  11  24  43  74 110 145 194 255 309 382 461
#     4  11  25  45  75 100 151 191 250 312 386 444
#     4  10  25  49  71 103 154 197 249 310 381 453
#     4  11  26  47  73 107 140 204 256 307 372 465
#     4  10  23  42  69 107 146 191 244 324 384 441
#
# _framework density 27.747375999999999
#
# number of rings (size 3 to 8) (size 9 to 14) (size 15 to 20)
#    0.000    1.667    0.000    2.000    9.333    5.333 
#    9.000    0.000    0.000    0.000    0.000    0.000 
#    0.000    0.000    0.000    0.000    0.000    0.000 
#
# Total GULP energy -66831.724966 kJ/mol
# GULP energy per Si atom -5569.310414 kJ/mol
# Density = 2.768422 g / cm^3
# Si number density = 27.747376 Si / 1000 Ang^3
#
#
#
# Elastic Constant Matrix: (Units=GPa)
#
#
# Indices 1 2 3 4 5 6 
#
# 1 137.7900 15.3720 25.4599 -21.9754 28.2309 -12.3911
# 2 15.3720 113.9441 24.8642 -16.8492 39.7813 -3.5211
# 3 25.4599 24.8642 119.8853 -20.0246 30.1081 -11.1896
# 4 -21.9754 -16.8492 -20.0246 47.9099 -1.1228 11.1445
# 5 28.2309 39.7813 30.1081 -1.1228 47.2959 -23.0348
# 6 -12.3911 -3.5211 -11.1896 11.1445 -23.0348 36.8949
#
#
#
# Elastic Compliance Matrix: (Units=1/GPa)
#
#
# Indices 1 2 3 4 5 6 
#
# 1 0.009795 0.003591 0.000867 0.007189 -0.012083 -0.005820
# 2 0.003591 0.018814 0.002895 0.012892 -0.028037 -0.017519
# 3 0.000867 0.002895 0.011523 0.007423 -0.013256 -0.006456
# 4 0.007189 0.012892 0.007423 0.036787 -0.030933 -0.024528
# 5 -0.012083 -0.028037 -0.013256 -0.030933 0.084716 0.051480
# 6 -0.005820 -0.017519 -0.006456 -0.024528 0.051480 0.061069
#
#
# Mechanical properties :
#
#
# Convention : Reuss Voigt Hill
#
# Bulk Modulus (GPa) = 18.23524 55.89016 37.06270
# Shear Modulus (GPa) = 22.09670 46.81505 34.45588
#
# Velocity S-wave (km/s) = 2.82503 4.11200 3.52770
# Velocity P-wave (km/s) = 4.15057 6.53689 5.47532
#
# Compressibility (1/GPa) = 0.05483887
#
# Stress axis : x y z
#
# Youngs Moduli (GPa) = 102.08863 53.15288 86.78071
#
# Poissons Ratio (x) = -0.19088 -0.07525
# Poissons Ratio (y) = -0.36662 -0.25122
# Poissons Ratio (z) = -0.08853 -0.15387
#
# Static dielectric constant tensor:
#      x y z
#    x 2.197420 0.039220 0.284050 
#    y 0.039220 2.649290 0.777650 
#    z 0.284050 0.777650 3.734020 
# 
# From -- ./inp_files/271672.got.cif
#   From: 2010.05.17/outbox.cif.g08.bks.cpg/sg2_136_cif.got.tgz:271672.got - 2010.06.03 11:33:40.
