data_PCOD9039000
_publ_section_title
;
Structure prediction by ZEFSAII (Michael W. Deem and Ramdas Pophale) SiO2 
 PCOD9039000
Probable space group: P -1
;
_chemical_formula_sum "Si O2"
_cell_formula_units_Z 16
_cell_length_a 5.783399
_cell_length_b 22.668195
_cell_length_c 5.579294
_cell_angle_alpha 68.535844
_cell_angle_beta 105.390075
_cell_angle_gamma 113.337519
_cell_volume 618.783542
_symmetry_space_group_name_H-M "P -1"
_symmetry_group_IT_number 2
_symmetry_cell_setting 'triclinic'
loop_
_space_group_symop_operation_xyz
x,y,z
-x,-y,-z
loop_
_atom_site_type_symbol
_atom_site_label
_atom_site_fract_x
_atom_site_fract_y
_atom_site_fract_z
Si Si1 0.905545 0.833443 0.833616
Si Si2 0.670175 0.599419 0.268017
Si Si3 0.385043 0.273722 0.794246
Si Si4 0.888130 0.231320 0.382681
Si Si5 0.211739 0.651903 0.602096
Si Si6 0.268487 0.523924 0.676177
Si Si7 0.298669 0.911830 0.205967
Si Si8 0.884839 0.946801 0.337823
O O1 0.831662 0.872452 0.541036
O O2 0.012651 0.778040 0.836994
O O3 0.660863 0.797207 0.982879
O O4 0.139854 0.884452 0.963225
O O5 0.611789 0.667576 0.105585
O O6 0.469122 0.560713 0.472305
O O7 0.686722 0.546449 0.147661
O O8 0.937355 0.623693 0.444279
O O9 0.605549 0.304049 0.619677
O O10 0.128905 0.254539 0.592880
O O11 0.785545 0.293686 0.276271
O O12 0.731923 0.156207 0.545413
O O13 0.267695 0.582457 0.774802
O O14 0.000000 0.500000 0.500000
O O15 0.600915 0.947363 0.197807
O O16 0.122527 0.951565 0.219647
O O17 0.000000 0.000000 0.500000
#
# Coordination Sequence:
#
# PCOD9039000 Si02
#       8
#     2   2   2   2   2   2   2   2
#     4  10  23  42  65  95 130 179 212 269 336 384
#     4   8  14  26  45  77 117 150 210 258 318 385
#     4   9  18  35  53  85 119 162 214 265 321 394
#     4   9  20  36  55  86 123 163 212 266 318 385
#     4   9  16  28  52  79 118 157 210 266 314 385
#     4   8  13  23  45  77 110 160 202 255 323 380
#     4  10  24  43  69 100 136 171 222 271 322 400
#     4  11  25  47  71 102 137 172 220 273 325 395
#
# _framework density 25.857184
#
# number of rings (size 3 to 8) (size 9 to 14) (size 15 to 20)
#    0.000    2.750    0.000    0.375    5.250    3.000 
#    9.000    0.000    0.000    0.750    0.000   78.750 
#    0.000    0.000    0.000    0.250    0.000    0.250 
#
# Total GULP energy -89384.069288 kJ/mol
# GULP energy per Si atom -5586.504331 kJ/mol
# Density = 2.579833 g / cm^3
# Si number density = 25.857184 Si / 1000 Ang^3
#
#
#
# Elastic Constant Matrix: (Units=GPa)
#
#
# Indices 1 2 3 4 5 6 
#
# 1 180.6545 92.7731 39.1420 0.8795 6.8885 3.0467
# 2 92.7731 139.2079 26.1084 23.0053 -17.8797 -7.0166
# 3 39.1420 26.1084 35.9224 4.1508 2.6631 -4.3298
# 4 0.8795 23.0053 4.1508 49.7263 -8.3507 -14.7282
# 5 6.8885 -17.8797 2.6631 -8.3507 36.9015 2.4198
# 6 3.0467 -7.0166 -4.3298 -14.7282 2.4198 73.7132
#
#
#
# Elastic Compliance Matrix: (Units=1/GPa)
#
#
# Indices 1 2 3 4 5 6 
#
# 1 0.010682 -0.006865 -0.006741 0.002599 -0.004191 -0.000834
# 2 -0.006865 0.013980 -0.002617 -0.004855 0.007129 0.000257
# 3 -0.006741 -0.002617 0.037774 -0.001780 -0.003270 0.002000
# 4 0.002599 -0.004855 -0.001780 0.024075 0.002473 0.004055
# 5 -0.004191 0.007129 -0.003270 0.002473 0.032125 0.000099
# 6 -0.000834 0.000257 0.002000 0.004055 0.000099 0.014549
#
#
# Mechanical properties :
#
#
# Convention : Reuss Voigt Hill
#
# Bulk Modulus (GPa) = 33.34324 74.64798 53.99561
# Shear Modulus (GPa) = 28.46922 45.25231 36.86077
#
# Velocity S-wave (km/s) = 3.32176 4.18794 3.77974
# Velocity P-wave (km/s) = 5.25692 7.23306 6.32267
#
# Compressibility (1/GPa) = 0.02999108
#
# Stress axis : x y z
#
# Youngs Moduli (GPa) = 93.61137 71.53035 26.47319
#
# Poissons Ratio (x) = 0.49104 0.17845
# Poissons Ratio (y) = 0.64262 0.06929
# Poissons Ratio (z) = 0.63101 0.18721
#
# Static dielectric constant tensor:
#      x y z
#    x 2.074950 -0.076980 0.041660 
#    y -0.076980 2.049400 -0.024960 
#    z 0.041660 -0.024960 2.036340 
# 
# From -- ./inp_files/13163.got.cif
#   From: 2010.05.17/outbox.cif.g08.bks.cpg/sg2_7_cif.got.tgz:13163.got - 2010.06.03 11:33:40.
