data_PCOD9039486
_publ_section_title
;
Structure prediction by ZEFSAII (Michael W. Deem and Ramdas Pophale) SiO2 
 PCOD9039486
Probable space group: P -1
;
_chemical_formula_sum "Si O2"
_cell_formula_units_Z 16
_cell_length_a 11.182530
_cell_length_b 17.793248
_cell_length_c 8.777158
_cell_angle_alpha 32.404201
_cell_angle_beta 54.526995
_cell_angle_gamma 54.882819
_cell_volume 747.478995
_symmetry_space_group_name_H-M "P -1"
_symmetry_group_IT_number 2
_symmetry_cell_setting 'triclinic'
loop_
_space_group_symop_operation_xyz
x,y,z
-x,-y,-z
loop_
_atom_site_type_symbol
_atom_site_label
_atom_site_fract_x
_atom_site_fract_y
_atom_site_fract_z
Si Si1 0.141614 0.166989 0.137687
Si Si2 0.264555 0.768445 0.337012
Si Si3 0.458057 0.163345 0.799943
Si Si4 0.921274 0.530296 0.258103
Si Si5 0.018667 0.009425 0.224782
Si Si6 0.767536 0.283674 0.887145
Si Si7 0.210158 0.462323 0.983498
Si Si8 0.514756 0.645515 0.825783
O O1 0.112699 0.066290 0.192585
O O2 0.082775 0.095015 0.450282
O O3 0.313501 0.179282 0.985679
O O4 0.054174 0.330283 0.908877
O O5 0.405057 0.790443 0.293609
O O6 0.308530 0.727218 0.202003
O O7 0.204528 0.633017 0.681677
O O8 0.136996 0.911846 0.194665
O O9 0.427412 0.256286 0.510320
O O10 0.500000 0.000000 0.000000
O O11 0.830200 0.430414 0.587755
O O12 0.829393 0.582073 0.081161
O O13 0.078074 0.441771 0.230918
O O14 0.906101 0.151016 0.013412
O O15 0.648066 0.282994 0.110079
O O16 0.368053 0.390227 0.061277
O O17 0.500000 0.500000 0.000000
#
# Coordination Sequence:
#
# PCOD9039486 Si02
#       8
#     2   2   2   2   2   2   2   2
#     4  11  24  41  69  96 132 177 217 274 331 395
#     4  11  23  47  69  94 141 177 216 279 337 394
#     4  12  25  44  65  99 134 177 221 267 335 394
#     4  10  23  42  68  98 130 172 225 275 325 395
#     4  11  24  45  69  97 136 177 222 274 334 395
#     4  11  27  43  69 102 131 179 224 272 338 394
#     4  10  23  43  67  98 134 174 218 276 338 380
#     4  12  26  44  68  98 138 175 221 277 328 402
#
# _framework density 21.405284000000002
#
# number of rings (size 3 to 8) (size 9 to 14) (size 15 to 20)
#    0.000    1.000    3.750    1.875    7.000    1.500 
#    2.250    1.250    0.000    0.000    0.000    0.000 
#    0.000    0.000    0.000    0.000    0.000    0.000 
#
# Total GULP energy -89468.182604 kJ/mol
# GULP energy per Si atom -5591.761413 kJ/mol
# Density = 2.135656 g / cm^3
# Si number density = 21.405284 Si / 1000 Ang^3
#
#
#
# Elastic Constant Matrix: (Units=GPa)
#
#
# Indices 1 2 3 4 5 6 
#
# 1 47.7854 1.7798 11.9949 8.8475 -5.6964 -11.2648
# 2 1.7798 76.6919 17.5395 4.2628 -12.0895 -5.0876
# 3 11.9949 17.5395 66.4818 -15.2199 -14.9532 5.7466
# 4 8.8475 4.2628 -15.2199 30.6841 -7.8453 -4.2596
# 5 -5.6964 -12.0895 -14.9532 -7.8453 25.2888 -6.1182
# 6 -11.2648 -5.0876 5.7466 -4.2596 -6.1182 26.3624
#
#
#
# Elastic Compliance Matrix: (Units=1/GPa)
#
#
# Indices 1 2 3 4 5 6 
#
# 1 0.028601 0.003336 -0.009036 -0.010581 0.002741 0.013761
# 2 0.003336 0.015553 -0.004546 -0.002926 0.006131 0.006368
# 3 -0.009036 -0.004546 0.026661 0.020370 0.017078 -0.003295
# 4 -0.010581 -0.002926 0.020370 0.053554 0.026133 0.005192
# 5 0.002741 0.006131 0.017078 0.026133 0.065675 0.018096
# 6 0.013761 0.006368 -0.003295 0.005192 0.018096 0.050799
#
#
# Mechanical properties :
#
#
# Convention : Reuss Voigt Hill
#
# Bulk Modulus (GPa) = 19.87187 28.17638 24.02413
# Shear Modulus (GPa) = 17.97854 27.11004 22.54429
#
# Velocity S-wave (km/s) = 2.90127 3.56267 3.24884
# Velocity P-wave (km/s) = 4.53066 5.48774 5.03201
#
# Compressibility (1/GPa) = 0.05032240
#
# Stress axis : x y z
#
# Youngs Moduli (GPa) = 34.96427 64.29557 37.50813
#
# Poissons Ratio (x) = -0.21448 0.33891
# Poissons Ratio (y) = -0.11664 0.17053
# Poissons Ratio (z) = 0.31592 0.29231
#
# Static dielectric constant tensor:
#      x y z
#    x 1.769790 -0.022640 0.016550 
#    y -0.022640 1.780490 -0.012190 
#    z 0.016550 -0.012190 1.737730 
# 
# From -- ./inp_files/184364.got.cif
#   From: 2010.05.17/outbox.cif.g08.bks.cpg/sg2_93_cif.got.tgz:184364.got - 2010.06.03 11:33:40.
