data_PCOD9039280
_publ_section_title
;
Structure prediction by ZEFSAII (Michael W. Deem and Ramdas Pophale) SiO2 
 PCOD9039280
Probable space group: P -1
;
_chemical_formula_sum "Si O2"
_cell_formula_units_Z 14
_cell_length_a 8.442737
_cell_length_b 13.894954
_cell_length_c 14.580602
_cell_angle_alpha 41.352807
_cell_angle_beta 143.780612
_cell_angle_gamma 143.124969
_cell_volume 579.123997
_symmetry_space_group_name_H-M "P -1"
_symmetry_group_IT_number 2
_symmetry_cell_setting 'triclinic'
loop_
_space_group_symop_operation_xyz
x,y,z
-x,-y,-z
loop_
_atom_site_type_symbol
_atom_site_label
_atom_site_fract_x
_atom_site_fract_y
_atom_site_fract_z
Si Si1 0.589813 0.189297 0.882689
Si Si2 0.451475 0.319309 0.404087
Si Si3 0.658058 0.115212 0.769392
Si Si4 0.206445 0.727125 0.885952
Si Si5 0.246229 0.379841 0.543609
Si Si6 0.695161 0.690518 0.042919
Si Si7 0.400237 0.674919 0.739991
O O1 0.726314 0.213834 0.827666
O O2 0.321032 0.236122 0.712076
O O3 0.792216 0.292404 0.989787
O O4 0.500000 0.000000 0.000000
O O5 0.485521 0.181950 0.576586
O O6 0.709349 0.499951 0.434676
O O7 0.480483 0.283305 0.337567
O O8 0.129898 0.315935 0.271796
O O9 0.441000 0.920953 0.828648
O O10 0.006063 0.175236 0.857112
O O11 0.375330 0.636442 0.984595
O O12 0.500000 0.500000 0.500000
O O13 0.898197 0.304713 0.399515
O O14 0.655118 0.761819 0.875876
O O15 0.709871 0.521441 0.160382
#
# Coordination Sequence:
#
# PCOD9039280 Si02
#       7
#     2   2   2   2   2   2   2
#     4  10  23  42  67  94 135 173 221 267 337 395
#     4  12  24  41  67 100 134 171 227 277 332 395
#     4  11  23  44  66  93 137 177 219 279 334 395
#     4  11  25  42  67  96 132 180 225 271 335 397
#     4  12  22  41  71 101 133 174 223 278 334 395
#     4  11  23  44  66  97 131 175 225 274 335 399
#     4  11  25  41  68  98 136 168 223 283 334 391
#
# _framework density 24.174444000000001
#
# number of rings (size 3 to 8) (size 9 to 14) (size 15 to 20)
#    0.000    0.857    2.857    3.857    2.000    4.571 
#    0.000    0.714    0.000    0.000    0.000    0.000 
#    0.000    0.000    0.000    0.000    0.000    0.000 
#
# Total GULP energy -78374.585694 kJ/mol
# GULP energy per Si atom -5598.184692 kJ/mol
# Density = 2.411942 g / cm^3
# Si number density = 24.174444 Si / 1000 Ang^3
#
#
#
# Elastic Constant Matrix: (Units=GPa)
#
#
# Indices 1 2 3 4 5 6 
#
# 1 83.7960 -1.2386 27.5941 -3.0645 -15.1238 -0.9190
# 2 -1.2386 46.3104 32.1882 -10.5515 7.0710 8.5658
# 3 27.5941 32.1882 184.2836 -2.8159 14.1480 10.6374
# 4 -3.0645 -10.5515 -2.8159 42.0587 -1.4846 3.7920
# 5 -15.1238 7.0710 14.1480 -1.4846 48.2950 6.3452
# 6 -0.9190 8.5658 10.6374 3.7920 6.3452 27.0579
#
#
#
# Elastic Compliance Matrix: (Units=1/GPa)
#
#
# Indices 1 2 3 4 5 6 
#
# 1 0.013808 0.001947 -0.002738 0.001526 0.004946 -0.000445
# 2 0.001947 0.028145 -0.004567 0.007577 -0.000902 -0.007899
# 3 -0.002738 -0.004567 0.006824 -0.000900 -0.002123 -0.000706
# 4 0.001526 0.007577 -0.000900 0.026309 0.001225 -0.005968
# 5 0.004946 -0.000902 -0.002123 0.001225 0.023628 -0.004424
# 6 -0.000445 -0.007899 -0.000706 -0.005968 -0.004424 0.041595
#
#
# Mechanical properties :
#
#
# Convention : Reuss Voigt Hill
#
# Bulk Modulus (GPa) = 26.27325 47.94193 37.10759
# Shear Modulus (GPa) = 30.54156 40.53876 35.54016
#
# Velocity S-wave (km/s) = 3.55826 4.09947 3.83842
# Velocity P-wave (km/s) = 5.27005 6.50248 5.91843
#
# Compressibility (1/GPa) = 0.03806153
#
# Stress axis : x y z
#
# Youngs Moduli (GPa) = 72.42181 35.53072 146.53957
#
# Poissons Ratio (x) = -0.06919 0.40129
# Poissons Ratio (y) = -0.14103 0.66918
# Poissons Ratio (z) = 0.19833 0.16225
#
# Static dielectric constant tensor:
#      x y z
#    x 2.028330 -0.027700 0.008470 
#    y -0.027700 1.914140 0.013020 
#    z 0.008470 0.013020 1.897690 
# 
# From -- ./inp_files/157115.got.cif
#   From: 2010.05.17/outbox.cif.g08.bks.cpg/sg2_79_cif.got.tgz:157115.got - 2010.06.03 11:33:40.
