data_PCOD9039447
_publ_section_title
;
Structure prediction by ZEFSAII (Michael W. Deem and Ramdas Pophale) SiO2 
 PCOD9039447
Probable space group: P -1
;
_chemical_formula_sum "Si O2"
_cell_formula_units_Z 14
_cell_length_a 12.954663
_cell_length_b 11.016803
_cell_length_c 17.061088
_cell_angle_alpha 49.483763
_cell_angle_beta 25.889204
_cell_angle_gamma 37.047327
_cell_volume 618.520653
_symmetry_space_group_name_H-M "P -1"
_symmetry_group_IT_number 2
_symmetry_cell_setting 'triclinic'
loop_
_space_group_symop_operation_xyz
x,y,z
-x,-y,-z
loop_
_atom_site_type_symbol
_atom_site_label
_atom_site_fract_x
_atom_site_fract_y
_atom_site_fract_z
Si Si1 0.338555 0.179489 0.113407
Si Si2 0.236829 0.581648 0.708699
Si Si3 0.000474 0.996718 0.312597
Si Si4 0.799285 0.460475 0.847041
Si Si5 0.193006 0.076656 0.845143
Si Si6 0.150690 0.278841 0.530510
Si Si7 0.537557 0.128198 0.717041
O O1 0.292617 0.324451 0.154570
O O2 0.064048 0.316817 0.181401
O O3 0.352923 0.006963 0.222996
O O4 0.652005 0.090574 0.892657
O O5 0.500000 0.500000 0.500000
O O6 0.348480 0.372868 0.762804
O O7 0.181540 0.779859 0.702434
O O8 0.007738 0.819688 0.343321
O O9 0.815426 0.050677 0.498512
O O10 0.951596 0.310448 0.880061
O O11 0.074857 0.339172 0.647106
O O12 0.500000 0.500000 0.000000
O O13 0.323485 0.094889 0.829102
O O14 0.498060 0.905908 0.656761
O O15 0.000000 0.000000 0.000000
O O16 0.000000 0.500000 0.500000
#
# Coordination Sequence:
#
# PCOD9039447 Si02
#       7
#     2   2   2   2   2   2   2
#     4  12  23  43  72  98 133 180 221 272 343 395
#     4  10  23  45  69  96 137 174 225 283 326 397
#     4  10  23  42  68  95 135 173 223 277 330 400
#     4  12  22  40  65  95 133 175 216 273 336 397
#     4  11  23  40  63  97 135 174 220 277 336 403
#     4  11  23  41  65  98 132 174 224 276 337 408
#     4  10  23  45  66  99 133 174 226 275 336 397
#
# _framework density 22.634651999999999
#
# number of rings (size 3 to 8) (size 9 to 14) (size 15 to 20)
#    0.000    1.143    2.857    4.286    0.000    2.857 
#    0.000    2.857    0.000    0.000    0.000    0.000 
#    0.000    0.000    0.000    0.000    0.000    0.000 
#
# Total GULP energy -78172.110895 kJ/mol
# GULP energy per Si atom -5583.722207 kJ/mol
# Density = 2.258313 g / cm^3
# Si number density = 22.634652 Si / 1000 Ang^3
#
#
#
# Elastic Constant Matrix: (Units=GPa)
#
#
# Indices 1 2 3 4 5 6 
#
# 1 51.5938 35.9865 -0.5315 -6.1662 3.0276 11.3802
# 2 35.9865 198.3109 22.6549 -12.6940 -4.1757 7.4693
# 3 -0.5315 22.6549 102.9210 4.8592 -9.8688 3.0977
# 4 -6.1662 -12.6940 4.8592 38.4604 1.6416 -1.5033
# 5 3.0276 -4.1757 -9.8688 1.6416 26.8708 3.3878
# 6 11.3802 7.4693 3.0977 -1.5033 3.3878 37.6424
#
#
#
# Elastic Compliance Matrix: (Units=1/GPa)
#
#
# Indices 1 2 3 4 5 6 
#
# 1 0.024058 -0.004140 0.000889 0.002237 -0.002380 -0.006222
# 2 -0.004140 0.006054 -0.001351 0.001477 0.000802 0.000148
# 3 0.000889 -0.001351 0.010511 -0.001845 0.003825 -0.001283
# 4 0.002237 0.001477 -0.001845 0.027202 -0.002423 0.000487
# 5 -0.002380 0.000802 0.003825 -0.002423 0.039591 -0.003414
# 6 -0.006222 0.000148 -0.001283 0.000487 -0.003414 0.028850
#
#
# Mechanical properties :
#
#
# Convention : Reuss Voigt Hill
#
# Bulk Modulus (GPa) = 31.82834 52.11619 41.97227
# Shear Modulus (GPa) = 32.06295 40.24242 36.15268
#
# Velocity S-wave (km/s) = 3.76778 4.22110 4.00087
# Velocity P-wave (km/s) = 5.74635 6.84338 6.31872
#
# Compressibility (1/GPa) = 0.03141854
#
# Stress axis : x y z
#
# Youngs Moduli (GPa) = 41.56589 165.17931 95.14127
#
# Poissons Ratio (x) = 0.68382 -0.08458
# Poissons Ratio (y) = 0.17208 0.12856
# Poissons Ratio (z) = -0.03695 0.22320
#
# Static dielectric constant tensor:
#      x y z
#    x 2.167020 1.163940 -0.340330 
#    y 1.163940 6.268950 -1.268120 
#    z -0.340330 -1.268120 2.204170 
# 
# From -- ./inp_files/202400.got.cif
#   From: 2010.05.17/outbox.cif.g08.bks.cpg/sg2_102_cif.got.tgz:202400.got - 2010.06.03 11:33:40.
