data_PCOD9039102
_publ_section_title
;
Structure prediction by ZEFSAII (Michael W. Deem and Ramdas Pophale) SiO2 
 PCOD9039102
Probable space group: P -1
;
_chemical_formula_sum "Si O2"
_cell_formula_units_Z 14
_cell_length_a 8.570444
_cell_length_b 6.961485
_cell_length_c 12.681538
_cell_angle_alpha 66.201945
_cell_angle_beta 111.495278
_cell_angle_gamma 129.321995
_cell_volume 528.957044
_symmetry_space_group_name_H-M "P -1"
_symmetry_group_IT_number 2
_symmetry_cell_setting 'triclinic'
loop_
_space_group_symop_operation_xyz
x,y,z
-x,-y,-z
loop_
_atom_site_type_symbol
_atom_site_label
_atom_site_fract_x
_atom_site_fract_y
_atom_site_fract_z
Si Si1 0.841661 0.525828 0.337236
Si Si2 0.886819 0.915745 0.717483
Si Si3 0.025120 0.248812 0.005194
Si Si4 0.731443 0.982651 0.335285
Si Si5 0.612735 0.419260 0.116854
Si Si6 0.589643 0.100636 0.884098
Si Si7 0.496746 0.746553 0.537135
O O1 0.056657 0.794957 0.318672
O O2 0.805562 0.266893 0.336632
O O3 0.703186 0.563077 0.214752
O O4 0.736175 0.468500 0.437909
O O5 0.917731 0.785415 0.854733
O O6 0.057361 0.966933 0.663036
O O7 0.658423 0.751251 0.654053
O O8 0.197602 0.499045 0.929031
O O9 0.828316 0.252595 0.933796
O O10 0.000000 0.000000 0.000000
O O11 0.569978 0.865061 0.223774
O O12 0.597025 0.785652 0.439106
O O13 0.448547 0.121981 0.155668
O O14 0.500000 0.500000 0.000000
O O15 0.500000 0.000000 0.000000
O O16 0.500000 0.000000 0.500000
#
# Coordination Sequence:
#
# PCOD9039102 Si02
#       7
#     2   2   2   2   2   2   2
#     4  10  23  42  66  93 125 172 212 263 320 375
#     4  12  23  44  68  93 131 170 214 261 327 380
#     4  12  23  38  68  97 122 177 212 257 327 384
#     4  10  24  44  64  96 133 163 214 274 310 383
#     4  11  21  37  63  92 128 164 213 259 311 382
#     4  11  23  43  62  94 135 160 210 270 320 379
#     4  10  24  43  68  94 127 169 217 267 315 380
#
# _framework density 26.467177
#
# number of rings (size 3 to 8) (size 9 to 14) (size 15 to 20)
#    0.000    1.143    4.286    1.286    4.000    3.429 
#    0.000    4.286    0.000    0.000    0.000    0.000 
#    0.000    0.000    0.000    0.000    0.000    0.000 
#
# Total GULP energy -78151.610755 kJ/mol
# GULP energy per Si atom -5582.257911 kJ/mol
# Density = 2.640694 g / cm^3
# Si number density = 26.467177 Si / 1000 Ang^3
#
#
#
# Elastic Constant Matrix: (Units=GPa)
#
#
# Indices 1 2 3 4 5 6 
#
# 1 112.9632 21.8071 19.9642 4.6570 1.7489 13.4613
# 2 21.8071 83.5787 29.4968 -14.6495 6.8381 0.8472
# 3 19.9642 29.4968 104.9473 2.1712 -18.6675 8.7264
# 4 4.6570 -14.6495 2.1712 33.4645 13.5313 -1.4911
# 5 1.7489 6.8381 -18.6675 13.5313 39.8677 0.8085
# 6 13.4613 0.8472 8.7264 -1.4911 0.8085 52.0789
#
#
#
# Elastic Compliance Matrix: (Units=1/GPa)
#
#
# Indices 1 2 3 4 5 6 
#
# 1 0.009951 -0.002968 -0.000627 -0.003115 0.000887 -0.002522
# 2 -0.002968 0.018455 -0.007031 0.013471 -0.010944 0.002201
# 3 -0.000627 -0.007031 0.013884 -0.008285 0.010596 -0.002452
# 4 -0.003115 0.013471 -0.008285 0.045655 -0.021622 0.003617
# 5 0.000887 -0.010944 0.010596 -0.021622 0.039283 -0.003056
# 6 -0.002522 0.002201 -0.002452 0.003617 -0.003056 0.020380
#
#
# Mechanical properties :
#
#
# Convention : Reuss Voigt Hill
#
# Bulk Modulus (GPa) = 47.53152 49.33616 48.43384
# Shear Modulus (GPa) = 28.42974 40.43029 34.43001
#
# Velocity S-wave (km/s) = 3.28098 3.91265 3.61065
# Velocity P-wave (km/s) = 5.68777 6.25242 5.97677
#
# Compressibility (1/GPa) = 0.02103867
#
# Stress axis : x y z
#
# Youngs Moduli (GPa) = 100.48817 54.18634 72.02554
#
# Poissons Ratio (x) = 0.16084 0.04515
# Poissons Ratio (y) = 0.29828 0.50639
# Poissons Ratio (z) = 0.06299 0.38097
#
# Static dielectric constant tensor:
#      x y z
#    x -3.730400 -0.328350 -4.182310 
#    y -0.328350 2.159130 -0.172780 
#    z -4.182310 -0.172780 -0.976040 
# 
# From -- ./inp_files/175714.got.cif
#   From: 2010.05.17/outbox.cif.g08.bks.cpg/sg2_88_cif.got.tgz:175714.got - 2010.06.03 11:33:40.
