data_PCOD9039015
_publ_section_title
;
Structure prediction by ZEFSAII (Michael W. Deem and Ramdas Pophale) SiO2 
 PCOD9039015
Probable space group: P -1
;
_chemical_formula_sum "Si O2"
_cell_formula_units_Z 16
_cell_length_a 5.820922
_cell_length_b 23.907165
_cell_length_c 5.000626
_cell_angle_alpha 79.544575
_cell_angle_beta 83.650054
_cell_angle_gamma 118.387085
_cell_volume 586.257357
_symmetry_space_group_name_H-M "P -1"
_symmetry_group_IT_number 2
_symmetry_cell_setting 'triclinic'
loop_
_space_group_symop_operation_xyz
x,y,z
-x,-y,-z
loop_
_atom_site_type_symbol
_atom_site_label
_atom_site_fract_x
_atom_site_fract_y
_atom_site_fract_z
Si Si1 0.718399 0.407639 0.167150
Si Si2 0.578883 0.950888 0.674316
Si Si3 0.952958 0.927023 0.268907
Si Si4 0.991408 0.345793 0.882530
Si Si5 0.004983 0.857765 0.835139
Si Si6 0.576349 0.448187 0.648259
Si Si7 0.735437 0.747338 0.613145
Si Si8 0.769000 0.259947 0.496695
O O1 0.942399 0.398744 0.996684
O O2 0.662687 0.453507 0.938014
O O3 0.767344 0.438669 0.426118
O O4 0.462140 0.332050 0.273383
O O5 0.311254 0.886009 0.861664
O O6 0.718110 0.930290 0.449162
O O7 0.500000 0.000000 0.500000
O O8 0.792555 0.998074 0.827813
O O9 0.028042 0.887355 0.508492
O O10 0.901838 0.892635 0.020473
O O11 0.833330 0.316768 0.654782
O O12 0.298630 0.378581 0.742232
O O13 0.881536 0.288096 0.163436
O O14 0.809442 0.781313 0.867413
O O15 0.500000 0.500000 0.500000
O O16 0.549856 0.773215 0.476062
O O17 0.024142 0.765320 0.432853
#
# Coordination Sequence:
#
# PCOD9039015 Si02
#       8
#     2   2   2   2   2   2   2   2
#     4  11  24  43  66  96 140 181 230 282 355 414
#     4   9  21  43  67  95 131 180 221 282 341 408
#     4  10  23  42  65  96 134 173 227 279 347 405
#     4  11  23  44  69  98 133 181 228 284 346 417
#     4  11  25  40  66  99 134 172 228 283 343 406
#     4  12  24  42  69 101 135 177 236 291 346 414
#     4  11  25  47  70 106 138 190 232 291 348 430
#     4  11  25  43  73  97 139 185 232 279 352 414
#
# _framework density 27.291768999999999
#
# number of rings (size 3 to 8) (size 9 to 14) (size 15 to 20)
#    0.000    1.250    2.500    2.250    1.750   11.500 
#    0.000    0.000    0.000    0.000    0.000    0.000 
#    0.000    0.000    0.000    0.000    0.000    0.000 
#
# Total GULP energy -89557.356585 kJ/mol
# GULP energy per Si atom -5597.334787 kJ/mol
# Density = 2.722965 g / cm^3
# Si number density = 27.291769 Si / 1000 Ang^3
#
#
#
# Elastic Constant Matrix: (Units=GPa)
#
#
# Indices 1 2 3 4 5 6 
#
# 1 131.0888 33.4864 23.0574 9.4422 -21.2568 2.5226
# 2 33.4864 110.2600 47.3567 25.5313 -13.7137 8.1380
# 3 23.0574 47.3567 114.1490 22.6840 0.3857 3.0219
# 4 9.4422 25.5313 22.6840 54.0010 -0.6931 -8.0876
# 5 -21.2568 -13.7137 0.3857 -0.6931 36.9157 5.7702
# 6 2.5226 8.1380 3.0219 -8.0876 5.7702 39.6924
#
#
#
# Elastic Compliance Matrix: (Units=1/GPa)
#
#
# Indices 1 2 3 4 5 6 
#
# 1 0.009036 -0.001485 -0.001099 -0.000502 0.004808 -0.000987
# 2 -0.001485 0.013299 -0.004172 -0.004811 0.004660 -0.003972
# 3 -0.001099 -0.004172 0.011242 -0.002606 -0.002330 -0.000123
# 4 -0.000502 -0.004811 -0.002606 0.022879 -0.002597 0.006256
# 5 0.004808 0.004660 -0.002330 -0.002597 0.032556 -0.006345
# 6 -0.000987 -0.003972 -0.000123 0.006256 -0.006345 0.028277
#
#
# Mechanical properties :
#
#
# Convention : Reuss Voigt Hill
#
# Bulk Modulus (GPa) = 49.83900 62.58877 56.21389
# Shear Modulus (GPa) = 36.36635 42.89498 39.63067
#
# Velocity S-wave (km/s) = 3.65431 3.96879 3.81479
# Velocity P-wave (km/s) = 6.00887 6.63210 6.32816
#
# Compressibility (1/GPa) = 0.02006461
#
# Stress axis : x y z
#
# Youngs Moduli (GPa) = 110.66956 75.19405 88.94887
#
# Poissons Ratio (x) = 0.11165 0.09780
# Poissons Ratio (y) = 0.16433 0.37109
# Poissons Ratio (z) = 0.12168 0.31371
#
# Static dielectric constant tensor:
#      x y z
#    x 2.210770 -0.021880 0.036710 
#    y -0.021880 2.156560 -0.056180 
#    z 0.036710 -0.056180 2.049470 
# 
# From -- ./inp_files/13246.got.cif
#   From: 2010.05.17/outbox.cif.g08.bks.cpg/sg2_7_cif.got.tgz:13246.got - 2010.06.03 11:33:40.
