data_PCOD9039638
_publ_section_title
;
Structure prediction by ZEFSAII (Michael W. Deem and Ramdas Pophale) SiO2 
 PCOD9039638
Probable space group: P -1
;
_chemical_formula_sum "Si O2"
_cell_formula_units_Z 15
_cell_length_a 7.048785
_cell_length_b 14.864082
_cell_length_c 12.735327
_cell_angle_alpha 141.968992
_cell_angle_beta 129.006916
_cell_angle_gamma 50.824094
_cell_volume 612.511296
_symmetry_space_group_name_H-M "P -1"
_symmetry_group_IT_number 2
_symmetry_cell_setting 'triclinic'
loop_
_space_group_symop_operation_xyz
x,y,z
-x,-y,-z
loop_
_atom_site_type_symbol
_atom_site_label
_atom_site_fract_x
_atom_site_fract_y
_atom_site_fract_z
Si Si1 0.778236 0.573064 0.572112
Si Si2 0.782403 0.418667 0.984897
Si Si3 0.031572 0.772359 0.308433
Si Si4 0.023950 0.812341 0.990068
Si Si5 0.533136 0.796984 0.527992
Si Si6 0.509988 0.119587 0.894550
Si Si7 0.010339 0.346529 0.603447
Si Si8 0.500000 0.000000 0.000000
O O1 0.551204 0.668670 0.506916
O O2 0.000000 0.500000 0.500000
O O3 0.875516 0.700158 0.784086
O O4 0.785858 0.434276 0.526569
O O5 0.821429 0.386595 0.846170
O O6 0.500000 0.500000 0.000000
O O7 0.866198 0.256992 0.924214
O O8 0.944323 0.522062 0.184579
O O9 0.751326 0.813973 0.199728
O O10 0.012412 0.774384 0.429508
O O11 0.246312 0.858792 0.441920
O O12 0.811216 0.972026 0.072325
O O13 0.265122 0.814075 0.004209
O O14 0.738888 0.723973 0.444214
O O15 0.599657 0.938404 0.735131
O O16 0.451881 0.126286 0.003436
#
# Coordination Sequence:
#
# PCOD9039638 Si02
#       8
#     2   2   2   2   2   2   2   1
#     4   9  21  45  68  98 135 173 228 282 345 408
#     4  11  21  44  69  97 141 175 233 287 336 415
#     4  12  25  43  68 105 137 185 230 281 350 407
#     4  11  24  46  74  98 134 183 227 291 343 401
#     4  11  24  45  65 100 144 178 227 287 343 409
#     4  12  27  45  72 101 137 184 233 284 343 411
#     4  10  23  42  69  98 132 185 227 286 345 400
#     4  12  24  46  70 104 134 174 238 284 332 416
#
# _framework density 24.489345
#
# number of rings (size 3 to 8) (size 9 to 14) (size 15 to 20)
#    0.000    1.067    4.000    2.000    0.000    2.133 
#    2.400    0.000    0.000    0.000    0.000    0.000 
#    0.000    0.000    0.000    0.000    0.000    0.000 
#
# Total GULP energy -83518.505780 kJ/mol
# GULP energy per Si atom -5567.900385 kJ/mol
# Density = 2.443361 g / cm^3
# Si number density = 24.489345 Si / 1000 Ang^3
#
#
#
# Elastic Constant Matrix: (Units=GPa)
#
#
# Indices 1 2 3 4 5 6 
#
# 1 139.9687 58.5971 7.1388 -27.6762 -13.1574 -11.0650
# 2 58.5971 120.8787 5.9828 -37.3202 -7.6103 -17.6639
# 3 7.1388 5.9828 45.2083 -4.4058 -15.9108 -6.4047
# 4 -27.6762 -37.3202 -4.4058 32.7130 -3.1490 9.0887
# 5 -13.1574 -7.6103 -15.9108 -3.1490 26.2652 -13.4913
# 6 -11.0650 -17.6639 -6.4047 9.0887 -13.4913 28.8934
#
#
#
# Elastic Compliance Matrix: (Units=1/GPa)
#
#
# Indices 1 2 3 4 5 6 
#
# 1 0.010749 -0.001050 0.005124 0.007511 0.013470 0.008538
# 2 -0.001050 0.017501 0.009164 0.017747 0.020639 0.016383
# 3 0.005124 0.009164 0.046521 0.015606 0.055166 0.038727
# 4 0.007511 0.017747 0.015606 0.058522 0.032554 0.013977
# 5 0.013470 0.020639 0.055166 0.032554 0.129282 0.080131
# 6 0.008538 0.016383 0.038727 0.013977 0.080131 0.089499
#
#
# Mechanical properties :
#
#
# Convention : Reuss Voigt Hill
#
# Bulk Modulus (GPa) = 9.87683 49.94367 29.91025
# Shear Modulus (GPa) = 13.91419 33.19681 23.55550
#
# Velocity S-wave (km/s) = 2.38622 3.68579 3.10476
# Velocity P-wave (km/s) = 3.41086 6.20900 5.00927
#
# Compressibility (1/GPa) = 0.10124709
#
# Stress axis : x y z
#
# Youngs Moduli (GPa) = 93.03297 57.14113 21.49578
#
# Poissons Ratio (x) = 0.05997 -0.11014
# Poissons Ratio (y) = 0.09764 -0.19699
# Poissons Ratio (z) = -0.47669 -0.52365
#
# Static dielectric constant tensor:
#      x y z
#    x 2.009940 0.056360 -0.039440 
#    y 0.056360 2.077900 0.029800 
#    z -0.039440 0.029800 2.001000 
# 
# From -- ./inp_files/367193.got.cif
#   From: 2010.05.17/outbox.cif.g08.bks.cpg/sg2_184_cif.got.tgz:367193.got - 2010.06.03 11:33:40.
