data_PCOD9039416
_publ_section_title
;
Structure prediction by ZEFSAII (Michael W. Deem and Ramdas Pophale) SiO2 
 PCOD9039416
Probable space group: P -1
;
_chemical_formula_sum "Si O2"
_cell_formula_units_Z 10
_cell_length_a 10.890119
_cell_length_b 17.815174
_cell_length_c 9.475217
_cell_angle_alpha 32.144797
_cell_angle_beta 124.093698
_cell_angle_gamma 147.764153
_cell_volume 436.253634
_symmetry_space_group_name_H-M "P -1"
_symmetry_group_IT_number 2
_symmetry_cell_setting 'triclinic'
loop_
_space_group_symop_operation_xyz
x,y,z
-x,-y,-z
loop_
_atom_site_type_symbol
_atom_site_label
_atom_site_fract_x
_atom_site_fract_y
_atom_site_fract_z
Si Si1 0.796140 0.713948 0.278036
Si Si2 0.976346 0.819331 0.728799
Si Si3 0.187006 0.565223 0.130451
Si Si4 0.575885 0.727717 0.903697
Si Si5 0.208069 0.752506 0.133199
O O1 0.500000 0.500000 0.500000
O O2 0.911767 0.657419 0.496496
O O3 0.721000 0.698445 0.094919
O O4 0.000000 0.000000 0.000000
O O5 0.196881 0.992317 0.468035
O O6 0.083049 0.805312 0.942301
O O7 0.000000 0.000000 0.500000
O O8 0.680043 0.526089 0.954098
O O9 0.243413 0.711429 0.066634
O O10 0.442145 0.711409 0.970134
O O11 0.000000 0.500000 0.000000
O O12 0.000000 0.500000 0.500000
O O13 0.500000 0.000000 0.000000
#
# Coordination Sequence:
#
# PCOD9039416 Si02
#       5
#     2   2   2   2   2
#     4  10  23  42  68 106 143 180 236 302 364 418
#     4  12  27  47  77 104 153 197 247 298 375 450
#     4  11  25  49  79 110 150 192 254 314 360 444
#     4  11  24  47  76 111 138 196 256 304 362 434
#     4  12  30  50  73 110 154 199 242 307 385 436
#
# _framework density 22.922446000000001
#
# number of rings (size 3 to 8) (size 9 to 14) (size 15 to 20)
#    0.000    0.800    2.000    4.200    5.600    5.600 
#    0.000    0.000    0.000    0.000    0.000    0.000 
#    0.000    0.000    0.000    0.000    0.000    0.000 
#
# Total GULP energy -55887.455208 kJ/mol
# GULP energy per Si atom -5588.745521 kJ/mol
# Density = 2.287027 g / cm^3
# Si number density = 22.922446 Si / 1000 Ang^3
#
#
#
# Elastic Constant Matrix: (Units=GPa)
#
#
# Indices 1 2 3 4 5 6 
#
# 1 114.6483 36.7410 21.6255 17.5971 21.4009 -9.4352
# 2 36.7410 209.4815 66.5683 16.4631 21.9524 19.6664
# 3 21.6255 66.5683 140.7630 34.6059 25.7707 31.6060
# 4 17.5971 16.4631 34.6059 53.0749 7.1550 7.9656
# 5 21.4009 21.9524 25.7707 7.1550 44.9965 6.6514
# 6 -9.4352 19.6664 31.6060 7.9656 6.6514 32.9230
#
#
#
# Elastic Compliance Matrix: (Units=1/GPa)
#
#
# Indices 1 2 3 4 5 6 
#
# 1 0.011280 -0.001605 -0.000893 -0.003050 -0.004578 0.006712
# 2 -0.001605 0.005948 -0.002107 0.000451 -0.000714 -0.001955
# 3 -0.000893 -0.002107 0.012065 -0.005166 -0.003357 -0.008651
# 4 -0.003050 0.000451 -0.005166 0.023272 0.000780 -0.001972
# 5 -0.004578 -0.000714 -0.003357 0.000780 0.027038 -0.003314
# 6 0.006712 -0.001955 -0.008651 -0.001972 -0.003314 0.042917
#
#
# Mechanical properties :
#
#
# Convention : Reuss Voigt Hill
#
# Bulk Modulus (GPa) = 49.79659 79.41803 64.60731
# Shear Modulus (GPa) = 36.12069 48.86276 42.49173
#
# Velocity S-wave (km/s) = 3.97391 4.62199 4.31015
# Velocity P-wave (km/s) = 6.54424 7.95018 7.28123
#
# Compressibility (1/GPa) = 0.02008170
#
# Stress axis : x y z
#
# Youngs Moduli (GPa) = 88.65115 168.12824 82.88401
#
# Poissons Ratio (x) = 0.26991 0.07401
# Poissons Ratio (y) = 0.14232 0.17467
# Poissons Ratio (z) = 0.07915 0.35432
#
# Static dielectric constant tensor:
#      x y z
#    x 1.919810 -0.028200 -0.026060 
#    y -0.028200 1.880330 0.047420 
#    z -0.026060 0.047420 1.919510 
# 
# From -- ./inp_files/18995.got.cif
#   From: 2010.05.17/outbox.cif.g08.bks.cpg/sg2_10_cif.got.tgz:18995.got - 2010.06.03 11:33:40.
