data_PCOD9039424
_publ_section_title
;
Structure prediction by ZEFSAII (Michael W. Deem and Ramdas Pophale) SiO2 
 PCOD9039424
Probable space group: P -1
;
_chemical_formula_sum "Si O2"
_cell_formula_units_Z 14
_cell_length_a 15.934646
_cell_length_b 5.084861
_cell_length_c 17.565865
_cell_angle_alpha 85.488022
_cell_angle_beta 154.743700
_cell_angle_gamma 85.764908
_cell_volume 569.126327
_symmetry_space_group_name_H-M "P -1"
_symmetry_group_IT_number 2
_symmetry_cell_setting 'triclinic'
loop_
_space_group_symop_operation_xyz
x,y,z
-x,-y,-z
loop_
_atom_site_type_symbol
_atom_site_label
_atom_site_fract_x
_atom_site_fract_y
_atom_site_fract_z
Si Si1 0.777478 0.997593 0.565582
Si Si2 0.745740 0.055930 0.378751
Si Si3 0.357137 0.590199 0.089841
Si Si4 0.137048 0.222558 0.662998
Si Si5 0.839421 0.798213 0.147685
Si Si6 0.317867 0.275537 0.375237
Si Si7 0.602508 0.515220 0.707374
O O1 0.766317 0.867773 0.475989
O O2 0.537239 0.185201 0.379728
O O3 0.929799 0.179299 0.676218
O O4 0.835115 0.816643 0.693748
O O5 0.585707 0.364328 0.261259
O O6 0.978683 0.059381 0.557974
O O7 0.697678 0.950102 0.260175
O O8 0.323285 0.653785 0.150807
O O9 0.209027 0.423777 0.941379
O O10 0.305898 0.885589 0.999449
O O11 0.204552 0.279805 0.800634
O O12 0.000000 0.500000 0.500000
O O13 0.434170 0.422293 0.524151
O O14 0.242264 0.457170 0.232469
O O15 0.500000 0.000000 0.500000
#
# Coordination Sequence:
#
# PCOD9039424 Si02
#       7
#     2   2   2   2   2   2   2
#     4   9  20  38  64  90 122 171 217 262 313 377
#     4   9  22  40  64  94 121 172 215 270 311 382
#     4  11  26  43  63  96 137 169 208 261 334 379
#     4  10  23  42  68  91 125 168 225 266 312 377
#     4  11  27  42  63  96 134 173 208 265 326 387
#     4   9  18  35  68  93 120 159 226 263 307 368
#     4   9  20  38  65  94 123 167 217 266 309 381
#
# _framework density 24.599108000000001
#
# number of rings (size 3 to 8) (size 9 to 14) (size 15 to 20)
#    0.000    2.286    0.000    0.000   16.000    2.286 
#    0.000    1.429    0.000    0.000    0.000    0.000 
#    0.000    0.000    0.000    0.000    0.000    0.000 
#
# Total GULP energy -78126.080650 kJ/mol
# GULP energy per Si atom -5580.434332 kJ/mol
# Density = 2.454312 g / cm^3
# Si number density = 24.599108 Si / 1000 Ang^3
#
#
#
# Elastic Constant Matrix: (Units=GPa)
#
#
# Indices 1 2 3 4 5 6 
#
# 1 178.5765 63.2759 57.3769 -1.4495 -46.3391 8.2912
# 2 63.2759 75.9404 13.7234 -5.4000 -20.2686 -0.4873
# 3 57.3769 13.7234 76.6207 -3.9704 -20.7496 0.8530
# 4 -1.4495 -5.4000 -3.9704 36.7720 0.0286 -1.7472
# 5 -46.3391 -20.2686 -20.7496 0.0286 43.1869 -0.1753
# 6 8.2912 -0.4873 0.8530 -1.7472 -0.1753 35.6390
#
#
#
# Elastic Compliance Matrix: (Units=1/GPa)
#
#
# Indices 1 2 3 4 5 6 
#
# 1 0.011824 -0.007175 -0.005849 -0.001354 0.006500 -0.002743
# 2 -0.007175 0.019634 0.002760 0.002993 0.002849 0.002032
# 3 -0.005849 0.002760 0.018036 0.002171 0.003688 0.001091
# 4 -0.001354 0.002993 0.002171 0.027894 0.000983 0.001676
# 5 0.006500 0.002849 0.003688 0.000983 0.033232 -0.001350
# 6 -0.002743 0.002032 0.001091 0.001676 -0.001350 0.028775
#
#
# Mechanical properties :
#
#
# Convention : Reuss Voigt Hill
#
# Bulk Modulus (GPa) = 34.52218 66.65446 50.58832
# Shear Modulus (GPa) = 29.48500 36.23698 32.86099
#
# Velocity S-wave (km/s) = 3.46587 3.84226 3.65891
# Velocity P-wave (km/s) = 5.48459 6.84391 6.20160
#
# Compressibility (1/GPa) = 0.02896689
#
# Stress axis : x y z
#
# Youngs Moduli (GPa) = 84.57116 50.93294 55.44441
#
# Poissons Ratio (x) = 0.36542 0.32430
# Poissons Ratio (y) = 0.60676 -0.15302
# Poissons Ratio (z) = 0.49466 -0.14057
#
# Static dielectric constant tensor:
#      x y z
#    x 2.042380 0.015690 -0.067400 
#    y 0.015690 2.028420 -0.009850 
#    z -0.067400 -0.009850 2.063500 
# 
# From -- ./inp_files/35037.got.cif
#   From: 2010.05.17/outbox.cif.g08.bks.cpg/sg2_18_cif.got.tgz:35037.got - 2010.06.03 11:33:40.
