data_PCOD9039860
_publ_section_title
;
Structure prediction by ZEFSAII (Michael W. Deem and Ramdas Pophale) SiO2 
 PCOD9039860
Probable space group: P -1
;
_chemical_formula_sum "Si O2"
_cell_formula_units_Z 14
_cell_length_a 9.130876
_cell_length_b 12.172762
_cell_length_c 7.792660
_cell_angle_alpha 62.283481
_cell_angle_beta 51.274341
_cell_angle_gamma 59.980220
_cell_volume 570.044878
_symmetry_space_group_name_H-M "P -1"
_symmetry_group_IT_number 2
_symmetry_cell_setting 'triclinic'
loop_
_space_group_symop_operation_xyz
x,y,z
-x,-y,-z
loop_
_atom_site_type_symbol
_atom_site_label
_atom_site_fract_x
_atom_site_fract_y
_atom_site_fract_z
Si Si1 0.482938 0.122075 0.042290
Si Si2 0.192157 0.409579 0.521121
Si Si3 0.295929 0.113814 0.530885
Si Si4 0.790104 0.630519 0.061463
Si Si5 0.088123 0.942242 0.212339
Si Si6 0.422160 0.557079 0.704523
Si Si7 0.916136 0.211929 0.320420
O O1 0.319691 0.129334 0.298909
O O2 0.406316 0.247355 0.889543
O O3 0.692592 0.106766 0.986993
O O4 0.500000 0.000000 0.000000
O O5 0.258142 0.256761 0.533636
O O6 0.161306 0.412335 0.747246
O O7 0.383949 0.457864 0.316154
O O8 0.000000 0.500000 0.500000
O O9 0.097839 0.075460 0.738634
O O10 0.500000 0.000000 0.500000
O O11 0.724049 0.524741 0.076869
O O12 0.963250 0.683951 0.827424
O O13 0.109889 0.854272 0.433437
O O14 0.033198 0.092599 0.200511
O O15 0.500000 0.500000 0.500000
O O16 0.291488 0.706483 0.669184
#
# Coordination Sequence:
#
# PCOD9039860 Si02
#       7
#     2   2   2   2   2   2   2
#     4  12  23  45  76 107 137 192 251 294 356 438
#     4  11  27  48  67 106 155 191 236 305 373 430
#     4  12  27  46  71 105 154 188 238 308 372 425
#     4  11  23  44  76 101 139 193 250 292 351 443
#     4  11  23  41  73 102 144 181 243 296 362 424
#     4  10  23  42  71  96 139 189 247 287 355 430
#     4  11  21  42  70 107 131 183 248 306 340 423
#
# _framework density 24.559467000000001
#
# number of rings (size 3 to 8) (size 9 to 14) (size 15 to 20)
#    0.000    0.857    2.857    4.714    6.000    1.714 
#    2.571    1.429    0.000    0.000    0.000    0.000 
#    0.000    0.000    0.000    0.000    0.000    0.000 
#
# Total GULP energy -78349.352115 kJ/mol
# GULP energy per Si atom -5596.382294 kJ/mol
# Density = 2.450357 g / cm^3
# Si number density = 24.559467 Si / 1000 Ang^3
#
#
#
# Elastic Constant Matrix: (Units=GPa)
#
#
# Indices 1 2 3 4 5 6 
#
# 1 168.7175 74.2621 31.4919 -11.4220 -25.4971 -39.6653
# 2 74.2621 159.7867 19.3165 -16.4477 -16.3067 -23.9381
# 3 31.4919 19.3165 82.4584 -3.6896 -19.6827 -4.7016
# 4 -11.4220 -16.4477 -3.6896 31.3804 -4.9434 -3.7938
# 5 -25.4971 -16.3067 -19.6827 -4.9434 45.8564 -2.5061
# 6 -39.6653 -23.9381 -4.7016 -3.7938 -2.5061 59.4572
#
#
#
# Elastic Compliance Matrix: (Units=1/GPa)
#
#
# Indices 1 2 3 4 5 6 
#
# 1 0.009577 -0.002641 -0.001524 0.003292 0.004393 0.005601
# 2 -0.002641 0.008411 -0.000203 0.003969 0.001970 0.001945
# 3 -0.001524 -0.000203 0.014146 0.001893 0.005376 0.000368
# 4 0.003292 0.003969 0.001893 0.037511 0.008464 0.006694
# 5 0.004393 0.001970 0.005376 0.008464 0.028492 0.005890
# 6 0.005601 0.001945 0.000368 0.006694 0.005890 0.022043
#
#
# Mechanical properties :
#
#
# Convention : Reuss Voigt Hill
#
# Bulk Modulus (GPa) = 42.73700 73.45597 58.09649
# Shear Modulus (GPa) = 36.57238 46.39827 41.48533
#
# Velocity S-wave (km/s) = 3.86312 4.35123 4.11442
# Velocity P-wave (km/s) = 6.11044 7.43093 6.80280
#
# Compressibility (1/GPa) = 0.02339893
#
# Stress axis : x y z
#
# Youngs Moduli (GPa) = 104.41373 118.89021 70.69166
#
# Poissons Ratio (x) = 0.31395 0.10772
# Poissons Ratio (y) = 0.27572 0.01436
# Poissons Ratio (z) = 0.15911 0.02416
#
# Static dielectric constant tensor:
#      x y z
#    x 2.004240 -0.085790 0.006330 
#    y -0.085790 2.082130 -0.066670 
#    z 0.006330 -0.066670 1.994190 
# 
# From -- ./inp_files/184629.got.cif
#   From: 2010.05.17/outbox.cif.g08.bks.cpg/sg2_93_cif.got.tgz:184629.got - 2010.06.03 11:33:40.
