data_PCOD9039640
_publ_section_title
;
Structure prediction by ZEFSAII (Michael W. Deem and Ramdas Pophale) SiO2 
 PCOD9039640
Probable space group: P -1
;
_chemical_formula_sum "Si O2"
_cell_formula_units_Z 14
_cell_length_a 11.881438
_cell_length_b 21.539893
_cell_length_c 20.926084
_cell_angle_alpha 19.747808
_cell_angle_beta 158.118825
_cell_angle_gamma 147.460353
_cell_volume 654.477137
_symmetry_space_group_name_H-M "P -1"
_symmetry_group_IT_number 2
_symmetry_cell_setting 'triclinic'
loop_
_space_group_symop_operation_xyz
x,y,z
-x,-y,-z
loop_
_atom_site_type_symbol
_atom_site_label
_atom_site_fract_x
_atom_site_fract_y
_atom_site_fract_z
Si Si1 0.206397 0.644922 0.175879
Si Si2 0.289827 0.978479 0.970763
Si Si3 0.346408 0.556259 0.932727
Si Si4 0.198041 0.284545 0.806397
Si Si5 0.285279 0.871701 0.869331
Si Si6 0.389322 0.927721 0.659128
Si Si7 0.764914 0.215173 0.542071
O O1 0.500000 0.500000 0.500000
O O2 0.956679 0.524933 0.147643
O O3 0.132994 0.809277 0.032223
O O4 0.273853 0.741848 0.051521
O O5 0.011953 0.154992 0.673153
O O6 0.500000 0.000000 0.000000
O O7 0.531954 0.969015 0.166209
O O8 0.298701 0.775026 0.712314
O O9 0.500000 0.500000 0.000000
O O10 0.582284 0.431146 0.229083
O O11 0.000000 0.500000 0.500000
O O12 0.961944 0.186168 0.739085
O O13 0.502157 0.254755 0.949562
O O14 0.338594 0.182781 0.043860
O O15 0.927288 0.968801 0.571251
O O16 0.521538 0.084703 0.539929
#
# Coordination Sequence:
#
# PCOD9039640 Si02
#       7
#     2   2   2   2   2   2   2
#     4  11  23  40  63 100 138 175 221 268 334 403
#     4   9  21  39  64  89 135 178 210 265 332 396
#     4  12  27  39  69 103 137 173 223 273 337 396
#     4  11  24  46  72  97 132 178 228 280 336 400
#     4  10  23  42  69  98 134 175 227 277 334 398
#     4  12  24  46  70  99 136 178 226 280 333 396
#     4  11  24  45  67  99 134 177 223 274 338 402
#
# _framework density 21.391123
#
# number of rings (size 3 to 8) (size 9 to 14) (size 15 to 20)
#    0.000    1.143    2.857    2.571   10.000    2.286 
#    0.000    4.286    0.000    0.000    0.000    0.000 
#    0.000    0.000    0.000    0.000    0.000    0.000 
#
# Total GULP energy -78163.529260 kJ/mol
# GULP energy per Si atom -5583.109233 kJ/mol
# Density = 2.134244 g / cm^3
# Si number density = 21.391123 Si / 1000 Ang^3
#
#
#
# Elastic Constant Matrix: (Units=GPa)
#
#
# Indices 1 2 3 4 5 6 
#
# 1 53.3221 20.7525 9.2434 -6.7441 13.2218 -0.8484
# 2 20.7525 113.5966 16.4910 -3.0880 14.0821 6.5128
# 3 9.2434 16.4910 105.8445 5.5026 11.3894 -2.8350
# 4 -6.7441 -3.0880 5.5026 35.0160 -3.8863 1.9596
# 5 13.2218 14.0821 11.3894 -3.8863 42.9378 2.6137
# 6 -0.8484 6.5128 -2.8350 1.9596 2.6137 23.9486
#
#
#
# Elastic Compliance Matrix: (Units=1/GPa)
#
#
# Indices 1 2 3 4 5 6 
#
# 1 0.021940 -0.003229 -0.000977 0.003410 -0.005241 0.001833
# 2 -0.003229 0.009952 -0.001176 0.000403 -0.001751 -0.002802
# 3 -0.000977 -0.001176 0.010135 -0.002250 -0.002322 0.001923
# 4 0.003410 0.000403 -0.002250 0.030027 0.002313 -0.002965
# 5 -0.005241 -0.001751 -0.002322 0.002313 0.026489 -0.003065
# 6 0.001833 -0.002802 0.001923 -0.002965 -0.003065 0.043388
#
#
# Mechanical properties :
#
#
# Convention : Reuss Voigt Hill
#
# Bulk Modulus (GPa) = 31.98748 40.63745 36.31247
# Shear Modulus (GPa) = 30.65293 35.46557 33.05925
#
# Velocity S-wave (km/s) = 3.78957 4.07622 3.93551
# Velocity P-wave (km/s) = 5.84242 6.41815 6.13704
#
# Compressibility (1/GPa) = 0.03126223
#
# Stress axis : x y z
#
# Youngs Moduli (GPa) = 45.57887 100.47870 98.67007
#
# Poissons Ratio (x) = 0.32444 0.09642
# Poissons Ratio (y) = 0.14717 0.11606
# Poissons Ratio (z) = 0.04454 0.11819
#
# Static dielectric constant tensor:
#      x y z
#    x 1.788580 0.038710 -0.038010 
#    y 0.038710 2.145560 -0.149230 
#    z -0.038010 -0.149230 1.865670 
# 
# From -- ./inp_files/189588.got.cif
#   From: 2010.05.17/outbox.cif.g08.bks.cpg/sg2_95_cif.got.tgz:189588.got - 2010.06.03 11:33:40.
