data_PCOD9039072
_publ_section_title
;
Structure prediction by ZEFSAII (Michael W. Deem and Ramdas Pophale) SiO2 
 PCOD9039072
Probable space group: P -1
;
_chemical_formula_sum "Si O2"
_cell_formula_units_Z 14
_cell_length_a 13.569836
_cell_length_b 17.382180
_cell_length_c 11.696510
_cell_angle_alpha 141.328307
_cell_angle_beta 22.111907
_cell_angle_gamma 149.236730
_cell_volume 529.491154
_symmetry_space_group_name_H-M "P -1"
_symmetry_group_IT_number 2
_symmetry_cell_setting 'triclinic'
loop_
_space_group_symop_operation_xyz
x,y,z
-x,-y,-z
loop_
_atom_site_type_symbol
_atom_site_label
_atom_site_fract_x
_atom_site_fract_y
_atom_site_fract_z
Si Si1 0.984671 0.023471 0.346816
Si Si2 0.342891 0.590949 0.791795
Si Si3 0.639059 0.656624 0.962198
Si Si4 0.277098 0.750307 0.723940
Si Si5 0.182882 0.923678 0.829083
Si Si6 0.977165 0.830882 0.317460
Si Si7 0.100748 0.595500 0.300455
O O1 0.642515 0.877470 0.507651
O O2 0.119700 0.972980 0.244907
O O3 0.932803 0.133200 0.603731
O O4 0.186496 0.050377 0.047595
O O5 0.500000 0.500000 0.500000
O O6 0.595399 0.740901 0.624898
O O7 0.307569 0.630143 0.003958
O O8 0.000000 0.500000 0.000000
O O9 0.851766 0.811093 0.985603
O O10 0.907275 0.669842 0.604539
O O11 0.500000 0.500000 0.000000
O O12 0.336343 0.634047 0.198049
O O13 0.186128 0.813485 0.789474
O O14 0.174256 0.584595 0.614779
O O15 0.072733 0.735442 0.036664
O O16 0.500000 0.000000 0.500000
#
# Coordination Sequence:
#
# PCOD9039072 Si02
#       7
#     2   2   2   2   2   2   2
#     4  10  23  44  69  93 137 180 233 282 356 424
#     4  12  25  44  70 105 145 179 230 296 357 420
#     4  12  26  48  72 102 140 189 245 287 349 420
#     4  11  22  43  71  97 133 179 235 288 355 425
#     4  11  27  44  66 101 138 182 236 294 348 415
#     4  10  23  42  66 103 131 182 228 287 355 425
#     4  12  26  43  75 105 139 187 234 295 353 418
#
# _framework density 26.440480999999998
#
# number of rings (size 3 to 8) (size 9 to 14) (size 15 to 20)
#    0.000    0.857    2.857    3.429    6.000    1.714 
#    0.000    0.000    0.000    0.000    0.000    0.000 
#    0.000    0.000    0.000    0.000    0.000    0.000 
#
# Total GULP energy -78445.008714 kJ/mol
# GULP energy per Si atom -5603.214908 kJ/mol
# Density = 2.638030 g / cm^3
# Si number density = 26.440481 Si / 1000 Ang^3
#
#
#
# Elastic Constant Matrix: (Units=GPa)
#
#
# Indices 1 2 3 4 5 6 
#
# 1 101.0712 30.4689 48.1234 4.2297 9.7888 27.9671
# 2 30.4689 92.9046 35.1068 5.4094 5.1132 38.8650
# 3 48.1234 35.1068 171.2048 3.1358 27.0233 30.6036
# 4 4.2297 5.4094 3.1358 48.3150 9.3324 5.9383
# 5 9.7888 5.1132 27.0233 9.3324 58.1121 -0.7567
# 6 27.9671 38.8650 30.6036 5.9383 -0.7567 51.4331
#
#
#
# Elastic Compliance Matrix: (Units=1/GPa)
#
#
# Indices 1 2 3 4 5 6 
#
# 1 0.012771 -0.001345 -0.002345 -0.000066 -0.000991 -0.004540
# 2 -0.001345 0.016177 -0.000821 -0.000106 -0.000941 -0.011006
# 3 -0.002345 -0.000821 0.007670 0.000774 -0.003261 -0.002806
# 4 -0.000066 -0.000106 0.000774 0.021771 -0.003874 -0.002916
# 5 -0.000991 -0.000941 -0.003261 -0.003874 0.019647 0.003927
# 6 -0.004540 -0.011006 -0.002806 -0.002916 0.003927 0.032292
#
#
# Mechanical properties :
#
#
# Convention : Reuss Voigt Hill
#
# Bulk Modulus (GPa) = 36.23629 65.84207 51.03918
# Shear Modulus (GPa) = 38.89551 48.33749 43.61650
#
# Velocity S-wave (km/s) = 3.83960 4.28034 4.06595
# Velocity P-wave (km/s) = 5.77852 7.02741 6.43334
#
# Compressibility (1/GPa) = 0.02759664
#
# Stress axis : x y z
#
# Youngs Moduli (GPa) = 78.30383 61.81539 130.36975
#
# Poissons Ratio (x) = 0.08312 0.30569
# Poissons Ratio (y) = 0.10529 0.10709
# Poissons Ratio (z) = 0.18361 0.05078
#
# Static dielectric constant tensor:
#      x y z
#    x 2.012900 -0.050840 0.011150 
#    y -0.050840 2.149560 0.006430 
#    z 0.011150 0.006430 2.047740 
# 
# From -- ./inp_files/67459.got.cif
#   From: 2010.05.17/outbox.cif.g08.bks.cpg/sg2_34_cif.got.tgz:67459.got - 2010.06.03 11:33:40.
