data_PCOD9039545
_publ_section_title
;
Structure prediction by ZEFSAII (Michael W. Deem and Ramdas Pophale) SiO2 
 PCOD9039545
Probable space group: P -1
;
_chemical_formula_sum "Si O2"
_cell_formula_units_Z 12
_cell_length_a 5.272814
_cell_length_b 20.681855
_cell_length_c 13.274398
_cell_angle_alpha 25.378905
_cell_angle_beta 121.675366
_cell_angle_gamma 120.076480
_cell_volume 526.600161
_symmetry_space_group_name_H-M "P -1"
_symmetry_group_IT_number 2
_symmetry_cell_setting 'triclinic'
loop_
_space_group_symop_operation_xyz
x,y,z
-x,-y,-z
loop_
_atom_site_type_symbol
_atom_site_label
_atom_site_fract_x
_atom_site_fract_y
_atom_site_fract_z
Si Si1 0.733528 0.984136 0.760516
Si Si2 0.571530 0.676149 0.469896
Si Si3 0.720496 0.177834 0.968218
Si Si4 0.168004 0.849058 0.751412
Si Si5 0.244163 0.728832 0.526502
Si Si6 0.032947 0.550453 0.050022
O O1 0.591311 0.906820 0.940989
O O2 0.517304 0.906349 0.739586
O O3 0.063502 0.939108 0.870792
O O4 0.681796 0.159081 0.522725
O O5 0.443554 0.749047 0.441008
O O6 0.663759 0.509208 0.754157
O O7 0.895613 0.754692 0.397503
O O8 0.346831 0.694639 0.305360
O O9 0.862930 0.227462 0.035899
O O10 0.043895 0.728044 0.815855
O O11 0.000000 0.000000 0.500000
O O12 0.225400 0.552316 0.801736
O O13 0.000000 0.500000 0.000000
#
# Coordination Sequence:
#
# PCOD9039545 Si02
#       6
#     2   2   2   2   2   2
#     4  10  23  42  69 101 139 178 227 277 337 402
#     4  10  23  43  70 102 139 179 227 280 336 402
#     4  10  23  43  70 102 139 179 227 280 336 402
#     4  10  26  47  70 101 136 182 228 282 342 408
#     4  10  23  42  69 101 139 178 227 277 337 402
#     4  10  26  47  70 101 136 182 228 282 342 408
#
# _framework density 22.787689
#
# number of rings (size 3 to 8) (size 9 to 14) (size 15 to 20)
#    2.000    0.000    0.000    2.000    4.667    7.333 
#    0.000    1.667    0.000    0.000    0.000    0.000 
#    0.000    0.000    0.000    0.000    0.000    0.000 
#
# Total GULP energy -66854.684801 kJ/mol
# GULP energy per Si atom -5571.223733 kJ/mol
# Density = 2.273582 g / cm^3
# Si number density = 22.787689 Si / 1000 Ang^3
#
#
#
# Elastic Constant Matrix: (Units=GPa)
#
#
# Indices 1 2 3 4 5 6 
#
# 1 102.1855 14.1521 12.0183 2.2574 12.4212 -24.6093
# 2 14.1521 94.9101 68.8215 -19.2361 3.3807 -0.0809
# 3 12.0183 68.8215 84.0935 5.0260 2.4604 1.5734
# 4 2.2574 -19.2361 5.0260 38.3885 1.9644 -0.5126
# 5 12.4212 3.3807 2.4604 1.9644 17.1323 -6.2259
# 6 -24.6093 -0.0809 1.5734 -0.5126 -6.2259 25.2256
#
#
#
# Elastic Compliance Matrix: (Units=1/GPa)
#
#
# Indices 1 2 3 4 5 6 
#
# 1 0.013618 -0.001579 -0.000670 -0.001090 -0.004952 0.012078
# 2 -0.001579 0.042058 -0.035610 0.026087 -0.004990 0.000114
# 3 -0.000670 -0.035610 0.042511 -0.023564 0.002958 -0.003168
# 4 -0.001090 0.026087 -0.023564 0.042571 -0.005891 -0.000098
# 5 -0.004952 -0.004990 0.002958 -0.005891 0.067365 0.011476
# 6 0.012078 0.000114 -0.003168 -0.000098 0.011476 0.054453
#
#
# Mechanical properties :
#
#
# Convention : Reuss Voigt Hill
#
# Bulk Modulus (GPa) = 44.50344 52.35254 48.42799
# Shear Modulus (GPa) = 14.45989 28.56242 21.51115
#
# Velocity S-wave (km/s) = 2.52176 3.54420 3.07576
# Velocity P-wave (km/s) = 5.29632 6.30654 5.82338
#
# Compressibility (1/GPa) = 0.02247017
#
# Stress axis : x y z
#
# Youngs Moduli (GPa) = 73.43039 23.77657 23.52327
#
# Poissons Ratio (x) = 0.03754 0.01576
# Poissons Ratio (y) = 0.11594 0.83766
# Poissons Ratio (z) = 0.04920 0.84668
#
# Static dielectric constant tensor:
#      x y z
#    x 1.866770 0.024900 -0.016260 
#    y 0.024900 1.857010 0.014120 
#    z -0.016260 0.014120 1.871520 
# 
# From -- ./inp_files/368248.got.cif
#   From: 2010.05.17/outbox.cif.g08.bks.cpg/sg2_185_cif.got.tgz:368248.got - 2010.06.03 11:33:40.
