data_PCOD9039003
_publ_section_title
;
Structure prediction by ZEFSAII (Michael W. Deem and Ramdas Pophale) SiO2 
 PCOD9039003
Probable space group: P -1
;
_chemical_formula_sum "Si O2"
_cell_formula_units_Z 16
_cell_length_a 8.749433
_cell_length_b 9.048789
_cell_length_c 14.409395
_cell_angle_alpha 68.590467
_cell_angle_beta 40.900742
_cell_angle_gamma 70.675398
_cell_volume 692.569861
_symmetry_space_group_name_H-M "P -1"
_symmetry_group_IT_number 2
_symmetry_cell_setting 'triclinic'
loop_
_space_group_symop_operation_xyz
x,y,z
-x,-y,-z
loop_
_atom_site_type_symbol
_atom_site_label
_atom_site_fract_x
_atom_site_fract_y
_atom_site_fract_z
Si Si1 0.502178 0.847049 0.917266
Si Si2 0.557914 0.170993 0.841398
Si Si3 0.621326 0.477627 0.162431
Si Si4 0.981048 0.251600 0.351843
Si Si5 0.057595 0.478295 0.831455
Si Si6 0.851513 0.666301 0.558557
Si Si7 0.977010 0.867886 0.119987
Si Si8 0.901551 0.942606 0.345248
O O1 0.738699 0.769285 0.785528
O O2 0.474187 0.029162 0.852022
O O3 0.562424 0.840901 0.000280
O O4 0.245006 0.793878 0.036557
O O5 0.497506 0.347970 0.798149
O O6 0.827561 0.120844 0.748361
O O7 0.796024 0.435914 0.177114
O O8 0.401782 0.375387 0.277363
O O9 0.792701 0.487565 0.993054
O O10 0.976618 0.255168 0.464316
O O11 0.910784 0.422894 0.299119
O O12 0.870822 0.108929 0.379042
O O13 0.136697 0.291136 0.823641
O O14 0.783063 0.796956 0.480189
O O15 0.000000 0.500000 0.500000
O O16 0.871628 0.945887 0.246513
O O17 0.000000 0.000000 0.000000
#
# Coordination Sequence:
#
# PCOD9039003 Si02
#       8
#     2   2   2   2   2   2   2   2
#     4   9  18  32  61  93 126 160 216 270 325 371
#     4   9  16  34  60  93 122 167 207 271 322 375
#     4  11  23  39  66  95 139 166 218 271 333 384
#     4  11  23  41  68  95 130 173 223 272 322 386
#     4  11  25  39  65 102 134 166 214 280 338 373
#     4  12  24  43  68  94 130 179 227 263 318 395
#     4  11  23  39  66  98 135 169 217 274 336 387
#     4  10  23  42  65  95 133 170 222 269 319 394
#
# _framework density 23.102363
#
# number of rings (size 3 to 8) (size 9 to 14) (size 15 to 20)
#    0.000    1.500    2.500    3.375    5.250    1.000 
#    0.000    3.125    0.000    0.000    0.000    0.000 
#    0.000    0.000    0.000    0.000    0.000    0.000 
#
# Total GULP energy -89171.791253 kJ/mol
# GULP energy per Si atom -5573.236953 kJ/mol
# Density = 2.304978 g / cm^3
# Si number density = 23.102363 Si / 1000 Ang^3
#
#
#
# Elastic Constant Matrix: (Units=GPa)
#
#
# Indices 1 2 3 4 5 6 
#
# 1 45.4500 27.2713 7.0285 -12.9915 15.1104 10.6919
# 2 27.2713 90.1181 12.6703 -20.0985 16.6881 7.6800
# 3 7.0285 12.6703 42.1425 -16.0502 9.5276 -1.4995
# 4 -12.9915 -20.0985 -16.0502 29.4221 -3.8517 5.6163
# 5 15.1104 16.6881 9.5276 -3.8517 40.5948 -6.7906
# 6 10.6919 7.6800 -1.4995 5.6163 -6.7906 30.8966
#
#
#
# Elastic Compliance Matrix: (Units=1/GPa)
#
#
# Indices 1 2 3 4 5 6 
#
# 1 0.038250 -0.003688 0.004511 0.018430 -0.015174 -0.018786
# 2 -0.003688 0.015769 0.000616 0.009854 -0.005249 -0.005559
# 3 0.004511 0.000616 0.032088 0.019879 -0.008521 -0.005643
# 4 0.018430 0.009854 0.019879 0.062170 -0.013375 -0.022103
# 5 -0.015174 -0.005249 -0.008521 -0.013375 0.035926 0.016469
# 6 -0.018786 -0.005559 -0.005643 -0.022103 0.016469 0.047612
#
#
# Mechanical properties :
#
#
# Convention : Reuss Voigt Hill
#
# Bulk Modulus (GPa) = 11.23789 30.18343 20.71066
# Shear Modulus (GPa) = 19.33497 28.89874 24.11685
#
# Velocity S-wave (km/s) = 2.89611 3.54064 3.23447
# Velocity P-wave (km/s) = 4.00727 5.45970 4.78887
#
# Compressibility (1/GPa) = 0.08898466
#
# Stress axis : x y z
#
# Youngs Moduli (GPa) = 26.14397 63.41410 31.16413
#
# Poissons Ratio (x) = 0.23387 -0.14058
# Poissons Ratio (y) = 0.09642 -0.01919
# Poissons Ratio (z) = -0.11793 -0.03904
#
# Static dielectric constant tensor:
#      x y z
#    x 1.908920 0.044430 0.024770 
#    y 0.044430 1.920630 -0.029060 
#    z 0.024770 -0.029060 1.947370 
# 
# From -- ./inp_files/494567.got.cif
#   From: 2010.05.17/outbox.cif.g08.bks.cpg/sg2_248_cif.got.tgz:494567.got - 2010.06.03 11:33:40.
