data_PCOD9039748
_publ_section_title
;
Structure prediction by ZEFSAII (Michael W. Deem and Ramdas Pophale) SiO2 
 PCOD9039748
Probable space group: P -1
;
_chemical_formula_sum "Si O2"
_cell_formula_units_Z 16
_cell_length_a 12.717680
_cell_length_b 28.065971
_cell_length_c 5.539246
_cell_angle_alpha 131.432299
_cell_angle_beta 129.889015
_cell_angle_gamma 25.429605
_cell_volume 630.633919
_symmetry_space_group_name_H-M "P -1"
_symmetry_group_IT_number 2
_symmetry_cell_setting 'triclinic'
loop_
_space_group_symop_operation_xyz
x,y,z
-x,-y,-z
loop_
_atom_site_type_symbol
_atom_site_label
_atom_site_fract_x
_atom_site_fract_y
_atom_site_fract_z
Si Si1 0.304988 0.013854 0.028231
Si Si2 0.746335 0.702148 0.242451
Si Si3 0.480160 0.090750 0.502085
Si Si4 0.509497 0.277334 0.711309
Si Si5 0.659468 0.436348 0.777568
Si Si6 0.171761 0.769506 0.664190
Si Si7 0.209095 0.873208 0.777274
Si Si8 0.859031 0.492172 0.183454
O O1 0.429216 0.035472 0.257877
O O2 0.029058 0.135804 0.112023
O O3 0.419373 0.934084 0.163446
O O4 0.352738 0.962471 0.669977
O O5 0.753389 0.774984 0.456182
O O6 0.691886 0.695633 0.405026
O O7 0.483934 0.785684 0.997423
O O8 0.996491 0.575715 0.084921
O O9 0.731696 0.152159 0.504085
O O10 0.411901 0.371928 0.717957
O O11 0.574907 0.297389 0.097166
O O12 0.500000 0.500000 0.500000
O O13 0.807683 0.313106 0.600689
O O14 0.500000 0.500000 0.000000
O O15 0.833507 0.430894 0.033171
O O16 0.121112 0.835555 0.588691
O O17 0.000000 0.000000 0.000000
O O18 0.000000 0.500000 0.500000
#
# Coordination Sequence:
#
# PCOD9039748 Si02
#       8
#     2   2   2   2   2   2   2   2
#     4  10  23  42  70  96 142 184 242 303 370 453
#     4  11  25  40  70 101 143 188 250 310 382 445
#     4  10  23  43  65 102 136 186 241 301 373 448
#     4  11  25  44  70 103 146 196 255 315 382 462
#     4  12  28  49  79 112 155 205 261 324 394 465
#     4  11  25  43  71 104 147 196 254 315 388 459
#     4  11  25  43  69 107 149 199 255 314 386 464
#     4  12  25  49  77 110 153 203 263 325 394 470
#
# _framework density 25.371297999999999
#
# number of rings (size 3 to 8) (size 9 to 14) (size 15 to 20)
#    0.000    1.000    2.500    2.625    8.750    2.000 
#    0.000    2.500    0.000    0.000    0.000    0.000 
#    0.000    0.000    0.000    0.000    0.000    0.000 
#
# Total GULP energy -89148.143610 kJ/mol
# GULP energy per Si atom -5571.758976 kJ/mol
# Density = 2.531355 g / cm^3
# Si number density = 25.371298 Si / 1000 Ang^3
#
#
#
# Elastic Constant Matrix: (Units=GPa)
#
#
# Indices 1 2 3 4 5 6 
#
# 1 172.8473 24.5131 70.4186 23.4251 -6.0817 13.6932
# 2 24.5131 65.3373 35.7584 27.6099 -0.1923 12.9396
# 3 70.4186 35.7584 113.9916 26.4119 -5.9646 11.0744
# 4 23.4251 27.6099 26.4119 50.0704 -10.1660 1.9064
# 5 -6.0817 -0.1923 -5.9646 -10.1660 49.3521 18.3122
# 6 13.6932 12.9396 11.0744 1.9064 18.3122 38.7369
#
#
#
# Elastic Compliance Matrix: (Units=1/GPa)
#
#
# Indices 1 2 3 4 5 6 
#
# 1 0.007921 0.000446 -0.004480 -0.001324 0.000920 -0.002038
# 2 0.000446 0.023236 -0.004587 -0.010450 -0.000364 -0.005921
# 3 -0.004480 -0.004587 0.013690 -0.002341 0.001038 -0.001173
# 4 -0.001324 -0.010450 -0.002341 0.028594 0.005103 0.000808
# 5 0.000920 -0.000364 0.001038 0.005103 0.026474 -0.013266
# 6 -0.002038 -0.005921 -0.001173 0.000808 -0.013266 0.035080
#
#
# Mechanical properties :
#
#
# Convention : Reuss Voigt Hill
#
# Bulk Modulus (GPa) = 36.22621 68.17294 52.19957
# Shear Modulus (GPa) = 30.97173 42.39761 36.68467
#
# Velocity S-wave (km/s) = 3.49770 4.09233 3.80664
# Velocity P-wave (km/s) = 5.53365 7.01840 6.31978
#
# Compressibility (1/GPa) = 0.02760432
#
# Stress axis : x y z
#
# Youngs Moduli (GPa) = 126.25308 43.03669 73.04827
#
# Poissons Ratio (x) = -0.01919 0.32726
# Poissons Ratio (y) = -0.05631 0.33506
# Poissons Ratio (z) = 0.56561 0.19740
#
# Static dielectric constant tensor:
#      x y z
#    x 2.072650 0.120880 -0.067460 
#    y 0.120880 2.573790 -0.184860 
#    z -0.067460 -0.184860 2.110290 
# 
# From -- ./inp_files/85162.got.cif
#   From: 2010.05.17/outbox.cif.g08.bks.cpg/sg2_43_cif.got.tgz:85162.got - 2010.06.03 11:33:40.
