data_PCOD9039125
_publ_section_title
;
Structure prediction by ZEFSAII (Michael W. Deem and Ramdas Pophale) SiO2 
 PCOD9039125
Probable space group: P -1
;
_chemical_formula_sum "Si O2"
_cell_formula_units_Z 14
_cell_length_a 16.872747
_cell_length_b 9.176675
_cell_length_c 5.059820
_cell_angle_alpha 121.321705
_cell_angle_beta 72.288460
_cell_angle_gamma 126.826768
_cell_volume 535.682001
_symmetry_space_group_name_H-M "P -1"
_symmetry_group_IT_number 2
_symmetry_cell_setting 'triclinic'
loop_
_space_group_symop_operation_xyz
x,y,z
-x,-y,-z
loop_
_atom_site_type_symbol
_atom_site_label
_atom_site_fract_x
_atom_site_fract_y
_atom_site_fract_z
Si Si1 0.913013 0.078799 0.404061
Si Si2 0.342235 0.603471 0.250144
Si Si3 0.407069 0.448565 0.370506
Si Si4 0.965776 0.739842 0.038424
Si Si5 0.294200 0.042132 0.390694
Si Si6 0.230082 0.608440 0.861249
Si Si7 0.510623 0.917158 0.632027
O O1 0.944941 0.153140 0.741105
O O2 0.921301 0.882603 0.190016
O O3 0.802987 0.021445 0.408041
O O4 0.989237 0.248813 0.282239
O O5 0.381427 0.448159 0.082144
O O6 0.253030 0.555914 0.500456
O O7 0.436364 0.848602 0.364059
O O8 0.288662 0.569513 0.992011
O O9 0.500000 0.500000 0.500000
O O10 0.322049 0.233250 0.360344
O O11 0.423434 0.671408 0.561339
O O12 0.882452 0.529541 0.055582
O O13 0.391531 0.092886 0.500251
O O14 0.269415 0.845767 0.057643
O O15 0.500000 0.000000 0.000000
#
# Coordination Sequence:
#
# PCOD9039125 Si02
#       7
#     2   2   2   2   2   2   2
#     4  10  23  43  70  94 132 171 221 280 329 400
#     4  10  23  42  66  95 133 185 218 267 326 403
#     4   8  18  38  64  92 133 171 221 272 319 384
#     4  10  23  45  66  96 129 176 219 274 345 388
#     4  11  21  38  68 103 135 175 225 275 332 389
#     4  12  24  41  70  97 134 179 222 273 331 404
#     4   9  18  42  66  96 138 179 221 265 327 397
#
# _framework density 26.134906999999998
#
# number of rings (size 3 to 8) (size 9 to 14) (size 15 to 20)
#    0.857    1.143    1.429    1.714    0.000    5.143 
#    0.000    2.143    0.000    0.000    0.000    0.000 
#    0.000    0.000    0.000    0.000    0.000    0.000 
#
# Total GULP energy -78143.004722 kJ/mol
# GULP energy per Si atom -5581.643194 kJ/mol
# Density = 2.607542 g / cm^3
# Si number density = 26.134907 Si / 1000 Ang^3
#
#
#
# Elastic Constant Matrix: (Units=GPa)
#
#
# Indices 1 2 3 4 5 6 
#
# 1 127.4255 33.9134 35.6514 -20.0289 -12.0787 6.7536
# 2 33.9134 187.5654 47.5796 -25.0968 -1.5956 -15.6255
# 3 35.6514 47.5796 121.3820 -39.3992 0.3183 -17.0744
# 4 -20.0289 -25.0968 -39.3992 42.7492 3.7532 4.4079
# 5 -12.0787 -1.5956 0.3183 3.7532 17.2140 -5.1048
# 6 6.7536 -15.6255 -17.0744 4.4079 -5.1048 50.1027
#
#
#
# Elastic Compliance Matrix: (Units=1/GPa)
#
#
# Indices 1 2 3 4 5 6 
#
# 1 0.009647 -0.001093 -0.002188 0.001551 0.005797 -0.001933
# 2 -0.001093 0.006227 -0.001339 0.001768 -0.000116 0.001465
# 3 -0.002188 -0.001339 0.013206 0.010318 -0.003222 0.003142
# 4 0.001551 0.001768 0.010318 0.035237 -0.006595 0.000087
# 5 0.005797 -0.000116 -0.003222 -0.006595 0.065221 0.005310
# 6 -0.001933 0.001465 0.003142 0.000087 0.005310 0.022281
#
#
# Mechanical properties :
#
#
# Convention : Reuss Voigt Hill
#
# Bulk Modulus (GPa) = 50.41029 74.51797 62.46413
# Shear Modulus (GPa) = 29.82021 43.29507 36.55764
#
# Velocity S-wave (km/s) = 3.38155 4.07455 3.74412
# Velocity P-wave (km/s) = 5.88021 7.12114 6.53022
#
# Compressibility (1/GPa) = 0.01983722
#
# Stress axis : x y z
#
# Youngs Moduli (GPa) = 103.66248 160.60313 75.72459
#
# Poissons Ratio (x) = 0.17557 0.16571
# Poissons Ratio (y) = 0.11333 0.10142
# Poissons Ratio (z) = 0.22685 0.21510
#
# Static dielectric constant tensor:
#      x y z
#    x 3.115580 0.560100 2.320400 
#    y 0.560100 2.452730 1.511290 
#    z 2.320400 1.511290 7.956690 
# 
# From -- ./inp_files/104053.got.cif
#   From: 2010.05.17/outbox.cif.g08.bks.cpg/sg2_53_cif.got.tgz:104053.got - 2010.06.03 11:33:40.
