data_PCOD9039151
_publ_section_title
;
Structure prediction by ZEFSAII (Michael W. Deem and Ramdas Pophale) SiO2 
 PCOD9039151
Probable space group: P -1
;
_chemical_formula_sum "Si O2"
_cell_formula_units_Z 14
_cell_length_a 13.899328
_cell_length_b 11.551581
_cell_length_c 28.772518
_cell_angle_alpha 22.331224
_cell_angle_beta 22.293189
_cell_angle_gamma 31.315717
_cell_volume 665.827952
_symmetry_space_group_name_H-M "P -1"
_symmetry_group_IT_number 2
_symmetry_cell_setting 'triclinic'
loop_
_space_group_symop_operation_xyz
x,y,z
-x,-y,-z
loop_
_atom_site_type_symbol
_atom_site_label
_atom_site_fract_x
_atom_site_fract_y
_atom_site_fract_z
Si Si1 0.268421 0.353288 0.941732
Si Si2 0.635927 0.747807 0.564169
Si Si3 0.661676 0.154827 0.723583
Si Si4 0.738433 0.808714 0.188770
Si Si5 0.852395 0.111999 0.417102
Si Si6 0.539546 0.253979 0.953300
Si Si7 0.707748 0.907955 0.654043
O O1 0.452435 0.540883 0.755319
O O2 0.368097 0.361754 0.946782
O O3 0.000000 0.500000 0.000000
O O4 0.270653 0.997671 0.058550
O O5 0.755463 0.491753 0.572295
O O6 0.500000 0.000000 0.500000
O O7 0.800524 0.936906 0.457079
O O8 0.397619 0.193028 0.800175
O O9 0.860165 0.985556 0.664879
O O10 0.621779 0.931270 0.867906
O O11 0.809348 0.466786 0.297954
O O12 0.521257 0.937574 0.272521
O O13 0.000000 0.000000 0.000000
O O14 0.679191 0.994487 0.580156
O O15 0.674030 0.544376 0.807931
O O16 0.000000 0.000000 0.500000
#
# Coordination Sequence:
#
# PCOD9039151 Si02
#       7
#     2   2   2   2   2   2   2
#     4  10  23  42  66  97 135 178 222 280 347 413
#     4  11  23  43  70 105 134 174 233 292 351 408
#     4  11  25  45  71 102 138 184 231 290 354 417
#     4  12  28  47  71 102 141 189 238 282 346 423
#     4  12  25  47  72 100 140 181 235 293 351 408
#     4  10  24  43  65  98 135 177 231 277 344 414
#     4  12  26  47  72 101 141 187 233 288 344 412
#
# _framework density 21.026454000000001
#
# number of rings (size 3 to 8) (size 9 to 14) (size 15 to 20)
#    0.000    0.857    4.286    1.714    4.000    5.714 
#    0.000    0.000    0.000    0.000    0.000    0.000 
#    0.000    0.000    0.000    0.000    0.000    0.000 
#
# Total GULP energy -78212.585410 kJ/mol
# GULP energy per Si atom -5586.613244 kJ/mol
# Density = 2.097860 g / cm^3
# Si number density = 21.026454 Si / 1000 Ang^3
#
#
#
# Elastic Constant Matrix: (Units=GPa)
#
#
# Indices 1 2 3 4 5 6 
#
# 1 85.2655 48.0525 28.2858 -4.0134 9.4607 -1.0906
# 2 48.0525 151.5345 76.7649 -11.1426 -15.8235 -4.4424
# 3 28.2858 76.7649 104.5146 -24.8341 -2.6250 3.9832
# 4 -4.0134 -11.1426 -24.8341 42.1692 1.9336 2.3545
# 5 9.4607 -15.8235 -2.6250 1.9336 43.7584 -5.0706
# 6 -1.0906 -4.4424 3.9832 2.3545 -5.0706 31.8507
#
#
#
# Elastic Compliance Matrix: (Units=1/GPa)
#
#
# Indices 1 2 3 4 5 6 
#
# 1 0.015421 -0.005303 -0.000332 0.000177 -0.005400 -0.001043
# 2 -0.005303 0.013433 -0.009100 -0.002815 0.006046 0.004001
# 3 -0.000332 -0.009100 0.018561 0.008899 -0.003049 -0.004745
# 4 0.000177 -0.002815 0.008899 0.028552 -0.002244 -0.003967
# 5 -0.005400 0.006046 -0.003049 -0.002244 0.026756 0.005465
# 6 -0.001043 0.004001 -0.004745 -0.003967 0.005465 0.033676
#
#
# Mechanical properties :
#
#
# Convention : Reuss Voigt Hill
#
# Bulk Modulus (GPa) = 55.73275 71.94678 63.83976
# Shear Modulus (GPa) = 29.09486 36.10310 32.59898
#
# Velocity S-wave (km/s) = 3.72388 4.14820 3.94176
# Velocity P-wave (km/s) = 6.71218 7.56538 7.15151
#
# Compressibility (1/GPa) = 0.01794277
#
# Stress axis : x y z
#
# Youngs Moduli (GPa) = 64.84558 74.44575 53.87650
#
# Poissons Ratio (x) = 0.39481 0.01790
# Poissons Ratio (y) = 0.34390 0.49030
# Poissons Ratio (z) = 0.02155 0.67749
#
# Static dielectric constant tensor:
#      x y z
#    x 1.803820 0.030770 -0.024340 
#    y 0.030770 1.773400 0.030010 
#    z -0.024340 0.030010 1.736040 
# 
# From -- ./inp_files/68380.got.cif
#   From: 2010.05.17/outbox.cif.g08.bks.cpg/sg2_35_cif.got.tgz:68380.got - 2010.06.03 11:33:40.
