data_PCOD9039537
_publ_section_title
;
Structure prediction by ZEFSAII (Michael W. Deem and Ramdas Pophale) SiO2 
 PCOD9039537
Probable space group: P -1
;
_chemical_formula_sum "Si O2"
_cell_formula_units_Z 12
_cell_length_a 11.301833
_cell_length_b 9.179020
_cell_length_c 9.160494
_cell_angle_alpha 147.807589
_cell_angle_beta 88.826368
_cell_angle_gamma 78.248985
_cell_volume 460.561843
_symmetry_space_group_name_H-M "P -1"
_symmetry_group_IT_number 2
_symmetry_cell_setting 'triclinic'
loop_
_space_group_symop_operation_xyz
x,y,z
-x,-y,-z
loop_
_atom_site_type_symbol
_atom_site_label
_atom_site_fract_x
_atom_site_fract_y
_atom_site_fract_z
Si Si1 0.060960 0.195107 0.078052
Si Si2 0.396229 0.223239 0.002252
Si Si3 0.836757 0.149411 0.483136
Si Si4 0.110167 0.196991 0.531715
Si Si5 0.744506 0.740970 0.667097
Si Si6 0.546308 0.561489 0.393513
O O1 0.174067 0.970012 0.778643
O O2 0.125197 0.358722 0.322250
O O3 0.954137 0.445286 0.192223
O O4 0.000000 0.000000 0.000000
O O5 0.268182 0.512225 0.200170
O O6 0.359080 0.154714 0.109601
O O7 0.508407 0.347369 0.110357
O O8 0.543710 0.091134 0.349438
O O9 0.983278 0.127793 0.462143
O O10 0.830232 0.925574 0.417391
O O11 0.217174 0.070678 0.295123
O O12 0.690483 0.540197 0.401977
O O13 0.500000 0.500000 0.500000
#
# Coordination Sequence:
#
# PCOD9039537 Si02
#       6
#     2   2   2   2   2   2
#     4  12  22  39  66  99 129 175 225 276 334 402
#     4  11  22  42  70  99 132 179 226 282 335 399
#     4  11  24  42  63  92 140 174 220 269 342 406
#     4  11  24  42  61  97 133 178 216 275 342 400
#     4  11  21  41  66  98 129 165 230 274 330 392
#     4  10  23  42  69 101 132 173 228 287 337 389
#
# _framework density 26.055133999999999
#
# number of rings (size 3 to 8) (size 9 to 14) (size 15 to 20)
#    0.000    1.000    3.333    5.000    0.000    4.000 
#    0.000    1.667    0.000    0.000    0.000    4.667 
#    0.000    0.000    0.000    0.000    0.000    0.000 
#
# Total GULP energy -67047.630893 kJ/mol
# GULP energy per Si atom -5587.302574 kJ/mol
# Density = 2.599583 g / cm^3
# Si number density = 26.055134 Si / 1000 Ang^3
#
#
#
# Elastic Constant Matrix: (Units=GPa)
#
#
# Indices 1 2 3 4 5 6 
#
# 1 160.7098 31.5274 47.6044 13.1285 -10.6828 -1.4379
# 2 31.5274 125.6932 40.4080 35.7940 0.2448 17.9240
# 3 47.6044 40.4080 153.7746 25.6299 2.9969 2.3906
# 4 13.1285 35.7940 25.6299 24.7209 2.7397 10.7314
# 5 -10.6828 0.2448 2.9969 2.7397 39.3782 3.7873
# 6 -1.4379 17.9240 2.3906 10.7314 3.7873 23.0521
#
#
#
# Elastic Compliance Matrix: (Units=1/GPa)
#
#
# Indices 1 2 3 4 5 6 
#
# 1 0.007233 -0.001103 -0.001782 -0.001410 0.002028 0.001817
# 2 -0.001103 0.013874 -0.000238 -0.018297 0.001146 -0.002502
# 3 -0.001782 -0.000238 0.008588 -0.009054 -0.000846 0.003537
# 4 -0.001410 -0.018297 -0.009054 0.088562 -0.003278 -0.025612
# 5 0.002028 0.001146 -0.000846 -0.003278 0.026568 -0.003516
# 6 0.001817 -0.002502 0.003537 -0.025612 -0.003516 0.057573
#
#
# Mechanical properties :
#
#
# Convention : Reuss Voigt Hill
#
# Bulk Modulus (GPa) = 42.64603 75.47303 59.05953
# Shear Modulus (GPa) = 23.09893 38.80610 30.95251
#
# Velocity S-wave (km/s) = 2.98071 3.86344 3.45042
# Velocity P-wave (km/s) = 5.31501 6.99508 6.21210
#
# Compressibility (1/GPa) = 0.02344884
#
# Stress axis : x y z
#
# Youngs Moduli (GPa) = 138.25787 72.07665 116.44342
#
# Poissons Ratio (x) = 0.07948 0.20751
# Poissons Ratio (y) = 0.15246 0.02775
# Poissons Ratio (z) = 0.24638 0.01717
#
# Static dielectric constant tensor:
#      x y z
#    x 2.099820 -0.046760 -0.032770 
#    y -0.046760 2.037360 -0.040870 
#    z -0.032770 -0.040870 2.244810 
# 
# From -- ./inp_files/491712.got.cif
#   From: 2010.05.17/outbox.cif.g08.bks.cpg/sg2_246_cif.got.tgz:491712.got - 2010.06.03 11:33:40.
