data_PCOD9039821
_publ_section_title
;
Structure prediction by ZEFSAII (Michael W. Deem and Ramdas Pophale) SiO2 
 PCOD9039821
Probable space group: P -1
;
_chemical_formula_sum "Si O2"
_cell_formula_units_Z 15
_cell_length_a 9.193393
_cell_length_b 21.651910
_cell_length_c 12.110163
_cell_angle_alpha 25.856026
_cell_angle_beta 141.229699
_cell_angle_gamma 141.416358
_cell_volume 629.369506
_symmetry_space_group_name_H-M "P -1"
_symmetry_group_IT_number 2
_symmetry_cell_setting 'triclinic'
loop_
_space_group_symop_operation_xyz
x,y,z
-x,-y,-z
loop_
_atom_site_type_symbol
_atom_site_label
_atom_site_fract_x
_atom_site_fract_y
_atom_site_fract_z
Si Si1 0.502264 0.524722 0.739125
Si Si2 0.718158 0.921662 0.975520
Si Si3 0.494864 0.876705 0.604392
Si Si4 0.068357 0.150941 0.227487
Si Si5 0.455603 0.843785 0.165639
Si Si6 0.000000 0.500000 0.500000
Si Si7 0.361289 0.652625 0.065006
Si Si8 0.112643 0.429455 0.928193
O O1 0.467004 0.688133 0.472164
O O2 0.223433 0.428770 0.730467
O O3 0.596758 0.496987 0.718120
O O4 0.666751 0.492012 0.986412
O O5 0.601479 0.055190 0.667330
O O6 0.650962 0.871512 0.140037
O O7 0.586887 0.775623 0.059052
O O8 0.000000 0.000000 0.000000
O O9 0.756421 0.866609 0.738909
O O10 0.500000 0.000000 0.500000
O O11 0.331880 0.733024 0.802475
O O12 0.183203 0.283802 0.165051
O O13 0.000000 0.000000 0.500000
O O14 0.821746 0.187407 0.987641
O O15 0.500000 0.000000 0.000000
O O16 0.056892 0.508174 0.658548
O O17 0.131095 0.620494 0.060441
#
# Coordination Sequence:
#
# PCOD9039821 Si02
#       8
#     2   2   2   2   2   1   2   2
#     4  12  28  49  79 114 158 205 258 325 395 468
#     4  11  25  45  73 115 156 203 259 322 388 462
#     4  10  23  42  71 104 146 202 255 311 386 457
#     4  12  21  46  72 102 153 201 260 320 374 466
#     4  12  27  45  73 113 151 208 261 321 392 463
#     4  12  26  50  74 110 154 194 264 312 392 464
#     4  11  25  51  74 110 159 206 261 320 394 467
#     4  12  26  50  77 112 153 209 259 320 395 466
#
# _framework density 23.833376000000001
#
# number of rings (size 3 to 8) (size 9 to 14) (size 15 to 20)
#    0.000    0.533    4.000    3.200    5.600    2.133 
#    2.400    0.000    0.000    0.000    0.000    0.000 
#    0.000    0.000    0.000    0.000    0.000    0.000 
#
# Total GULP energy -83512.706767 kJ/mol
# GULP energy per Si atom -5567.513784 kJ/mol
# Density = 2.377913 g / cm^3
# Si number density = 23.833376 Si / 1000 Ang^3
#
#
#
# Elastic Constant Matrix: (Units=GPa)
#
#
# Indices 1 2 3 4 5 6 
#
# 1 187.1108 37.9550 47.6095 -4.0648 8.1546 9.8129
# 2 37.9550 99.3312 61.7693 3.8958 19.3220 -9.2629
# 3 47.6095 61.7693 112.5815 1.9955 -6.6245 2.6657
# 4 -4.0648 3.8958 1.9955 38.2993 1.3765 14.6870
# 5 8.1546 19.3220 -6.6245 1.3765 39.5070 -6.6739
# 6 9.8129 -9.2629 2.6657 14.6870 -6.6739 47.5832
#
#
#
# Elastic Compliance Matrix: (Units=1/GPa)
#
#
# Indices 1 2 3 4 5 6 
#
# 1 0.006330 -0.001009 -0.002198 0.001772 -0.001606 -0.002151
# 2 -0.001009 0.019990 -0.011217 -0.002736 -0.010665 0.004077
# 3 -0.002198 -0.011217 0.016493 0.000352 0.008426 -0.001581
# 4 0.001772 -0.002736 0.000352 0.030710 -0.001838 -0.010654
# 5 -0.001606 -0.010665 0.008426 -0.001838 0.032836 0.002956
# 6 -0.002151 0.004077 -0.001581 -0.010654 0.002956 0.026045
#
#
# Mechanical properties :
#
#
# Convention : Reuss Voigt Hill
#
# Bulk Modulus (GPa) = 71.60720 77.07680 74.34200
# Shear Modulus (GPa) = 30.13746 41.85720 35.99733
#
# Velocity S-wave (km/s) = 3.55985 4.19530 3.89057
# Velocity P-wave (km/s) = 6.85615 7.47512 7.17232
#
# Compressibility (1/GPa) = 0.01396508
#
# Stress axis : x y z
#
# Youngs Moduli (GPa) = 157.98442 50.02464 60.63156
#
# Poissons Ratio (x) = 0.05049 0.13327
# Poissons Ratio (y) = 0.15947 0.68008
# Poissons Ratio (z) = 0.34725 0.56111
#
# Static dielectric constant tensor:
#      x y z
#    x 1.598560 -0.306320 -0.064290 
#    y -0.306320 1.841000 -0.116830 
#    z -0.064290 -0.116830 2.004140 
# 
# From -- ./inp_files/404644.got.cif
#   From: 2010.05.17/outbox.cif.g08.bks.cpg/sg2_203_cif.got.tgz:404644.got - 2010.06.03 11:33:40.
