data_PCOD9039041
_publ_section_title
;
Structure prediction by ZEFSAII (Michael W. Deem and Ramdas Pophale) SiO2 
 PCOD9039041
Probable space group: P -1
;
_chemical_formula_sum "Si O2"
_cell_formula_units_Z 16
_cell_length_a 13.862172
_cell_length_b 14.092967
_cell_length_c 14.635944
_cell_angle_alpha 135.465150
_cell_angle_beta 41.344996
_cell_angle_gamma 159.418502
_cell_volume 663.374289
_symmetry_space_group_name_H-M "P -1"
_symmetry_group_IT_number 2
_symmetry_cell_setting 'triclinic'
loop_
_space_group_symop_operation_xyz
x,y,z
-x,-y,-z
loop_
_atom_site_type_symbol
_atom_site_label
_atom_site_fract_x
_atom_site_fract_y
_atom_site_fract_z
Si Si1 0.196873 0.775796 0.009314
Si Si2 0.628675 0.695427 0.904164
Si Si3 0.860487 0.770440 0.205733
Si Si4 0.211170 0.857068 0.622797
Si Si5 0.857421 0.975696 0.508065
Si Si6 0.385068 0.609182 0.200289
Si Si7 0.981437 0.638003 0.435081
Si Si8 0.443010 0.868335 0.718264
O O1 0.044012 0.798105 0.142439
O O2 0.251962 0.794023 0.875086
O O3 0.000000 0.500000 0.000000
O O4 0.500000 0.000000 0.000000
O O5 0.653806 0.569350 0.847891
O O6 0.419122 0.514189 0.841489
O O7 0.932833 0.997814 0.859674
O O8 0.482734 0.670224 0.068637
O O9 0.778583 0.817863 0.370391
O O10 0.055427 0.739027 0.554066
O O11 0.937987 0.586535 0.692296
O O12 0.500000 0.000000 0.500000
O O13 0.357271 0.106387 0.734763
O O14 0.589339 0.852546 0.649924
O O15 0.070171 0.262745 0.514367
O O16 0.000000 0.000000 0.500000
O O17 0.725411 0.330744 0.383995
O O18 0.283548 0.828671 0.305636
#
# Coordination Sequence:
#
# PCOD9039041 Si02
#       8
#     2   2   2   2   2   2   2   2
#     4  12  26  47  67  96 139 184 231 290 350 409
#     4  11  25  46  71 103 136 182 230 294 353 409
#     4  12  26  42  73 103 137 181 241 288 343 427
#     4  12  25  42  70 105 142 185 234 280 354 424
#     4  10  24  42  69  99 132 176 234 281 342 406
#     4  11  24  45  72 100 144 179 230 291 352 416
#     4  10  23  42  65  98 136 178 222 291 332 409
#     4  10  24  42  67  93 135 180 218 280 353 400
#
# _framework density 24.119112999999999
#
# number of rings (size 3 to 8) (size 9 to 14) (size 15 to 20)
#    0.750    0.250    0.000    6.375    5.250    5.500 
#    0.000    0.000    0.000    0.000    0.000    0.000 
#    0.000    0.000    0.000    0.000    0.000    0.000 
#
# Total GULP energy -89579.431608 kJ/mol
# GULP energy per Si atom -5598.714476 kJ/mol
# Density = 2.406422 g / cm^3
# Si number density = 24.119113 Si / 1000 Ang^3
#
#
#
# Elastic Constant Matrix: (Units=GPa)
#
#
# Indices 1 2 3 4 5 6 
#
# 1 81.5459 1.5674 -5.1787 5.8687 -3.9983 9.0502
# 2 1.5674 113.3693 13.1299 0.4377 1.2282 9.0641
# 3 -5.1787 13.1299 81.9938 -8.4166 8.4719 -1.1165
# 4 5.8687 0.4377 -8.4166 33.5420 -3.2774 3.9241
# 5 -3.9983 1.2282 8.4719 -3.2774 29.6920 -5.1991
# 6 9.0502 9.0641 -1.1165 3.9241 -5.1991 33.4179
#
#
#
# Elastic Compliance Matrix: (Units=1/GPa)
#
#
# Indices 1 2 3 4 5 6 
#
# 1 0.012803 0.000012 0.000506 -0.001665 0.000848 -0.003126
# 2 0.000012 0.009206 -0.001488 -0.000235 -0.000434 -0.002590
# 3 0.000506 -0.001488 0.013106 0.002914 -0.003315 -0.000153
# 4 -0.001665 -0.000235 0.002914 0.031351 0.001930 -0.002769
# 5 0.000848 -0.000434 -0.003315 0.001930 0.035869 0.005131
# 6 -0.003126 -0.002590 -0.000153 -0.002769 0.005131 0.032591
#
#
# Mechanical properties :
#
#
# Convention : Reuss Voigt Hill
#
# Bulk Modulus (GPa) = 30.14467 32.88291 31.51379
# Shear Modulus (GPa) = 33.80092 37.15642 35.47867
#
# Velocity S-wave (km/s) = 3.74761 3.92923 3.83949
# Velocity P-wave (km/s) = 5.59030 5.85220 5.72275
#
# Compressibility (1/GPa) = 0.03317336
#
# Stress axis : x y z
#
# Youngs Moduli (GPa) = 78.10505 108.63007 76.30241
#
# Poissons Ratio (x) = -0.00126 -0.03859
# Poissons Ratio (y) = -0.00091 0.11353
# Poissons Ratio (z) = -0.03950 0.16163
#
# Static dielectric constant tensor:
#      x y z
#    x 1.978140 -0.015850 -0.057360 
#    y -0.015850 1.872900 -0.013670 
#    z -0.057360 -0.013670 1.908530 
# 
# From -- ./inp_files/534422.got.cif
#   From: 2010.05.17/outbox.cif.g08.bks.cpg/sg2_268_cif.got.tgz:534422.got - 2010.06.03 11:33:40.
