data_PCOD9039090
_publ_section_title
;
Structure prediction by ZEFSAII (Michael W. Deem and Ramdas Pophale) SiO2 
 PCOD9039090
Probable space group: P -1
;
_chemical_formula_sum "Si O2"
_cell_formula_units_Z 16
_cell_length_a 8.972198
_cell_length_b 11.600120
_cell_length_c 14.473436
_cell_angle_alpha 151.521706
_cell_angle_beta 112.447046
_cell_angle_gamma 68.780907
_cell_volume 662.672406
_symmetry_space_group_name_H-M "P -1"
_symmetry_group_IT_number 2
_symmetry_cell_setting 'triclinic'
loop_
_space_group_symop_operation_xyz
x,y,z
-x,-y,-z
loop_
_atom_site_type_symbol
_atom_site_label
_atom_site_fract_x
_atom_site_fract_y
_atom_site_fract_z
Si Si1 0.463570 0.834665 0.461452
Si Si2 0.090130 0.348334 0.632164
Si Si3 0.125568 0.812259 0.299219
Si Si4 0.475196 0.700724 0.847187
Si Si5 0.809353 0.567878 0.094138
Si Si6 0.595061 0.998951 0.248642
Si Si7 0.736073 0.525441 0.635871
Si Si8 0.190280 0.466237 0.543276
O O1 0.268344 0.844459 0.426770
O O2 0.506733 0.550707 0.268135
O O3 0.500000 0.000000 0.500000
O O4 0.517735 0.938216 0.644965
O O5 0.211255 0.426684 0.796747
O O6 0.179819 0.328532 0.541153
O O7 0.924489 0.514867 0.703580
O O8 0.044909 0.075706 0.449695
O O9 0.996038 0.634507 0.178628
O O10 0.203111 0.688692 0.138789
O O11 0.614105 0.664110 0.775822
O O12 0.296643 0.694610 0.756256
O O13 0.510643 0.909300 0.073506
O O14 0.708978 0.770202 0.152907
O O15 0.682099 0.247213 0.423391
O O16 0.730972 0.622332 0.597516
O O17 0.000000 0.500000 0.500000
#
# Coordination Sequence:
#
# PCOD9039090 Si02
#       8
#     2   2   2   2   2   2   2   2
#     4  11  23  37  57  92 133 170 199 242 312 378
#     4  11  21  38  64  91 132 168 203 257 311 365
#     4  11  21  35  59  91 130 172 201 242 306 373
#     4  11  23  41  66  92 123 164 211 259 313 369
#     4  11  21  34  61  95 129 162 206 248 305 377
#     4  11  22  38  64  94 128 162 205 256 307 374
#     4  10  23  42  66  91 120 168 218 260 305 359
#     4  10  24  46  67  89 119 165 215 264 317 366
#
# _framework density 24.144660999999999
#
# number of rings (size 3 to 8) (size 9 to 14) (size 15 to 20)
#    0.000    1.250    3.750    3.000    1.750    2.000 
#    0.000    1.250    0.000    9.000    0.000    0.000 
#    0.000    0.000    0.000    0.000    0.000    0.000 
#
# Total GULP energy -89392.273501 kJ/mol
# GULP energy per Si atom -5587.017094 kJ/mol
# Density = 2.408971 g / cm^3
# Si number density = 24.144661 Si / 1000 Ang^3
#
#
#
# Elastic Constant Matrix: (Units=GPa)
#
#
# Indices 1 2 3 4 5 6 
#
# 1 118.2938 41.5552 31.1200 -17.4567 -1.8923 6.6032
# 2 41.5552 134.2379 44.5619 -25.6575 -9.8521 14.4339
# 3 31.1200 44.5619 134.6502 -35.4104 -19.2692 4.8169
# 4 -17.4567 -25.6575 -35.4104 38.0530 0.0255 -4.5655
# 5 -1.8923 -9.8521 -19.2692 0.0255 24.3987 -11.6453
# 6 6.6032 14.4339 4.8169 -4.5655 -11.6453 43.5713
#
#
#
# Elastic Compliance Matrix: (Units=1/GPa)
#
#
# Indices 1 2 3 4 5 6 
#
# 1 0.009878 -0.002345 -0.001261 0.001679 -0.001572 -0.000825
# 2 -0.002345 0.009705 -0.001265 0.004074 0.001878 -0.001791
# 3 -0.001261 -0.001265 0.012258 0.010347 0.010572 0.003165
# 4 0.001679 0.004074 0.010347 0.039979 0.012142 0.004686
# 5 -0.001572 0.001878 0.010572 0.012142 0.057110 0.014983
# 6 -0.000825 -0.001791 0.003165 0.004686 0.014983 0.027815
#
#
# Mechanical properties :
#
#
# Convention : Reuss Voigt Hill
#
# Bulk Modulus (GPa) = 45.25397 69.07290 57.16344
# Shear Modulus (GPa) = 28.76004 39.20091 33.98048
#
# Velocity S-wave (km/s) = 3.45506 4.03374 3.75556
# Velocity P-wave (km/s) = 5.89068 7.09682 6.52169
#
# Compressibility (1/GPa) = 0.02209751
#
# Stress axis : x y z
#
# Youngs Moduli (GPa) = 101.23873 103.04461 81.58184
#
# Poissons Ratio (x) = 0.24164 0.10285
# Poissons Ratio (y) = 0.23740 0.10324
# Poissons Ratio (z) = 0.12763 0.13040
#
# Static dielectric constant tensor:
#      x y z
#    x 1.992480 0.005810 -0.045400 
#    y 0.005810 2.029640 -0.053030 
#    z -0.045400 -0.053030 1.920660 
# 
# From -- ./inp_files/501251.got.cif
#   From: 2010.05.17/outbox.cif.g08.bks.cpg/sg2_251_cif.got.tgz:501251.got - 2010.06.03 11:33:40.
