data_PCOD9039346
_publ_section_title
;
Structure prediction by ZEFSAII (Michael W. Deem and Ramdas Pophale) SiO2 
 PCOD9039346
Probable space group: P -1
;
_chemical_formula_sum "Si O2"
_cell_formula_units_Z 16
_cell_length_a 8.540488
_cell_length_b 24.039459
_cell_length_c 8.669164
_cell_angle_alpha 52.185726
_cell_angle_beta 127.361969
_cell_angle_gamma 146.912581
_cell_volume 749.484697
_symmetry_space_group_name_H-M "P -1"
_symmetry_group_IT_number 2
_symmetry_cell_setting 'triclinic'
loop_
_space_group_symop_operation_xyz
x,y,z
-x,-y,-z
loop_
_atom_site_type_symbol
_atom_site_label
_atom_site_fract_x
_atom_site_fract_y
_atom_site_fract_z
Si Si1 0.424751 0.442005 0.894892
Si Si2 0.416610 0.773301 0.947810
Si Si3 0.831462 0.972859 0.657284
Si Si4 0.921004 0.404312 0.532133
Si Si5 0.261552 0.968174 0.791113
Si Si6 0.707149 0.784024 0.384575
Si Si7 0.006214 0.422177 0.190103
Si Si8 0.057111 0.249220 0.179719
O O1 0.684326 0.520604 0.794506
O O2 0.142161 0.404761 0.723990
O O3 0.500000 0.500000 0.000000
O O4 0.327515 0.339827 0.074031
O O5 0.619190 0.889253 0.805913
O O6 0.254635 0.690681 0.852868
O O7 0.163172 0.743819 0.946320
O O8 0.601186 0.768203 0.173151
O O9 0.021487 0.955125 0.750420
O O10 0.651913 0.959741 0.428062
O O11 0.064977 0.093229 0.648638
O O12 0.591705 0.293486 0.563522
O O13 0.000000 0.500000 0.500000
O O14 0.975178 0.418577 0.359219
O O15 0.108440 0.859920 0.809245
O O16 0.500000 0.000000 0.000000
O O17 0.848707 0.749565 0.593095
O O18 0.000000 0.500000 0.000000
#
# Coordination Sequence:
#
# PCOD9039346 Si02
#       8
#     2   2   2   2   2   2   2   2
#     4  12  23  46  69 102 138 178 232 288 345 422
#     4  12  25  45  69 102 138 180 232 288 343 413
#     4  10  25  41  68 101 140 179 237 282 334 419
#     4  12  26  46  74  99 140 185 226 289 357 415
#     4  10  23  42  67  99 138 184 228 283 345 403
#     4  11  23  45  71  97 139 186 224 284 355 401
#     4  12  27  43  68 102 137 178 236 287 349 420
#     4  11  24  42  71  96 139 184 225 285 348 411
#
# _framework density 21.348002000000001
#
# number of rings (size 3 to 8) (size 9 to 14) (size 15 to 20)
#    0.000    0.750    2.500    4.500    7.000    3.000 
#    2.250    0.000    0.000    0.000    0.000    0.000 
#    0.000    0.000    0.000    0.000    0.000    0.000 
#
# Total GULP energy -89370.979099 kJ/mol
# GULP energy per Si atom -5585.686194 kJ/mol
# Density = 2.129941 g / cm^3
# Si number density = 21.348002 Si / 1000 Ang^3
#
#
#
# Elastic Constant Matrix: (Units=GPa)
#
#
# Indices 1 2 3 4 5 6 
#
# 1 58.6127 37.4168 33.2172 2.0301 -22.4105 -1.7356
# 2 37.4168 110.1268 60.9227 -8.2427 -16.9791 8.1106
# 3 33.2172 60.9227 179.3640 10.6788 -17.2949 8.2191
# 4 2.0301 -8.2427 10.6788 29.2665 8.7296 -3.2281
# 5 -22.4105 -16.9791 -17.2949 8.7296 45.7148 -6.4057
# 6 -1.7356 8.1106 8.2191 -3.2281 -6.4057 33.6931
#
#
#
# Elastic Compliance Matrix: (Units=1/GPa)
#
#
# Indices 1 2 3 4 5 6 
#
# 1 0.027805 -0.007811 -0.001143 -0.006809 0.012338 0.005285
# 2 -0.007811 0.014242 -0.003778 0.006090 -0.001498 -0.002610
# 3 -0.001143 -0.003778 0.007528 -0.004317 0.001554 -0.001104
# 4 -0.006809 0.006090 -0.004317 0.041167 -0.010401 0.001203
# 5 0.012338 -0.001498 0.001554 -0.010401 0.030706 0.005458
# 6 0.005285 -0.002610 -0.001104 0.001203 0.005458 0.032003
#
#
# Mechanical properties :
#
#
# Convention : Reuss Voigt Hill
#
# Bulk Modulus (GPa) = 41.47810 67.91298 54.69554
# Shear Modulus (GPa) = 26.74497 36.17134 31.45815
#
# Velocity S-wave (km/s) = 3.54334 4.12073 3.84290
# Velocity P-wave (km/s) = 6.01765 7.38390 6.73551
#
# Compressibility (1/GPa) = 0.02410911
#
# Stress axis : x y z
#
# Youngs Moduli (GPa) = 35.96439 70.21669 132.84297
#
# Poissons Ratio (x) = 0.54848 0.15189
# Poissons Ratio (y) = 0.28093 0.50190
# Poissons Ratio (z) = 0.04112 0.26529
#
# Static dielectric constant tensor:
#      x y z
#    x 1.453480 0.102370 0.320170 
#    y 0.102370 1.782280 -0.062600 
#    z 0.320170 -0.062600 1.459300 
# 
# From -- ./inp_files/226199.got.cif
#   From: 2010.05.17/outbox.cif.g08.bks.cpg/sg2_114_cif.got.tgz:226199.got - 2010.06.03 11:33:40.
