data_PCOD9039588
_publ_section_title
;
Structure prediction by ZEFSAII (Michael W. Deem and Ramdas Pophale) SiO2 
 PCOD9039588
Probable space group: P -1
;
_chemical_formula_sum "Si O2"
_cell_formula_units_Z 14
_cell_length_a 5.332389
_cell_length_b 9.009795
_cell_length_c 14.830108
_cell_angle_alpha 109.449157
_cell_angle_beta 122.992551
_cell_angle_gamma 85.111091
_cell_volume 559.323051
_symmetry_space_group_name_H-M "P -1"
_symmetry_group_IT_number 2
_symmetry_cell_setting 'triclinic'
loop_
_space_group_symop_operation_xyz
x,y,z
-x,-y,-z
loop_
_atom_site_type_symbol
_atom_site_label
_atom_site_fract_x
_atom_site_fract_y
_atom_site_fract_z
Si Si1 0.282707 0.341558 0.901020
Si Si2 0.376893 0.099339 0.737252
Si Si3 0.237564 0.561049 0.636071
Si Si4 0.396551 0.882104 0.535011
Si Si5 0.959875 0.957005 0.088330
Si Si6 0.971573 0.152357 0.282447
Si Si7 0.851731 0.414030 0.689925
O O1 0.411004 0.275852 0.818580
O O2 0.231507 0.207404 0.944390
O O3 0.966965 0.382332 0.806220
O O4 0.500000 0.500000 0.000000
O O5 0.700719 0.050231 0.813817
O O6 0.292141 0.011096 0.609871
O O7 0.101693 0.025217 0.730331
O O8 0.242375 0.749947 0.680534
O O9 0.541400 0.489153 0.658646
O O10 0.000000 0.500000 0.500000
O O11 0.090563 0.525190 0.698995
O O12 0.192996 0.739704 0.416092
O O13 0.679163 0.800860 0.615962
O O14 0.500000 0.000000 0.500000
O O15 0.871826 0.116006 0.153099
O O16 0.000000 0.000000 0.000000
#
# Coordination Sequence:
#
# PCOD9039588 Si02
#       7
#     2   2   2   2   2   2   2
#     4  11  28  52  74 113 156 209 267 331 397 475
#     4  10  23  44  74 104 151 192 260 317 393 468
#     4  12  26  46  75 115 162 205 260 319 402 485
#     4  11  23  41  72 108 147 196 252 316 396 476
#     4  10  24  47  80 107 146 200 274 332 392 465
#     4  10  23  42  69 109 149 196 250 324 387 478
#     4  12  28  46  78 113 159 212 257 325 406 470
#
# _framework density 25.030258
#
# number of rings (size 3 to 8) (size 9 to 14) (size 15 to 20)
#    0.000    1.143    1.429    3.857    8.000    6.286 
#    0.000    0.000    0.000    0.000    0.000    0.000 
#    0.000    0.000    0.000    0.000    0.000    0.000 
#
# Total GULP energy -78042.412256 kJ/mol
# GULP energy per Si atom -5574.458018 kJ/mol
# Density = 2.497329 g / cm^3
# Si number density = 25.030258 Si / 1000 Ang^3
#
#
#
# Elastic Constant Matrix: (Units=GPa)
#
#
# Indices 1 2 3 4 5 6 
#
# 1 115.9547 44.5589 56.6034 -2.9648 -17.8092 -10.1589
# 2 44.5589 94.7986 68.0254 8.8387 -2.3443 -2.5459
# 3 56.6034 68.0254 173.6627 20.8756 -18.3728 -6.4278
# 4 -2.9648 8.8387 20.8756 47.9623 -0.0749 -9.2628
# 5 -17.8092 -2.3443 -18.3728 -0.0749 42.1230 1.4295
# 6 -10.1589 -2.5459 -6.4278 -9.2628 1.4295 54.2017
#
#
#
# Elastic Compliance Matrix: (Units=1/GPa)
#
#
# Indices 1 2 3 4 5 6 
#
# 1 0.012196 -0.004312 -0.002140 0.002916 0.003913 0.002225
# 2 -0.004312 0.016326 -0.005213 -0.001161 -0.003164 -0.000775
# 3 -0.002140 -0.005213 0.009172 -0.003194 0.002806 -0.000178
# 4 0.002916 -0.001161 -0.003194 0.023430 -0.000323 0.004126
# 5 0.003913 -0.003164 0.002806 -0.000323 0.026436 0.000165
# 6 0.002225 -0.000775 -0.000178 0.004126 0.000165 0.019510
#
#
# Mechanical properties :
#
#
# Convention : Reuss Voigt Hill
#
# Bulk Modulus (GPa) = 69.62615 80.31015 74.96815
# Shear Modulus (GPa) = 36.98507 43.20595 40.09551
#
# Velocity S-wave (km/s) = 3.84815 4.15920 4.00669
# Velocity P-wave (km/s) = 6.90083 7.43103 7.17083
#
# Compressibility (1/GPa) = 0.01436242
#
# Stress axis : x y z
#
# Youngs Moduli (GPa) = 81.99147 61.25296 109.02482
#
# Poissons Ratio (x) = 0.26414 0.23335
# Poissons Ratio (y) = 0.35357 0.56839
# Poissons Ratio (z) = 0.17549 0.31933
#
# Static dielectric constant tensor:
#      x y z
#    x 1.935160 0.339360 0.383980 
#    y 0.339360 1.450050 -0.904100 
#    z 0.383980 -0.904100 1.028330 
# 
# From -- ./inp_files/106755.got.cif
#   From: 2010.05.17/outbox.cif.g08.bks.cpg/sg2_54_cif.got.tgz:106755.got - 2010.06.03 11:33:40.
