data_PCOD9039252
_publ_section_title
;
Structure prediction by ZEFSAII (Michael W. Deem and Ramdas Pophale) SiO2 
 PCOD9039252
Probable space group: P -1
;
_chemical_formula_sum "Si O2"
_cell_formula_units_Z 14
_cell_length_a 8.238545
_cell_length_b 5.439037
_cell_length_c 17.487774
_cell_angle_alpha 60.694404
_cell_angle_beta 58.634528
_cell_angle_gamma 66.509571
_cell_volume 572.487026
_symmetry_space_group_name_H-M "P -1"
_symmetry_group_IT_number 2
_symmetry_cell_setting 'triclinic'
loop_
_space_group_symop_operation_xyz
x,y,z
-x,-y,-z
loop_
_atom_site_type_symbol
_atom_site_label
_atom_site_fract_x
_atom_site_fract_y
_atom_site_fract_z
Si Si1 0.764291 0.300287 0.303351
Si Si2 0.701749 0.672235 0.589160
Si Si3 0.279288 0.658313 0.519305
Si Si4 0.100461 0.776935 0.267146
Si Si5 0.263785 0.722559 0.952264
Si Si6 0.958751 0.784605 0.140569
Si Si7 0.628264 0.841142 0.924673
O O1 0.533598 0.304127 0.352414
O O2 0.803653 0.376433 0.370861
O O3 0.831639 0.538993 0.195700
O O4 0.898165 0.988021 0.305716
O O5 0.777098 0.504970 0.517017
O O6 0.810711 0.472260 0.659258
O O7 0.738151 0.997561 0.538285
O O8 0.500000 0.500000 0.500000
O O9 0.073692 0.671560 0.204815
O O10 0.254835 0.980810 0.183608
O O11 0.484428 0.723834 0.918971
O O12 0.194949 0.913929 0.866689
O O13 0.233177 0.401867 0.022479
O O14 0.127902 0.860244 0.034236
O O15 0.500000 0.000000 0.000000
#
# Coordination Sequence:
#
# PCOD9039252 Si02
#       7
#     2   2   2   2   2   2   2
#     4  11  25  46  71 101 143 177 239 295 352 427
#     4  11  27  48  76 105 145 191 234 293 364 428
#     4  10  24  49  77 105 143 191 234 291 366 429
#     4  12  27  42  70 106 137 184 241 291 353 429
#     4  10  23  42  67  90 138 183 230 291 354 414
#     4  11  24  42  65 102 133 179 238 294 347 420
#     4  11  22  44  63  96 136 182 231 286 352 420
#
# _framework density 24.454704
#
# number of rings (size 3 to 8) (size 9 to 14) (size 15 to 20)
#    0.000    1.143    2.857    2.571    8.000    4.000 
#    0.000    0.000    0.000    0.000    0.000    0.000 
#    0.000    0.000    0.000    0.000    0.000    0.000 
#
# Total GULP energy -78137.498932 kJ/mol
# GULP energy per Si atom -5581.249924 kJ/mol
# Density = 2.439904 g / cm^3
# Si number density = 24.454704 Si / 1000 Ang^3
#
#
#
# Elastic Constant Matrix: (Units=GPa)
#
#
# Indices 1 2 3 4 5 6 
#
# 1 81.1312 33.0549 53.7805 -11.3214 2.6202 -17.1798
# 2 33.0549 84.6703 17.5565 -31.3908 13.4239 -8.0930
# 3 53.7805 17.5565 102.3879 -37.2976 1.5019 -14.3813
# 4 -11.3214 -31.3908 -37.2976 49.4058 -7.8148 6.7247
# 5 2.6202 13.4239 1.5019 -7.8148 51.2524 -7.7249
# 6 -17.1798 -8.0930 -14.3813 6.7247 -7.7249 35.2527
#
#
#
# Elastic Compliance Matrix: (Units=1/GPa)
#
#
# Indices 1 2 3 4 5 6 
#
# 1 0.028265 -0.012667 -0.017333 -0.015436 0.001079 0.006976
# 2 -0.012667 0.021668 0.009165 0.017528 -0.002838 -0.001426
# 3 -0.017333 0.009165 0.024852 0.020754 0.000928 0.000039
# 4 -0.015436 0.017528 0.020754 0.044220 0.001872 -0.003057
# 5 0.001079 -0.002838 0.000928 0.001872 0.021140 0.004528
# 6 0.006976 -0.001426 0.000039 -0.003057 0.004528 0.033031
#
#
# Mechanical properties :
#
#
# Convention : Reuss Voigt Hill
#
# Bulk Modulus (GPa) = 30.20002 52.99702 41.59852
# Shear Modulus (GPa) = 22.13517 38.10202 30.11860
#
# Velocity S-wave (km/s) = 3.01183 3.95152 3.51323
# Velocity P-wave (km/s) = 4.94682 6.52210 5.78830
#
# Compressibility (1/GPa) = 0.03311257
#
# Stress axis : x y z
#
# Youngs Moduli (GPa) = 35.37919 46.15196 40.23830
#
# Poissons Ratio (x) = 0.58463 0.69747
# Poissons Ratio (y) = 0.44816 -0.36877
# Poissons Ratio (z) = 0.61324 -0.42297
#
# Static dielectric constant tensor:
#      x y z
#    x 1.933220 0.156140 0.013740 
#    y 0.156140 2.010890 -0.076260 
#    z 0.013740 -0.076260 1.979170 
# 
# From -- ./inp_files/47326.got.cif
#   From: 2010.05.17/outbox.cif.g08.bks.cpg/sg2_24_cif.got.tgz:47326.got - 2010.06.03 11:33:40.
