data_PCOD9039435
_publ_section_title
;
Structure prediction by ZEFSAII (Michael W. Deem and Ramdas Pophale) SiO2 
 PCOD9039435
Probable space group: P -1
;
_chemical_formula_sum "Si O2"
_cell_formula_units_Z 16
_cell_length_a 14.600577
_cell_length_b 14.272882
_cell_length_c 4.954154
_cell_angle_alpha 81.322592
_cell_angle_beta 74.601315
_cell_angle_gamma 46.692142
_cell_volume 723.572341
_symmetry_space_group_name_H-M "P -1"
_symmetry_group_IT_number 2
_symmetry_cell_setting 'triclinic'
loop_
_space_group_symop_operation_xyz
x,y,z
-x,-y,-z
loop_
_atom_site_type_symbol
_atom_site_label
_atom_site_fract_x
_atom_site_fract_y
_atom_site_fract_z
Si Si1 0.564126 0.403993 0.245945
Si Si2 0.596024 0.665273 0.709229
Si Si3 0.858436 0.166023 0.222183
Si Si4 0.967211 0.706145 0.211442
Si Si5 0.973110 0.902239 0.382291
Si Si6 0.226237 0.464410 0.893475
Si Si7 0.150113 0.304807 0.209262
Si Si8 0.434602 0.094854 0.262587
O O1 0.500000 0.500000 0.500000
O O2 0.517104 0.327122 0.297454
O O3 0.716513 0.302525 0.229588
O O4 0.500000 0.500000 0.000000
O O5 0.711576 0.583490 0.431048
O O6 0.550119 0.802899 0.746593
O O7 0.657954 0.588396 0.973284
O O8 0.955629 0.152735 0.361533
O O9 0.921176 0.127280 0.894619
O O10 0.860917 0.056963 0.387590
O O11 0.934743 0.827471 0.323977
O O12 0.957903 0.639130 0.500827
O O13 0.876586 0.736584 0.022017
O O14 0.171813 0.397283 0.049325
O O15 0.107826 0.611981 0.000812
O O16 0.281645 0.185235 0.305086
O O17 0.500000 0.000000 0.500000
O O18 0.500000 0.000000 0.000000
#
# Coordination Sequence:
#
# PCOD9039435 Si02
#       8
#     2   2   2   2   2   2   2   2
#     4  12  27  43  69 101 136 179 229 282 338 398
#     4  11  25  44  64 101 130 176 225 268 341 399
#     4  10  23  45  64  92 136 166 222 285 334 396
#     4  12  23  38  67  97 126 172 223 263 328 397
#     4  10  23  42  68  94 126 179 217 275 346 388
#     4  11  23  41  66  91 141 168 210 270 335 399
#     4  11  23  40  59  99 132 164 217 268 322 394
#     4  11  23  43  68  92 131 178 215 271 333 398
#
# _framework density 22.112507000000001
#
# number of rings (size 3 to 8) (size 9 to 14) (size 15 to 20)
#    0.000    1.000    0.000    7.500    5.250    2.000 
#    0.000    0.000    0.000    0.000    0.000    0.000 
#    0.000    0.000    0.000    0.000    0.000    0.000 
#
# Total GULP energy -89437.646889 kJ/mol
# GULP energy per Si atom -5589.852931 kJ/mol
# Density = 2.206218 g / cm^3
# Si number density = 22.112507 Si / 1000 Ang^3
#
#
#
# Elastic Constant Matrix: (Units=GPa)
#
#
# Indices 1 2 3 4 5 6 
#
# 1 80.4594 15.1313 14.5106 -3.6986 20.7063 20.2039
# 2 15.1313 84.9340 35.3278 -3.1336 9.6678 4.4836
# 3 14.5106 35.3278 135.1208 6.6084 22.2835 7.2832
# 4 -3.6986 -3.1336 6.6084 40.5784 -2.8715 6.0453
# 5 20.7063 9.6678 22.2835 -2.8715 40.6767 6.8095
# 6 20.2039 4.4836 7.2832 6.0453 6.8095 27.7843
#
#
#
# Elastic Compliance Matrix: (Units=1/GPa)
#
#
# Indices 1 2 3 4 5 6 
#
# 1 0.017360 -0.001715 0.000123 0.002674 -0.006401 -0.011392
# 2 -0.001715 0.013589 -0.003365 0.001459 -0.000361 -0.000292
# 3 0.000123 -0.003365 0.009099 -0.001969 -0.004312 -0.000446
# 4 0.002674 0.001459 -0.001969 0.026715 0.002615 -0.008117
# 5 -0.006401 -0.000361 -0.004312 0.002615 0.030858 -0.002289
# 6 -0.011392 -0.000292 -0.000446 -0.008117 -0.002289 0.046767
#
#
# Mechanical properties :
#
#
# Convention : Reuss Voigt Hill
#
# Bulk Modulus (GPa) = 33.18521 47.82819 40.50670
# Shear Modulus (GPa) = 30.42349 37.51084 33.96717
#
# Velocity S-wave (km/s) = 3.71327 4.12316 3.92357
# Velocity P-wave (km/s) = 5.78139 6.65911 6.23571
#
# Compressibility (1/GPa) = 0.03013390
#
# Stress axis : x y z
#
# Youngs Moduli (GPa) = 57.60435 73.58670 109.90553
#
# Poissons Ratio (x) = 0.12622 -0.01352
# Poissons Ratio (y) = 0.09881 0.36981
# Poissons Ratio (z) = -0.00709 0.24760
#
# Static dielectric constant tensor:
#      x y z
#    x 1.840190 0.063520 -0.037740 
#    y 0.063520 2.083200 0.038260 
#    z -0.037740 0.038260 1.790000 
# 
# From -- ./inp_files/97004.got.cif
#   From: 2010.05.17/outbox.cif.g08.bks.cpg/sg2_49_cif.got.tgz:97004.got - 2010.06.03 11:33:40.
