data_PCOD9039122
_publ_section_title
;
Structure prediction by ZEFSAII (Michael W. Deem and Ramdas Pophale) SiO2 
 PCOD9039122
Probable space group: P -1
;
_chemical_formula_sum "Si O2"
_cell_formula_units_Z 16
_cell_length_a 9.394787
_cell_length_b 15.786094
_cell_length_c 19.733307
_cell_angle_alpha 38.110518
_cell_angle_beta 139.670257
_cell_angle_gamma 154.157381
_cell_volume 771.195804
_symmetry_space_group_name_H-M "P -1"
_symmetry_group_IT_number 2
_symmetry_cell_setting 'triclinic'
loop_
_space_group_symop_operation_xyz
x,y,z
-x,-y,-z
loop_
_atom_site_type_symbol
_atom_site_label
_atom_site_fract_x
_atom_site_fract_y
_atom_site_fract_z
Si Si1 0.447733 0.570653 0.748281
Si Si2 0.374811 0.040297 0.987604
Si Si3 0.637553 0.696381 0.886347
Si Si4 0.300768 0.838384 0.222280
Si Si5 0.415894 0.021284 0.289620
Si Si6 0.392939 0.339341 0.759453
Si Si7 0.354392 0.048428 0.463804
Si Si8 0.412706 0.317182 0.620827
O O1 0.670986 0.679879 0.828699
O O2 0.541052 0.525285 0.745092
O O3 0.432663 0.716531 0.621495
O O4 0.095784 0.351138 0.787792
O O5 0.403701 0.978258 0.107855
O O6 0.516648 0.257726 0.891673
O O7 0.500000 0.000000 0.000000
O O8 0.987905 0.882968 0.931554
O O9 0.463156 0.764858 0.787461
O O10 0.500000 0.500000 0.000000
O O11 0.398299 0.726925 0.312347
O O12 0.456169 0.985899 0.250688
O O13 0.603015 0.997371 0.418410
O O14 0.014378 0.831426 0.279588
O O15 0.478270 0.368969 0.692301
O O16 0.500000 0.000000 0.500000
O O17 0.975882 0.896062 0.400273
O O18 0.500000 0.500000 0.500000
#
# Coordination Sequence:
#
# PCOD9039122 Si02
#       8
#     2   2   2   2   2   2   2   2
#     4  11  24  41  68  94 126 167 220 259 310 378
#     4  11  22  43  65  88 135 168 203 264 325 371
#     4  11  22  39  65  95 122 163 218 260 306 378
#     4  11  25  42  65  97 126 169 212 262 322 375
#     4  10  24  41  67  93 124 170 216 258 314 378
#     4  10  23  42  66  95 125 171 213 256 318 382
#     4  12  22  44  67  90 131 170 211 264 311 376
#     4  12  26  43  65  96 132 167 209 262 324 379
#
# _framework density 20.747001000000001
#
# number of rings (size 3 to 8) (size 9 to 14) (size 15 to 20)
#    0.000    1.000    5.000    1.500    3.500    3.000 
#    0.000    0.625    0.000    0.000    0.000    0.000 
#    0.000    0.000    0.000    0.000    0.000    0.000 
#
# Total GULP energy -89306.479919 kJ/mol
# GULP energy per Si atom -5581.654995 kJ/mol
# Density = 2.069978 g / cm^3
# Si number density = 20.747001 Si / 1000 Ang^3
#
#
#
# Elastic Constant Matrix: (Units=GPa)
#
#
# Indices 1 2 3 4 5 6 
#
# 1 94.8205 11.1484 35.7593 -9.3439 -18.8191 -34.4235
# 2 11.1484 13.8835 16.0862 -16.1611 -15.2985 -27.0410
# 3 35.7593 16.0862 138.3736 -26.7817 -26.2412 -28.7982
# 4 -9.3439 -16.1611 -26.7817 35.2068 -7.9092 5.3252
# 5 -18.8191 -15.2985 -26.2412 -7.9092 38.0568 1.0905
# 6 -34.4235 -27.0410 -28.7982 5.3252 1.0905 38.0683
#
#
#
# Elastic Compliance Matrix: (Units=1/GPa)
#
#
# Indices 1 2 3 4 5 6 
#
# 1 0.012684 -0.012383 -0.002921 -0.005136 -0.001822 0.001235
# 2 -0.012383 -0.023508 -0.010062 -0.022881 -0.026363 -0.031552
# 3 -0.002921 -0.010062 0.009247 0.002456 0.001489 -0.003179
# 4 -0.005136 -0.022881 0.002456 0.020540 -0.005152 -0.021765
# 5 -0.001822 -0.026363 0.001489 -0.005152 0.015277 -0.018965
# 6 0.001235 -0.031552 -0.003179 -0.021765 -0.018965 0.006156
#
#
# Mechanical properties :
#
#
# Convention : Reuss Voigt Hill
#
# Bulk Modulus (GPa) = -19.11754 41.45171 11.16708
# Shear Modulus (GPa) = 67.85043 34.53861 51.19452
#
# Velocity S-wave (km/s) = 5.72492 4.08456 4.97285
# Velocity P-wave (km/s) = 5.87069 6.50137 6.19407
#
# Compressibility (1/GPa) = -0.05230797
#
# Stress axis : x y z
#
# Youngs Moduli (GPa) = 78.83836 -42.53805 108.13856
#
# Poissons Ratio (x) = -0.52675 0.31588
# Poissons Ratio (y) = 0.97625 1.08804
# Poissons Ratio (z) = 0.23029 -0.42800
#
# Static dielectric constant tensor:
#      x y z
#    x 1.723060 0.021770 0.049860 
#    y 0.021770 1.842490 0.040090 
#    z 0.049860 0.040090 1.784060 
# 
# From -- ./inp_files/178224.got.cif
#   From: 2010.05.17/outbox.cif.g08.bks.cpg/sg2_90_cif.got.tgz:178224.got - 2010.06.03 11:33:40.
