data_PCOD9039905
_publ_section_title
;
Structure prediction by ZEFSAII (Michael W. Deem and Ramdas Pophale) SiO2 
 PCOD9039905
Probable space group: P -1
;
_chemical_formula_sum "Si O2"
_cell_formula_units_Z 16
_cell_length_a 13.029563
_cell_length_b 14.076868
_cell_length_c 8.670633
_cell_angle_alpha 62.660926
_cell_angle_beta 137.595201
_cell_angle_gamma 138.549178
_cell_volume 693.960690
_symmetry_space_group_name_H-M "P -1"
_symmetry_group_IT_number 2
_symmetry_cell_setting 'triclinic'
loop_
_space_group_symop_operation_xyz
x,y,z
-x,-y,-z
loop_
_atom_site_type_symbol
_atom_site_label
_atom_site_fract_x
_atom_site_fract_y
_atom_site_fract_z
Si Si1 0.499847 0.373983 0.614584
Si Si2 0.786070 0.370985 0.773422
Si Si3 0.334786 0.914057 0.027166
Si Si4 0.523418 0.655666 0.056106
Si Si5 0.275553 0.052072 0.120875
Si Si6 0.025905 0.224083 0.492688
Si Si7 0.171925 0.068769 0.324878
Si Si8 0.139742 0.498316 0.545251
O O1 0.500000 0.500000 0.500000
O O2 0.652503 0.411353 0.623421
O O3 0.583591 0.380707 0.869862
O O4 0.300877 0.203101 0.487894
O O5 0.803050 0.381885 0.602589
O O6 0.685430 0.218986 0.850367
O O7 0.000000 0.500000 0.000000
O O8 0.356165 0.988063 0.160018
O O9 0.111792 0.847067 0.761764
O O10 0.500000 0.000000 0.000000
O O11 0.726634 0.682810 0.306868
O O12 0.625245 0.807211 0.977557
O O13 0.338858 0.538995 0.820047
O O14 0.023516 0.947516 0.918767
O O15 0.307490 0.095942 0.305602
O O16 0.009719 0.337558 0.449648
O O17 0.921741 0.084423 0.591208
O O18 0.000000 0.500000 0.500000
#
# Coordination Sequence:
#
# PCOD9039905 Si02
#       8
#     2   2   2   2   2   2   2   2
#     4  12  26  45  74 103 143 190 250 301 370 440
#     4  12  26  47  69 108 146 190 247 302 371 455
#     4  12  26  45  77 108 151 198 247 306 385 445
#     4  11  24  45  71 104 140 191 248 304 365 437
#     4  10  23  42  72 103 147 186 243 306 368 439
#     4  11  24  46  72 104 147 191 248 301 368 443
#     4  10  23  44  69 108 140 188 248 306 366 438
#     4  12  27  45  71 105 149 194 242 308 377 440
#
# _framework density 23.056059999999999
#
# number of rings (size 3 to 8) (size 9 to 14) (size 15 to 20)
#    0.000    0.750    1.250    5.625    5.250    5.000 
#    0.000    1.875    0.000    0.000    0.000    0.000 
#    0.000    0.000    0.000    0.000    0.000    0.000 
#
# Total GULP energy -89232.672743 kJ/mol
# GULP energy per Si atom -5577.042046 kJ/mol
# Density = 2.300358 g / cm^3
# Si number density = 23.056060 Si / 1000 Ang^3
#
#
#
# Elastic Constant Matrix: (Units=GPa)
#
#
# Indices 1 2 3 4 5 6 
#
# 1 126.7355 45.3719 13.2992 -14.9577 -12.3360 -1.6701
# 2 45.3719 119.5928 20.0754 -15.1906 -13.2514 -5.4163
# 3 13.2992 20.0754 95.0898 0.3242 -15.7310 8.9501
# 4 -14.9577 -15.1906 0.3242 38.1545 4.0579 -5.0363
# 5 -12.3360 -13.2514 -15.7310 4.0579 40.5696 -5.8769
# 6 -1.6701 -5.4163 8.9501 -5.0363 -5.8769 36.5112
#
#
#
# Elastic Compliance Matrix: (Units=1/GPa)
#
#
# Indices 1 2 3 4 5 6 
#
# 1 0.009465 -0.002989 -0.000509 0.002452 0.001561 0.000704
# 2 -0.002989 0.010520 -0.001742 0.003171 0.001911 0.002596
# 3 -0.000509 -0.001742 0.011829 -0.001754 0.003627 -0.002839
# 4 0.002452 0.003171 -0.001754 0.029208 -0.001116 0.004862
# 5 0.001561 0.001911 0.003627 -0.001116 0.027815 0.003789
# 6 0.000704 0.002596 -0.002839 0.004862 0.003789 0.029783
#
#
# Mechanical properties :
#
#
# Convention : Reuss Voigt Hill
#
# Bulk Modulus (GPa) = 46.87544 55.43456 51.15500
# Shear Modulus (GPa) = 36.70804 40.55849 38.63326
#
# Velocity S-wave (km/s) = 3.99447 4.19874 4.09788
# Velocity P-wave (km/s) = 6.45365 6.89938 6.68023
#
# Compressibility (1/GPa) = 0.02133313
#
# Stress axis : x y z
#
# Youngs Moduli (GPa) = 105.65798 95.05536 84.54086
#
# Poissons Ratio (x) = 0.28412 0.04303
# Poissons Ratio (y) = 0.31582 0.14727
# Poissons Ratio (z) = 0.05378 0.16559
#
# Static dielectric constant tensor:
#      x y z
#    x 1.959950 0.010990 -0.017170 
#    y 0.010990 1.780300 0.034990 
#    z -0.017170 0.034990 1.933540 
# 
# From -- ./inp_files/312893.got.cif
#   From: 2010.05.17/outbox.cif.g08.bks.cpg/sg2_157_cif.got.tgz:312893.got - 2010.06.03 11:33:40.
