data_PCOD9039044
_publ_section_title
;
Structure prediction by ZEFSAII (Michael W. Deem and Ramdas Pophale) SiO2 
 PCOD9039044
Probable space group: P -1
;
_chemical_formula_sum "Si O2"
_cell_formula_units_Z 13
_cell_length_a 5.144170
_cell_length_b 12.298383
_cell_length_c 9.636783
_cell_angle_alpha 65.697984
_cell_angle_beta 53.769238
_cell_angle_gamma 68.016682
_cell_volume 441.025074
_symmetry_space_group_name_H-M "P -1"
_symmetry_group_IT_number 2
_symmetry_cell_setting 'triclinic'
loop_
_space_group_symop_operation_xyz
x,y,z
-x,-y,-z
loop_
_atom_site_type_symbol
_atom_site_label
_atom_site_fract_x
_atom_site_fract_y
_atom_site_fract_z
Si Si1 0.031992 0.601044 0.699296
Si Si2 0.288740 0.362196 0.499786
Si Si3 0.156980 0.798479 0.733100
Si Si4 0.142586 0.637180 0.099469
Si Si5 0.482980 0.051651 0.779181
Si Si6 0.272267 0.837868 0.111129
Si Si7 0.500000 0.000000 0.500000
O O1 0.410741 0.565975 0.640193
O O2 0.952327 0.737147 0.715128
O O3 0.823154 0.504899 0.873171
O O4 0.984768 0.598604 0.550089
O O5 0.474555 0.236070 0.437307
O O6 0.162173 0.354655 0.698472
O O7 0.187157 0.933161 0.694880
O O8 0.127977 0.717506 0.922630
O O9 0.370034 0.701579 0.095772
O O10 0.665642 0.144934 0.755675
O O11 0.632159 0.010502 0.607543
O O12 0.102095 0.115454 0.843345
O O13 0.486041 0.927349 0.927719
#
# Coordination Sequence:
#
# PCOD9039044 Si02
#       7
#     2   2   2   2   2   2   1
#     4  10  25  49  70 103 147 178 237 292 348 415
#     4  10  25  47  68 106 141 183 232 294 344 420
#     4  10  26  46  69 109 138 188 234 294 342 425
#     4  12  22  46  74 104 139 193 227 288 361 415
#     4  10  23  44  64  96 138 170 226 281 329 410
#     4  10  23  42  65  99 129 176 227 274 334 412
#     4  12  22  48  70 102 140 184 228 290 352 402
#
# _framework density 29.476780000000002
#
# number of rings (size 3 to 8) (size 9 to 14) (size 15 to 20)
#    0.923    0.615    1.538    2.308    2.154    2.462 
#    8.308    0.000    0.000    0.000    0.000    0.000 
#    0.000    0.000    0.000    0.000    0.000    0.000 
#
# Total GULP energy -72467.991581 kJ/mol
# GULP energy per Si atom -5574.460891 kJ/mol
# Density = 2.940969 g / cm^3
# Si number density = 29.476780 Si / 1000 Ang^3
#
#
#
# Elastic Constant Matrix: (Units=GPa)
#
#
# Indices 1 2 3 4 5 6 
#
# 1 119.9628 64.9607 20.7362 -7.2238 -8.6179 43.6053
# 2 64.9607 184.9795 41.0177 -15.0781 12.4355 52.8188
# 3 20.7362 41.0177 166.1768 -9.9292 -3.3861 25.9874
# 4 -7.2238 -15.0781 -9.9292 66.3903 17.0476 -0.5114
# 5 -8.6179 12.4355 -3.3861 17.0476 49.9058 11.4539
# 6 43.6053 52.8188 25.9874 -0.5114 11.4539 68.8346
#
#
#
# Elastic Compliance Matrix: (Units=1/GPa)
#
#
# Indices 1 2 3 4 5 6 
#
# 1 0.012577 -0.002945 0.000249 -0.000495 0.004600 -0.006570
# 2 -0.002945 0.007968 -0.000993 0.001938 -0.002431 -0.003455
# 3 0.000249 -0.000993 0.006605 0.000507 0.001038 -0.002059
# 4 -0.000495 0.001938 0.000507 0.017154 -0.006352 -0.000181
# 5 0.004600 -0.002431 0.001038 -0.006352 0.024973 -0.005643
# 6 -0.006570 -0.003455 -0.002059 -0.000181 -0.005643 0.023055
#
#
# Mechanical properties :
#
#
# Convention : Reuss Voigt Hill
#
# Bulk Modulus (GPa) = 50.57613 80.50535 65.54074
# Shear Modulus (GPa) = 47.03596 59.98643 53.51120
#
# Velocity S-wave (km/s) = 3.99895 4.51604 4.26534
# Velocity P-wave (km/s) = 6.20623 7.38671 6.82205
#
# Compressibility (1/GPa) = 0.01977217
#
# Stress axis : x y z
#
# Youngs Moduli (GPa) = 79.51296 125.49554 151.40003
#
# Poissons Ratio (x) = 0.36964 -0.03774
# Poissons Ratio (y) = 0.23420 0.15030
# Poissons Ratio (z) = -0.01982 0.12458
#
# Static dielectric constant tensor:
#      x y z
#    x 2.387290 -0.213350 -0.020780 
#    y -0.213350 2.910280 -0.071500 
#    z -0.020780 -0.071500 2.293420 
# 
# From -- ./inp_files/133006.got.cif
#   From: 2010.05.17/outbox.cif.g08.bks.cpg/sg2_67_cif.got.tgz:133006.got - 2010.06.03 11:33:40.
