data_PCOD9039555
_publ_section_title
;
Structure prediction by ZEFSAII (Michael W. Deem and Ramdas Pophale) SiO2 
 PCOD9039555
Probable space group: P -1
;
_chemical_formula_sum "Si O2"
_cell_formula_units_Z 16
_cell_length_a 5.146188
_cell_length_b 22.989039
_cell_length_c 14.293146
_cell_angle_alpha 153.577024
_cell_angle_beta 77.321969
_cell_angle_gamma 103.816453
_cell_volume 730.635606
_symmetry_space_group_name_H-M "P -1"
_symmetry_group_IT_number 2
_symmetry_cell_setting 'triclinic'
loop_
_space_group_symop_operation_xyz
x,y,z
-x,-y,-z
loop_
_atom_site_type_symbol
_atom_site_label
_atom_site_fract_x
_atom_site_fract_y
_atom_site_fract_z
Si Si1 0.922691 0.277238 0.564424
Si Si2 0.954419 0.851299 0.824235
Si Si3 0.320977 0.196937 0.568257
Si Si4 0.188199 0.683758 0.903274
Si Si5 0.718853 0.029631 0.606482
Si Si6 0.274712 0.463083 0.041651
Si Si7 0.617807 0.530081 0.742423
Si Si8 0.639378 0.262190 0.243732
O O1 0.618925 0.235111 0.560103
O O2 0.951085 0.435641 0.805280
O O3 0.972596 0.239600 0.399592
O O4 0.120651 0.201831 0.504115
O O5 0.652948 0.810147 0.820239
O O6 0.145983 0.827770 0.861503
O O7 0.000000 0.000000 0.000000
O O8 0.330505 0.064462 0.435084
O O9 0.214722 0.307717 0.805632
O O10 0.346669 0.578018 0.792695
O O11 0.301768 0.701578 0.815642
O O12 0.873526 0.635812 0.855760
O O13 0.255486 0.820184 0.147602
O O14 0.500000 0.000000 0.500000
O O15 0.000000 0.000000 0.500000
O O16 0.389549 0.488171 0.172194
O O17 0.500000 0.500000 0.000000
O O18 0.665058 0.396365 0.494094
#
# Coordination Sequence:
#
# PCOD9039555 Si02
#       8
#     2   2   2   2   2   2   2   2
#     4  11  24  42  66 100 137 178 228 283 354 416
#     4  12  27  44  74 104 147 181 233 288 363 423
#     4  11  24  41  68  96 138 180 230 282 348 427
#     4  12  27  45  76 102 144 191 242 293 355 417
#     4  12  26  46  69 103 141 186 237 291 356 419
#     4  10  23  42  69 102 138 181 233 287 355 410
#     4  12  25  47  73 105 144 185 242 300 351 416
#     4  12  26  49  73 107 141 189 239 294 354 429
#
# _framework density 21.898744000000001
#
# number of rings (size 3 to 8) (size 9 to 14) (size 15 to 20)
#    0.000    0.500    1.250    6.750    5.250    3.000 
#    0.000    0.000    0.000    0.000    0.000    0.000 
#    0.000    0.000    0.000    0.000    0.000    0.000 
#
# Total GULP energy -89629.854139 kJ/mol
# GULP energy per Si atom -5601.865884 kJ/mol
# Density = 2.184890 g / cm^3
# Si number density = 21.898744 Si / 1000 Ang^3
#
#
#
# Elastic Constant Matrix: (Units=GPa)
#
#
# Indices 1 2 3 4 5 6 
#
# 1 127.7951 39.8449 -0.6256 -7.9248 -1.4674 1.9922
# 2 39.8449 110.6670 18.1911 -14.8801 -2.5824 -6.9168
# 3 -0.6256 18.1911 78.5021 -5.1929 11.5892 4.9647
# 4 -7.9248 -14.8801 -5.1929 46.3800 -1.8032 -3.1259
# 5 -1.4674 -2.5824 11.5892 -1.8032 59.9241 -3.6379
# 6 1.9922 -6.9168 4.9647 -3.1259 -3.6379 45.9882
#
#
#
# Elastic Compliance Matrix: (Units=1/GPa)
#
#
# Indices 1 2 3 4 5 6 
#
# 1 0.008925 -0.003373 0.000970 0.000479 -0.000159 -0.000979
# 2 -0.003373 0.011282 -0.002774 0.002943 0.001177 0.002436
# 3 0.000970 -0.002774 0.013995 0.000584 -0.002916 -0.002161
# 4 0.000479 0.002943 0.000584 0.022818 0.000832 0.001976
# 5 -0.000159 0.001177 -0.002916 0.000832 0.017441 0.001935
# 6 -0.000979 0.002436 -0.002161 0.001976 0.001935 0.022674
#
#
# Mechanical properties :
#
#
# Convention : Reuss Voigt Hill
#
# Bulk Modulus (GPa) = 41.93511 47.97613 44.95562
# Shear Modulus (GPa) = 43.31321 47.76204 45.53762
#
# Velocity S-wave (km/s) = 4.45217 4.67523 4.56506
# Velocity P-wave (km/s) = 6.75427 7.14838 6.95412
#
# Compressibility (1/GPa) = 0.02384636
#
# Stress axis : x y z
#
# Youngs Moduli (GPa) = 112.04968 88.63715 71.45465
#
# Poissons Ratio (x) = 0.29899 -0.06930
# Poissons Ratio (y) = 0.37796 0.19824
# Poissons Ratio (z) = -0.10868 0.24591
#
# Static dielectric constant tensor:
#      x y z
#    x 1.772370 -0.031630 -0.011660 
#    y -0.031630 1.818980 0.066250 
#    z -0.011660 0.066250 1.828630 
# 
# From -- ./inp_files/370520.got.cif
#   From: 2010.05.17/outbox.cif.g08.bks.cpg/sg2_186_cif.got.tgz:370520.got - 2010.06.03 11:33:40.
