data_PCOD9039463
_publ_section_title
;
Structure prediction by ZEFSAII (Michael W. Deem and Ramdas Pophale) SiO2 
 PCOD9039463
Probable space group: P -1
;
_chemical_formula_sum "Si O2"
_cell_formula_units_Z 16
_cell_length_a 9.384787
_cell_length_b 12.348035
_cell_length_c 8.995197
_cell_angle_alpha 96.692306
_cell_angle_beta 86.423010
_cell_angle_gamma 46.201385
_cell_volume 732.222544
_symmetry_space_group_name_H-M "P -1"
_symmetry_group_IT_number 2
_symmetry_cell_setting 'triclinic'
loop_
_space_group_symop_operation_xyz
x,y,z
-x,-y,-z
loop_
_atom_site_type_symbol
_atom_site_label
_atom_site_fract_x
_atom_site_fract_y
_atom_site_fract_z
Si Si1 0.523124 0.729563 0.110729
Si Si2 0.089752 0.866710 0.092239
Si Si3 0.649175 0.826656 0.902407
Si Si4 0.021223 0.109846 0.576669
Si Si5 0.699235 0.710745 0.571677
Si Si6 0.085608 0.620995 0.990536
Si Si7 0.072434 0.604226 0.342060
Si Si8 0.568139 0.071803 0.591359
O O1 0.304361 0.791068 0.134159
O O2 0.715850 0.550368 0.105233
O O3 0.518845 0.837461 0.235581
O O4 0.556252 0.762517 0.951801
O O5 0.944644 0.924473 0.253457
O O6 0.120796 0.731540 0.996327
O O7 0.000000 0.000000 0.000000
O O8 0.662391 0.816620 0.723029
O O9 0.875962 0.710572 0.934252
O O10 0.500000 0.000000 0.000000
O O11 0.879789 0.293930 0.612807
O O12 0.000000 0.000000 0.500000
O O13 0.195674 0.057844 0.449090
O O14 0.770705 0.562261 0.621095
O O15 0.501771 0.798352 0.501502
O O16 0.865914 0.669777 0.440654
O O17 0.058259 0.604371 0.164093
O O18 0.500000 0.000000 0.500000
#
# Coordination Sequence:
#
# PCOD9039463 Si02
#       8
#     2   2   2   2   2   2   2   2
#     4  12  25  45  67 100 138 183 230 271 354 406
#     4  11  26  46  71  98 137 179 230 285 337 411
#     4  12  26  39  69 106 137 172 230 287 338 407
#     4  11  24  46  68  94 137 181 228 274 346 407
#     4  11  24  41  67 104 139 171 230 281 340 405
#     4  11  25  46  71  97 141 182 224 281 351 408
#     4  10  23  42  68  96 139 176 220 279 346 397
#     4  12  25  43  70 100 135 182 228 283 343 407
#
# _framework density 21.851279999999999
#
# number of rings (size 3 to 8) (size 9 to 14) (size 15 to 20)
#    0.000    0.750    3.750    3.000   10.500    1.000 
#    0.000    0.625    0.000    0.000    0.000    0.000 
#    0.000    0.000    0.000    0.000    0.000    0.000 
#
# Total GULP energy -89250.022319 kJ/mol
# GULP energy per Si atom -5578.126395 kJ/mol
# Density = 2.180155 g / cm^3
# Si number density = 21.851280 Si / 1000 Ang^3
#
#
#
# Elastic Constant Matrix: (Units=GPa)
#
#
# Indices 1 2 3 4 5 6 
#
# 1 53.8554 4.8604 1.0094 9.9461 -0.1779 19.9570
# 2 4.8604 120.7892 37.8940 5.7875 -2.7075 14.9096
# 3 1.0094 37.8940 102.2664 6.5705 -2.6800 7.2096
# 4 9.9461 5.7875 6.5705 42.8743 3.4316 -0.2333
# 5 -0.1779 -2.7075 -2.6800 3.4316 24.3637 -1.6419
# 6 19.9570 14.9096 7.2096 -0.2333 -1.6419 42.3139
#
#
#
# Elastic Compliance Matrix: (Units=1/GPa)
#
#
# Indices 1 2 3 4 5 6 
#
# 1 0.023879 0.000514 0.000774 -0.005819 0.000355 -0.011594
# 2 0.000514 0.009742 -0.003316 -0.000995 0.000654 -0.003090
# 3 0.000774 -0.003316 0.011200 -0.001535 0.001013 -0.001074
# 4 -0.005819 -0.000995 -0.001535 0.025355 -0.003667 0.003354
# 5 0.000355 0.000654 0.001013 -0.003667 0.041817 0.001032
# 6 -0.011594 -0.003090 -0.001074 0.003354 0.001032 0.030432
#
#
# Mechanical properties :
#
#
# Convention : Reuss Voigt Hill
#
# Bulk Modulus (GPa) = 24.52972 40.49319 32.51146
# Shear Modulus (GPa) = 31.23619 37.45354 34.34486
#
# Velocity S-wave (km/s) = 3.78496 4.14456 3.96884
# Velocity P-wave (km/s) = 5.50921 6.44009 5.99275
#
# Compressibility (1/GPa) = 0.04076688
#
# Stress axis : x y z
#
# Youngs Moduli (GPa) = 41.87696 102.64506 89.28243
#
# Poissons Ratio (x) = -0.05277 -0.06914
# Poissons Ratio (y) = -0.02153 0.29607
# Poissons Ratio (z) = -0.03243 0.34038
#
# Static dielectric constant tensor:
#      x y z
#    x 1.978650 0.019860 0.048350 
#    y 0.019860 1.897140 0.038500 
#    z 0.048350 0.038500 1.806500 
# 
# From -- ./inp_files/187492.got.cif
#   From: 2010.05.17/outbox.cif.g08.bks.cpg/sg2_94_cif.got.tgz:187492.got - 2010.06.03 11:33:40.
