data_PCOD9039953
_publ_section_title
;
Structure prediction by ZEFSAII (Michael W. Deem and Ramdas Pophale) SiO2 
 PCOD9039953
Probable space group: P -1
;
_chemical_formula_sum "Si O2"
_cell_formula_units_Z 16
_cell_length_a 9.531116
_cell_length_b 12.622059
_cell_length_c 9.257834
_cell_angle_alpha 135.012770
_cell_angle_beta 81.634915
_cell_angle_gamma 82.401031
_cell_volume 733.642655
_symmetry_space_group_name_H-M "P -1"
_symmetry_group_IT_number 2
_symmetry_cell_setting 'triclinic'
loop_
_space_group_symop_operation_xyz
x,y,z
-x,-y,-z
loop_
_atom_site_type_symbol
_atom_site_label
_atom_site_fract_x
_atom_site_fract_y
_atom_site_fract_z
Si Si1 0.859284 0.619359 0.218116
Si Si2 0.638316 0.175586 0.928773
Si Si3 0.155602 0.800355 0.517260
Si Si4 0.339187 0.560441 0.012382
Si Si5 0.294675 0.207572 0.989857
Si Si6 0.789633 0.948926 0.423850
Si Si7 0.181601 0.966102 0.942903
Si Si8 0.966339 0.462260 0.627028
O O1 0.869280 0.790537 0.349285
O O2 0.888606 0.559315 0.318164
O O3 0.712681 0.589153 0.155094
O O4 0.000000 0.500000 0.000000
O O5 0.661373 0.339409 0.035239
O O6 0.461497 0.201867 0.002430
O O7 0.689485 0.067849 0.672641
O O8 0.740148 0.097845 0.977410
O O9 0.238903 0.677717 0.261707
O O10 0.242989 0.838038 0.679206
O O11 0.055502 0.707423 0.514201
O O12 0.106731 0.968440 0.599535
O O13 0.500000 0.500000 0.000000
O O14 0.297535 0.110139 0.746719
O O15 0.223813 0.119131 0.033550
O O16 0.179692 0.387874 0.159971
O O17 0.000000 0.000000 0.000000
O O18 0.000000 0.500000 0.500000
#
# Coordination Sequence:
#
# PCOD9039953 Si02
#       8
#     2   2   2   2   2   2   2   2
#     4  12  24  43  70 100 133 178 231 278 345 399
#     4  11  25  43  72 101 133 183 227 277 348 406
#     4  10  23  44  66  96 138 175 220 283 339 392
#     4  11  24  45  70 101 135 173 227 287 338 404
#     4  11  23  47  68  98 142 176 225 283 341 404
#     4  10  23  42  73 100 132 172 230 288 337 400
#     4  11  26  43  66  99 142 179 229 276 335 409
#     4  12  26  43  67  99 141 181 224 280 342 405
#
# _framework density 21.808982
#
# number of rings (size 3 to 8) (size 9 to 14) (size 15 to 20)
#    0.000    1.000    2.500    3.000    7.000    2.500 
#    2.250    1.250    0.000    0.000    0.000    0.000 
#    0.000    0.000    0.000    0.000    0.000    0.000 
#
# Total GULP energy -89309.860708 kJ/mol
# GULP energy per Si atom -5581.866294 kJ/mol
# Density = 2.175934 g / cm^3
# Si number density = 21.808982 Si / 1000 Ang^3
#
#
#
# Elastic Constant Matrix: (Units=GPa)
#
#
# Indices 1 2 3 4 5 6 
#
# 1 115.0824 68.4990 30.1570 -4.3313 14.7598 4.4007
# 2 68.4990 197.8341 45.5052 -13.0241 14.8442 5.8042
# 3 30.1570 45.5052 61.2827 -4.0394 17.7390 4.0061
# 4 -4.3313 -13.0241 -4.0394 45.5033 -2.9439 10.0901
# 5 14.7598 14.8442 17.7390 -2.9439 25.1408 -4.9083
# 6 4.4007 5.8042 4.0061 10.0901 -4.9083 38.7309
#
#
#
# Elastic Compliance Matrix: (Units=1/GPa)
#
#
# Indices 1 2 3 4 5 6 
#
# 1 0.011705 -0.003235 -0.002252 -0.000008 -0.003581 -0.001064
# 2 -0.003235 0.007111 -0.003628 0.001579 0.000310 -0.000695
# 3 -0.002252 -0.003628 0.024642 0.000838 -0.014569 -0.003814
# 4 -0.000008 0.001579 0.000838 0.023958 0.000005 -0.006563
# 5 -0.003581 0.000310 -0.014569 0.000005 0.053668 0.008667
# 6 -0.001064 -0.000695 -0.003814 -0.006563 0.008667 0.029247
#
#
# Mechanical properties :
#
#
# Convention : Reuss Voigt Hill
#
# Bulk Modulus (GPa) = 39.64079 73.61351 56.62715
# Shear Modulus (GPa) = 28.25352 37.21087 32.73219
#
# Velocity S-wave (km/s) = 3.60321 4.13512 3.87829
# Velocity P-wave (km/s) = 5.96042 7.52502 6.78795
#
# Compressibility (1/GPa) = 0.02522654
#
# Stress axis : x y z
#
# Youngs Moduli (GPa) = 85.43360 140.63561 40.58167
#
# Poissons Ratio (x) = 0.45501 0.09139
# Poissons Ratio (y) = 0.27641 0.14723
# Poissons Ratio (z) = 0.19239 0.51024
#
# Static dielectric constant tensor:
#      x y z
#    x 1.793350 0.010660 -0.012490 
#    y 0.010660 1.836820 0.000670 
#    z -0.012490 0.000670 1.865500 
# 
# From -- ./inp_files/190676.got.cif
#   From: 2010.05.17/outbox.cif.g08.bks.cpg/sg2_96_cif.got.tgz:190676.got - 2010.06.03 11:33:40.
