data_PCOD9039587
_publ_section_title
;
Structure prediction by ZEFSAII (Michael W. Deem and Ramdas Pophale) SiO2 
 PCOD9039587
Probable space group: P -1
;
_chemical_formula_sum "Si O2"
_cell_formula_units_Z 12
_cell_length_a 14.880415
_cell_length_b 7.810860
_cell_length_c 8.066882
_cell_angle_alpha 102.390352
_cell_angle_beta 45.582652
_cell_angle_gamma 71.566760
_cell_volume 486.449504
_symmetry_space_group_name_H-M "P -1"
_symmetry_group_IT_number 2
_symmetry_cell_setting 'triclinic'
loop_
_space_group_symop_operation_xyz
x,y,z
-x,-y,-z
loop_
_atom_site_type_symbol
_atom_site_label
_atom_site_fract_x
_atom_site_fract_y
_atom_site_fract_z
Si Si1 0.925142 0.352115 0.233446
Si Si2 0.659961 0.657236 0.887936
Si Si3 0.702372 0.256572 0.901336
Si Si4 0.979951 0.081023 0.780433
Si Si5 0.222092 0.299451 0.940348
Si Si6 0.508963 0.137862 0.306118
O O1 0.742901 0.578447 0.584420
O O2 0.984838 0.146433 0.243153
O O3 0.052962 0.392951 0.095179
O O4 0.937486 0.245685 0.021051
O O5 0.616604 0.502041 0.971260
O O6 0.801378 0.585032 0.827893
O O7 0.523273 0.936603 0.151341
O O8 0.826280 0.211010 0.877356
O O9 0.840690 0.033831 0.558033
O O10 0.566907 0.247414 0.145455
O O11 0.341805 0.023768 0.780540
O O12 0.339329 0.300072 0.664899
#
# Coordination Sequence:
#
# PCOD9039587 Si02
#       6
#     2   2   2   2   2   2
#     4  10  17  33  55  79 108 134 173 218 259 306
#     4   9  19  32  57  80 100 138 176 212 258 303
#     4  10  18  35  54  78 103 136 178 212 257 311
#     4   9  19  30  53  83 105 134 172 222 262 295
#     4   9  18  34  53  77 105 143 167 208 265 308
#     4   9  19  35  54  76 106 142 169 211 256 315
#
# _framework density 24.668545000000002
#
# number of rings (size 3 to 8) (size 9 to 14) (size 15 to 20)
#    1.000    1.667    1.667    0.500    0.000    0.667 
#    0.000    4.167    0.000   16.000    0.000    1.167 
#    0.000    0.000    0.000    0.000    0.000    0.000 
#
# Total GULP energy -67096.544284 kJ/mol
# GULP energy per Si atom -5591.378690 kJ/mol
# Density = 2.461240 g / cm^3
# Si number density = 24.668545 Si / 1000 Ang^3
#
#
#
# Elastic Constant Matrix: (Units=GPa)
#
#
# Indices 1 2 3 4 5 6 
#
# 1 68.6447 8.5030 37.9304 -1.1210 1.5231 5.3335
# 2 8.5030 93.1893 27.4098 -6.1851 -16.5301 -2.5739
# 3 37.9304 27.4098 138.4110 -15.3441 19.5298 19.6309
# 4 -1.1210 -6.1851 -15.3441 42.5714 16.1925 -2.9888
# 5 1.5231 -16.5301 19.5298 16.1925 43.1484 1.3061
# 6 5.3335 -2.5739 19.6309 -2.9888 1.3061 23.8011
#
#
#
# Elastic Compliance Matrix: (Units=1/GPa)
#
#
# Indices 1 2 3 4 5 6 
#
# 1 0.017507 0.000452 -0.005665 -0.002680 0.003116 0.000291
# 2 0.000452 0.013552 -0.004916 -0.002597 0.008235 0.004641
# 3 -0.005665 -0.004916 0.013191 0.007106 -0.010057 -0.008698
# 4 -0.002680 -0.002597 0.007106 0.031627 -0.015964 -0.000694
# 5 0.003116 0.008235 -0.010057 -0.015964 0.036628 0.004473
# 6 0.000291 0.004641 -0.008698 -0.000694 0.004473 0.049293
#
#
# Mechanical properties :
#
#
# Convention : Reuss Voigt Hill
#
# Bulk Modulus (GPa) = 41.68050 49.77016 45.72533
# Shear Modulus (GPa) = 26.30846 36.99765 31.65305
#
# Velocity S-wave (km/s) = 3.26924 3.87691 3.58597
# Velocity P-wave (km/s) = 5.58422 6.34507 5.97677
#
# Compressibility (1/GPa) = 0.02399203
#
# Stress axis : x y z
#
# Youngs Moduli (GPa) = 57.12134 73.79003 75.80794
#
# Poissons Ratio (x) = -0.03334 0.42946
# Poissons Ratio (y) = -0.02581 0.37264
# Poissons Ratio (z) = 0.32360 0.36272
#
# Static dielectric constant tensor:
#      x y z
#    x 1.979000 -0.059980 0.025080 
#    y -0.059980 1.969530 -0.006730 
#    z 0.025080 -0.006730 1.906620 
# 
# From -- ./inp_files/162684.got.cif
#   From: 2010.05.17/outbox.cif.g08.bks.cpg/sg2_82_cif.got.tgz:162684.got - 2010.06.03 11:33:40.
