data_PCOD9039487
_publ_section_title
;
Structure prediction by ZEFSAII (Michael W. Deem and Ramdas Pophale) SiO2 
 PCOD9039487
Probable space group: P -1
;
_chemical_formula_sum "Si O2"
_cell_formula_units_Z 16
_cell_length_a 15.089528
_cell_length_b 8.968590
_cell_length_c 7.890570
_cell_angle_alpha 70.053765
_cell_angle_beta 78.847046
_cell_angle_gamma 39.618955
_cell_volume 635.796202
_symmetry_space_group_name_H-M "P -1"
_symmetry_group_IT_number 2
_symmetry_cell_setting 'triclinic'
loop_
_space_group_symop_operation_xyz
x,y,z
-x,-y,-z
loop_
_atom_site_type_symbol
_atom_site_label
_atom_site_fract_x
_atom_site_fract_y
_atom_site_fract_z
Si Si1 0.777101 0.454407 0.384336
Si Si2 0.367812 0.032992 0.744616
Si Si3 0.226658 0.151059 0.389353
Si Si4 0.887924 0.358825 0.755061
Si Si5 0.351266 0.680572 0.407209
Si Si6 0.184816 0.017150 0.926831
Si Si7 0.350561 0.526669 0.101068
Si Si8 0.988796 0.677664 0.824869
O O1 0.856212 0.364774 0.569412
O O2 0.736737 0.324011 0.440651
O O3 0.877526 0.391669 0.228765
O O4 0.648520 0.754130 0.326796
O O5 0.518736 0.766272 0.853804
O O6 0.312433 0.047256 0.573803
O O7 0.247534 0.109979 0.870074
O O8 0.199226 0.367715 0.269811
O O9 0.070709 0.288771 0.353242
O O10 0.306042 0.924475 0.326748
O O11 0.804233 0.342035 0.901119
O O12 0.050757 0.170166 0.799039
O O13 0.500000 0.500000 0.500000
O O14 0.367899 0.568633 0.268243
O O15 0.116564 0.077921 0.113589
O O16 0.319440 0.730896 0.933265
O O17 0.000000 0.500000 0.000000
#
# Coordination Sequence:
#
# PCOD9039487 Si02
#       8
#     2   2   2   2   2   2   2   2
#     4  10  24  42  68 101 128 173 223 270 328 393
#     4  11  23  42  69  96 134 175 222 267 329 401
#     4  11  22  40  69  95 130 171 219 270 328 387
#     4  10  23  42  68  98 130 174 223 271 329 393
#     4  11  23  42  65  99 131 172 219 272 330 390
#     4  12  23  43  67  96 138 176 219 269 333 390
#     4  11  24  42  66  99 131 177 220 275 327 392
#     4  12  22  42  68  98 136 172 218 273 334 388
#
# _framework density 25.165295
#
# number of rings (size 3 to 8) (size 9 to 14) (size 15 to 20)
#    0.000    1.000    5.000    1.500    1.750    4.000 
#    4.500    0.000    0.000    3.000    0.000    0.000 
#    0.000    0.000    0.000    0.000    0.000    0.000 
#
# Total GULP energy -89203.741768 kJ/mol
# GULP energy per Si atom -5575.233861 kJ/mol
# Density = 2.510802 g / cm^3
# Si number density = 25.165295 Si / 1000 Ang^3
#
#
#
# Elastic Constant Matrix: (Units=GPa)
#
#
# Indices 1 2 3 4 5 6 
#
# 1 70.4976 1.8179 8.8914 -1.3855 10.7280 -1.3253
# 2 1.8179 72.1985 20.6529 -16.5592 17.1734 -4.2723
# 3 8.8914 20.6529 46.6753 -11.7400 7.9265 2.1371
# 4 -1.3855 -16.5592 -11.7400 38.8420 -4.2359 5.8872
# 5 10.7280 17.1734 7.9265 -4.2359 17.7640 -2.5483
# 6 -1.3253 -4.2723 2.1371 5.8872 -2.5483 30.9113
#
#
#
# Elastic Compliance Matrix: (Units=1/GPa)
#
#
# Indices 1 2 3 4 5 6 
#
# 1 0.016193 0.003049 -0.002535 -0.000210 -0.011591 0.000375
# 2 0.003049 0.020940 -0.005463 0.005257 -0.018265 0.000896
# 3 -0.002535 -0.005463 0.026712 0.005816 -0.004319 -0.004174
# 4 -0.000210 0.005257 0.005816 0.030464 -0.001087 -0.005576
# 5 -0.011591 -0.018265 -0.004319 -0.001087 0.083243 0.004347
# 6 0.000375 0.000896 -0.004174 -0.005576 0.004347 0.034199
#
#
# Mechanical properties :
#
#
# Convention : Reuss Voigt Hill
#
# Bulk Modulus (GPa) = 18.53706 28.01066 23.27386
# Shear Modulus (GPa) = 20.86527 28.03742 24.45135
#
# Velocity S-wave (km/s) = 2.88258 3.34148 3.12048
# Velocity P-wave (km/s) = 4.29665 5.10315 4.71717
#
# Compressibility (1/GPa) = 0.05394600
#
# Stress axis : x y z
#
# Youngs Moduli (GPa) = 61.75558 47.75532 37.43595
#
# Poissons Ratio (x) = -0.14559 0.09491
# Poissons Ratio (y) = -0.18827 0.20452
# Poissons Ratio (z) = 0.15656 0.26090
#
# Static dielectric constant tensor:
#      x y z
#    x 2.033280 -0.047810 0.009620 
#    y -0.047810 2.180060 -0.134970 
#    z 0.009620 -0.134970 2.145820 
# 
# From -- ./inp_files/297852.got.cif
#   From: 2010.05.17/outbox.cif.g08.bks.cpg/sg2_149_cif.got.tgz:297852.got - 2010.06.03 11:33:40.
