data_PCOD9039422
_publ_section_title
;
Structure prediction by ZEFSAII (Michael W. Deem and Ramdas Pophale) SiO2 
 PCOD9039422
Probable space group: P -1
;
_chemical_formula_sum "Si O2"
_cell_formula_units_Z 12
_cell_length_a 16.862725
_cell_length_b 10.148627
_cell_length_c 4.996490
_cell_angle_alpha 104.641992
_cell_angle_beta 110.979158
_cell_angle_gamma 38.284812
_cell_volume 494.065981
_symmetry_space_group_name_H-M "P -1"
_symmetry_group_IT_number 2
_symmetry_cell_setting 'triclinic'
loop_
_space_group_symop_operation_xyz
x,y,z
-x,-y,-z
loop_
_atom_site_type_symbol
_atom_site_label
_atom_site_fract_x
_atom_site_fract_y
_atom_site_fract_z
Si Si1 0.143381 0.338393 0.819862
Si Si2 0.730320 0.042732 0.894369
Si Si3 0.274536 0.521616 0.457122
Si Si4 0.634866 0.754165 0.100895
Si Si5 0.630774 0.295776 0.395992
Si Si6 0.004570 0.717566 0.242032
O O1 0.246400 0.283640 0.720802
O O2 0.047339 0.329534 0.626311
O O3 0.237476 0.147956 0.060749
O O4 0.061225 0.552460 0.989846
O O5 0.621592 0.240304 0.064665
O O6 0.697913 0.104472 0.579781
O O7 0.868738 0.949631 0.087396
O O8 0.370803 0.340581 0.705716
O O9 0.288148 0.664937 0.511894
O O10 0.123864 0.668714 0.433122
O O11 0.317356 0.393166 0.170725
O O12 0.500000 0.000000 0.000000
O O13 0.500000 0.500000 0.500000
#
# Coordination Sequence:
#
# PCOD9039422 Si02
#       6
#     2   2   2   2   2   2
#     4   8  19  41  66  97 123 157 202 264 316 362
#     4  10  23  42  68  90 121 173 203 255 311 370
#     4  11  25  41  61  93 126 162 206 263 300 362
#     4  11  24  40  66  91 125 162 205 259 311 370
#     4  12  27  42  63  88 131 171 212 250 296 375
#     4   8  19  42  65  98 123 156 207 265 312 369
#
# _framework density 24.288254999999999
#
# number of rings (size 3 to 8) (size 9 to 14) (size 15 to 20)
#    1.000    1.000    0.000    2.000    4.667    7.333 
#    0.000    0.000    0.000    0.000    0.000    0.000 
#    0.000    0.000    0.000    0.000    0.000    0.000 
#
# Total GULP energy -67068.827323 kJ/mol
# GULP energy per Si atom -5589.068944 kJ/mol
# Density = 2.423297 g / cm^3
# Si number density = 24.288255 Si / 1000 Ang^3
#
#
#
# Elastic Constant Matrix: (Units=GPa)
#
#
# Indices 1 2 3 4 5 6 
#
# 1 106.4554 5.3020 16.2549 10.9995 9.4737 7.9794
# 2 5.3020 65.5833 10.0127 13.8485 -5.8993 -8.4791
# 3 16.2549 10.0127 89.1481 5.5790 -23.7022 11.8351
# 4 10.9995 13.8485 5.5790 29.9477 1.3263 -6.4368
# 5 9.4737 -5.8993 -23.7022 1.3263 28.4738 -13.7608
# 6 7.9794 -8.4791 11.8351 -6.4368 -13.7608 31.4615
#
#
#
# Elastic Compliance Matrix: (Units=1/GPa)
#
#
# Indices 1 2 3 4 5 6 
#
# 1 0.011994 -0.001495 -0.003614 -0.004212 -0.010825 -0.007682
# 2 -0.001495 0.018544 -0.000240 -0.006695 0.008155 0.007665
# 3 -0.003614 -0.000240 0.015863 -0.001960 0.014941 0.001018
# 4 -0.004212 -0.006695 -0.001960 0.040198 0.000617 0.008495
# 5 -0.010825 0.008155 0.014941 0.000617 0.066640 0.028597
# 6 -0.007682 0.007665 0.001018 0.008495 0.028597 0.049662
#
#
# Mechanical properties :
#
#
# Convention : Reuss Voigt Hill
#
# Bulk Modulus (GPa) = 28.00959 36.03621 32.02290
# Shear Modulus (GPa) = 22.17298 33.28443 27.72871
#
# Velocity S-wave (km/s) = 3.02472 3.70590 3.38250
# Velocity P-wave (km/s) = 4.87399 5.76027 5.33556
#
# Compressibility (1/GPa) = 0.03570206
#
# Stress axis : x y z
#
# Youngs Moduli (GPa) = 83.37295 53.92707 63.04007
#
# Poissons Ratio (x) = 0.08064 0.22780
# Poissons Ratio (y) = 0.12468 0.01515
# Poissons Ratio (z) = 0.30128 0.01296
#
# Static dielectric constant tensor:
#      x y z
#    x 1.975430 -0.031900 0.017710 
#    y -0.031900 1.953420 -0.057260 
#    z 0.017710 -0.057260 1.997680 
# 
# From -- ./inp_files/105427.got.cif
#   From: 2010.05.17/outbox.cif.g08.bks.cpg/sg2_53_cif.got.tgz:105427.got - 2010.06.03 11:33:40.
