data_PCOD9039559
_publ_section_title
;
Structure prediction by ZEFSAII (Michael W. Deem and Ramdas Pophale) SiO2 
 PCOD9039559
Probable space group: P -1
;
_chemical_formula_sum "Si O2"
_cell_formula_units_Z 16
_cell_length_a 7.379619
_cell_length_b 11.075850
_cell_length_c 9.157627
_cell_angle_alpha 106.820307
_cell_angle_beta 110.057201
_cell_angle_gamma 81.413629
_cell_volume 671.982651
_symmetry_space_group_name_H-M "P -1"
_symmetry_group_IT_number 2
_symmetry_cell_setting 'triclinic'
loop_
_space_group_symop_operation_xyz
x,y,z
-x,-y,-z
loop_
_atom_site_type_symbol
_atom_site_label
_atom_site_fract_x
_atom_site_fract_y
_atom_site_fract_z
Si Si1 0.794239 0.735367 0.720329
Si Si2 0.085869 0.368913 0.030947
Si Si3 0.995930 0.731418 0.327024
Si Si4 0.476637 0.859186 0.887156
Si Si5 0.700657 0.105786 0.449731
Si Si6 0.524063 0.404354 0.112847
Si Si7 0.786488 0.475521 0.487771
Si Si8 0.332455 0.171784 0.556829
O O1 0.669718 0.816661 0.832747
O O2 0.706707 0.608772 0.582638
O O3 0.815521 0.824653 0.620225
O O4 0.974228 0.678722 0.844040
O O5 0.033998 0.277886 0.855900
O O6 0.308088 0.401069 0.113057
O O7 0.000000 0.500000 0.000000
O O8 0.089155 0.862485 0.430143
O O9 0.153738 0.630346 0.408784
O O10 0.780255 0.726610 0.334095
O O11 0.322779 0.857992 0.713084
O O12 0.435983 0.748428 0.953530
O O13 0.500000 0.000000 0.000000
O O14 0.539309 0.180033 0.536146
O O15 0.655988 0.960359 0.403900
O O16 0.658520 0.441240 0.299966
O O17 0.500000 0.500000 0.000000
O O18 0.000000 0.500000 0.500000
#
# Coordination Sequence:
#
# PCOD9039559 Si02
#       8
#     2   2   2   2   2   2   2   2
#     4  10  23  42  69 102 142 184 242 300 367 430
#     4  11  25  44  64 104 150 179 235 301 370 438
#     4  12  23  44  74 102 141 196 236 303 373 444
#     4  10  23  44  70  99 145 196 241 304 369 444
#     4  10  23  45  71 101 139 189 258 291 368 443
#     4  11  26  44  72 111 141 191 244 304 378 438
#     4  12  23  43  74 105 143 189 244 310 368 449
#     4  10  23  43  71 100 137 187 246 304 348 450
#
# _framework density 23.810134999999999
#
# number of rings (size 3 to 8) (size 9 to 14) (size 15 to 20)
#    0.000    1.250    3.750    1.125    3.500    4.000 
#    0.000    0.625    0.000    0.000    0.000    0.000 
#    0.000    0.000    0.000    0.000    0.000    0.000 
#
# Total GULP energy -89135.101109 kJ/mol
# GULP energy per Si atom -5570.943819 kJ/mol
# Density = 2.375594 g / cm^3
# Si number density = 23.810135 Si / 1000 Ang^3
#
#
#
# Elastic Constant Matrix: (Units=GPa)
#
#
# Indices 1 2 3 4 5 6 
#
# 1 59.9544 15.6502 18.9270 10.6873 16.2866 -3.5685
# 2 15.6502 127.8841 41.9636 -7.9947 -6.5832 -5.7191
# 3 18.9270 41.9636 135.0337 -8.5514 16.1525 0.3547
# 4 10.6873 -7.9947 -8.5514 55.9561 -1.9102 -6.6571
# 5 16.2866 -6.5832 16.1525 -1.9102 35.7729 -0.3202
# 6 -3.5685 -5.7191 0.3547 -6.6571 -0.3202 30.5932
#
#
#
# Elastic Compliance Matrix: (Units=1/GPa)
#
#
# Indices 1 2 3 4 5 6 
#
# 1 0.021518 -0.003041 -0.001182 -0.004978 -0.010082 0.000766
# 2 -0.003041 0.009620 -0.003003 0.001885 0.004629 0.001937
# 3 -0.001182 -0.003003 0.009052 0.000966 -0.004056 -0.000636
# 4 -0.004978 0.001885 0.000966 0.019840 0.003273 0.004112
# 5 -0.010082 0.004629 -0.004056 0.003273 0.035409 0.000819
# 6 0.000766 0.001937 -0.000636 0.004112 0.000819 0.034049
#
#
# Mechanical properties :
#
#
# Convention : Reuss Voigt Hill
#
# Bulk Modulus (GPa) = 38.85325 52.88377 45.86851
# Shear Modulus (GPa) = 32.78257 40.88655 36.83456
#
# Velocity S-wave (km/s) = 3.71460 4.14840 3.93747
# Velocity P-wave (km/s) = 5.89500 6.72342 6.32279
#
# Compressibility (1/GPa) = 0.02573787
#
# Stress axis : x y z
#
# Youngs Moduli (GPa) = 46.47254 103.95272 110.46840
#
# Poissons Ratio (x) = 0.31615 0.13061
# Poissons Ratio (y) = 0.14134 0.33169
# Poissons Ratio (z) = 0.05494 0.31213
#
# Static dielectric constant tensor:
#      x y z
#    x 1.836410 0.140220 -0.512530 
#    y 0.140220 1.802940 0.737230 
#    z -0.512530 0.737230 -0.117910 
# 
# From -- ./inp_files/189406.got.cif
#   From: 2010.05.17/outbox.cif.g08.bks.cpg/sg2_95_cif.got.tgz:189406.got - 2010.06.03 11:33:40.
