data_PCOD9039927
_publ_section_title
;
Structure prediction by ZEFSAII (Michael W. Deem and Ramdas Pophale) SiO2 
 PCOD9039927
Probable space group: P -1
;
_chemical_formula_sum "Si O2"
_cell_formula_units_Z 14
_cell_length_a 14.453575
_cell_length_b 13.631563
_cell_length_c 8.747557
_cell_angle_alpha 95.469015
_cell_angle_beta 98.926254
_cell_angle_gamma 19.130719
_cell_volume 550.942203
_symmetry_space_group_name_H-M "P -1"
_symmetry_group_IT_number 2
_symmetry_cell_setting 'triclinic'
loop_
_space_group_symop_operation_xyz
x,y,z
-x,-y,-z
loop_
_atom_site_type_symbol
_atom_site_label
_atom_site_fract_x
_atom_site_fract_y
_atom_site_fract_z
Si Si1 0.231823 0.383614 0.339739
Si Si2 0.382002 0.522089 0.393650
Si Si3 0.699435 0.878651 0.125799
Si Si4 0.260456 0.667039 0.036994
Si Si5 0.348465 0.339619 0.685404
Si Si6 0.076733 0.126398 0.539670
Si Si7 0.043223 0.241999 0.099511
O O1 0.347025 0.265657 0.528355
O O2 0.986519 0.554133 0.241112
O O3 0.027900 0.683589 0.345800
O O4 0.482275 0.135089 0.241295
O O5 0.500000 0.500000 0.500000
O O6 0.383457 0.525866 0.215132
O O7 0.053601 0.838761 0.408570
O O8 0.589331 0.224444 0.452625
O O9 0.837094 0.818384 0.027365
O O10 0.500000 0.000000 0.000000
O O11 0.500000 0.500000 0.000000
O O12 0.125522 0.693372 0.963665
O O13 0.000000 0.000000 0.000000
O O14 0.129166 0.644952 0.621666
O O15 0.191432 0.464007 0.818862
O O16 0.665664 0.058094 0.769520
#
# Coordination Sequence:
#
# PCOD9039927 Si02
#       7
#     2   2   2   2   2   2   2
#     4  10  23  44  73 102 145 194 246 298 359 453
#     4  12  25  42  68 100 136 195 245 305 360 438
#     4  12  25  46  75 114 151 189 243 312 374 455
#     4  12  29  45  67 103 149 190 244 312 372 433
#     4  10  24  44  77 100 142 198 248 305 365 445
#     4  10  23  42  72  94 137 185 258 286 361 421
#     4  12  25  47  71 107 147 196 244 308 389 435
#
# _framework density 25.411017000000001
#
# number of rings (size 3 to 8) (size 9 to 14) (size 15 to 20)
#    0.857    0.000    0.000    6.857    6.000    2.286 
#    0.000    4.286    0.000    0.000    0.000    0.000 
#    0.000    0.000    0.000    0.000    0.000    0.000 
#
# Total GULP energy -78071.840830 kJ/mol
# GULP energy per Si atom -5576.560059 kJ/mol
# Density = 2.535318 g / cm^3
# Si number density = 25.411017 Si / 1000 Ang^3
#
#
#
# Elastic Constant Matrix: (Units=GPa)
#
#
# Indices 1 2 3 4 5 6 
#
# 1 167.1401 47.1902 76.1271 13.6786 23.1777 -50.1450
# 2 47.1902 181.6933 62.1916 14.6219 6.4453 -55.8806
# 3 76.1271 62.1916 178.9228 -0.1243 29.7419 -28.2697
# 4 13.6786 14.6219 -0.1243 59.3998 -8.5037 2.1188
# 5 23.1777 6.4453 29.7419 -8.5037 34.6454 -10.7176
# 6 -50.1450 -55.8806 -28.2697 2.1188 -10.7176 42.4063
#
#
#
# Elastic Compliance Matrix: (Units=1/GPa)
#
#
# Indices 1 2 3 4 5 6 
#
# 1 0.012125 0.003525 -0.003494 -0.004510 -0.001794 0.016426
# 2 0.003525 0.011404 -0.003081 -0.003869 0.002797 0.018042
# 3 -0.003494 -0.003081 0.008398 0.000965 -0.005293 -0.003978
# 4 -0.004510 -0.003869 0.000965 0.019860 0.004826 -0.009560
# 5 -0.001794 0.002797 -0.005293 0.004826 0.037523 0.007278
# 6 0.016426 0.018042 -0.003978 -0.009560 0.007278 0.066444
#
#
# Mechanical properties :
#
#
# Convention : Reuss Voigt Hill
#
# Bulk Modulus (GPa) = 38.71742 99.86376 69.29059
# Shear Modulus (GPa) = 29.33204 50.10678 39.71941
#
# Velocity S-wave (km/s) = 3.40119 4.44537 3.95787
# Velocity P-wave (km/s) = 5.54019 8.10760 6.94359
#
# Compressibility (1/GPa) = 0.02582817
#
# Stress axis : x y z
#
# Youngs Moduli (GPa) = 82.47541 87.69107 119.07188
#
# Poissons Ratio (x) = -0.30912 0.41602
# Poissons Ratio (y) = -0.29073 0.36681
# Poissons Ratio (z) = 0.28816 0.27014
#
# Static dielectric constant tensor:
#      x y z
#    x 2.086010 0.080510 -0.005510 
#    y 0.080510 1.905440 -0.048850 
#    z -0.005510 -0.048850 2.196400 
# 
# From -- ./inp_files/313348.got.cif
#   From: 2010.05.17/outbox.cif.g08.bks.cpg/sg2_157_cif.got.tgz:313348.got - 2010.06.03 11:33:40.
