data_PCOD9039134
_publ_section_title
;
Structure prediction by ZEFSAII (Michael W. Deem and Ramdas Pophale) SiO2 
 PCOD9039134
Probable space group: P -1
;
_chemical_formula_sum "Si O2"
_cell_formula_units_Z 16
_cell_length_a 11.574246
_cell_length_b 17.780837
_cell_length_c 9.199580
_cell_angle_alpha 149.841558
_cell_angle_beta 117.645241
_cell_angle_gamma 53.231285
_cell_volume 755.160358
_symmetry_space_group_name_H-M "P -1"
_symmetry_group_IT_number 2
_symmetry_cell_setting 'triclinic'
loop_
_space_group_symop_operation_xyz
x,y,z
-x,-y,-z
loop_
_atom_site_type_symbol
_atom_site_label
_atom_site_fract_x
_atom_site_fract_y
_atom_site_fract_z
Si Si1 0.089596 0.341028 0.886990
Si Si2 0.878948 0.449946 0.216687
Si Si3 0.392395 0.921516 0.756159
Si Si4 0.112636 0.075854 0.225356
Si Si5 0.356203 0.421795 0.189881
Si Si6 0.363725 0.749266 0.741767
Si Si7 0.433026 0.388344 0.847001
Si Si8 0.900078 0.773879 0.845771
O O1 0.091117 0.184635 0.538536
O O2 0.244746 0.341971 0.998331
O O3 0.000000 0.500000 0.000000
O O4 0.006869 0.376958 0.050592
O O5 0.731027 0.520037 0.157014
O O6 0.865473 0.615213 0.566929
O O7 0.936999 0.297535 0.111832
O O8 0.376436 0.805448 0.680075
O O9 0.473406 0.800112 0.468348
O O10 0.500000 0.000000 0.000000
O O11 0.229149 0.069337 0.889107
O O12 0.105429 0.181883 0.253649
O O13 0.269855 0.917895 0.055303
O O14 0.000000 0.000000 0.000000
O O15 0.289206 0.623486 0.498706
O O16 0.476625 0.345897 0.257277
O O17 0.429508 0.388337 0.018174
O O18 0.500000 0.500000 0.000000
#
# Coordination Sequence:
#
# PCOD9039134 Si02
#       8
#     2   2   2   2   2   2   2   2
#     4  12  23  41  68  94 130 175 216 271 323 388
#     4  11  24  42  67 101 126 172 224 267 323 394
#     4  11  23  43  65  94 132 174 212 269 332 387
#     4  11  24  43  66  96 134 173 211 274 332 388
#     4  11  24  44  68  97 129 173 223 267 327 392
#     4  10  25  43  65  98 131 170 220 270 327 391
#     4  12  24  42  67  96 134 170 215 270 330 391
#     4  10  23  42  66  96 130 169 218 268 323 389
#
# _framework density 21.187553999999999
#
# number of rings (size 3 to 8) (size 9 to 14) (size 15 to 20)
#    0.000    1.000    5.000    0.750    3.500    2.500 
#    0.000    1.250    0.000    0.000    0.000    0.000 
#    0.000    0.000    0.000    0.000    0.000    0.000 
#
# Total GULP energy -89371.289087 kJ/mol
# GULP energy per Si atom -5585.705568 kJ/mol
# Density = 2.113933 g / cm^3
# Si number density = 21.187554 Si / 1000 Ang^3
#
#
#
# Elastic Constant Matrix: (Units=GPa)
#
#
# Indices 1 2 3 4 5 6 
#
# 1 58.9709 3.1013 24.6340 3.1005 -1.8983 -2.4891
# 2 3.1013 81.1831 24.4652 21.5529 -8.9404 3.3473
# 3 24.6340 24.4652 132.4685 8.3659 -18.8727 5.5063
# 4 3.1005 21.5529 8.3659 27.5323 -2.7023 -1.8494
# 5 -1.8983 -8.9404 -18.8727 -2.7023 38.4640 -5.3558
# 6 -2.4891 3.3473 5.5063 -1.8494 -5.3558 9.2382
#
#
#
# Elastic Compliance Matrix: (Units=1/GPa)
#
#
# Indices 1 2 3 4 5 6 
#
# 1 0.018874 0.000341 -0.003810 -0.000747 0.000081 0.007131
# 2 0.000341 0.016696 -0.001893 -0.012877 0.001123 -0.006756
# 3 -0.003810 -0.001893 0.009305 -0.000871 0.003298 -0.004149
# 4 -0.000747 -0.012877 -0.000871 0.048021 0.002120 0.015827
# 5 0.000081 0.001123 0.003298 0.002120 0.030200 0.015582
# 6 0.007131 -0.006756 -0.004149 0.015827 0.015582 0.127291
#
#
# Mechanical properties :
#
#
# Convention : Reuss Voigt Hill
#
# Bulk Modulus (GPa) = 29.28270 41.89148 35.58709
# Shear Modulus (GPa) = 18.34891 29.74171 24.04531
#
# Velocity S-wave (km/s) = 2.94602 3.75071 3.37245
# Velocity P-wave (km/s) = 5.04210 6.21062 5.65661
#
# Compressibility (1/GPa) = 0.03414986
#
# Stress axis : x y z
#
# Youngs Moduli (GPa) = 52.98236 59.89398 107.47457
#
# Poissons Ratio (x) = -0.02040 0.40952
# Poissons Ratio (y) = -0.01805 0.20343
# Poissons Ratio (z) = 0.20188 0.11337
#
# Static dielectric constant tensor:
#      x y z
#    x 1.821700 -0.071520 0.027990 
#    y -0.071520 1.758080 0.040000 
#    z 0.027990 0.040000 1.757810 
# 
# From -- ./inp_files/209546.got.cif
#   From: 2010.05.17/outbox.cif.g08.bks.cpg/sg2_105_cif.got.tgz:209546.got - 2010.06.03 11:33:40.
