data_PCOD9039900
_publ_section_title
;
Structure prediction by ZEFSAII (Michael W. Deem and Ramdas Pophale) SiO2 
 PCOD9039900
Probable space group: P -1
;
_chemical_formula_sum "Si O2"
_cell_formula_units_Z 14
_cell_length_a 16.288629
_cell_length_b 5.488345
_cell_length_c 7.614630
_cell_angle_alpha 119.829126
_cell_angle_beta 104.487394
_cell_angle_gamma 90.646321
_cell_volume 564.250735
_symmetry_space_group_name_H-M "P -1"
_symmetry_group_IT_number 2
_symmetry_cell_setting 'triclinic'
loop_
_space_group_symop_operation_xyz
x,y,z
-x,-y,-z
loop_
_atom_site_type_symbol
_atom_site_label
_atom_site_fract_x
_atom_site_fract_y
_atom_site_fract_z
Si Si1 0.565757 0.285604 0.480657
Si Si2 0.996843 0.839127 0.127891
Si Si3 0.760916 0.341986 0.581000
Si Si4 0.740858 0.422258 0.106062
Si Si5 0.812378 0.955033 0.151595
Si Si6 0.180540 0.137644 0.389617
Si Si7 0.547441 0.245500 0.874094
O O1 0.500000 0.500000 0.500000
O O2 0.663544 0.386690 0.518723
O O3 0.566096 0.228079 0.668888
O O4 0.524812 0.029268 0.241142
O O5 0.908972 0.893622 0.188847
O O6 0.082823 0.997258 0.324636
O O7 0.000000 0.500000 0.000000
O O8 0.000000 0.000000 0.000000
O O9 0.817010 0.653839 0.703674
O O10 0.790785 0.147207 0.372643
O O11 0.768473 0.130135 0.671696
O O12 0.752290 0.646929 0.030462
O O13 0.776020 0.639039 0.360634
O O14 0.795483 0.165134 0.059929
O O15 0.641309 0.284776 0.024480
O O16 0.500000 0.500000 0.000000
#
# Coordination Sequence:
#
# PCOD9039900 Si02
#       7
#     2   2   2   2   2   2   2
#     4  11  28  46  72 110 151 196 251 320 372 445
#     4  12  26  44  67 106 149 187 241 305 375 438
#     4  10  23  44  73  99 141 187 243 295 370 433
#     4  10  23  42  72 102 135 188 249 294 363 437
#     4  10  23  43  68 102 139 190 242 297 366 444
#     4  10  23  44  70 101 139 187 242 299 362 443
#     4  11  26  47  73 106 151 199 255 312 378 449
#
# _framework density 24.811664
#
# number of rings (size 3 to 8) (size 9 to 14) (size 15 to 20)
#    0.000    1.429    0.000    3.429   10.000    8.571 
#    0.000    0.000    0.000    0.000    0.000    0.000 
#    0.000    0.000    0.000    0.000    0.000    0.000 
#
# Total GULP energy -78268.013284 kJ/mol
# GULP energy per Si atom -5590.572377 kJ/mol
# Density = 2.475519 g / cm^3
# Si number density = 24.811664 Si / 1000 Ang^3
#
#
#
# Elastic Constant Matrix: (Units=GPa)
#
#
# Indices 1 2 3 4 5 6 
#
# 1 180.0074 34.8624 36.9431 28.5293 27.8240 -22.4034
# 2 34.8624 190.7896 37.9191 31.0028 -1.1362 -17.7864
# 3 36.9431 37.9191 129.5428 19.9583 19.3349 -5.4305
# 4 28.5293 31.0028 19.9583 56.0191 3.6659 -7.0041
# 5 27.8240 -1.1362 19.3349 3.6659 48.8859 1.8823
# 6 -22.4034 -17.7864 -5.4305 -7.0041 1.8823 50.5033
#
#
#
# Elastic Compliance Matrix: (Units=1/GPa)
#
#
# Indices 1 2 3 4 5 6 
#
# 1 0.007115 -0.000502 -0.000845 -0.002471 -0.003645 0.002682
# 2 -0.000502 0.006159 -0.001372 -0.002561 0.001110 0.001402
# 3 -0.000845 -0.001372 0.009096 -0.001858 -0.003008 -0.000025
# 4 -0.002471 -0.002561 -0.001858 0.021250 0.000460 0.000732
# 5 -0.003645 0.001110 -0.003008 0.000460 0.023803 -0.002373
# 6 0.002682 0.001402 -0.000025 0.000732 -0.002373 0.021671
#
#
# Mechanical properties :
#
#
# Convention : Reuss Voigt Hill
#
# Bulk Modulus (GPa) = 59.06004 79.97656 69.51830
# Shear Modulus (GPa) = 49.91173 57.12266 53.51719
#
# Velocity S-wave (km/s) = 4.48998 4.80338 4.64932
# Velocity P-wave (km/s) = 7.12284 7.94146 7.54326
#
# Compressibility (1/GPa) = 0.01693192
#
# Stress axis : x y z
#
# Youngs Moduli (GPa) = 140.55383 162.35317 109.93722
#
# Poissons Ratio (x) = 0.08157 0.09288
# Poissons Ratio (y) = 0.07061 0.15082
# Poissons Ratio (z) = 0.11875 0.22273
#
# Static dielectric constant tensor:
#      x y z
#    x 2.048470 0.209140 -0.146950 
#    y 0.209140 2.207780 -0.297130 
#    z -0.146950 -0.297130 2.329970 
# 
# From -- ./inp_files/107848.got.cif
#   From: 2010.05.17/outbox.cif.g08.bks.cpg/sg2_54_cif.got.tgz:107848.got - 2010.06.03 11:33:40.
