data_PCOD9039465
_publ_section_title
;
Structure prediction by ZEFSAII (Michael W. Deem and Ramdas Pophale) SiO2 
 PCOD9039465
Probable space group: P -1
;
_chemical_formula_sum "Si O2"
_cell_formula_units_Z 16
_cell_length_a 9.931246
_cell_length_b 8.394066
_cell_length_c 11.707414
_cell_angle_alpha 114.545210
_cell_angle_beta 57.449090
_cell_angle_gamma 117.322471
_cell_volume 712.151925
_symmetry_space_group_name_H-M "P -1"
_symmetry_group_IT_number 2
_symmetry_cell_setting 'triclinic'
loop_
_space_group_symop_operation_xyz
x,y,z
-x,-y,-z
loop_
_atom_site_type_symbol
_atom_site_label
_atom_site_fract_x
_atom_site_fract_y
_atom_site_fract_z
Si Si1 0.564666 0.472166 0.832718
Si Si2 0.885097 0.350636 0.095353
Si Si3 0.306494 0.886846 0.070102
Si Si4 0.592260 0.351887 0.385562
Si Si5 0.864451 0.457519 0.808042
Si Si6 0.324002 0.223313 0.298591
Si Si7 0.021996 0.807052 0.475071
Si Si8 0.370765 0.817223 0.447310
O O1 0.761494 0.517638 0.777297
O O2 0.549999 0.626326 0.796620
O O3 0.534247 0.277037 0.719331
O O4 0.500000 0.500000 0.000000
O O5 0.741080 0.410480 0.243165
O O6 0.022700 0.358746 0.129714
O O7 0.793406 0.163925 0.017174
O O8 0.000000 0.500000 0.000000
O O9 0.265600 0.690733 0.093954
O O10 0.247895 0.028672 0.214162
O O11 0.500000 0.000000 0.000000
O O12 0.500000 0.500000 0.500000
O O13 0.438717 0.198368 0.345540
O O14 0.663988 0.304457 0.457464
O O15 0.965638 0.330203 0.672408
O O16 0.162931 0.286452 0.417255
O O17 0.194569 0.832656 0.478206
O O18 0.000000 0.000000 0.500000
O O19 0.500000 0.000000 0.500000
#
# Coordination Sequence:
#
# PCOD9039465 Si02
#       8
#     2   2   2   2   2   2   2   2
#     4  11  26  45  69 100 145 187 233 295 365 435
#     4  10  24  41  67 102 143 187 239 293 360 433
#     4  11  21  41  67  97 135 184 238 283 354 427
#     4  12  24  44  73 106 141 187 242 297 358 438
#     4  10  23  42  68  96 139 185 230 295 351 423
#     4  12  24  42  70 103 136 187 237 289 361 428
#     4  11  23  45  71 102 140 181 238 293 362 423
#     4  11  27  46  73 109 144 187 241 307 361 428
#
# _framework density 22.467117999999999
#
# number of rings (size 3 to 8) (size 9 to 14) (size 15 to 20)
#    0.000    1.000    3.750    2.250    5.250    2.000 
#    2.250    0.625    0.000    0.000    0.000    0.000 
#    0.000    0.000    0.000    0.000    0.000    0.000 
#
# Total GULP energy -89073.234493 kJ/mol
# GULP energy per Si atom -5567.077156 kJ/mol
# Density = 2.241598 g / cm^3
# Si number density = 22.467118 Si / 1000 Ang^3
#
#
#
# Elastic Constant Matrix: (Units=GPa)
#
#
# Indices 1 2 3 4 5 6 
#
# 1 128.7874 59.4906 33.3746 12.7772 20.2679 14.2654
# 2 59.4906 77.6979 43.1319 9.3236 11.0179 28.4977
# 3 33.3746 43.1319 150.6496 -2.0268 -6.0499 14.0429
# 4 12.7772 9.3236 -2.0268 44.6549 13.5812 11.2876
# 5 20.2679 11.0179 -6.0499 13.5812 36.4259 7.5039
# 6 14.2654 28.4977 14.0429 11.2876 7.5039 46.0295
#
#
#
# Elastic Compliance Matrix: (Units=1/GPa)
#
#
# Indices 1 2 3 4 5 6 
#
# 1 0.013050 -0.010202 -0.000488 -0.001110 -0.004550 0.003435
# 2 -0.010202 0.028004 -0.004613 0.000404 -0.001097 -0.012688
# 3 -0.000488 -0.004613 0.008199 0.000648 0.002810 -0.000111
# 4 -0.001110 0.000404 0.000648 0.026476 -0.008184 -0.005262
# 5 -0.004550 -0.001097 0.002810 -0.008184 0.034320 -0.002356
# 6 0.003435 -0.012688 -0.000111 -0.005262 -0.002356 0.030225
#
#
# Mechanical properties :
#
#
# Convention : Reuss Voigt Hill
#
# Bulk Modulus (GPa) = 53.63298 69.90324 61.76811
# Shear Modulus (GPa) = 28.23361 40.16456 34.19908
#
# Velocity S-wave (km/s) = 3.54879 4.23271 3.90575
# Velocity P-wave (km/s) = 6.38087 7.42084 6.92042
#
# Compressibility (1/GPa) = 0.01864524
#
# Stress axis : x y z
#
# Youngs Moduli (GPa) = 76.63099 35.70966 121.97038
#
# Poissons Ratio (x) = 0.36432 0.05950
# Poissons Ratio (y) = 0.78180 0.56268
# Poissons Ratio (z) = 0.03739 0.16474
#
# Static dielectric constant tensor:
#      x y z
#    x 1.875390 -0.002860 0.032630 
#    y -0.002860 1.904060 -0.015630 
#    z 0.032630 -0.015630 1.887850 
# 
# From -- ./inp_files/382870.got.cif
#   From: 2010.05.17/outbox.cif.g08.bks.cpg/sg2_192_cif.got.tgz:382870.got - 2010.06.03 11:33:40.
