data_PCOD9039034
_publ_section_title
;
Structure prediction by ZEFSAII (Michael W. Deem and Ramdas Pophale) SiO2 
 PCOD9039034
Probable space group: P -1
;
_chemical_formula_sum "Si O2"
_cell_formula_units_Z 16
_cell_length_a 11.502970
_cell_length_b 17.244819
_cell_length_c 8.657751
_cell_angle_alpha 96.452576
_cell_angle_beta 133.416346
_cell_angle_gamma 46.062363
_cell_volume 644.250407
_symmetry_space_group_name_H-M "P -1"
_symmetry_group_IT_number 2
_symmetry_cell_setting 'triclinic'
loop_
_space_group_symop_operation_xyz
x,y,z
-x,-y,-z
loop_
_atom_site_type_symbol
_atom_site_label
_atom_site_fract_x
_atom_site_fract_y
_atom_site_fract_z
Si Si1 0.748349 0.844576 0.378589
Si Si2 0.544104 0.357414 0.262265
Si Si3 0.147433 0.678584 0.232785
Si Si4 0.628949 0.117091 0.793845
Si Si5 0.649574 0.618754 0.232706
Si Si6 0.710424 0.150197 0.541128
Si Si7 0.591416 0.850818 0.913795
Si Si8 0.291366 0.631585 0.031634
O O1 0.604287 0.855849 0.388962
O O2 0.092107 0.720657 0.715210
O O3 0.570306 0.999076 0.229753
O O4 0.703899 0.807505 0.182467
O O5 0.847401 0.271511 0.594970
O O6 0.490534 0.315896 0.340299
O O7 0.515908 0.321846 0.070897
O O8 0.339502 0.519064 0.076905
O O9 0.500000 0.500000 0.500000
O O10 0.114999 0.733286 0.048977
O O11 0.885997 0.724603 0.039744
O O12 0.509104 0.247582 0.784945
O O13 0.661454 0.121166 0.644562
O O14 0.940317 0.967803 0.138531
O O15 0.000000 0.500000 0.500000
O O16 0.586501 0.563451 0.254460
O O17 0.647642 0.117079 0.337030
#
# Coordination Sequence:
#
# PCOD9039034 Si02
#       8
#     2   2   2   2   2   2   2   2
#     4  11  24  44  72 103 137 180 229 283 345 408
#     4  11  24  42  67  97 136 180 224 277 336 403
#     4  10  23  42  65  97 135 180 227 275 333 403
#     4  11  25  45  69 100 138 181 230 285 345 404
#     4  12  26  44  69 101 140 180 224 280 344 411
#     4  11  25  45  69 100 139 180 230 288 341 402
#     4  11  24  43  71 103 137 179 230 286 342 404
#     4  11  24  45  69  99 139 181 228 278 340 413
#
# _framework density 24.835065
#
# number of rings (size 3 to 8) (size 9 to 14) (size 15 to 20)
#    0.000    1.000    0.000    5.625    0.000   14.000 
#    0.000    8.125    0.000    0.000    0.000    0.000 
#    0.000    0.000    0.000    0.000    0.000    0.000 
#
# Total GULP energy -89399.626749 kJ/mol
# GULP energy per Si atom -5587.476672 kJ/mol
# Density = 2.477854 g / cm^3
# Si number density = 24.835065 Si / 1000 Ang^3
#
#
#
# Elastic Constant Matrix: (Units=GPa)
#
#
# Indices 1 2 3 4 5 6 
#
# 1 83.2165 1.6714 33.4758 -14.8614 5.7773 13.8667
# 2 1.6714 63.2567 28.0648 -5.1664 -7.8569 15.0383
# 3 33.4758 28.0648 127.5913 12.8083 -4.4450 4.5836
# 4 -14.8614 -5.1664 12.8083 41.7924 -1.3320 -7.2080
# 5 5.7773 -7.8569 -4.4450 -1.3320 38.3197 3.7432
# 6 13.8667 15.0383 4.5836 -7.2080 3.7432 34.8252
#
#
#
# Elastic Compliance Matrix: (Units=1/GPa)
#
#
# Indices 1 2 3 4 5 6 
#
# 1 0.016622 0.003917 -0.005777 0.007096 -0.001549 -0.005915
# 2 0.003917 0.021376 -0.005663 0.004246 0.004223 -0.009620
# 3 -0.005777 -0.005663 0.011129 -0.005798 0.000602 0.002016
# 4 0.007096 0.004246 -0.005798 0.029120 -0.000068 0.002138
# 5 -0.001549 0.004223 0.000602 -0.000068 0.027681 -0.004276
# 6 -0.005915 -0.009620 0.002016 0.002138 -0.004276 0.035861
#
#
# Mechanical properties :
#
#
# Convention : Reuss Voigt Hill
#
# Bulk Modulus (GPa) = 29.34079 44.49873 36.91976
# Shear Modulus (GPa) = 29.72745 37.04429 33.38587
#
# Velocity S-wave (km/s) = 3.46351 3.86633 3.67045
# Velocity P-wave (km/s) = 5.27584 6.15532 5.73247
#
# Compressibility (1/GPa) = 0.03408225
#
# Stress axis : x y z
#
# Youngs Moduli (GPa) = 60.16031 46.78161 89.85248
#
# Poissons Ratio (x) = -0.18324 0.51903
# Poissons Ratio (y) = -0.23565 0.50884
# Poissons Ratio (z) = 0.34752 0.26493
#
# Static dielectric constant tensor:
#      x y z
#    x 2.001710 -0.042740 -0.037320 
#    y -0.042740 2.018340 -0.011010 
#    z -0.037320 -0.011010 1.979750 
# 
# From -- ./inp_files/279570.got.cif
#   From: 2010.05.17/outbox.cif.g08.bks.cpg/sg2_140_cif.got.tgz:279570.got - 2010.06.03 11:33:40.
