data_PCOD9039776
_publ_section_title
;
Structure prediction by ZEFSAII (Michael W. Deem and Ramdas Pophale) SiO2 
 PCOD9039776
Probable space group: P -1
;
_chemical_formula_sum "Si O2"
_cell_formula_units_Z 16
_cell_length_a 9.365368
_cell_length_b 5.297791
_cell_length_c 17.454281
_cell_angle_alpha 94.341814
_cell_angle_beta 130.016801
_cell_angle_gamma 80.834087
_cell_volume 654.359152
_symmetry_space_group_name_H-M "P -1"
_symmetry_group_IT_number 2
_symmetry_cell_setting 'triclinic'
loop_
_space_group_symop_operation_xyz
x,y,z
-x,-y,-z
loop_
_atom_site_type_symbol
_atom_site_label
_atom_site_fract_x
_atom_site_fract_y
_atom_site_fract_z
Si Si1 0.604998 0.696549 0.587151
Si Si2 0.329722 0.386426 0.688941
Si Si3 0.680343 0.607247 0.035666
Si Si4 0.123922 0.950516 0.674818
Si Si5 0.273706 0.060149 0.519426
Si Si6 0.007639 0.281614 0.220715
Si Si7 0.096252 0.078566 0.945698
Si Si8 0.746799 0.318907 0.891244
O O1 0.500000 0.500000 0.500000
O O2 0.675947 0.866969 0.547809
O O3 0.800608 0.604378 0.694355
O O4 0.449937 0.844254 0.593987
O O5 0.237835 0.678387 0.679576
O O6 0.278802 0.291931 0.584833
O O7 0.554715 0.349760 0.778453
O O8 0.243531 0.182767 0.710025
O O9 0.721814 0.893029 0.043574
O O10 0.839441 0.500812 0.148464
O O11 0.500000 0.500000 0.000000
O O12 0.711901 0.502453 0.956965
O O13 0.932206 0.019169 0.560318
O O14 0.055067 0.885597 0.734245
O O15 0.020229 0.105817 0.146037
O O16 0.938719 0.327108 0.910265
O O17 0.191497 0.956882 0.052926
#
# Coordination Sequence:
#
# PCOD9039776 Si02
#       8
#     2   2   2   2   2   2   2   2
#     4  10  23  42  71 100 138 180 239 295 353 431
#     4  12  26  44  71 101 141 189 238 292 361 428
#     4  11  24  40  69 100 139 185 235 294 361 423
#     4  11  27  43  70 101 144 181 240 295 357 431
#     4  10  24  44  65 100 135 185 235 291 363 418
#     4  10  24  41  66 101 133 185 234 289 359 418
#     4  10  23  45  67  95 144 181 238 298 355 433
#     4  10  24  42  66 101 136 185 240 290 361 419
#
# _framework density 24.451405000000001
#
# number of rings (size 3 to 8) (size 9 to 14) (size 15 to 20)
#    0.000    1.500    0.000    2.625   12.250    4.000 
#    0.000    0.000    0.000    0.000    0.000    0.000 
#    0.000    0.000    0.000    0.000    0.000    0.000 
#
# Total GULP energy -89355.662898 kJ/mol
# GULP energy per Si atom -5584.728931 kJ/mol
# Density = 2.439575 g / cm^3
# Si number density = 24.451405 Si / 1000 Ang^3
#
#
#
# Elastic Constant Matrix: (Units=GPa)
#
#
# Indices 1 2 3 4 5 6 
#
# 1 97.6301 25.4095 34.8283 3.1560 18.7317 9.1632
# 2 25.4095 56.4694 0.0660 9.8058 12.6668 -3.9261
# 3 34.8283 0.0660 114.4434 1.0389 30.8269 -2.3111
# 4 3.1560 9.8058 1.0389 31.3302 -1.6498 -3.7009
# 5 18.7317 12.6668 30.8269 -1.6498 55.0740 7.0631
# 6 9.1632 -3.9261 -2.3111 -3.7009 7.0631 36.1454
#
#
#
# Elastic Compliance Matrix: (Units=1/GPa)
#
#
# Indices 1 2 3 4 5 6 
#
# 1 0.013925 -0.006552 -0.004252 0.000251 -0.000273 -0.004435
# 2 -0.006552 0.023515 0.003794 -0.006560 -0.006140 0.004986
# 3 -0.004252 0.003794 0.011871 -0.001094 -0.006542 0.003415
# 4 0.000251 -0.006560 -0.001094 0.034381 0.002793 0.002128
# 5 -0.000273 -0.006140 -0.006542 0.002793 0.024105 -0.005440
# 6 -0.004435 0.004986 0.003415 0.002128 -0.005440 0.030831
#
#
# Mechanical properties :
#
#
# Convention : Reuss Voigt Hill
#
# Bulk Modulus (GPa) = 28.33481 43.23895 35.78688
# Shear Modulus (GPa) = 30.41131 38.39252 34.40192
#
# Velocity S-wave (km/s) = 3.53050 3.96682 3.75500
# Velocity P-wave (km/s) = 5.31344 6.22116 5.78513
#
# Compressibility (1/GPa) = 0.03529228
#
# Stress axis : x y z
#
# Youngs Moduli (GPa) = 71.81130 42.52540 84.23972
#
# Poissons Ratio (x) = 0.27861 0.35822
# Poissons Ratio (y) = 0.47048 -0.31964
# Poissons Ratio (z) = 0.30537 -0.16136
#
# Static dielectric constant tensor:
#      x y z
#    x 2.055880 0.036260 -0.015670 
#    y 0.036260 2.075800 -0.028680 
#    z -0.015670 -0.028680 1.933990 
# 
# From -- ./inp_files/118481.got.cif
#   From: 2010.05.17/outbox.cif.g08.bks.cpg/sg2_60_cif.got.tgz:118481.got - 2010.06.03 11:33:40.
