data_PCOD9039417
_publ_section_title
;
Structure prediction by ZEFSAII (Michael W. Deem and Ramdas Pophale) SiO2 
 PCOD9039417
Probable space group: P -1
;
_chemical_formula_sum "Si O2"
_cell_formula_units_Z 12
_cell_length_a 13.467527
_cell_length_b 9.881554
_cell_length_c 4.994446
_cell_angle_alpha 69.558309
_cell_angle_beta 107.392048
_cell_angle_gamma 62.934517
_cell_volume 463.665747
_symmetry_space_group_name_H-M "P -1"
_symmetry_group_IT_number 2
_symmetry_cell_setting 'triclinic'
loop_
_space_group_symop_operation_xyz
x,y,z
-x,-y,-z
loop_
_atom_site_type_symbol
_atom_site_label
_atom_site_fract_x
_atom_site_fract_y
_atom_site_fract_z
Si Si1 0.077452 0.529585 0.758085
Si Si2 0.354546 0.321111 0.935711
Si Si3 0.691178 0.816803 0.520546
Si Si4 0.987105 0.146134 0.187254
Si Si5 0.622154 0.205225 0.103576
Si Si6 0.772019 0.172613 0.724818
O O1 0.203076 0.499828 0.738545
O O2 0.002154 0.720735 0.720255
O O3 0.000000 0.500000 0.500000
O O4 0.841169 0.641612 0.848683
O O5 0.342568 0.205569 0.786896
O O6 0.392799 0.210443 0.322801
O O7 0.462990 0.338310 0.905614
O O8 0.665640 0.008271 0.378015
O O9 0.842959 0.247743 0.867366
O O10 0.000000 0.000000 0.500000
O O11 0.100637 0.033824 0.129650
O O12 0.687109 0.260026 0.326191
O O13 0.681165 0.180177 0.875367
#
# Coordination Sequence:
#
# PCOD9039417 Si02
#       6
#     2   2   2   2   2   2
#     4  10  27  47  76 109 147 192 242 300 370 419
#     4  10  23  43  70 108 150 187 232 303 355 434
#     4  10  23  42  68 106 150 186 232 300 354 428
#     4  11  25  51  73 103 146 194 250 296 356 434
#     4  12  22  44  74 112 140 192 245 286 368 431
#     4  11  26  42  78 101 141 193 245 298 347 440
#
# _framework density 25.880711999999999
#
# number of rings (size 3 to 8) (size 9 to 14) (size 15 to 20)
#    1.000    0.333    1.667    3.000    4.667    3.333 
#    0.000    2.500    0.000    0.000    0.000    0.000 
#    0.000    0.000    0.000    0.000    0.000    0.000 
#
# Total GULP energy -67189.489276 kJ/mol
# GULP energy per Si atom -5599.124106 kJ/mol
# Density = 2.582181 g / cm^3
# Si number density = 25.880712 Si / 1000 Ang^3
#
#
#
# Elastic Constant Matrix: (Units=GPa)
#
#
# Indices 1 2 3 4 5 6 
#
# 1 156.3014 62.8550 16.6673 16.1499 4.2710 -30.2215
# 2 62.8550 130.4441 41.2297 20.7645 -15.2117 4.4938
# 3 16.6673 41.2297 54.7057 18.9770 -8.4009 -6.2270
# 4 16.1499 20.7645 18.9770 45.7598 2.3951 -3.1184
# 5 4.2710 -15.2117 -8.4009 2.3951 50.1146 20.3876
# 6 -30.2215 4.4938 -6.2270 -3.1184 20.3876 47.1429
#
#
#
# Elastic Compliance Matrix: (Units=1/GPa)
#
#
# Indices 1 2 3 4 5 6 
#
# 1 0.011825 -0.007757 0.002587 -0.000502 -0.007785 0.011995
# 2 -0.007757 0.015991 -0.008937 -0.002069 0.008852 -0.011643
# 3 0.002587 -0.008937 0.027575 -0.007888 -0.000272 0.005749
# 4 -0.000502 -0.002069 -0.007888 0.026621 -0.004152 0.002390
# 5 -0.007785 0.008852 -0.000272 -0.004152 0.031499 -0.019767
# 6 0.011995 -0.011643 0.005749 0.002390 -0.019767 0.039478
#
#
# Mechanical properties :
#
#
# Convention : Reuss Voigt Hill
#
# Bulk Modulus (GPa) = 36.79302 64.77282 50.78292
# Shear Modulus (GPa) = 26.27953 43.31672 34.79813
#
# Velocity S-wave (km/s) = 3.19001 4.09553 3.67080
# Velocity P-wave (km/s) = 5.27403 6.88813 6.13440
#
# Compressibility (1/GPa) = 0.02717907
#
# Stress axis : x y z
#
# Youngs Moduli (GPa) = 84.56449 62.53393 36.26432
#
# Poissons Ratio (x) = 0.48508 -0.09383
# Poissons Ratio (y) = 0.65597 0.32408
# Poissons Ratio (z) = -0.21879 0.55885
#
# Static dielectric constant tensor:
#      x y z
#    x 2.069640 -0.077560 0.017630 
#    y -0.077560 2.040520 -0.062610 
#    z 0.017630 -0.062610 2.041470 
# 
# From -- ./inp_files/61485.got.cif
#   From: 2010.05.17/outbox.cif.g08.bks.cpg/sg2_31_cif.got.tgz:61485.got - 2010.06.03 11:33:40.
