data_PCOD9039464
_publ_section_title
;
Structure prediction by ZEFSAII (Michael W. Deem and Ramdas Pophale) SiO2 
 PCOD9039464
Probable space group: P -1
;
_chemical_formula_sum "Si O2"
_cell_formula_units_Z 16
_cell_length_a 11.971385
_cell_length_b 5.879827
_cell_length_c 10.696783
_cell_angle_alpha 63.202614
_cell_angle_beta 90.341394
_cell_angle_gamma 99.253639
_cell_volume 661.440767
_symmetry_space_group_name_H-M "P -1"
_symmetry_group_IT_number 2
_symmetry_cell_setting 'triclinic'
loop_
_space_group_symop_operation_xyz
x,y,z
-x,-y,-z
loop_
_atom_site_type_symbol
_atom_site_label
_atom_site_fract_x
_atom_site_fract_y
_atom_site_fract_z
Si Si1 0.916393 0.123086 0.824130
Si Si2 0.519165 0.602850 0.614991
Si Si3 0.074009 0.274096 0.580324
Si Si4 0.737013 0.386231 0.365437
Si Si5 0.223364 0.125549 0.404461
Si Si6 0.540952 0.306340 0.943744
Si Si7 0.794349 0.441041 0.879480
Si Si8 0.114130 0.420905 0.905970
O O1 0.810105 0.271566 0.798300
O O2 0.987266 0.074896 0.713913
O O3 0.008928 0.359226 0.826408
O O4 0.882872 0.874014 0.974341
O O5 0.500000 0.500000 0.500000
O O6 0.398629 0.693404 0.616731
O O7 0.647162 0.763860 0.578423
O O8 0.522118 0.413794 0.778965
O O9 0.194013 0.351301 0.636961
O O10 0.120703 0.184197 0.474388
O O11 0.000000 0.500000 0.500000
O O12 0.785734 0.420769 0.217070
O O13 0.782019 0.177509 0.505349
O O14 0.212223 0.268763 0.238134
O O15 0.673609 0.334212 0.962713
O O16 0.500000 0.500000 0.000000
O O17 0.500000 0.000000 0.000000
O O18 0.879794 0.433633 0.997577
#
# Coordination Sequence:
#
# PCOD9039464 Si02
#       8
#     2   2   2   2   2   2   2   2
#     4  10  23  42  68  96 139 181 240 304 352 453
#     4  11  24  47  75 110 144 194 247 310 381 451
#     4  11  23  43  65  98 136 180 235 289 365 426
#     4  11  25  43  71  98 140 180 240 293 369 443
#     4  11  25  43  68 105 134 186 234 304 368 442
#     4  11  28  50  76 114 152 199 258 317 385 461
#     4  11  24  41  72  97 140 186 238 302 376 436
#     4  10  24  43  66 101 136 185 237 293 375 431
#
# _framework density 24.189619
#
# number of rings (size 3 to 8) (size 9 to 14) (size 15 to 20)
#    0.000    1.250    2.500    1.500    5.250    9.500 
#    0.000    0.000    0.000    0.000    0.000    0.000 
#    0.000    0.000    0.000    0.000    0.000    0.000 
#
# Total GULP energy -89095.290800 kJ/mol
# GULP energy per Si atom -5568.455675 kJ/mol
# Density = 2.413456 g / cm^3
# Si number density = 24.189619 Si / 1000 Ang^3
#
#
#
# Elastic Constant Matrix: (Units=GPa)
#
#
# Indices 1 2 3 4 5 6 
#
# 1 119.4548 24.2820 1.0550 4.7500 -32.7754 9.1405
# 2 24.2820 67.1082 31.3086 9.5384 -24.4398 9.0980
# 3 1.0550 31.3086 94.9475 15.5618 -22.5215 8.3455
# 4 4.7500 9.5384 15.5618 42.7450 4.3749 4.6629
# 5 -32.7754 -24.4398 -22.5215 4.3749 46.0129 6.8679
# 6 9.1405 9.0980 8.3455 4.6629 6.8679 31.0624
#
#
#
# Elastic Compliance Matrix: (Units=1/GPa)
#
#
# Indices 1 2 3 4 5 6 
#
# 1 0.012279 -0.000746 0.003930 -0.003097 0.011545 -0.006538
# 2 -0.000746 0.022390 -0.003433 -0.004011 0.011149 -0.007279
# 3 0.003930 -0.003433 0.015389 -0.005672 0.009887 -0.005620
# 4 -0.003097 -0.004011 -0.005672 0.027537 -0.009982 0.001683
# 5 0.011545 0.011149 0.009887 -0.009982 0.044295 -0.017614
# 6 -0.006538 -0.007279 -0.005620 0.001683 -0.017614 0.041401
#
#
# Mechanical properties :
#
#
# Convention : Reuss Voigt Hill
#
# Bulk Modulus (GPa) = 20.17705 43.86686 32.02196
# Shear Modulus (GPa) = 27.73022 38.95505 33.34264
#
# Velocity S-wave (km/s) = 3.38948 4.01734 3.71669
# Velocity P-wave (km/s) = 4.86594 6.30021 5.62894
#
# Compressibility (1/GPa) = 0.04956126
#
# Stress axis : x y z
#
# Youngs Moduli (GPa) = 81.43829 44.66313 64.98054
#
# Poissons Ratio (x) = 0.03330 -0.25538
# Poissons Ratio (y) = 0.06072 0.22308
# Poissons Ratio (z) = -0.32006 0.15333
#
# Static dielectric constant tensor:
#      x y z
#    x 1.990250 0.008800 -0.005990 
#    y 0.008800 2.163830 0.063640 
#    z -0.005990 0.063640 1.980570 
# 
# From -- ./inp_files/364569.got.cif
#   From: 2010.05.17/outbox.cif.g08.bks.cpg/sg2_183_cif.got.tgz:364569.got - 2010.06.03 11:33:40.
