data_PCOD9039626
_publ_section_title
;
Structure prediction by ZEFSAII (Michael W. Deem and Ramdas Pophale) SiO2 
 PCOD9039626
Probable space group: P -1
;
_chemical_formula_sum "Si O2"
_cell_formula_units_Z 14
_cell_length_a 11.273869
_cell_length_b 10.888738
_cell_length_c 14.367172
_cell_angle_alpha 73.289895
_cell_angle_beta 42.074139
_cell_angle_gamma 40.818073
_cell_volume 602.392859
_symmetry_space_group_name_H-M "P -1"
_symmetry_group_IT_number 2
_symmetry_cell_setting 'triclinic'
loop_
_space_group_symop_operation_xyz
x,y,z
-x,-y,-z
loop_
_atom_site_type_symbol
_atom_site_label
_atom_site_fract_x
_atom_site_fract_y
_atom_site_fract_z
Si Si1 0.450133 0.165641 0.047780
Si Si2 0.463606 0.266144 0.822764
Si Si3 0.082128 0.523740 0.545371
Si Si4 0.122530 0.791643 0.020426
Si Si5 0.153465 0.201421 0.971938
Si Si6 0.300488 0.988432 0.613043
Si Si7 0.854341 0.258730 0.640199
O O1 0.178553 0.344374 0.248399
O O2 0.786697 0.953039 0.958880
O O3 0.382101 0.302689 0.973309
O O4 0.500000 0.000000 0.000000
O O5 0.430309 0.142520 0.831163
O O6 0.776695 0.165945 0.666488
O O7 0.187104 0.514969 0.873034
O O8 0.081684 0.673016 0.488434
O O9 0.000000 0.500000 0.500000
O O10 0.436931 0.269494 0.437501
O O11 0.885385 0.833118 0.098762
O O12 0.031680 0.828127 0.172160
O O13 0.506947 0.524078 0.831910
O O14 0.000000 0.000000 0.000000
O O15 0.163436 0.059619 0.573343
O O16 0.500000 0.000000 0.500000
#
# Coordination Sequence:
#
# PCOD9039626 Si02
#       7
#     2   2   2   2   2   2   2
#     4  10  23  42  69  97 133 183 231 278 347 416
#     4   9  21  41  67  96 123 184 231 271 327 423
#     4  12  25  42  66 104 142 179 228 294 350 408
#     4  11  23  41  68 102 139 181 225 287 348 411
#     4   9  20  39  66  92 131 170 228 273 338 394
#     4  12  26  41  65 102 142 182 219 286 359 412
#     4  11  25  41  66 103 138 176 231 286 343 413
#
# _framework density 23.240648
#
# number of rings (size 3 to 8) (size 9 to 14) (size 15 to 20)
#    0.000    1.429    2.857    1.286    6.000    0.000 
#    0.000    2.857    0.000   24.857    0.000    0.000 
#    0.000    0.000    0.000    0.000    0.000    0.000 
#
# Total GULP energy -78072.691920 kJ/mol
# GULP energy per Si atom -5576.620851 kJ/mol
# Density = 2.318775 g / cm^3
# Si number density = 23.240648 Si / 1000 Ang^3
#
#
#
# Elastic Constant Matrix: (Units=GPa)
#
#
# Indices 1 2 3 4 5 6 
#
# 1 110.5206 50.2289 33.6573 -4.2010 -33.7578 -0.6271
# 2 50.2289 89.8036 42.3767 -1.7252 -9.5913 -34.9785
# 3 33.6573 42.3767 120.2667 -1.3428 13.8262 -6.0454
# 4 -4.2010 -1.7252 -1.3428 38.7795 3.2668 -12.4670
# 5 -33.7578 -9.5913 13.8262 3.2668 39.3403 -2.8338
# 6 -0.6271 -34.9785 -6.0454 -12.4670 -2.8338 38.8945
#
#
#
# Elastic Compliance Matrix: (Units=1/GPa)
#
#
# Indices 1 2 3 4 5 6 
#
# 1 0.020269 -0.012645 -0.003566 -0.003492 0.015016 -0.011625
# 2 -0.012645 0.035271 -0.007277 0.010705 0.001863 0.033952
# 3 -0.003566 -0.007277 0.012676 -0.001312 -0.009595 -0.005751
# 4 -0.003492 0.010705 -0.001312 0.032246 -0.001190 0.019616
# 5 0.015016 0.001863 -0.009595 -0.001190 0.042455 0.003137
# 6 -0.011625 0.033952 -0.005751 0.019616 0.003137 0.061679
#
#
# Mechanical properties :
#
#
# Convention : Reuss Voigt Hill
#
# Bulk Modulus (GPa) = 47.08335 63.67963 55.38149
# Shear Modulus (GPa) = 19.33101 36.35808 27.84454
#
# Velocity S-wave (km/s) = 2.88718 3.95956 3.46511
# Velocity P-wave (km/s) = 5.60513 6.95441 6.31590
#
# Compressibility (1/GPa) = 0.02123893
#
# Stress axis : x y z
#
# Youngs Moduli (GPa) = 49.33714 28.35225 78.88725
#
# Poissons Ratio (x) = 0.35851 0.28134
# Poissons Ratio (y) = 0.62387 0.57406
# Poissons Ratio (z) = 0.17595 0.20632
#
# Static dielectric constant tensor:
#      x y z
#    x 2.017400 0.010790 0.073810 
#    y 0.010790 1.918150 0.024040 
#    z 0.073810 0.024040 1.948800 
# 
# From -- ./inp_files/446968.got.cif
#   From: 2010.05.17/outbox.cif.g08.bks.cpg/sg2_224_cif.got.tgz:446968.got - 2010.06.03 11:33:40.
