data_PCOD9039185
_publ_section_title
;
Structure prediction by ZEFSAII (Michael W. Deem and Ramdas Pophale) SiO2 
 PCOD9039185
Probable space group: P -1
;
_chemical_formula_sum "Si O2"
_cell_formula_units_Z 15
_cell_length_a 10.884986
_cell_length_b 14.321079
_cell_length_c 9.155675
_cell_angle_alpha 112.141431
_cell_angle_beta 115.182805
_cell_angle_gamma 123.702786
_cell_volume 623.785183
_symmetry_space_group_name_H-M "P -1"
_symmetry_group_IT_number 2
_symmetry_cell_setting 'triclinic'
loop_
_space_group_symop_operation_xyz
x,y,z
-x,-y,-z
loop_
_atom_site_type_symbol
_atom_site_label
_atom_site_fract_x
_atom_site_fract_y
_atom_site_fract_z
Si Si1 0.266958 0.955508 0.906598
Si Si2 0.231142 0.213190 0.389526
Si Si3 0.670170 0.594341 0.001857
Si Si4 0.000000 0.500000 0.000000
Si Si5 0.039302 0.704710 0.905528
Si Si6 0.741379 0.405192 0.329650
Si Si7 0.108118 0.173234 0.983008
Si Si8 0.019253 0.670915 0.370390
O O1 0.264650 0.892383 0.022156
O O2 0.000596 0.855806 0.724999
O O3 0.222371 0.843323 0.692674
O O4 0.497755 0.179554 0.114735
O O5 0.503346 0.414996 0.710938
O O6 0.237805 0.213980 0.218665
O O7 0.151169 0.052847 0.307421
O O8 0.713473 0.721586 0.005220
O O9 0.500000 0.500000 0.000000
O O10 0.936552 0.715319 0.260693
O O11 0.914517 0.354016 0.988366
O O12 0.079228 0.621930 0.255544
O O13 0.817139 0.526936 0.573534
O O14 0.946604 0.745600 0.966328
O O15 0.768153 0.477886 0.229000
O O16 0.000000 0.500000 0.500000
#
# Coordination Sequence:
#
# PCOD9039185 Si02
#       8
#     2   2   2   1   2   2   2   2
#     4  10  24  45  72 100 133 181 235 277 341 419
#     4  10  23  43  68 102 136 182 226 279 341 408
#     4  12  24  41  68 100 144 180 222 286 343 402
#     4  12  22  50  66 100 146 176 228 288 342 398
#     4  10  23  44  71  97 138 180 227 283 341 407
#     4  11  24  47  72  96 131 181 233 285 337 406
#     4  10  23  42  66  99 138 181 228 276 339 412
#     4  11  25  45  67 102 138 183 229 277 345 408
#
# _framework density 24.04674
#
# number of rings (size 3 to 8) (size 9 to 14) (size 15 to 20)
#    0.000    1.333    4.000    0.400    1.867    6.933 
#    0.000    1.333    0.000    0.000    0.000    0.000 
#    0.000    0.000    0.000    0.000    0.000    0.000 
#
# Total GULP energy -83539.388428 kJ/mol
# GULP energy per Si atom -5569.292562 kJ/mol
# Density = 2.399201 g / cm^3
# Si number density = 24.046740 Si / 1000 Ang^3
#
#
#
# Elastic Constant Matrix: (Units=GPa)
#
#
# Indices 1 2 3 4 5 6 
#
# 1 88.0356 -3.3166 50.3368 7.3001 -56.4773 21.3579
# 2 -3.3166 308.5468 -29.0861 28.5606 79.0975 -26.3339
# 3 50.3368 -29.0861 215.4116 1.6170 -152.3341 68.6964
# 4 7.3001 28.5606 1.6170 39.1450 11.4359 -13.4240
# 5 -56.4773 79.0975 -152.3341 11.4359 160.1943 -51.8070
# 6 21.3579 -26.3339 68.6964 -13.4240 -51.8070 62.4400
#
#
#
# Elastic Compliance Matrix: (Units=1/GPa)
#
#
# Indices 1 2 3 4 5 6 
#
# 1 0.016777 -0.001726 0.004263 -0.006420 0.009874 -0.004344
# 2 -0.001726 0.004498 -0.003285 -0.000745 -0.005437 0.001430
# 3 0.004263 -0.003285 0.021253 -0.009095 0.020324 -0.011319
# 4 -0.006420 -0.000745 -0.009095 0.034342 -0.009244 0.011602
# 5 0.009874 -0.005437 0.020324 -0.009244 0.031007 -0.004292
# 6 -0.004344 0.001430 -0.011319 0.011602 -0.004292 0.029490
#
#
# Mechanical properties :
#
#
# Convention : Reuss Voigt Hill
#
# Bulk Modulus (GPa) = 24.37081 71.98468 48.17775
# Shear Modulus (GPa) = 32.77815 91.95987 62.36901
#
# Velocity S-wave (km/s) = 3.69603 6.19073 5.09832
# Velocity P-wave (km/s) = 5.32644 9.00558 7.39836
#
# Compressibility (1/GPa) = 0.04103269
#
# Stress axis : x y z
#
# Youngs Moduli (GPa) = 59.60390 222.33647 47.05188
#
# Poissons Ratio (x) = 0.38365 -0.20057
# Poissons Ratio (y) = 0.10285 0.15456
# Poissons Ratio (z) = -0.25408 0.73037
#
# Static dielectric constant tensor:
#      x y z
#    x 2.042150 0.008970 0.043590 
#    y 0.008970 1.903440 -0.097440 
#    z 0.043590 -0.097440 1.774570 
# 
# From -- ./inp_files/273846.got.cif
#   From: 2010.05.17/outbox.cif.g08.bks.cpg/sg2_137_cif.got.tgz:273846.got - 2010.06.03 11:33:40.
