data_PCOD9039983
_publ_section_title
;
Structure prediction by ZEFSAII (Michael W. Deem and Ramdas Pophale) SiO2 
 PCOD9039983
Probable space group: P -1
;
_chemical_formula_sum "Si O2"
_cell_formula_units_Z 11
_cell_length_a 11.372774
_cell_length_b 9.194172
_cell_length_c 5.012219
_cell_angle_alpha 78.560458
_cell_angle_beta 96.963670
_cell_angle_gamma 56.943246
_cell_volume 413.401728
_symmetry_space_group_name_H-M "P -1"
_symmetry_group_IT_number 2
_symmetry_cell_setting 'triclinic'
loop_
_space_group_symop_operation_xyz
x,y,z
-x,-y,-z
loop_
_atom_site_type_symbol
_atom_site_label
_atom_site_fract_x
_atom_site_fract_y
_atom_site_fract_z
Si Si1 0.758814 0.746650 0.330279
Si Si2 0.359106 0.895537 0.158030
Si Si3 0.787564 0.283948 0.968198
Si Si4 0.381440 0.492681 0.645108
Si Si5 0.038475 0.607789 0.775731
Si Si6 0.500000 0.000000 0.500000
O O1 0.811810 0.562379 0.253962
O O2 0.908206 0.708915 0.492110
O O3 0.646822 0.803886 0.517577
O O4 0.673785 0.922381 0.052233
O O5 0.511404 0.718384 0.154076
O O6 0.398292 0.920863 0.456673
O O7 0.232044 0.870579 0.080278
O O8 0.680108 0.379985 0.157815
O O9 0.934044 0.255518 0.126262
O O10 0.742032 0.415343 0.653504
O O11 0.500000 0.500000 0.500000
O O12 0.000000 0.500000 0.000000
#
# Coordination Sequence:
#
# PCOD9039983 Si02
#       6
#     2   2   2   2   2   1
#     4  11  27  46  75 107 150 199 254 317 383 451
#     4  11  25  42  72 109 147 192 253 314 379 443
#     4  11  26  46  76 109 152 205 254 311 383 460
#     4  10  23  42  73 112 154 193 248 316 383 450
#     4  11  27  52  73 105 152 209 257 306 387 465
#     4  12  26  44  72 116 150 184 252 324 384 444
#
# _framework density 26.608498999999998
#
# number of rings (size 3 to 8) (size 9 to 14) (size 15 to 20)
#    0.000    1.091    0.000    4.909   17.818    0.727 
#    0.000    3.636    0.000    0.000    0.000    0.000 
#    0.000    0.000    0.000    0.000    0.000    0.000 
#
# Total GULP energy -61246.497067 kJ/mol
# GULP energy per Si atom -5567.863370 kJ/mol
# Density = 2.654794 g / cm^3
# Si number density = 26.608499 Si / 1000 Ang^3
#
#
#
# Elastic Constant Matrix: (Units=GPa)
#
#
# Indices 1 2 3 4 5 6 
#
# 1 99.1825 44.6454 13.8278 21.1628 17.6884 31.8005
# 2 44.6454 121.4462 24.9221 10.6544 6.5734 -2.5352
# 3 13.8278 24.9221 81.8568 8.0141 -21.5500 0.3214
# 4 21.1628 10.6544 8.0141 50.6415 12.4683 14.6372
# 5 17.6884 6.5734 -21.5500 12.4683 52.8975 15.8047
# 6 31.8005 -2.5352 0.3214 14.6372 15.8047 63.5134
#
#
#
# Elastic Compliance Matrix: (Units=1/GPa)
#
#
# Indices 1 2 3 4 5 6 
#
# 1 0.015933 -0.005331 -0.001452 -0.002675 -0.002556 -0.006931
# 2 -0.005331 0.010983 -0.002908 -0.000227 -0.001795 0.003621
# 3 -0.001452 -0.002908 0.015829 -0.003086 0.008266 -0.000815
# 4 -0.002675 -0.000227 -0.003086 0.023449 -0.005022 -0.002809
# 5 -0.002556 -0.001795 0.008266 -0.005022 0.025754 -0.004085
# 6 -0.006931 0.003621 -0.000815 -0.002809 -0.004085 0.021027
#
#
# Mechanical properties :
#
#
# Convention : Reuss Voigt Hill
#
# Bulk Modulus (GPa) = 42.80344 52.14178 47.47261
# Shear Modulus (GPa) = 35.67716 48.01650 41.84683
#
# Velocity S-wave (km/s) = 3.66569 4.25261 3.97001
# Velocity P-wave (km/s) = 5.83418 6.61449 6.23655
#
# Compressibility (1/GPa) = 0.02336261
#
# Stress axis : x y z
#
# Youngs Moduli (GPa) = 62.76213 91.04712 63.17635
#
# Poissons Ratio (x) = 0.48537 0.09175
# Poissons Ratio (y) = 0.33458 0.18372
# Poissons Ratio (z) = 0.09115 0.26477
#
# Static dielectric constant tensor:
#      x y z
#    x 2.305360 -0.003590 -0.527260 
#    y -0.003590 2.092650 -0.164680 
#    z -0.527260 -0.164680 -0.069810 
# 
# From -- ./inp_files/59480.got.cif
#   From: 2010.05.17/outbox.cif.g08.bks.cpg/sg2_30_cif.got.tgz:59480.got - 2010.06.03 11:33:40.
