data_PCOD9039732
_publ_section_title
;
Structure prediction by ZEFSAII (Michael W. Deem and Ramdas Pophale) SiO2 
 PCOD9039732
Probable space group: P -1
;
_chemical_formula_sum "Si O2"
_cell_formula_units_Z 16
_cell_length_a 9.110990
_cell_length_b 11.092325
_cell_length_c 12.439317
_cell_angle_alpha 36.062274
_cell_angle_beta 80.832920
_cell_angle_gamma 68.160613
_cell_volume 663.521912
_symmetry_space_group_name_H-M "P -1"
_symmetry_group_IT_number 2
_symmetry_cell_setting 'triclinic'
loop_
_space_group_symop_operation_xyz
x,y,z
-x,-y,-z
loop_
_atom_site_type_symbol
_atom_site_label
_atom_site_fract_x
_atom_site_fract_y
_atom_site_fract_z
Si Si1 0.815471 0.659808 0.894530
Si Si2 0.383621 0.607666 0.832791
Si Si3 0.810361 0.111890 0.976595
Si Si4 0.508398 0.510952 0.338544
Si Si5 0.632045 0.951296 0.421098
Si Si6 0.254157 0.254076 0.849474
Si Si7 0.589830 0.037283 0.752238
Si Si8 0.131102 0.504328 0.223042
O O1 0.793792 0.645553 0.782023
O O2 0.764071 0.909141 0.763540
O O3 0.725245 0.531591 0.060829
O O4 0.000000 0.500000 0.000000
O O5 0.463415 0.576302 0.727351
O O6 0.293129 0.871256 0.684245
O O7 0.500000 0.500000 0.000000
O O8 0.673855 0.288858 0.785728
O O9 0.819776 0.284125 0.941182
O O10 0.759175 0.902283 0.134480
O O11 0.000000 0.000000 0.000000
O O12 0.529861 0.301274 0.560893
O O13 0.650615 0.591248 0.291758
O O14 0.525836 0.025429 0.269936
O O15 0.764885 0.696940 0.562407
O O16 0.500000 0.000000 0.500000
O O17 0.367032 0.080648 0.052799
O O18 0.064933 0.395431 0.808714
#
# Coordination Sequence:
#
# PCOD9039732 Si02
#       8
#     2   2   2   2   2   2   2   2
#     4  12  22  38  62 100 135 166 205 262 326 389
#     4  12  21  35  64  97 129 172 213 252 328 396
#     4  10  23  42  70  92 122 176 218 266 326 372
#     4  12  22  42  67  95 129 168 216 271 319 387
#     4  12  20  36  60  95 127 168 213 260 319 390
#     4  11  25  44  65  94 127 173 224 260 324 380
#     4  12  23  39  67  97 132 168 211 263 332 377
#     4  11  21  42  65  90 135 170 209 272 319 377
#
# _framework density 24.113748000000001
#
# number of rings (size 3 to 8) (size 9 to 14) (size 15 to 20)
#    0.000    0.500    7.500    1.125    0.000    1.500 
#    0.000    2.500    0.000    3.000    0.000    0.000 
#    0.000    0.000    0.000    0.000    0.000    0.000 
#
# Total GULP energy -89253.132057 kJ/mol
# GULP energy per Si atom -5578.320754 kJ/mol
# Density = 2.405886 g / cm^3
# Si number density = 24.113748 Si / 1000 Ang^3
#
#
#
# Elastic Constant Matrix: (Units=GPa)
#
#
# Indices 1 2 3 4 5 6 
#
# 1 112.3361 34.4770 37.5723 -10.8331 7.4995 2.4700
# 2 34.4770 95.9793 37.9231 -13.5212 -4.3137 -6.1716
# 3 37.5723 37.9231 91.0979 -23.7315 2.2604 -5.7760
# 4 -10.8331 -13.5212 -23.7315 49.7052 4.9833 -3.9639
# 5 7.4995 -4.3137 2.2604 4.9833 37.2398 -14.0054
# 6 2.4700 -6.1716 -5.7760 -3.9639 -14.0054 35.1516
#
#
#
# Elastic Compliance Matrix: (Units=1/GPa)
#
#
# Indices 1 2 3 4 5 6 
#
# 1 0.011344 -0.003063 -0.003509 0.000066 -0.003707 -0.003381
# 2 -0.003063 0.013639 -0.004009 0.001045 0.003621 0.003512
# 3 -0.003509 -0.004009 0.015825 0.005961 -0.000538 0.002601
# 4 0.000066 0.001045 0.005961 0.023729 -0.002338 0.002903
# 5 -0.003707 0.003621 -0.000538 -0.002338 0.033604 0.013933
# 6 -0.003381 0.003512 0.002601 0.002903 0.013933 0.035608
#
#
# Mechanical properties :
#
#
# Convention : Reuss Voigt Hill
#
# Bulk Modulus (GPa) = 50.90319 57.70647 54.30483
# Shear Modulus (GPa) = 30.96738 37.04872 34.00805
#
# Velocity S-wave (km/s) = 3.58749 3.92397 3.75949
# Velocity P-wave (km/s) = 6.18996 6.67180 6.43539
#
# Compressibility (1/GPa) = 0.01964514
#
# Stress axis : x y z
#
# Youngs Moduli (GPa) = 88.15536 73.31790 63.19300
#
# Poissons Ratio (x) = 0.22458 0.22172
# Poissons Ratio (y) = 0.27003 0.25336
# Poissons Ratio (z) = 0.30930 0.29396
#
# Static dielectric constant tensor:
#      x y z
#    x 1.903880 -0.052230 -0.077630 
#    y -0.052230 2.011080 -0.090590 
#    z -0.077630 -0.090590 1.857480 
# 
# From -- ./inp_files/499712.got.cif
#   From: 2010.05.17/outbox.cif.g08.bks.cpg/sg2_250_cif.got.tgz:499712.got - 2010.06.03 11:33:40.
