data_PCOD9039843
_publ_section_title
;
Structure prediction by ZEFSAII (Michael W. Deem and Ramdas Pophale) SiO2 
 PCOD9039843
Probable space group: P -1
;
_chemical_formula_sum "Si O2"
_cell_formula_units_Z 16
_cell_length_a 14.482797
_cell_length_b 12.587684
_cell_length_c 11.878720
_cell_angle_alpha 66.093936
_cell_angle_beta 134.550502
_cell_angle_gamma 150.791512
_cell_volume 604.978811
_symmetry_space_group_name_H-M "P -1"
_symmetry_group_IT_number 2
_symmetry_cell_setting 'triclinic'
loop_
_space_group_symop_operation_xyz
x,y,z
-x,-y,-z
loop_
_atom_site_type_symbol
_atom_site_label
_atom_site_fract_x
_atom_site_fract_y
_atom_site_fract_z
Si Si1 0.675150 0.610615 0.930840
Si Si2 0.243644 0.079995 0.070198
Si Si3 0.216620 0.847107 0.016578
Si Si4 0.276653 0.034416 0.584716
Si Si5 0.264019 0.289423 0.491603
Si Si6 0.588618 0.842702 0.117200
Si Si7 0.125283 0.519328 0.501738
Si Si8 0.274794 0.696683 0.304707
O O1 0.680269 0.724001 0.969913
O O2 0.462634 0.463793 0.701611
O O3 0.574047 0.400745 0.969649
O O4 0.019459 0.888455 0.064786
O O5 0.555339 0.271386 0.277171
O O6 0.091802 0.871088 0.940083
O O7 0.984363 0.586139 0.857425
O O8 0.468482 0.091988 0.036887
O O9 0.302033 0.839771 0.200035
O O10 0.074851 0.759566 0.557867
O O11 0.156890 0.068788 0.474271
O O12 0.513082 0.224876 0.811278
O O13 0.426178 0.132116 0.549596
O O14 0.500000 0.500000 0.500000
O O15 0.952362 0.109470 0.319449
O O16 0.000000 0.500000 0.500000
O O17 0.190243 0.634171 0.388934
#
# Coordination Sequence:
#
# PCOD9039843 Si02
#       8
#     2   2   2   2   2   2   2   2
#     4  10  23  42  71 108 154 197 242 310 379 460
#     4  11  24  46  68 109 156 191 243 311 394 441
#     4  11  24  46  74 104 152 191 247 316 361 449
#     4  11  23  43  74 107 143 197 246 315 361 451
#     4  11  22  39  75 111 149 198 251 312 371 454
#     4  11  21  43  73 112 150 196 259 297 381 450
#     4  12  27  51  77 109 148 201 256 315 382 456
#     4  11  26  50  75 109 143 196 265 307 377 443
#
# _framework density 26.447206000000001
#
# number of rings (size 3 to 8) (size 9 to 14) (size 15 to 20)
#    0.000    1.000    1.250    6.750    1.750    3.000 
#   11.250    0.000    0.000    0.000    0.000    0.000 
#    0.000    0.000    0.000    0.000    0.000    0.000 
#
# Total GULP energy -89568.677493 kJ/mol
# GULP energy per Si atom -5598.042343 kJ/mol
# Density = 2.638701 g / cm^3
# Si number density = 26.447206 Si / 1000 Ang^3
#
#
#
# Elastic Constant Matrix: (Units=GPa)
#
#
# Indices 1 2 3 4 5 6 
#
# 1 166.5340 61.5032 38.9861 -3.5139 -8.8440 2.5741
# 2 61.5032 167.9192 30.1866 1.8978 -14.1527 -9.6361
# 3 38.9861 30.1866 50.5836 -0.6964 9.9996 6.7365
# 4 -3.5139 1.8978 -0.6964 29.2417 9.1255 -13.7055
# 5 -8.8440 -14.1527 9.9996 9.1255 36.4311 4.5975
# 6 2.5741 -9.6361 6.7365 -13.7055 4.5975 61.3982
#
#
#
# Elastic Compliance Matrix: (Units=1/GPa)
#
#
# Indices 1 2 3 4 5 6 
#
# 1 0.008157 -0.001701 -0.005831 -0.000070 0.002964 -0.000207
# 2 -0.001701 0.007771 -0.004294 -0.001546 0.004031 0.001115
# 3 -0.005831 -0.004294 0.029449 0.002903 -0.011623 -0.002142
# 4 -0.000070 -0.001546 0.002903 0.043334 -0.013547 0.010129
# 5 0.002964 0.004031 -0.011623 -0.013547 0.036823 -0.003998
# 6 -0.000207 0.001115 -0.002142 0.010129 -0.003998 0.019266
#
#
# Mechanical properties :
#
#
# Convention : Reuss Voigt Hill
#
# Bulk Modulus (GPa) = 46.02759 71.82097 58.92428
# Shear Modulus (GPa) = 28.45864 42.37161 35.41513
#
# Velocity S-wave (km/s) = 3.28389 4.00699 3.66332
# Velocity P-wave (km/s) = 5.64091 6.97304 6.34205
#
# Compressibility (1/GPa) = 0.02172610
#
# Stress axis : x y z
#
# Youngs Moduli (GPa) = 122.59265 128.68007 33.95716
#
# Poissons Ratio (x) = 0.21884 0.19802
# Poissons Ratio (y) = 0.20849 0.14580
# Poissons Ratio (z) = 0.71488 0.55249
#
# Static dielectric constant tensor:
#      x y z
#    x 2.141220 0.036550 -0.044420 
#    y 0.036550 2.102540 -0.023510 
#    z -0.044420 -0.023510 2.145380 
# 
# From -- ./inp_files/434190.got.cif
#   From: 2010.05.17/outbox.cif.g08.bks.cpg/sg2_218_cif.got.tgz:434190.got - 2010.06.03 11:33:40.
