data_PCOD9039449
_publ_section_title
;
Structure prediction by ZEFSAII (Michael W. Deem and Ramdas Pophale) SiO2 
 PCOD9039449
Probable space group: P -1
;
_chemical_formula_sum "Si O2"
_cell_formula_units_Z 16
_cell_length_a 11.091085
_cell_length_b 11.770836
_cell_length_c 22.658858
_cell_angle_alpha 153.370399
_cell_angle_beta 26.166767
_cell_angle_gamma 143.947135
_cell_volume 584.418955
_symmetry_space_group_name_H-M "P -1"
_symmetry_group_IT_number 2
_symmetry_cell_setting 'triclinic'
loop_
_space_group_symop_operation_xyz
x,y,z
-x,-y,-z
loop_
_atom_site_type_symbol
_atom_site_label
_atom_site_fract_x
_atom_site_fract_y
_atom_site_fract_z
Si Si1 0.997746 0.462339 0.893408
Si Si2 0.574233 0.610679 0.242190
Si Si3 0.331472 0.232362 0.344917
Si Si4 0.761050 0.431273 0.733760
Si Si5 0.182309 0.766722 0.256220
Si Si6 0.748132 0.851427 0.791702
Si Si7 0.442928 0.311252 0.492530
Si Si8 0.982580 0.055515 0.173461
O O1 0.247151 0.310522 0.742624
O O2 0.855986 0.378187 0.856150
O O3 0.779810 0.444387 0.034909
O O4 0.059350 0.764554 0.998116
O O5 0.429622 0.728719 0.303206
O O6 0.328624 0.442967 0.299890
O O7 0.256056 0.117526 0.261450
O O8 0.544227 0.470181 0.360516
O O9 0.059746 0.351447 0.545626
O O10 0.380671 0.004828 0.263084
O O11 0.716792 0.374371 0.795531
O O12 0.788834 0.737390 0.853954
O O13 0.858221 0.819169 0.436240
O O14 0.016598 0.910335 0.739897
O O15 0.500000 0.000000 0.000000
O O16 0.500000 0.500000 0.500000
O O17 0.697819 0.131643 0.305236
#
# Coordination Sequence:
#
# PCOD9039449 Si02
#       8
#     2   2   2   2   2   2   2   2
#     4  11  24  42  69 109 138 182 233 292 352 417
#     4  10  23  42  68  95 143 177 231 291 346 412
#     4  11  25  43  72 102 141 185 232 289 350 416
#     4  10  24  45  68 102 138 186 233 288 350 418
#     4  12  25  45  73 106 140 188 236 287 351 417
#     4  11  21  42  67  97 133 185 225 287 352 408
#     4  11  24  46  69 101 137 186 230 285 344 416
#     4  10  23  42  69  97 138 178 235 284 347 417
#
# _framework density 27.377621000000001
#
# number of rings (size 3 to 8) (size 9 to 14) (size 15 to 20)
#    0.000    1.250    3.750    1.875    3.500    6.500 
#    0.000    1.250    0.000    0.000    0.000    0.000 
#    0.000    0.000    0.000    0.000    0.000    0.000 
#
# Total GULP energy -89423.877250 kJ/mol
# GULP energy per Si atom -5588.992328 kJ/mol
# Density = 2.731531 g / cm^3
# Si number density = 27.377621 Si / 1000 Ang^3
#
#
#
# Elastic Constant Matrix: (Units=GPa)
#
#
# Indices 1 2 3 4 5 6 
#
# 1 218.2351 54.9399 41.3647 4.6974 -8.2616 -22.2461
# 2 54.9399 99.8864 5.1947 19.8708 -0.2658 -24.6166
# 3 41.3647 5.1947 38.9474 -6.4071 5.4990 0.2701
# 4 4.6974 19.8708 -6.4071 30.6885 1.3735 -1.2310
# 5 -8.2616 -0.2658 5.4990 1.3735 54.2030 -8.2408
# 6 -22.2461 -24.6166 0.2701 -1.2310 -8.2408 63.3237
#
#
#
# Elastic Compliance Matrix: (Units=1/GPa)
#
#
# Indices 1 2 3 4 5 6 
#
# 1 0.006986 -0.002895 -0.007466 -0.000781 0.002073 0.001615
# 2 -0.002895 0.014513 -0.000438 -0.008890 0.000588 0.004530
# 3 -0.007466 -0.000438 0.035959 0.009042 -0.005548 -0.003493
# 4 -0.000781 -0.008890 0.009042 0.040333 -0.002607 -0.003324
# 5 0.002073 0.000588 -0.005548 -0.002607 0.019933 0.003524
# 6 0.001615 0.004530 -0.003493 -0.003324 0.003524 0.018529
#
#
# Mechanical properties :
#
#
# Convention : Reuss Voigt Hill
#
# Bulk Modulus (GPa) = 27.88646 62.22973 45.05809
# Shear Modulus (GPa) = 29.44562 46.68101 38.06331
#
# Velocity S-wave (km/s) = 3.28309 4.13374 3.73273
# Velocity P-wave (km/s) = 4.95778 6.75005 5.92211
#
# Compressibility (1/GPa) = 0.03585970
#
# Stress axis : x y z
#
# Youngs Moduli (GPa) = 143.13927 68.90274 27.80971
#
# Poissons Ratio (x) = 0.19949 0.20763
# Poissons Ratio (y) = 0.41442 0.01218
# Poissons Ratio (z) = 1.06870 0.03017
#
# Static dielectric constant tensor:
#      x y z
#    x 2.222340 0.064770 0.035090 
#    y 0.064770 2.228150 0.038490 
#    z 0.035090 0.038490 2.195650 
# 
# From -- ./inp_files/610297.got.cif
#   From: 2010.05.17/outbox.cif.g08.bks.cpg/sg2_306_cif.got.tgz:610297.got - 2010.06.03 11:33:40.
