data_PCOD9039408
_publ_section_title
;
Structure prediction by ZEFSAII (Michael W. Deem and Ramdas Pophale) SiO2 
 PCOD9039408
Probable space group: P -1
;
_chemical_formula_sum "Si O2"
_cell_formula_units_Z 12
_cell_length_a 20.971110
_cell_length_b 5.211008
_cell_length_c 5.245199
_cell_angle_alpha 97.711619
_cell_angle_beta 74.990021
_cell_angle_gamma 124.596186
_cell_volume 455.683730
_symmetry_space_group_name_H-M "P -1"
_symmetry_group_IT_number 2
_symmetry_cell_setting 'triclinic'
loop_
_space_group_symop_operation_xyz
x,y,z
-x,-y,-z
loop_
_atom_site_type_symbol
_atom_site_label
_atom_site_fract_x
_atom_site_fract_y
_atom_site_fract_z
Si Si1 0.449489 0.650041 0.613898
Si Si2 0.979148 0.188174 0.851424
Si Si3 0.177470 0.357762 0.931086
Si Si4 0.137490 0.536110 0.492064
Si Si5 0.330506 0.624497 0.066867
Si Si6 0.295698 0.107860 0.406636
O O1 0.500000 0.500000 0.500000
O O2 0.366274 0.377240 0.538975
O O3 0.500000 0.000000 0.500000
O O4 0.416834 0.700128 0.919781
O O5 0.041652 0.334888 0.572607
O O6 0.884104 0.969456 0.905753
O O7 0.000000 0.500000 0.000000
O O8 0.000000 0.000000 0.000000
O O9 0.161642 0.556732 0.176503
O O10 0.271848 0.538531 0.876587
O O11 0.153211 0.347996 0.663519
O O12 0.205326 0.881944 0.572746
O O13 0.289878 0.302623 0.214930
O O14 0.326199 0.888175 0.255592
#
# Coordination Sequence:
#
# PCOD9039408 Si02
#       6
#     2   2   2   2   2   2
#     4  12  28  46  76 105 144 185 240 308 372 446
#     4  10  23  42  68 104 146 192 242 296 352 422
#     4  10  24  45  74 106 148 194 243 299 358 428
#     4  10  24  45  74 106 148 194 243 299 358 428
#     4  11  27  46  74 106 145 191 242 301 368 441
#     4  11  27  46  74 106 145 191 242 301 368 441
#
# _framework density 26.334053000000001
#
# number of rings (size 3 to 8) (size 9 to 14) (size 15 to 20)
#    0.000    1.333    0.000    2.500   14.000    9.333 
#    0.000    7.500    0.000    0.000    0.000    0.000 
#    0.000    0.000    0.000    0.000    0.000    0.000 
#
# Total GULP energy -66903.791496 kJ/mol
# GULP energy per Si atom -5575.315958 kJ/mol
# Density = 2.627412 g / cm^3
# Si number density = 26.334053 Si / 1000 Ang^3
#
#
#
# Elastic Constant Matrix: (Units=GPa)
#
#
# Indices 1 2 3 4 5 6 
#
# 1 86.9730 39.2140 54.1283 8.4039 -21.9803 -12.3792
# 2 39.2140 207.4265 30.9363 -2.6923 -26.6214 4.4758
# 3 54.1283 30.9363 111.9511 -14.8792 -38.6116 -9.6099
# 4 8.4039 -2.6923 -14.8792 35.0380 9.8314 -2.4299
# 5 -21.9803 -26.6214 -38.6116 9.8314 43.3404 5.8494
# 6 -12.3792 4.4758 -9.6099 -2.4299 5.8494 57.3477
#
#
#
# Elastic Compliance Matrix: (Units=1/GPa)
#
#
# Indices 1 2 3 4 5 6 
#
# 1 0.020225 -0.002298 -0.009414 -0.009509 0.002302 0.002330
# 2 -0.002298 0.005567 0.000468 0.000329 0.002747 -0.001118
# 3 -0.009414 0.000468 0.017617 0.007105 0.009568 0.000209
# 4 -0.009509 0.000329 0.007105 0.035802 -0.006588 0.001301
# 5 0.002302 0.002747 0.009568 -0.006588 0.036228 -0.002089
# 6 0.002330 -0.001118 0.000209 0.001301 -0.002089 0.018331
#
#
# Mechanical properties :
#
#
# Convention : Reuss Voigt Hill
#
# Bulk Modulus (GPa) = 47.79868 72.76752 60.28310
# Shear Modulus (GPa) = 30.63153 45.95004 38.29078
#
# Velocity S-wave (km/s) = 3.41426 4.18172 3.81733
# Velocity P-wave (km/s) = 5.80803 7.14200 6.50928
#
# Compressibility (1/GPa) = 0.02092108
#
# Stress axis : x y z
#
# Youngs Moduli (GPa) = 49.44441 179.64457 56.76377
#
# Poissons Ratio (x) = 0.41278 0.53436
# Poissons Ratio (y) = 0.11361 -0.02656
# Poissons Ratio (z) = 0.46545 -0.08406
#
# Static dielectric constant tensor:
#      x y z
#    x 2.567810 0.182910 -0.379800 
#    y 0.182910 2.102630 -0.093440 
#    z -0.379800 -0.093440 2.463930 
# 
# From -- ./inp_files/11675.got.cif
#   From: 2010.05.17/outbox.cif.g08.bks.cpg/sg2_6_cif.got.tgz:11675.got - 2010.06.03 11:33:40.
