data_PCOD9039735
_publ_section_title
;
Structure prediction by ZEFSAII (Michael W. Deem and Ramdas Pophale) SiO2 
 PCOD9039735
Probable space group: P -1
;
_chemical_formula_sum "Si O2"
_cell_formula_units_Z 16
_cell_length_a 14.428654
_cell_length_b 16.430062
_cell_length_c 24.707553
_cell_angle_alpha 159.411191
_cell_angle_beta 157.518566
_cell_angle_gamma 23.921170
_cell_volume 733.193105
_symmetry_space_group_name_H-M "P -1"
_symmetry_group_IT_number 2
_symmetry_cell_setting 'triclinic'
loop_
_space_group_symop_operation_xyz
x,y,z
-x,-y,-z
loop_
_atom_site_type_symbol
_atom_site_label
_atom_site_fract_x
_atom_site_fract_y
_atom_site_fract_z
Si Si1 0.087526 0.743156 0.532233
Si Si2 0.729451 0.252598 0.950715
Si Si3 0.223577 0.998677 0.661140
Si Si4 0.769128 0.570314 0.994375
Si Si5 0.804269 0.887142 0.107128
Si Si6 0.548309 0.900746 0.378889
Si Si7 0.303706 0.395556 0.614805
Si Si8 0.258017 0.208834 0.255959
O O1 0.220397 0.448090 0.421346
O O2 0.776445 0.827441 0.412073
O O3 0.198406 0.846618 0.605891
O O4 0.123773 0.879525 0.690867
O O5 0.677102 0.182409 0.818300
O O6 0.728563 0.023533 0.844754
O O7 0.500000 0.500000 0.000000
O O8 0.003328 0.278945 0.124641
O O9 0.492637 0.862776 0.691469
O O10 0.212879 0.270312 0.844395
O O11 0.000000 0.000000 0.500000
O O12 0.481391 0.562672 0.823608
O O13 0.991560 0.293256 0.937698
O O14 0.828895 0.721166 0.070641
O O15 0.500000 0.000000 0.000000
O O16 0.664058 0.745703 0.398525
O O17 0.448240 0.188458 0.519058
O O18 0.000000 0.500000 0.500000
#
# Coordination Sequence:
#
# PCOD9039735 Si02
#       8
#     2   2   2   2   2   2   2   2
#     4  11  23  46  67 100 137 177 238 282 345 417
#     4  11  25  45  71 102 138 183 231 290 344 419
#     4  11  26  44  69 103 144 186 231 286 343 413
#     4  10  24  44  64 100 134 171 234 278 342 412
#     4  10  23  42  70  94 128 178 223 283 344 401
#     4  11  25  44  66 101 137 177 234 287 348 415
#     4  11  27  43  70  99 137 183 228 292 350 414
#     4  11  26  43  71 106 139 190 231 282 356 411
#
# _framework density 21.822355999999999
#
# number of rings (size 3 to 8) (size 9 to 14) (size 15 to 20)
#    0.000    1.250    2.500    1.125    8.750    0.000 
#    2.250    0.000    0.000    0.000    0.000    0.000 
#    0.000    0.000    0.000    0.000    0.000    0.000 
#
# Total GULP energy -89456.671391 kJ/mol
# GULP energy per Si atom -5591.041962 kJ/mol
# Density = 2.177269 g / cm^3
# Si number density = 21.822356 Si / 1000 Ang^3
#
#
#
# Elastic Constant Matrix: (Units=GPa)
#
#
# Indices 1 2 3 4 5 6 
#
# 1 53.4678 38.9698 28.5024 -0.8163 -1.2715 -22.8027
# 2 38.9698 141.4996 76.3605 -5.4155 -16.7787 -29.7666
# 3 28.5024 76.3605 166.1863 4.4431 -23.7100 -21.9244
# 4 -0.8163 -5.4155 4.4431 46.1447 -2.1463 -2.7664
# 5 -1.2715 -16.7787 -23.7100 -2.1463 40.0362 -6.5566
# 6 -22.8027 -29.7666 -21.9244 -2.7664 -6.5566 33.4321
#
#
#
# Elastic Compliance Matrix: (Units=1/GPa)
#
#
# Indices 1 2 3 4 5 6 
#
# 1 0.028909 -0.003894 -0.000873 0.001169 0.001463 0.016062
# 2 -0.003894 0.011980 -0.003421 0.002262 0.004099 0.006759
# 3 -0.000873 -0.003421 0.008721 -0.000897 0.004116 0.002811
# 4 0.001169 0.002262 -0.000897 0.022428 0.002402 0.004551
# 5 0.001463 0.004099 0.004116 0.002402 0.031557 0.013734
# 6 0.016062 0.006759 0.002811 0.004551 0.013734 0.051798
#
#
# Mechanical properties :
#
#
# Convention : Reuss Voigt Hill
#
# Bulk Modulus (GPa) = 30.08845 72.09100 51.08973
# Shear Modulus (GPa) = 27.34560 38.41066 32.87813
#
# Velocity S-wave (km/s) = 3.54376 4.19997 3.88574
# Velocity P-wave (km/s) = 5.52830 7.52507 6.60261
#
# Compressibility (1/GPa) = 0.03323535
#
# Stress axis : x y z
#
# Youngs Moduli (GPa) = 34.59180 83.47253 114.66791
#
# Poissons Ratio (x) = 0.32501 0.10006
# Poissons Ratio (y) = 0.13469 0.39226
# Poissons Ratio (z) = 0.03018 0.28555
#
# Static dielectric constant tensor:
#      x y z
#    x 1.792210 0.019270 -0.011420 
#    y 0.019270 1.814950 -0.051190 
#    z -0.011420 -0.051190 1.929500 
# 
# From -- ./inp_files/619768.got.cif
#   From: 2010.05.17/outbox.cif.g08.bks.cpg/sg2_310_cif.got.tgz:619768.got - 2010.06.03 11:33:40.
