data_PCOD9039164
_publ_section_title
;
Structure prediction by ZEFSAII (Michael W. Deem and Ramdas Pophale) SiO2 
 PCOD9039164
Probable space group: P -1
;
_chemical_formula_sum "Si O2"
_cell_formula_units_Z 16
_cell_length_a 18.226953
_cell_length_b 9.907950
_cell_length_c 4.832115
_cell_angle_alpha 103.870340
_cell_angle_beta 114.472994
_cell_angle_gamma 53.843933
_cell_volume 641.265917
_symmetry_space_group_name_H-M "P -1"
_symmetry_group_IT_number 2
_symmetry_cell_setting 'triclinic'
loop_
_space_group_symop_operation_xyz
x,y,z
-x,-y,-z
loop_
_atom_site_type_symbol
_atom_site_label
_atom_site_fract_x
_atom_site_fract_y
_atom_site_fract_z
Si Si1 0.843321 0.477178 0.668473
Si Si2 0.399149 0.661928 0.529118
Si Si3 0.625740 0.607369 0.402921
Si Si4 0.488596 0.174032 0.158992
Si Si5 0.853079 0.916937 0.545567
Si Si6 0.942104 0.188081 0.112840
Si Si7 0.888778 0.592922 0.288206
Si Si8 0.216596 0.857596 0.950050
O O1 0.732597 0.556960 0.608105
O O2 0.853659 0.495846 0.369104
O O3 0.906234 0.302270 0.839635
O O4 0.877705 0.580837 0.940016
O O5 0.500000 0.500000 0.500000
O O6 0.371932 0.561950 0.644737
O O7 0.423089 0.797842 0.730422
O O8 0.320091 0.741801 0.200272
O O9 0.548101 0.761606 0.554118
O O10 0.596545 0.679735 0.087497
O O11 0.500000 0.000000 0.000000
O O12 0.827555 0.784093 0.376296
O O13 0.967108 0.823524 0.603183
O O14 0.834876 0.973624 0.861216
O O15 0.791005 0.082356 0.344568
O O16 0.851129 0.212400 0.149844
O O17 0.000000 0.000000 0.000000
O O18 0.000000 0.500000 0.500000
#
# Coordination Sequence:
#
# PCOD9039164 Si02
#       8
#     2   2   2   2   2   2   2   2
#     4  12  25  43  69  97 135 185 233 282 340 419
#     4  10  24  47  73 105 138 184 234 294 353 424
#     4  11  24  47  70 105 137 185 240 290 351 426
#     4  11  25  45  74 104 144 182 228 295 364 422
#     4  11  25  42  65  97 139 176 225 281 344 412
#     4  10  23  42  66  98 135 177 229 281 343 398
#     4  12  26  42  66  97 139 186 231 280 346 414
#     4  11  24  43  69 100 133 179 227 284 343 409
#
# _framework density 24.950647
#
# number of rings (size 3 to 8) (size 9 to 14) (size 15 to 20)
#    0.000    1.000    2.500    3.000    3.500    9.000 
#    0.000    0.000    0.000    0.000    0.000    0.000 
#    0.000    0.000    0.000    0.000    0.000    0.000 
#
# Total GULP energy -89503.735050 kJ/mol
# GULP energy per Si atom -5593.983441 kJ/mol
# Density = 2.489386 g / cm^3
# Si number density = 24.950647 Si / 1000 Ang^3
#
#
#
# Elastic Constant Matrix: (Units=GPa)
#
#
# Indices 1 2 3 4 5 6 
#
# 1 69.1556 16.5889 14.0198 -3.7732 15.3513 5.1192
# 2 16.5889 128.2107 17.5606 4.4895 16.8245 24.4487
# 3 14.0198 17.5606 100.6486 -11.6729 10.4754 3.9333
# 4 -3.7732 4.4895 -11.6729 51.4094 -6.0793 1.4567
# 5 15.3513 16.8245 10.4754 -6.0793 48.6577 -2.3792
# 6 5.1192 24.4487 3.9333 1.4567 -2.3792 32.8433
#
#
#
# Elastic Compliance Matrix: (Units=1/GPa)
#
#
# Indices 1 2 3 4 5 6 
#
# 1 0.016156 -0.000933 -0.001489 0.000454 -0.004495 -0.001991
# 2 -0.000933 0.009974 -0.001127 -0.001395 -0.003444 -0.007332
# 3 -0.001489 -0.001127 0.010746 0.002300 -0.001186 -0.000404
# 4 0.000454 -0.001395 0.002300 0.020413 0.002392 -0.000040
# 5 -0.004495 -0.003444 -0.001186 0.002392 0.023961 0.005036
# 6 -0.001991 -0.007332 -0.000404 -0.000040 0.005036 0.036631
#
#
# Mechanical properties :
#
#
# Convention : Reuss Voigt Hill
#
# Bulk Modulus (GPa) = 33.58327 43.81707 38.70017
# Shear Modulus (GPa) = 37.06337 43.23843 40.15090
#
# Velocity S-wave (km/s) = 3.85836 4.16740 4.01585
# Velocity P-wave (km/s) = 5.77394 6.38403 6.08663
#
# Compressibility (1/GPa) = 0.02977673
#
# Stress axis : x y z
#
# Youngs Moduli (GPa) = 61.89758 100.26406 93.06095
#
# Poissons Ratio (x) = 0.09352 0.13861
# Poissons Ratio (y) = 0.05774 0.10488
# Poissons Ratio (z) = 0.09219 0.11300
#
# Static dielectric constant tensor:
#      x y z
#    x 2.061010 0.271720 0.223740 
#    y 0.271720 4.216240 1.640960 
#    z 0.223740 1.640960 3.027570 
# 
# From -- ./inp_files/117210.got.cif
#   From: 2010.05.17/outbox.cif.g08.bks.cpg/sg2_59_cif.got.tgz:117210.got - 2010.06.03 11:33:40.
