data_PCOD9039965
_publ_section_title
;
Structure prediction by ZEFSAII (Michael W. Deem and Ramdas Pophale) SiO2 
 PCOD9039965
Probable space group: P -1
;
_chemical_formula_sum "Si O2"
_cell_formula_units_Z 14
_cell_length_a 9.615280
_cell_length_b 12.118292
_cell_length_c 8.684335
_cell_angle_alpha 106.699445
_cell_angle_beta 71.021759
_cell_angle_gamma 53.153269
_cell_volume 590.017949
_symmetry_space_group_name_H-M "P -1"
_symmetry_group_IT_number 2
_symmetry_cell_setting 'triclinic'
loop_
_space_group_symop_operation_xyz
x,y,z
-x,-y,-z
loop_
_atom_site_type_symbol
_atom_site_label
_atom_site_fract_x
_atom_site_fract_y
_atom_site_fract_z
Si Si1 0.669389 0.873770 0.535055
Si Si2 0.517577 0.591742 0.153821
Si Si3 0.876666 0.955941 0.989698
Si Si4 0.279972 0.617585 0.513889
Si Si5 0.354316 0.308855 0.298937
Si Si6 0.634716 0.767941 0.056137
Si Si7 0.034512 0.281156 0.894571
O O1 0.683660 0.738979 0.549662
O O2 0.910722 0.757238 0.322105
O O3 0.500000 0.000000 0.500000
O O4 0.563980 0.017950 0.763039
O O5 0.326961 0.679670 0.384512
O O6 0.524841 0.712429 0.122265
O O7 0.500000 0.500000 0.000000
O O8 0.766579 0.436180 0.080878
O O9 0.041658 0.788453 0.749120
O O10 0.857580 0.891729 0.124961
O O11 0.624823 0.136591 0.098353
O O12 0.000000 0.000000 0.000000
O O13 0.500000 0.500000 0.500000
O O14 0.284103 0.483080 0.403920
O O15 0.255806 0.306591 0.182048
O O16 0.837325 0.686132 0.064808
#
# Coordination Sequence:
#
# PCOD9039965 Si02
#       7
#     2   2   2   2   2   2   2
#     4  10  23  42  73 102 139 189 239 294 360 423
#     4  12  26  49  68 107 149 182 246 303 357 428
#     4  12  25  42  76 105 143 189 244 290 366 429
#     4  12  26  44  74 104 144 198 239 296 364 429
#     4  12  24  49  70 109 149 184 247 302 357 436
#     4  11  25  45  74 102 150 187 237 307 358 431
#     4  11  25  46  71 105 138 198 241 292 369 423
#
# _framework density 23.728093000000001
#
# number of rings (size 3 to 8) (size 9 to 14) (size 15 to 20)
#    0.000    0.571    7.143    0.857    6.000    2.286 
#    0.000    2.857    0.000    0.000    0.000    0.000 
#    0.000    0.000    0.000    0.000    0.000    0.000 
#
# Total GULP energy -78364.904927 kJ/mol
# GULP energy per Si atom -5597.493209 kJ/mol
# Density = 2.367409 g / cm^3
# Si number density = 23.728093 Si / 1000 Ang^3
#
#
#
# Elastic Constant Matrix: (Units=GPa)
#
#
# Indices 1 2 3 4 5 6 
#
# 1 96.2022 32.4526 38.1534 -1.6405 0.8266 23.4179
# 2 32.4526 100.5632 28.2997 -8.0907 -5.5347 27.2002
# 3 38.1534 28.2997 124.0087 1.2192 -4.6706 7.8091
# 4 -1.6405 -8.0907 1.2192 48.0035 4.1202 -9.4851
# 5 0.8266 -5.5347 -4.6706 4.1202 33.4994 -2.5316
# 6 23.4179 27.2002 7.8091 -9.4851 -2.5316 38.6403
#
#
#
# Elastic Compliance Matrix: (Units=1/GPa)
#
#
# Indices 1 2 3 4 5 6 
#
# 1 0.014086 -0.001863 -0.003526 -0.000964 -0.001546 -0.006851
# 2 -0.001863 0.013261 -0.001932 0.000610 0.001320 -0.007579
# 3 -0.003526 -0.001932 0.009546 -0.000496 0.001275 0.001529
# 4 -0.000964 0.000610 -0.000496 0.022206 -0.002256 0.005559
# 5 -0.001546 0.001320 0.001275 -0.002256 0.030654 0.001205
# 6 -0.006851 -0.007579 0.001529 0.005559 0.001205 0.036501
#
#
# Mechanical properties :
#
#
# Convention : Reuss Voigt Hill
#
# Bulk Modulus (GPa) = 44.94240 57.62060 51.28150
# Shear Modulus (GPa) = 33.71252 38.81987 36.26619
#
# Velocity S-wave (km/s) = 3.77342 4.04917 3.91373
# Velocity P-wave (km/s) = 6.16171 6.79687 6.48707
#
# Compressibility (1/GPa) = 0.02225070
#
# Stress axis : x y z
#
# Youngs Moduli (GPa) = 70.99176 75.41185 104.75299
#
# Poissons Ratio (x) = 0.14050 0.36936
# Poissons Ratio (y) = 0.13227 0.20238
# Poissons Ratio (z) = 0.25032 0.14569
#
# Static dielectric constant tensor:
#      x y z
#    x 1.925040 -0.079020 -0.002790 
#    y -0.079020 1.915310 0.000520 
#    z -0.002790 0.000520 1.948310 
# 
# From -- ./inp_files/189108.got.cif
#   From: 2010.05.17/outbox.cif.g08.bks.cpg/sg2_95_cif.got.tgz:189108.got - 2010.06.03 11:33:40.
