data_PCOD9039824
_publ_section_title
;
Structure prediction by ZEFSAII (Michael W. Deem and Ramdas Pophale) SiO2 
 PCOD9039824
Probable space group: P -1
;
_chemical_formula_sum "Si O2"
_cell_formula_units_Z 16
_cell_length_a 9.893524
_cell_length_b 11.095948
_cell_length_c 15.856829
_cell_angle_alpha 121.509260
_cell_angle_beta 142.431512
_cell_angle_gamma 77.806487
_cell_volume 832.968948
_symmetry_space_group_name_H-M "P -1"
_symmetry_group_IT_number 2
_symmetry_cell_setting 'triclinic'
loop_
_space_group_symop_operation_xyz
x,y,z
-x,-y,-z
loop_
_atom_site_type_symbol
_atom_site_label
_atom_site_fract_x
_atom_site_fract_y
_atom_site_fract_z
Si Si1 0.353368 0.649256 0.792306
Si Si2 0.658809 0.210765 0.811920
Si Si3 0.309199 0.580758 0.933311
Si Si4 0.943957 0.308437 0.736501
Si Si5 0.442965 0.638128 0.353216
Si Si6 0.870689 0.986600 0.519655
Si Si7 0.105091 0.304099 0.479650
Si Si8 0.840616 0.685565 0.975330
O O1 0.351409 0.669809 0.898973
O O2 0.254886 0.463011 0.662122
O O3 0.616731 0.726937 0.908849
O O4 0.155295 0.699233 0.670273
O O5 0.596607 0.295317 0.732247
O O6 0.416790 0.060093 0.647922
O O7 0.676011 0.310039 0.940477
O O8 0.912331 0.202692 0.906563
O O9 0.059277 0.434591 0.768205
O O10 0.500000 0.500000 0.000000
O O11 0.669826 0.286469 0.606888
O O12 0.972528 0.150909 0.674717
O O13 0.076011 0.365394 0.913166
O O14 0.724492 0.674887 0.510398
O O15 0.280366 0.457949 0.199798
O O16 0.910813 0.849850 0.538602
O O17 0.000000 0.000000 0.500000
#
# Coordination Sequence:
#
# PCOD9039824 Si02
#       8
#     2   2   2   2   2   2   2   2
#     4  10  20  34  61  80 108 152 189 227 274 319
#     4  10  19  32  54  80 113 136 180 233 273 313
#     4  12  18  31  57  88 107 137 188 236 269 319
#     4  11  19  31  57  86 112 140 183 229 287 320
#     4   9  16  33  56  84 108 142 181 237 271 325
#     4  11  23  36  55  84 116 145 178 236 282 325
#     4   9  20  38  53  80 116 147 185 225 274 340
#     4  10  17  33  55  84 108 145 184 232 269 324
#
# _framework density 19.208399
#
# number of rings (size 3 to 8) (size 9 to 14) (size 15 to 20)
#    0.000    1.750    3.750    3.750    0.000    4.500 
#    0.000    1.250    2.750    0.750    0.000    0.000 
#    0.000    0.000    0.000    0.000    0.000    0.000 
#
# Total GULP energy -89144.985657 kJ/mol
# GULP energy per Si atom -5571.561604 kJ/mol
# Density = 1.916468 g / cm^3
# Si number density = 19.208399 Si / 1000 Ang^3
#
#
#
# Elastic Constant Matrix: (Units=GPa)
#
#
# Indices 1 2 3 4 5 6 
#
# 1 133.9116 20.7691 35.7183 -8.7746 22.0972 -10.0734
# 2 20.7691 41.1889 11.6787 7.3571 2.7291 -8.5327
# 3 35.7183 11.6787 46.6293 -2.3456 21.6926 -2.3886
# 4 -8.7746 7.3571 -2.3456 18.4239 -11.4281 6.2044
# 5 22.0972 2.7291 21.6926 -11.4281 33.2887 -2.7364
# 6 -10.0734 -8.5327 -2.3886 6.2044 -2.7364 20.4507
#
#
#
# Elastic Compliance Matrix: (Units=1/GPa)
#
#
# Indices 1 2 3 4 5 6 
#
# 1 0.010271 -0.004029 -0.006271 0.004969 -0.000608 0.001057
# 2 -0.004029 0.036989 -0.003910 -0.027597 -0.005590 0.020616
# 3 -0.006271 -0.003910 0.037904 -0.011609 -0.024203 -0.000010
# 4 0.004969 -0.027597 -0.011609 0.102425 0.038707 -0.036318
# 5 -0.000608 -0.005590 -0.024203 0.038707 0.059199 -0.009280
# 6 0.001057 0.020616 -0.000010 -0.036318 -0.009280 0.067796
#
#
# Mechanical properties :
#
#
# Convention : Reuss Voigt Hill
#
# Bulk Modulus (GPa) = 17.62320 39.78468 28.70394
# Shear Modulus (GPa) = 13.81525 24.67023 19.24274
#
# Velocity S-wave (km/s) = 2.68475 3.58767 3.16854
# Velocity P-wave (km/s) = 4.33650 6.15783 5.32560
#
# Compressibility (1/GPa) = 0.05674339
#
# Stress axis : x y z
#
# Youngs Moduli (GPa) = 97.36461 27.03488 26.38246
#
# Poissons Ratio (x) = 0.10893 0.16545
# Poissons Ratio (y) = 0.39229 0.10315
# Poissons Ratio (z) = 0.61061 0.10570
#
# Static dielectric constant tensor:
#      x y z
#    x 1.740500 0.001360 0.044440 
#    y 0.001360 1.656770 0.014100 
#    z 0.044440 0.014100 1.711230 
# 
# From -- ./inp_files/257491.got.cif
#   From: 2010.05.17/outbox.cif.g08.bks.cpg/sg2_129_cif.got.tgz:257491.got - 2010.06.03 11:33:40.
