data_PCOD9039009
_publ_section_title
;
Structure prediction by ZEFSAII (Michael W. Deem and Ramdas Pophale) SiO2 
 PCOD9039009
Probable space group: P -1
;
_chemical_formula_sum "Si O2"
_cell_formula_units_Z 14
_cell_length_a 5.066477
_cell_length_b 5.179494
_cell_length_c 20.067174
_cell_angle_alpha 102.900640
_cell_angle_beta 71.953697
_cell_angle_gamma 83.601008
_cell_volume 478.697863
_symmetry_space_group_name_H-M "P -1"
_symmetry_group_IT_number 2
_symmetry_cell_setting 'triclinic'
loop_
_space_group_symop_operation_xyz
x,y,z
-x,-y,-z
loop_
_atom_site_type_symbol
_atom_site_label
_atom_site_fract_x
_atom_site_fract_y
_atom_site_fract_z
Si Si1 0.734288 0.525942 0.383606
Si Si2 0.864968 0.275767 0.063167
Si Si3 0.774981 0.973195 0.666714
Si Si4 0.266685 0.251114 0.472625
Si Si5 0.731128 0.373281 0.897985
Si Si6 0.505583 0.091040 0.183219
Si Si7 0.021506 0.408306 0.750074
O O1 0.521902 0.360297 0.424416
O O2 0.708203 0.776234 0.451252
O O3 0.038641 0.326247 0.355270
O O4 0.701106 0.537934 0.306337
O O5 0.785847 0.189836 0.140348
O O6 0.074862 0.488147 0.058872
O O7 0.449530 0.608207 0.932214
O O8 0.000000 0.000000 0.000000
O O9 0.749472 0.995196 0.589907
O O10 0.522327 0.999337 0.742653
O O11 0.952275 0.184572 0.692016
O O12 0.000000 0.500000 0.500000
O O13 0.985246 0.302181 0.819717
O O14 0.572247 0.125530 0.876958
O O15 0.243919 0.343065 0.212516
#
# Coordination Sequence:
#
# PCOD9039009 Si02
#       7
#     2   2   2   2   2   2   2
#     4   9  18  34  53  78 111 152 192 253 304 360
#     4  11  24  42  67  98 128 165 209 250 308 376
#     4   9  18  36  55  82 110 153 203 249 305 361
#     4   9  18  33  53  76 112 149 194 246 306 364
#     4  10  23  42  65  96 129 165 209 253 309 369
#     4   9  21  41  61  90 127 161 206 259 306 362
#     4   9  19  38  57  84 114 155 207 247 304 362
#
# _framework density 29.246005
#
# number of rings (size 3 to 8) (size 9 to 14) (size 15 to 20)
#    0.000    2.571    0.000    0.429    2.000    4.000 
#   20.571    6.429    0.000    0.000    0.000    0.000 
#    0.000    0.000    0.000    0.000    0.000    0.000 
#
# Total GULP energy -78172.536464 kJ/mol
# GULP energy per Si atom -5583.752605 kJ/mol
# Density = 2.917944 g / cm^3
# Si number density = 29.246005 Si / 1000 Ang^3
#
#
#
# Elastic Constant Matrix: (Units=GPa)
#
#
# Indices 1 2 3 4 5 6 
#
# 1 128.2711 19.9981 65.3133 0.7059 -2.6220 9.2915
# 2 19.9981 69.3781 35.3904 9.7195 3.2218 16.1559
# 3 65.3133 35.3904 180.5581 10.7089 -22.6384 12.1203
# 4 0.7059 9.7195 10.7089 70.8966 12.7581 -5.7028
# 5 -2.6220 3.2218 -22.6384 12.7581 69.1621 8.7287
# 6 9.2915 16.1559 12.1203 -5.7028 8.7287 46.8689
#
#
#
# Elastic Compliance Matrix: (Units=1/GPa)
#
#
# Indices 1 2 3 4 5 6 
#
# 1 0.009708 -0.001001 -0.003419 0.000657 -0.000766 -0.000473
# 2 -0.001001 0.017676 -0.002684 -0.002325 -0.000634 -0.005365
# 3 -0.003419 -0.002684 0.007833 -0.001407 0.002963 -0.001146
# 4 0.000657 -0.002325 -0.001407 0.015578 -0.003657 0.003612
# 5 -0.000766 -0.000634 0.002963 -0.003657 0.016600 -0.003933
# 6 -0.000473 -0.005365 -0.001146 0.003612 -0.003933 0.024747
#
#
# Mechanical properties :
#
#
# Convention : Reuss Voigt Hill
#
# Bulk Modulus (GPa) = 47.59620 68.84566 58.22093
# Shear Modulus (GPa) = 44.11017 54.55255 49.33136
#
# Velocity S-wave (km/s) = 3.88783 4.32360 4.11149
# Velocity P-wave (km/s) = 6.03849 6.96534 6.51841
#
# Compressibility (1/GPa) = 0.02101008
#
# Stress axis : x y z
#
# Youngs Moduli (GPa) = 103.01103 56.57393 127.66526
#
# Poissons Ratio (x) = 0.05661 0.43644
# Poissons Ratio (y) = 0.10308 0.34266
# Poissons Ratio (z) = 0.35216 0.15185
#
# Static dielectric constant tensor:
#      x y z
#    x 2.429840 -0.152270 0.317570 
#    y -0.152270 2.454850 -0.291470 
#    z 0.317570 -0.291470 2.559060 
# 
# From -- ./inp_files/603404.got.cif
#   From: 2010.05.17/outbox.cif.g08.bks.cpg/sg2_302_cif.got.tgz:603404.got - 2010.06.03 11:33:40.
