data_PCOD9039682
_publ_section_title
;
Structure prediction by ZEFSAII (Michael W. Deem and Ramdas Pophale) SiO2 
 PCOD9039682
Probable space group: P -1
;
_chemical_formula_sum "Si O2"
_cell_formula_units_Z 16
_cell_length_a 12.036941
_cell_length_b 5.583842
_cell_length_c 12.594826
_cell_angle_alpha 104.930556
_cell_angle_beta 65.392642
_cell_angle_gamma 114.952249
_cell_volume 694.349547
_symmetry_space_group_name_H-M "P -1"
_symmetry_group_IT_number 2
_symmetry_cell_setting 'triclinic'
loop_
_space_group_symop_operation_xyz
x,y,z
-x,-y,-z
loop_
_atom_site_type_symbol
_atom_site_label
_atom_site_fract_x
_atom_site_fract_y
_atom_site_fract_z
Si Si1 0.831262 0.496704 0.676503
Si Si2 0.738770 0.510919 0.312869
Si Si3 0.890138 0.633672 0.061028
Si Si4 0.118202 0.096841 0.115906
Si Si5 0.550435 0.373077 0.807350
Si Si6 0.406567 0.087836 0.623344
Si Si7 0.386435 0.114723 0.041786
Si Si8 0.065751 0.287556 0.557092
O O1 0.879765 0.763015 0.757517
O O2 0.687524 0.322527 0.757290
O O3 0.831303 0.549310 0.556243
O O4 0.944373 0.381043 0.631625
O O5 0.774254 0.500906 0.173805
O O6 0.650513 0.696932 0.377854
O O7 0.861183 0.670952 0.356226
O O8 0.692062 0.203464 0.333744
O O9 0.843088 0.686754 0.970344
O O10 0.974862 0.912561 0.115588
O O11 0.000000 0.500000 0.000000
O O12 0.231211 0.967912 0.066359
O O13 0.487551 0.245913 0.709219
O O14 0.600633 0.689251 0.841363
O O15 0.439847 0.269748 0.928623
O O16 0.500000 0.000000 0.500000
O O17 0.500000 0.000000 0.000000
O O18 0.000000 0.000000 0.500000
#
# Coordination Sequence:
#
# PCOD9039682 Si02
#       8
#     2   2   2   2   2   2   2   2
#     4  10  23  44  68  99 139 179 238 298 358 431
#     4  12  29  47  78 109 149 194 250 304 372 442
#     4  11  25  41  73 104 145 190 237 305 375 443
#     4  10  23  43  67 105 144 180 238 291 372 433
#     4  10  24  44  69 100 138 190 240 296 363 429
#     4  12  29  51  75 108 152 199 251 307 368 447
#     4  10  23  42  70 100 139 185 241 298 359 434
#     4  11  25  42  73 100 137 185 239 302 362 424
#
# _framework density 23.043149
#
# number of rings (size 3 to 8) (size 9 to 14) (size 15 to 20)
#    0.000    1.250    0.000    3.375   14.000    6.000 
#    0.000    0.000    0.000    0.000    0.000    0.000 
#    0.000    0.000    0.000    0.000    0.000    0.000 
#
# Total GULP energy -89299.155974 kJ/mol
# GULP energy per Si atom -5581.197248 kJ/mol
# Density = 2.299070 g / cm^3
# Si number density = 23.043149 Si / 1000 Ang^3
#
#
#
# Elastic Constant Matrix: (Units=GPa)
#
#
# Indices 1 2 3 4 5 6 
#
# 1 72.2192 17.0125 22.8211 10.7971 -0.4017 -14.6206
# 2 17.0125 42.5421 2.4028 6.9710 -2.0136 -0.5054
# 3 22.8211 2.4028 101.2642 19.1807 -1.4589 -8.2825
# 4 10.7971 6.9710 19.1807 25.7525 0.2759 -5.6312
# 5 -0.4017 -2.0136 -1.4589 0.2759 44.2550 4.6150
# 6 -14.6206 -0.5054 -8.2825 -5.6312 4.6150 34.5813
#
#
#
# Elastic Compliance Matrix: (Units=1/GPa)
#
#
# Indices 1 2 3 4 5 6 
#
# 1 0.017992 -0.006652 -0.002979 -0.002076 -0.000911 0.006580
# 2 -0.006652 0.027197 0.001880 -0.006706 0.001622 -0.003273
# 3 -0.002979 0.001880 0.012085 -0.008209 0.000481 0.000262
# 4 -0.002076 -0.006706 -0.008209 0.048782 -0.001440 0.005194
# 5 -0.000911 0.001622 0.000481 -0.001440 0.023058 -0.003558
# 6 0.006580 -0.003273 0.000262 0.005194 -0.003558 0.033035
#
#
# Mechanical properties :
#
#
# Convention : Reuss Voigt Hill
#
# Bulk Modulus (GPa) = 23.93915 33.38870 28.66392
# Shear Modulus (GPa) = 26.09954 32.50368 29.30161
#
# Velocity S-wave (km/s) = 3.36912 3.75981 3.56982
# Velocity P-wave (km/s) = 5.05431 5.77662 5.42749
#
# Compressibility (1/GPa) = 0.04177258
#
# Stress axis : x y z
#
# Youngs Moduli (GPa) = 55.57941 36.76915 82.74697
#
# Poissons Ratio (x) = 0.24457 0.24648
# Poissons Ratio (y) = 0.36969 -0.15553
# Poissons Ratio (z) = 0.16555 -0.06911
#
# Static dielectric constant tensor:
#      x y z
#    x 1.847930 0.003680 -0.036720 
#    y 0.003680 1.971900 -0.090210 
#    z -0.036720 -0.090210 1.831520 
# 
# From -- ./inp_files/410132.got.cif
#   From: 2010.05.17/outbox.cif.g08.bks.cpg/sg2_206_cif.got.tgz:410132.got - 2010.06.03 11:33:40.
