data_PCOD9039705
_publ_section_title
;
Structure prediction by ZEFSAII (Michael W. Deem and Ramdas Pophale) SiO2 
 PCOD9039705
Probable space group: P -1
;
_chemical_formula_sum "Si O2"
_cell_formula_units_Z 15
_cell_length_a 8.763236
_cell_length_b 8.617086
_cell_length_c 12.395254
_cell_angle_alpha 84.213200
_cell_angle_beta 60.489451
_cell_angle_gamma 51.809788
_cell_volume 611.169448
_symmetry_space_group_name_H-M "P -1"
_symmetry_group_IT_number 2
_symmetry_cell_setting 'triclinic'
loop_
_space_group_symop_operation_xyz
x,y,z
-x,-y,-z
loop_
_atom_site_type_symbol
_atom_site_label
_atom_site_fract_x
_atom_site_fract_y
_atom_site_fract_z
Si Si1 0.825383 0.290082 0.635270
Si Si2 0.000000 0.500000 0.500000
Si Si3 0.512342 0.171497 0.440608
Si Si4 0.985573 0.567729 0.121956
Si Si5 0.025593 0.129706 0.336829
Si Si6 0.819581 0.003355 0.133330
Si Si7 0.608839 0.845960 0.872709
Si Si8 0.383356 0.441683 0.663985
O O1 0.915272 0.408332 0.625898
O O2 0.553532 0.424047 0.691517
O O3 0.951199 0.198709 0.481281
O O4 0.906400 0.090665 0.687982
O O5 0.742218 0.648152 0.530526
O O6 0.533950 0.283335 0.523409
O O7 0.500000 0.000000 0.500000
O O8 0.698500 0.096239 0.286734
O O9 0.965157 0.762038 0.116083
O O10 0.744981 0.635189 0.242070
O O11 0.202167 0.380275 0.127530
O O12 0.000000 0.500000 0.000000
O O13 0.251028 0.108115 0.248397
O O14 0.830496 0.324884 0.316385
O O15 0.595973 0.109173 0.127253
O O16 0.000000 0.000000 0.000000
O O17 0.500000 0.000000 0.000000
#
# Coordination Sequence:
#
# PCOD9039705 Si02
#       8
#     2   1   2   2   2   2   2   2
#     4  11  24  42  70 103 146 185 241 307 371 448
#     4  12  28  46  68 114 154 196 244 320 392 440
#     4  12  28  47  76 106 157 205 252 318 382 452
#     4  11  24  48  78 107 147 200 255 315 384 463
#     4  10  23  42  70 103 140 184 250 302 362 446
#     4  12  28  49  71 117 158 196 255 323 387 459
#     4  11  24  47  77 102 146 201 250 308 379 458
#     4  11  24  45  75 106 141 202 257 302 376 461
#
# _framework density 24.543111
#
# number of rings (size 3 to 8) (size 9 to 14) (size 15 to 20)
#    0.000    0.800    4.000    2.000    5.600    2.667 
#    0.000    0.000    0.000    0.000    0.000    0.000 
#    0.000    0.000    0.000    0.000    0.000    0.000 
#
# Total GULP energy -83746.812340 kJ/mol
# GULP energy per Si atom -5583.120823 kJ/mol
# Density = 2.448725 g / cm^3
# Si number density = 24.543111 Si / 1000 Ang^3
#
#
#
# Elastic Constant Matrix: (Units=GPa)
#
#
# Indices 1 2 3 4 5 6 
#
# 1 110.2259 53.3602 67.9181 3.6842 -19.3076 -13.1022
# 2 53.3602 152.7531 48.2550 -20.7338 -19.9330 0.4084
# 3 67.9181 48.2550 146.5406 -12.8290 -38.4426 4.1666
# 4 3.6842 -20.7338 -12.8290 39.9226 13.7506 -8.3124
# 5 -19.3076 -19.9330 -38.4426 13.7506 51.1296 -3.7038
# 6 -13.1022 0.4084 4.1666 -8.3124 -3.7038 36.7264
#
#
#
# Elastic Compliance Matrix: (Units=1/GPa)
#
#
# Indices 1 2 3 4 5 6 
#
# 1 0.016001 -0.004109 -0.006272 -0.004988 0.001464 0.005484
# 2 -0.004109 0.008803 -0.000521 0.004618 0.000214 -0.000438
# 3 -0.006272 -0.000521 0.011559 0.001579 0.005504 -0.002630
# 4 -0.004988 0.004618 0.001579 0.031799 -0.007124 0.004469
# 5 0.001464 0.000214 0.005504 -0.007124 0.026317 0.000937
# 6 0.005484 -0.000438 -0.002630 0.004469 0.000937 0.030594
#
#
# Mechanical properties :
#
#
# Convention : Reuss Voigt Hill
#
# Bulk Modulus (GPa) = 68.68465 83.17624 75.93045
# Shear Modulus (GPa) = 32.95345 41.55480 37.25413
#
# Velocity S-wave (km/s) = 3.66823 4.11924 3.90026
# Velocity P-wave (km/s) = 6.78139 7.52247 7.16152
#
# Compressibility (1/GPa) = 0.01455929
#
# Stress axis : x y z
#
# Youngs Moduli (GPa) = 62.49699 113.60368 86.50943
#
# Poissons Ratio (x) = 0.46679 0.54255
# Poissons Ratio (y) = 0.25680 0.04509
# Poissons Ratio (z) = 0.39195 0.05921
#
# Static dielectric constant tensor:
#      x y z
#    x 2.030060 0.071770 0.009470 
#    y 0.071770 2.009360 -0.002820 
#    z 0.009470 -0.002820 1.998480 
# 
# From -- ./inp_files/296969.got.cif
#   From: 2010.05.17/outbox.cif.g08.bks.cpg/sg2_149_cif.got.tgz:296969.got - 2010.06.03 11:33:40.
