data_PCOD9039925
_publ_section_title
;
Structure prediction by ZEFSAII (Michael W. Deem and Ramdas Pophale) SiO2 
 PCOD9039925
Probable space group: P -1
;
_chemical_formula_sum "Si O2"
_cell_formula_units_Z 12
_cell_length_a 15.955528
_cell_length_b 9.663247
_cell_length_c 8.988982
_cell_angle_alpha 65.913652
_cell_angle_beta 68.092044
_cell_angle_gamma 28.894098
_cell_volume 610.975525
_symmetry_space_group_name_H-M "P -1"
_symmetry_group_IT_number 2
_symmetry_cell_setting 'triclinic'
loop_
_space_group_symop_operation_xyz
x,y,z
-x,-y,-z
loop_
_atom_site_type_symbol
_atom_site_label
_atom_site_fract_x
_atom_site_fract_y
_atom_site_fract_z
Si Si1 0.815927 0.833208 0.286245
Si Si2 0.842354 0.146712 0.628681
Si Si3 0.981466 0.868713 0.983549
Si Si4 0.171744 0.153360 0.372306
Si Si5 0.449384 0.216263 0.339836
Si Si6 0.666151 0.777595 0.885363
O O1 0.809595 0.868042 0.452674
O O2 0.973961 0.486468 0.314475
O O3 0.630443 0.040478 0.263333
O O4 0.866859 0.914198 0.133298
O O5 0.682444 0.489246 0.610727
O O6 0.790059 0.068480 0.613221
O O7 0.000000 0.000000 0.500000
O O8 0.906752 0.006472 0.810768
O O9 0.169244 0.522097 0.004084
O O10 0.000000 0.000000 0.000000
O O11 0.293004 0.109228 0.240937
O O12 0.358497 0.285900 0.220077
O O13 0.500000 0.000000 0.500000
O O14 0.500000 0.000000 0.000000
#
# Coordination Sequence:
#
# PCOD9039925 Si02
#       6
#     2   2   2   2   2   2
#     4  10  23  42  72  92 140 174 223 271 333 398
#     4  12  27  42  71 100 134 174 230 274 333 396
#     4  11  24  45  66  99 135 180 218 273 334 394
#     4  10  23  45  67 100 131 181 219 271 337 394
#     4  12  25  46  69 100 132 181 220 279 333 392
#     4  11  26  43  71 100 138 174 222 272 335 396
#
# _framework density 19.640722
#
# number of rings (size 3 to 8) (size 9 to 14) (size 15 to 20)
#    0.000    1.000    3.333    2.000    9.333    4.000 
#    0.000    0.000    0.000    0.000    0.000    0.000 
#    0.000    0.000    0.000    0.000    0.000    0.000 
#
# Total GULP energy -67132.706498 kJ/mol
# GULP energy per Si atom -5594.392208 kJ/mol
# Density = 1.959602 g / cm^3
# Si number density = 19.640722 Si / 1000 Ang^3
#
#
#
# Elastic Constant Matrix: (Units=GPa)
#
#
# Indices 1 2 3 4 5 6 
#
# 1 110.7770 67.2925 16.0856 7.6974 -27.2182 11.4446
# 2 67.2925 119.0303 54.8925 8.5100 -28.3279 8.2353
# 3 16.0856 54.8925 96.0748 -5.4275 -28.0309 2.9697
# 4 7.6974 8.5100 -5.4275 34.8157 -7.1426 0.4530
# 5 -27.2182 -28.3279 -28.0309 -7.1426 39.9676 5.6694
# 6 11.4446 8.2353 2.9697 0.4530 5.6694 42.2564
#
#
#
# Elastic Compliance Matrix: (Units=1/GPa)
#
#
# Indices 1 2 3 4 5 6 
#
# 1 0.016709 -0.009631 0.005674 0.001533 0.009420 -0.004327
# 2 -0.009631 0.018205 -0.009247 -0.003929 -0.000824 -0.000137
# 3 0.005674 -0.009247 0.018669 0.006399 0.011932 -0.002716
# 4 0.001533 -0.003929 0.006399 0.032152 0.008722 -0.001614
# 5 0.009420 -0.000824 0.011932 0.008722 0.042050 -0.008964
# 6 -0.004327 -0.000137 -0.002716 -0.001614 -0.008964 0.026275
#
#
# Mechanical properties :
#
#
# Convention : Reuss Voigt Hill
#
# Bulk Modulus (GPa) = 36.80008 66.93592 51.86800
# Shear Modulus (GPa) = 26.38173 35.91538 31.14856
#
# Velocity S-wave (km/s) = 3.66897 4.28087 3.98668
# Velocity P-wave (km/s) = 6.06018 7.65432 6.90342
#
# Compressibility (1/GPa) = 0.02717385
#
# Stress axis : x y z
#
# Youngs Moduli (GPa) = 59.84875 54.93060 53.56594
#
# Poissons Ratio (x) = 0.52905 -0.30393
# Poissons Ratio (y) = 0.57642 0.49532
# Poissons Ratio (z) = -0.33958 0.50794
#
# Static dielectric constant tensor:
#      x y z
#    x 1.598860 0.071260 0.056890 
#    y 0.071260 1.604390 -0.045120 
#    z 0.056890 -0.045120 1.629430 
# 
# From -- ./inp_files/144359.got.cif
#   From: 2010.05.17/outbox.cif.g08.bks.cpg/sg2_73_cif.got.tgz:144359.got - 2010.06.03 11:33:40.
