data_PCOD9039084
_publ_section_title
;
Structure prediction by ZEFSAII (Michael W. Deem and Ramdas Pophale) SiO2 
 PCOD9039084
Probable space group: P -1
;
_chemical_formula_sum "Si O2"
_cell_formula_units_Z 16
_cell_length_a 12.212798
_cell_length_b 7.948407
_cell_length_c 19.485220
_cell_angle_alpha 74.140182
_cell_angle_beta 145.500073
_cell_angle_gamma 129.610648
_cell_volume 673.603530
_symmetry_space_group_name_H-M "P -1"
_symmetry_group_IT_number 2
_symmetry_cell_setting 'triclinic'
loop_
_space_group_symop_operation_xyz
x,y,z
-x,-y,-z
loop_
_atom_site_type_symbol
_atom_site_label
_atom_site_fract_x
_atom_site_fract_y
_atom_site_fract_z
Si Si1 0.833054 0.325048 0.664496
Si Si2 0.363521 0.041255 0.286662
Si Si3 0.106577 0.390547 0.103242
Si Si4 0.889047 0.645145 0.321410
Si Si5 0.109382 0.418580 0.462199
Si Si6 0.738635 0.625494 0.954710
Si Si7 0.680590 0.953015 0.386668
Si Si8 0.260298 0.755003 0.953210
O O1 0.585769 0.035489 0.607230
O O2 0.826223 0.494566 0.593870
O O3 0.017455 0.312598 0.714713
O O4 0.995157 0.510486 0.794859
O O5 0.573959 0.351825 0.363995
O O6 0.480403 0.988862 0.294917
O O7 0.021171 0.849724 0.123863
O O8 0.133721 0.278741 0.066732
O O9 0.865015 0.199529 0.059176
O O10 0.428461 0.639364 0.276269
O O11 0.000000 0.500000 0.000000
O O12 0.548802 0.458018 0.172898
O O13 0.950423 0.490202 0.395961
O O14 0.101928 0.910265 0.449900
O O15 0.894198 0.124042 0.412118
O O16 0.635233 0.352981 0.944827
O O17 0.500000 0.000000 0.000000
#
# Coordination Sequence:
#
# PCOD9039084 Si02
#       8
#     2   2   2   2   2   2   2   2
#     4   9  19  32  59  80 112 141 182 225 286 314
#     4  10  17  33  54  82 109 141 186 225 270 331
#     4  10  20  35  61  79 108 150 188 231 264 325
#     4   9  21  34  56  85 115 146 177 226 287 325
#     4   9  21  33  58  84 111 144 186 227 274 323
#     4  10  21  37  58  82 115 149 181 225 282 322
#     4  11  19  37  57  84 109 144 197 224 264 329
#     4  10  21  36  59  85 107 142 193 230 266 332
#
# _framework density 23.752845000000001
#
# number of rings (size 3 to 8) (size 9 to 14) (size 15 to 20)
#    0.750    1.500    3.750    1.875    3.500    2.500 
#    0.000    2.500    5.500    0.750    0.000    0.000 
#    0.000    0.000    0.000    0.000    0.000    0.000 
#
# Total GULP energy -89213.527726 kJ/mol
# GULP energy per Si atom -5575.845483 kJ/mol
# Density = 2.369878 g / cm^3
# Si number density = 23.752845 Si / 1000 Ang^3
#
#
#
# Elastic Constant Matrix: (Units=GPa)
#
#
# Indices 1 2 3 4 5 6 
#
# 1 104.7952 27.2214 27.0596 -0.5225 7.5811 26.7424
# 2 27.2214 85.4336 3.2423 7.8399 16.5048 23.3078
# 3 27.0596 3.2423 116.8823 -3.2459 24.8836 -0.3300
# 4 -0.5225 7.8399 -3.2459 24.8255 13.5475 8.8933
# 5 7.5811 16.5048 24.8836 13.5475 30.4372 2.7043
# 6 26.7424 23.3078 -0.3300 8.8933 2.7043 39.8193
#
#
#
# Elastic Compliance Matrix: (Units=1/GPa)
#
#
# Indices 1 2 3 4 5 6 
#
# 1 0.012980 -0.001868 -0.002598 0.004242 -0.001228 -0.008510
# 2 -0.001868 0.016405 0.002614 0.004677 -0.011888 -0.008564
# 3 -0.002598 0.002614 0.012551 0.009252 -0.015085 -0.000723
# 4 0.004242 0.004677 0.009252 0.068403 -0.039997 -0.018071
# 5 -0.001228 -0.011888 -0.015085 -0.039997 0.068682 0.011927
# 6 -0.008510 -0.008564 -0.000723 -0.018071 0.011927 0.039061
#
#
# Mechanical properties :
#
#
# Convention : Reuss Voigt Hill
#
# Bulk Modulus (GPa) = 26.15570 46.90641 36.53106
# Shear Modulus (GPa) = 21.31931 35.65560 28.48746
#
# Velocity S-wave (km/s) = 2.99916 3.87862 3.46689
# Velocity P-wave (km/s) = 4.79883 6.31259 5.60703
#
# Compressibility (1/GPa) = 0.03823258
#
# Stress axis : x y z
#
# Youngs Moduli (GPa) = 77.04227 60.95839 79.67525
#
# Poissons Ratio (x) = 0.11384 0.20699
# Poissons Ratio (y) = 0.14388 -0.20827
# Poissons Ratio (z) = 0.20015 -0.15934
#
# Static dielectric constant tensor:
#      x y z
#    x 1.902920 -0.010810 -0.050610 
#    y -0.010810 2.034120 0.012070 
#    z -0.050610 0.012070 1.979230 
# 
# From -- ./inp_files/594118.got.cif
#   From: 2010.05.17/outbox.cif.g08.bks.cpg/sg2_298_cif.got.tgz:594118.got - 2010.06.03 11:33:40.
