data_PCOD9039710
_publ_section_title
;
Structure prediction by ZEFSAII (Michael W. Deem and Ramdas Pophale) SiO2 
 PCOD9039710
Probable space group: P -1
;
_chemical_formula_sum "Si O2"
_cell_formula_units_Z 14
_cell_length_a 6.977021
_cell_length_b 9.103794
_cell_length_c 10.800107
_cell_angle_alpha 92.364592
_cell_angle_beta 92.064861
_cell_angle_gamma 51.013289
_cell_volume 532.718974
_symmetry_space_group_name_H-M "P -1"
_symmetry_group_IT_number 2
_symmetry_cell_setting 'triclinic'
loop_
_space_group_symop_operation_xyz
x,y,z
-x,-y,-z
loop_
_atom_site_type_symbol
_atom_site_label
_atom_site_fract_x
_atom_site_fract_y
_atom_site_fract_z
Si Si1 0.499970 0.153864 0.434065
Si Si2 0.247799 0.461989 0.622809
Si Si3 0.021555 0.329511 0.772884
Si Si4 0.815120 0.948401 0.004523
Si Si5 0.986972 0.172926 0.244214
Si Si6 0.521852 0.739783 0.830243
Si Si7 0.798603 0.193943 0.612713
O O1 0.277127 0.361650 0.490565
O O2 0.487955 0.151500 0.287704
O O3 0.741351 0.133751 0.481401
O O4 0.500000 0.000000 0.500000
O O5 0.057015 0.683716 0.647567
O O6 0.525173 0.389498 0.640048
O O7 0.202151 0.366579 0.726724
O O8 0.772634 0.528802 0.820820
O O9 0.972651 0.245117 0.651383
O O10 0.112110 0.185854 0.882221
O O11 0.866813 0.842271 0.873422
O O12 0.548548 0.143621 0.040101
O O13 0.000000 0.000000 0.000000
O O14 0.715105 0.252200 0.198264
O O15 0.138277 0.963957 0.294168
#
# Coordination Sequence:
#
# PCOD9039710 Si02
#       7
#     2   2   2   2   2   2   2
#     4  10  24  46  68 102 145 174 230 289 334 416
#     4  10  26  44  66 107 139 171 240 273 343 409
#     4  12  23  44  73 101 139 185 223 286 344 404
#     4  10  23  42  70 104 136 182 233 278 343 410
#     4  11  23  45  71 100 139 182 229 286 341 405
#     4  11  23  42  69 104 135 183 232 274 350 405
#     4  10  24  45  69 100 139 182 220 283 345 400
#
# _framework density 26.280270999999999
#
# number of rings (size 3 to 8) (size 9 to 14) (size 15 to 20)
#    0.857    0.571    4.286    0.857    2.000    7.429 
#    2.571    1.429    0.000    0.000    0.000    0.000 
#    0.000    0.000    0.000    0.000    0.000    0.000 
#
# Total GULP energy -78424.248150 kJ/mol
# GULP energy per Si atom -5601.732011 kJ/mol
# Density = 2.622046 g / cm^3
# Si number density = 26.280271 Si / 1000 Ang^3
#
#
#
# Elastic Constant Matrix: (Units=GPa)
#
#
# Indices 1 2 3 4 5 6 
#
# 1 74.5873 -4.6821 19.1758 -2.1610 2.6326 1.9760
# 2 -4.6821 118.8109 44.6652 22.7000 -3.8638 4.3857
# 3 19.1758 44.6652 130.0550 23.3548 -11.9465 -0.1042
# 4 -2.1610 22.7000 23.3548 51.5303 5.6089 -11.5042
# 5 2.6326 -3.8638 -11.9465 5.6089 44.3271 2.8595
# 6 1.9760 4.3857 -0.1042 -11.5042 2.8595 36.5646
#
#
#
# Elastic Compliance Matrix: (Units=1/GPa)
#
#
# Indices 1 2 3 4 5 6 
#
# 1 0.014381 0.001377 -0.003014 0.001470 -0.001710 -0.000355
# 2 0.001377 0.010465 -0.003053 -0.003819 0.000658 -0.002591
# 3 -0.003014 -0.003053 0.010188 -0.003959 0.003220 -0.000939
# 4 0.001470 -0.003819 -0.003959 0.025483 -0.005279 0.008798
# 5 -0.001710 0.000658 0.003220 -0.005279 0.024484 -0.003553
# 6 -0.000355 -0.002591 -0.000939 0.008798 -0.003553 0.030722
#
#
# Mechanical properties :
#
#
# Convention : Reuss Voigt Hill
#
# Bulk Modulus (GPa) = 38.98215 49.08568 44.03392
# Shear Modulus (GPa) = 37.40960 44.10402 40.75681
#
# Velocity S-wave (km/s) = 3.77700 4.10105 3.94236
# Velocity P-wave (km/s) = 5.82121 6.41429 6.12493
#
# Compressibility (1/GPa) = 0.02565276
#
# Stress axis : x y z
#
# Youngs Moduli (GPa) = 69.53710 95.55280 98.15442
#
# Poissons Ratio (x) = -0.13154 0.29588
# Poissons Ratio (y) = -0.09573 0.29966
# Poissons Ratio (z) = 0.20961 0.29172
#
# Static dielectric constant tensor:
#      x y z
#    x 2.155450 0.000070 0.045010 
#    y 0.000070 2.030750 0.065090 
#    z 0.045010 0.065090 2.025340 
# 
# From -- ./inp_files/382255.got.cif
#   From: 2010.05.17/outbox.cif.g08.bks.cpg/sg2_192_cif.got.tgz:382255.got - 2010.06.03 11:33:40.
