data_PCOD9039896
_publ_section_title
;
Structure prediction by ZEFSAII (Michael W. Deem and Ramdas Pophale) SiO2 
 PCOD9039896
Probable space group: P -1
;
_chemical_formula_sum "Si O2"
_cell_formula_units_Z 14
_cell_length_a 8.905988
_cell_length_b 11.511953
_cell_length_c 9.246910
_cell_angle_alpha 129.440656
_cell_angle_beta 117.942498
_cell_angle_gamma 68.347894
_cell_volume 643.260301
_symmetry_space_group_name_H-M "P -1"
_symmetry_group_IT_number 2
_symmetry_cell_setting 'triclinic'
loop_
_space_group_symop_operation_xyz
x,y,z
-x,-y,-z
loop_
_atom_site_type_symbol
_atom_site_label
_atom_site_fract_x
_atom_site_fract_y
_atom_site_fract_z
Si Si1 0.517059 0.592656 0.225503
Si Si2 0.271392 0.393089 0.089700
Si Si3 0.111357 0.350921 0.484740
Si Si4 0.176067 0.024182 0.177921
Si Si5 0.464121 0.064186 0.875207
Si Si6 0.735674 0.126663 0.597200
Si Si7 0.039385 0.644788 0.289349
O O1 0.421737 0.499847 0.225747
O O2 0.713589 0.594998 0.340860
O O3 0.419215 0.760105 0.316221
O O4 0.500000 0.500000 0.000000
O O5 0.154551 0.482943 0.229641
O O6 0.362134 0.225873 0.991371
O O7 0.133928 0.394470 0.897881
O O8 0.173744 0.205146 0.303041
O O9 0.000000 0.500000 0.500000
O O10 0.006600 0.290234 0.523439
O O11 0.348758 0.940925 0.118899
O O12 0.183438 0.969930 0.306766
O O13 0.000000 0.000000 0.000000
O O14 0.346431 0.972959 0.642335
O O15 0.500000 0.000000 0.000000
O O16 0.866599 0.236024 0.670476
#
# Coordination Sequence:
#
# PCOD9039896 Si02
#       7
#     2   2   2   2   2   2   2
#     4  11  22  44  73 104 137 199 239 299 362 434
#     4  10  23  42  72 101 143 184 244 291 364 429
#     4  12  28  44  72 106 151 186 250 303 372 434
#     4  12  30  49  74 111 146 196 248 312 373 432
#     4  12  28  47  75 110 149 193 246 306 371 443
#     4  11  26  49  78 101 152 191 253 301 370 442
#     4  10  24  44  72 108 137 194 241 302 361 435
#
# _framework density 21.764127999999999
#
# number of rings (size 3 to 8) (size 9 to 14) (size 15 to 20)
#    0.000    0.857    2.857    2.143   10.000    1.143 
#    0.000    2.857    0.000    0.000    0.000    0.000 
#    0.000    0.000    0.000    0.000    0.000    0.000 
#
# Total GULP energy -78128.539462 kJ/mol
# GULP energy per Si atom -5580.609962 kJ/mol
# Density = 2.171459 g / cm^3
# Si number density = 21.764128 Si / 1000 Ang^3
#
#
#
# Elastic Constant Matrix: (Units=GPa)
#
#
# Indices 1 2 3 4 5 6 
#
# 1 114.8509 61.0692 30.6354 -11.6799 6.7298 -17.0590
# 2 61.0692 174.2657 65.6659 16.4995 -3.2555 -31.3997
# 3 30.6354 65.6659 103.6830 -3.4572 20.1515 -12.2896
# 4 -11.6799 16.4995 -3.4572 36.7134 -6.8490 -11.9286
# 5 6.7298 -3.2555 20.1515 -6.8490 39.5498 1.8354
# 6 -17.0590 -31.3997 -12.2896 -11.9286 1.8354 34.9062
#
#
#
# Elastic Compliance Matrix: (Units=1/GPa)
#
#
# Indices 1 2 3 4 5 6 
#
# 1 0.012475 -0.004249 0.000113 0.007182 -0.001511 0.004848
# 2 -0.004249 0.010622 -0.005914 -0.004857 0.003605 0.003547
# 3 0.000113 -0.005914 0.015155 0.003184 -0.007749 0.001566
# 4 0.007182 -0.004857 0.003184 0.036576 0.002504 0.012629
# 5 -0.001511 0.003605 -0.007749 0.002504 0.030265 -0.000960
# 6 0.004848 0.003547 0.001566 0.012629 -0.000960 0.039126
#
#
# Mechanical properties :
#
#
# Convention : Reuss Voigt Hill
#
# Bulk Modulus (GPa) = 55.09095 78.61562 66.85328
# Shear Modulus (GPa) = 29.34771 37.92914 33.63842
#
# Velocity S-wave (km/s) = 3.67610 4.17914 3.93566
# Velocity P-wave (km/s) = 6.58680 7.71278 7.17192
#
# Compressibility (1/GPa) = 0.01815180
#
# Stress axis : x y z
#
# Youngs Moduli (GPa) = 80.15896 94.14177 65.98473
#
# Poissons Ratio (x) = 0.40001 -0.00744
# Poissons Ratio (y) = 0.34059 0.39025
# Poissons Ratio (z) = -0.00904 0.55677
#
# Static dielectric constant tensor:
#      x y z
#    x 1.888330 0.001350 0.378600 
#    y 0.001350 1.856030 -0.015270 
#    z 0.378600 -0.015270 2.097210 
# 
# From -- ./inp_files/156664.got.cif
#   From: 2010.05.17/outbox.cif.g08.bks.cpg/sg2_79_cif.got.tgz:156664.got - 2010.06.03 11:33:40.
