data_PCOD9039880
_publ_section_title
;
Structure prediction by ZEFSAII (Michael W. Deem and Ramdas Pophale) SiO2 
 PCOD9039880
Probable space group: P -1
;
_chemical_formula_sum "Si O2"
_cell_formula_units_Z 16
_cell_length_a 20.239184
_cell_length_b 5.957795
_cell_length_c 22.134746
_cell_angle_alpha 126.289725
_cell_angle_beta 158.134986
_cell_angle_gamma 65.294329
_cell_volume 720.448415
_symmetry_space_group_name_H-M "P -1"
_symmetry_group_IT_number 2
_symmetry_cell_setting 'triclinic'
loop_
_space_group_symop_operation_xyz
x,y,z
-x,-y,-z
loop_
_atom_site_type_symbol
_atom_site_label
_atom_site_fract_x
_atom_site_fract_y
_atom_site_fract_z
Si Si1 0.335019 0.663355 0.290633
Si Si2 0.397732 0.454514 0.703974
Si Si3 0.216057 0.255737 0.744200
Si Si4 0.847349 0.220275 0.623910
Si Si5 0.765600 0.342958 0.288679
Si Si6 0.033459 0.348967 0.090992
Si Si7 0.547995 0.772948 0.758493
Si Si8 0.779018 0.437486 0.082324
O O1 0.210958 0.531565 0.224840
O O2 0.426029 0.454241 0.303785
O O3 0.500000 0.000000 0.500000
O O4 0.172729 0.658913 0.105093
O O5 0.284707 0.563537 0.673859
O O6 0.514540 0.670946 0.782947
O O7 0.238220 0.138584 0.487342
O O8 0.572411 0.429089 0.885561
O O9 0.305242 0.481832 0.796555
O O10 0.199322 0.485924 0.816667
O O11 0.296453 0.029277 0.812781
O O12 0.000000 0.000000 0.500000
O O13 0.909876 0.472570 0.769667
O O14 0.656204 0.218213 0.429777
O O15 0.031199 0.310508 0.749886
O O16 0.000000 0.500000 0.500000
O O17 0.000000 0.000000 0.000000
O O18 0.743786 0.097104 0.976754
#
# Coordination Sequence:
#
# PCOD9039880 Si02
#       8
#     2   2   2   2   2   2   2   2
#     4  11  24  44  68 102 140 179 229 285 347 423
#     4  11  26  44  69 100 138 184 233 296 355 432
#     4  10  23  43  69 103 136 192 238 301 363 435
#     4  11  24  44  68  99 137 184 230 287 357 423
#     4  10  23  42  71  99 141 185 245 295 367 429
#     4  11  24  42  70 101 137 181 230 282 349 420
#     4  11  26  43  67 103 136 180 232 289 354 425
#     4  11  26  44  70  98 142 180 237 292 359 427
#
# _framework density 22.208393999999998
#
# number of rings (size 3 to 8) (size 9 to 14) (size 15 to 20)
#    0.000    1.250    0.000    4.500    8.750    9.000 
#    0.000    0.000    0.000    0.000    0.000    0.000 
#    0.000    0.000    0.000    0.000    0.000    0.000 
#
# Total GULP energy -89295.088132 kJ/mol
# GULP energy per Si atom -5580.943008 kJ/mol
# Density = 2.215785 g / cm^3
# Si number density = 22.208394 Si / 1000 Ang^3
#
#
#
# Elastic Constant Matrix: (Units=GPa)
#
#
# Indices 1 2 3 4 5 6 
#
# 1 213.9351 41.9244 -2.7638 -0.7646 46.8229 8.9995
# 2 41.9244 86.0294 21.6697 -3.7692 12.3048 8.2918
# 3 -2.7638 21.6697 123.9012 9.1157 -6.1731 4.6936
# 4 -0.7646 -3.7692 9.1157 72.8572 8.3380 -10.9915
# 5 46.8229 12.3048 -6.1731 8.3380 73.9374 5.2712
# 6 8.9995 8.2918 4.6936 -10.9915 5.2712 46.4922
#
#
#
# Elastic Compliance Matrix: (Units=1/GPa)
#
#
# Indices 1 2 3 4 5 6 
#
# 1 0.005897 -0.002462 0.000394 0.000214 -0.003293 -0.000318
# 2 -0.002462 0.013769 -0.002523 0.000898 -0.000944 -0.001405
# 3 0.000394 -0.002523 0.008725 -0.001498 0.001138 -0.000990
# 4 0.000214 0.000898 -0.001498 0.014790 -0.002343 0.003712
# 5 -0.003293 -0.000944 0.001138 -0.002343 0.016248 -0.001705
# 6 -0.000318 -0.001405 -0.000990 0.003712 -0.001705 0.022992
#
#
# Mechanical properties :
#
#
# Convention : Reuss Voigt Hill
#
# Bulk Modulus (GPa) = 52.05583 60.61402 56.33493
# Shear Modulus (GPa) = 51.01757 62.85972 56.93864
#
# Velocity S-wave (km/s) = 4.79813 5.32597 5.06893
# Velocity P-wave (km/s) = 7.36116 8.07303 7.72530
#
# Compressibility (1/GPa) = 0.01921014
#
# Stress axis : x y z
#
# Youngs Moduli (GPa) = 169.58463 72.62690 114.60778
#
# Poissons Ratio (x) = 0.17880 -0.04520
# Poissons Ratio (y) = 0.41750 0.28915
# Poissons Ratio (z) = -0.06688 0.18323
#
# Static dielectric constant tensor:
#      x y z
#    x 1.632130 -0.000950 -0.003920 
#    y -0.000950 1.943900 -0.019790 
#    z -0.003920 -0.019790 1.767730 
# 
# From -- ./inp_files/582405.got.cif
#   From: 2010.05.17/outbox.cif.g08.bks.cpg/sg2_292_cif.got.tgz:582405.got - 2010.06.03 11:33:40.
