data_PCOD9039807
_publ_section_title
;
Structure prediction by ZEFSAII (Michael W. Deem and Ramdas Pophale) SiO2 
 PCOD9039807
Probable space group: P -1
;
_chemical_formula_sum "Si O2"
_cell_formula_units_Z 16
_cell_length_a 7.264819
_cell_length_b 13.844193
_cell_length_c 10.678292
_cell_angle_alpha 66.064326
_cell_angle_beta 42.500124
_cell_angle_gamma 61.454617
_cell_volume 634.782433
_symmetry_space_group_name_H-M "P -1"
_symmetry_group_IT_number 2
_symmetry_cell_setting 'triclinic'
loop_
_space_group_symop_operation_xyz
x,y,z
-x,-y,-z
loop_
_atom_site_type_symbol
_atom_site_label
_atom_site_fract_x
_atom_site_fract_y
_atom_site_fract_z
Si Si1 0.649795 0.261166 0.340087
Si Si2 0.577163 0.814910 0.734046
Si Si3 0.080782 0.486115 0.772366
Si Si4 0.489824 0.608525 0.030511
Si Si5 0.812746 0.750244 0.073618
Si Si6 0.499632 0.977373 0.160121
Si Si7 0.778436 0.192648 0.592433
Si Si8 0.657046 0.490549 0.618681
O O1 0.557440 0.175842 0.341751
O O2 0.649431 0.242445 0.497479
O O3 0.440801 0.382757 0.352352
O O4 0.973156 0.251761 0.144598
O O5 0.468755 0.719722 0.907376
O O6 0.496512 0.922339 0.806342
O O7 0.918215 0.787682 0.557725
O O8 0.061323 0.361578 0.854165
O O9 0.374750 0.484476 0.690352
O O10 0.103365 0.524278 0.598774
O O11 0.820450 0.569000 0.930977
O O12 0.500000 0.500000 0.000000
O O13 0.288237 0.597354 0.251445
O O14 0.482374 0.758628 0.204768
O O15 0.762073 0.866547 0.110261
O O16 0.222779 0.934379 0.341297
O O17 0.500000 0.000000 0.000000
#
# Coordination Sequence:
#
# PCOD9039807 Si02
#       8
#     2   2   2   2   2   2   2   2
#     4  12  23  48  72 103 147 183 238 294 351 425
#     4  12  26  46  74 106 144 191 234 291 362 414
#     4  11  23  41  69  98 129 190 235 277 360 411
#     4  12  25  43  64 102 145 181 227 291 348 418
#     4  10  23  42  71 103 138 185 237 293 349 421
#     4  10  24  47  73 107 142 183 239 294 352 426
#     4  10  25  47  72 105 139 185 237 292 353 418
#     4  11  23  40  65  96 135 180 231 285 336 418
#
# _framework density 25.205487000000002
#
# number of rings (size 3 to 8) (size 9 to 14) (size 15 to 20)
#    0.750    0.250    3.750    2.250    5.250    1.500 
#    2.250    0.000    0.000    0.000    0.000    0.000 
#    0.000    0.000    0.000    0.000    0.000    0.000 
#
# Total GULP energy -89459.242441 kJ/mol
# GULP energy per Si atom -5591.202653 kJ/mol
# Density = 2.514812 g / cm^3
# Si number density = 25.205487 Si / 1000 Ang^3
#
#
#
# Elastic Constant Matrix: (Units=GPa)
#
#
# Indices 1 2 3 4 5 6 
#
# 1 91.1956 16.1760 13.5202 -7.6449 -17.4613 20.9436
# 2 16.1760 118.2157 19.0260 -2.0849 -10.0188 29.6439
# 3 13.5202 19.0260 136.9132 -6.3554 -5.6770 -1.5195
# 4 -7.6449 -2.0849 -6.3554 39.0290 1.8666 -5.2518
# 5 -17.4613 -10.0188 -5.6770 1.8666 25.6911 -3.9875
# 6 20.9436 29.6439 -1.5195 -5.2518 -3.9875 39.2177
#
#
#
# Elastic Compliance Matrix: (Units=1/GPa)
#
#
# Indices 1 2 3 4 5 6 
#
# 1 0.014442 0.000807 -0.001202 0.001278 0.008636 -0.007320
# 2 0.000807 0.011026 -0.001613 -0.000828 0.003216 -0.008612
# 3 -0.001202 -0.001613 0.007753 0.001235 0.000547 0.002382
# 4 0.001278 -0.000828 0.001235 0.026525 -0.000567 0.003486
# 5 0.008636 0.003216 0.000547 -0.000567 0.045831 -0.002437
# 6 -0.007320 -0.008612 0.002382 0.003486 -0.002437 0.036229
#
#
# Mechanical properties :
#
#
# Convention : Reuss Voigt Hill
#
# Bulk Modulus (GPa) = 34.23924 49.30766 41.77345
# Shear Modulus (GPa) = 32.14263 40.62771 36.38517
#
# Velocity S-wave (km/s) = 3.57490 4.01915 3.80352
# Velocity P-wave (km/s) = 5.53655 6.41427 5.99151
#
# Compressibility (1/GPa) = 0.02920625
#
# Stress axis : x y z
#
# Youngs Moduli (GPa) = 69.24096 90.69859 128.97935
#
# Poissons Ratio (x) = -0.07323 0.15506
# Poissons Ratio (y) = -0.05590 0.20799
# Poissons Ratio (z) = 0.08324 0.14626
#
# Static dielectric constant tensor:
#      x y z
#    x 2.066220 0.014560 -0.034050 
#    y 0.014560 2.043580 -0.000650 
#    z -0.034050 -0.000650 1.982780 
# 
# From -- ./inp_files/398726.got.cif
#   From: 2010.05.17/outbox.cif.g08.bks.cpg/sg2_200_cif.got.tgz:398726.got - 2010.06.03 11:33:40.
