data_PCOD9039792
_publ_section_title
;
Structure prediction by ZEFSAII (Michael W. Deem and Ramdas Pophale) SiO2 
 PCOD9039792
Probable space group: P -1
;
_chemical_formula_sum "Si O2"
_cell_formula_units_Z 16
_cell_length_a 7.889925
_cell_length_b 8.784288
_cell_length_c 11.552720
_cell_angle_alpha 77.985345
_cell_angle_beta 65.236623
_cell_angle_gamma 64.478915
_cell_volume 655.745133
_symmetry_space_group_name_H-M "P -1"
_symmetry_group_IT_number 2
_symmetry_cell_setting 'triclinic'
loop_
_space_group_symop_operation_xyz
x,y,z
-x,-y,-z
loop_
_atom_site_type_symbol
_atom_site_label
_atom_site_fract_x
_atom_site_fract_y
_atom_site_fract_z
Si Si1 0.439900 0.485717 0.886728
Si Si2 0.580622 0.756167 0.697736
Si Si3 0.676956 0.766527 0.411666
Si Si4 0.903210 0.810609 0.735591
Si Si5 0.257290 0.593318 0.538190
Si Si6 0.650834 0.198654 0.701751
Si Si7 0.001220 0.755995 0.951846
Si Si8 0.185526 0.036394 0.812130
O O1 0.531173 0.594703 0.763917
O O2 0.533774 0.301509 0.831473
O O3 0.198156 0.584826 0.930702
O O4 0.500000 0.500000 0.000000
O O5 0.567097 0.807774 0.559786
O O6 0.797542 0.735938 0.683476
O O7 0.412912 0.906237 0.793268
O O8 0.805739 0.566347 0.414400
O O9 0.514146 0.800591 0.348424
O O10 0.808715 0.873737 0.324235
O O11 0.141324 0.722949 0.652002
O O12 0.866159 0.752280 0.882381
O O13 0.800192 0.010502 0.718308
O O14 0.500000 0.500000 0.500000
O O15 0.228815 0.701123 0.413162
O O16 0.063841 0.914198 0.872739
O O17 0.894708 0.815618 0.094501
#
# Coordination Sequence:
#
# PCOD9039792 Si02
#       8
#     2   2   2   2   2   2   2   2
#     4  11  26  50  75 101 144 189 237 291 357 424
#     4  11  25  45  72 110 143 184 239 300 344 416
#     4  11  22  44  74 102 147 187 233 296 358 405
#     4  12  26  43  73 107 138 186 241 292 354 418
#     4  10  23  43  66 100 143 183 224 287 351 421
#     4  11  24  43  73 107 137 194 234 289 354 423
#     4  10  25  46  70 101 142 194 232 290 357 426
#     4  10  23  42  71 101 142 191 236 291 351 419
#
# _framework density 24.399723000000002
#
# number of rings (size 3 to 8) (size 9 to 14) (size 15 to 20)
#    0.000    1.250    2.500    2.250   10.500    4.000 
#    0.000    1.875    0.000    0.000    0.000    0.000 
#    0.000    0.000    0.000    0.000    0.000    0.000 
#
# Total GULP energy -89516.715134 kJ/mol
# GULP energy per Si atom -5594.794696 kJ/mol
# Density = 2.434419 g / cm^3
# Si number density = 24.399723 Si / 1000 Ang^3
#
#
#
# Elastic Constant Matrix: (Units=GPa)
#
#
# Indices 1 2 3 4 5 6 
#
# 1 61.3871 20.8456 25.0985 1.7880 17.4857 -14.6979
# 2 20.8456 124.4706 29.9579 25.2024 -14.1272 -22.6837
# 3 25.0985 29.9579 123.6242 18.9668 8.8186 -8.2420
# 4 1.7880 25.2024 18.9668 55.5378 5.0740 -5.5839
# 5 17.4857 -14.1272 8.8186 5.0740 34.3864 -4.5754
# 6 -14.6979 -22.6837 -8.2420 -5.5839 -4.5754 26.5206
#
#
#
# Elastic Compliance Matrix: (Units=1/GPa)
#
#
# Indices 1 2 3 4 5 6 
#
# 1 0.024399 -0.004277 -0.003129 0.004166 -0.012975 0.007530
# 2 -0.004277 0.012890 -0.001574 -0.005189 0.009806 0.008765
# 3 -0.003129 -0.001574 0.009507 -0.002402 -0.001252 -0.000848
# 4 0.004166 -0.005189 -0.002402 0.021718 -0.006768 0.000529
# 5 -0.012975 0.009806 -0.001252 -0.006768 0.041907 0.006613
# 6 0.007530 0.008765 -0.000848 0.000529 0.006613 0.050366
#
#
# Mechanical properties :
#
#
# Convention : Reuss Voigt Hill
#
# Bulk Modulus (GPa) = 34.67896 51.25401 42.96649
# Shear Modulus (GPa) = 26.54491 38.86098 32.70294
#
# Velocity S-wave (km/s) = 3.30194 3.99517 3.66498
# Velocity P-wave (km/s) = 5.36477 6.50641 5.96298
#
# Compressibility (1/GPa) = 0.02883593
#
# Stress axis : x y z
#
# Youngs Moduli (GPa) = 40.98524 77.57839 105.18381
#
# Poissons Ratio (x) = 0.33181 0.32909
# Poissons Ratio (y) = 0.17530 0.16561
# Poissons Ratio (z) = 0.12823 0.12214
#
# Static dielectric constant tensor:
#      x y z
#    x 2.021860 0.083910 -0.012560 
#    y 0.083910 1.961700 0.000700 
#    z -0.012560 0.000700 1.950260 
# 
# From -- ./inp_files/381914.got.cif
#   From: 2010.05.17/outbox.cif.g08.bks.cpg/sg2_191_cif.got.tgz:381914.got - 2010.06.03 11:33:40.
