data_PCOD9039980
_publ_section_title
;
Structure prediction by ZEFSAII (Michael W. Deem and Ramdas Pophale) SiO2 
 PCOD9039980
Probable space group: P -1
;
_chemical_formula_sum "Si O2"
_cell_formula_units_Z 14
_cell_length_a 9.034189
_cell_length_b 11.567280
_cell_length_c 14.878435
_cell_angle_alpha 151.753020
_cell_angle_beta 61.387978
_cell_angle_gamma 124.389941
_cell_volume 606.537874
_symmetry_space_group_name_H-M "P -1"
_symmetry_group_IT_number 2
_symmetry_cell_setting 'triclinic'
loop_
_space_group_symop_operation_xyz
x,y,z
-x,-y,-z
loop_
_atom_site_type_symbol
_atom_site_label
_atom_site_fract_x
_atom_site_fract_y
_atom_site_fract_z
Si Si1 0.475509 0.881157 0.026631
Si Si2 0.052984 0.420220 0.110362
Si Si3 0.709979 0.127808 0.544952
Si Si4 0.041833 0.842287 0.669117
Si Si5 0.128285 0.835748 0.836964
Si Si6 0.689298 0.733438 0.587750
Si Si7 0.782888 0.671628 0.312650
O O1 0.666098 0.985869 0.091327
O O2 0.345884 0.001883 0.198658
O O3 0.389061 0.573553 0.834485
O O4 0.500000 0.000000 0.000000
O O5 0.920929 0.344897 0.184801
O O6 0.953391 0.575865 0.186294
O O7 0.237141 0.622065 0.233916
O O8 0.069184 0.153920 0.885308
O O9 0.788292 0.921133 0.425847
O O10 0.500000 0.000000 0.500000
O O11 0.816644 0.198962 0.469593
O O12 0.080175 0.743235 0.686653
O O13 0.841934 0.719910 0.602960
O O14 0.000000 0.000000 0.000000
O O15 0.500000 0.500000 0.500000
O O16 0.752910 0.729636 0.464984
#
# Coordination Sequence:
#
# PCOD9039980 Si02
#       7
#     2   2   2   2   2   2   2
#     4  12  22  44  70 108 142 179 232 296 354 426
#     4  11  23  49  72 102 142 183 237 295 356 421
#     4  12  31  48  67 102 145 197 244 289 345 430
#     4  11  26  47  73 106 146 189 230 295 370 414
#     4  10  23  42  73 108 143 179 227 296 366 422
#     4  12  24  41  74 112 138 182 236 290 363 424
#     4  12  26  46  72 101 147 182 244 291 346 427
#
# _framework density 23.081824999999998
#
# number of rings (size 3 to 8) (size 9 to 14) (size 15 to 20)
#    0.000    0.571    5.714    1.286    6.000    2.857 
#    0.000    0.000    0.000    0.000    0.000    0.000 
#    0.000    0.000    0.000    0.000    0.000    0.000 
#
# Total GULP energy -78383.071042 kJ/mol
# GULP energy per Si atom -5598.790789 kJ/mol
# Density = 2.302929 g / cm^3
# Si number density = 23.081825 Si / 1000 Ang^3
#
#
#
# Elastic Constant Matrix: (Units=GPa)
#
#
# Indices 1 2 3 4 5 6 
#
# 1 139.7601 15.2362 23.5467 -2.5966 24.6459 20.9908
# 2 15.2362 39.7429 0.3203 -0.3484 11.0019 3.5399
# 3 23.5467 0.3203 111.9852 1.5059 13.4316 5.3357
# 4 -2.5966 -0.3484 1.5059 36.0959 7.5560 4.1965
# 5 24.6459 11.0019 13.4316 7.5560 53.2983 12.6689
# 6 20.9908 3.5399 5.3357 4.1965 12.6689 43.5912
#
#
#
# Elastic Compliance Matrix: (Units=1/GPa)
#
#
# Indices 1 2 3 4 5 6 
#
# 1 0.008601 -0.002260 -0.001356 0.001575 -0.002637 -0.003178
# 2 -0.002260 0.027417 0.000982 0.001105 -0.005043 0.000101
# 3 -0.001356 0.000982 0.009447 -0.000074 -0.001943 -0.000011
# 4 0.001575 0.001105 -0.000074 0.029044 -0.004502 -0.002327
# 5 -0.002637 -0.005043 -0.001943 -0.004502 0.023194 -0.004390
# 6 -0.003178 0.000101 -0.000011 -0.002327 -0.004390 0.025964
#
#
# Mechanical properties :
#
#
# Convention : Reuss Voigt Hill
#
# Bulk Modulus (GPa) = 24.87686 41.07717 32.97702
# Shear Modulus (GPa) = 35.12892 43.42274 39.27583
#
# Velocity S-wave (km/s) = 3.90542 4.34205 4.12951
# Velocity P-wave (km/s) = 5.58010 6.55536 6.08729
#
# Compressibility (1/GPa) = 0.04019800
#
# Stress axis : x y z
#
# Youngs Moduli (GPa) = 116.25952 36.47405 105.85829
#
# Poissons Ratio (x) = 0.08242 0.14350
# Poissons Ratio (y) = 0.26271 -0.10394
# Poissons Ratio (z) = 0.15760 -0.03581
#
# Static dielectric constant tensor:
#      x y z
#    x 1.847730 -0.041640 0.019650 
#    y -0.041640 1.821820 0.028790 
#    z 0.019650 0.028790 1.914230 
# 
# From -- ./inp_files/255843.got.cif
#   From: 2010.05.17/outbox.cif.g08.bks.cpg/sg2_128_cif.got.tgz:255843.got - 2010.06.03 11:33:40.
