data_PCOD9039163
_publ_section_title
;
Structure prediction by ZEFSAII (Michael W. Deem and Ramdas Pophale) SiO2 
 PCOD9039163
Probable space group: P -1
;
_chemical_formula_sum "Si O2"
_cell_formula_units_Z 10
_cell_length_a 12.201629
_cell_length_b 14.630543
_cell_length_c 5.907901
_cell_angle_alpha 78.369490
_cell_angle_beta 92.129123
_cell_angle_gamma 152.587415
_cell_volume 451.460296
_symmetry_space_group_name_H-M "P -1"
_symmetry_group_IT_number 2
_symmetry_cell_setting 'triclinic'
loop_
_space_group_symop_operation_xyz
x,y,z
-x,-y,-z
loop_
_atom_site_type_symbol
_atom_site_label
_atom_site_fract_x
_atom_site_fract_y
_atom_site_fract_z
Si Si1 0.468723 0.052932 0.666267
Si Si2 0.480394 0.562276 0.268784
Si Si3 0.578679 0.334349 0.432498
Si Si4 0.086089 0.643087 0.118253
Si Si5 0.214539 0.197298 0.237610
O O1 0.417968 0.116876 0.538836
O O2 0.725378 0.254927 0.730959
O O3 0.500000 0.000000 0.500000
O O4 0.249171 0.847245 0.908453
O O5 0.500000 0.500000 0.500000
O O6 0.406814 0.603230 0.355511
O O7 0.271509 0.350342 0.209049
O O8 0.556075 0.694651 0.724296
O O9 0.258918 0.226650 0.953771
O O10 0.846318 0.507206 0.278010
O O11 0.000000 0.500000 0.000000
O O12 0.000000 0.000000 0.500000
#
# Coordination Sequence:
#
# PCOD9039163 Si02
#       5
#     2   2   2   2   2
#     4  11  25  42  66  99 136 186 237 284 350 414
#     4   9  22  42  63  93 133 175 227 287 354 410
#     4  11  24  39  67  96 134 187 225 291 354 410
#     4  11  25  44  66  98 144 180 236 294 340 423
#     4  10  23  42  66  98 135 176 236 292 346 426
#
# _framework density 22.150344
#
# number of rings (size 3 to 8) (size 9 to 14) (size 15 to 20)
#    0.000    1.600    2.000    0.600    2.800   11.200 
#    0.000    0.000    0.000    0.000    0.000    0.000 
#    0.000    0.000    0.000    0.000    0.000    0.000 
#
# Total GULP energy -55780.007693 kJ/mol
# GULP energy per Si atom -5578.000769 kJ/mol
# Density = 2.209993 g / cm^3
# Si number density = 22.150344 Si / 1000 Ang^3
#
#
#
# Elastic Constant Matrix: (Units=GPa)
#
#
# Indices 1 2 3 4 5 6 
#
# 1 109.9024 45.4045 49.6328 -6.5030 -19.2844 -35.1872
# 2 45.4045 97.8529 47.7517 -16.9793 -14.7458 -8.9659
# 3 49.6328 47.7517 157.2031 -32.2857 -26.3716 -2.2390
# 4 -6.5030 -16.9793 -32.2857 49.0632 -4.8838 -7.4710
# 5 -19.2844 -14.7458 -26.3716 -4.8838 53.3985 2.0690
# 6 -35.1872 -8.9659 -2.2390 -7.4710 2.0690 33.9393
#
#
#
# Elastic Compliance Matrix: (Units=1/GPa)
#
#
# Indices 1 2 3 4 5 6 
#
# 1 0.019322 -0.004731 -0.003443 0.001854 0.003414 0.018755
# 2 -0.004731 0.014027 -0.001903 0.003013 0.001530 -0.000755
# 3 -0.003443 -0.001903 0.009662 0.005218 0.003577 -0.002504
# 4 0.001854 0.003013 0.005218 0.027038 0.006217 0.008635
# 5 0.003414 0.001530 0.003577 0.006217 0.022556 0.004173
# 6 0.018755 -0.000755 -0.002504 0.008635 0.004173 0.050191
#
#
# Mechanical properties :
#
#
# Convention : Reuss Voigt Hill
#
# Bulk Modulus (GPa) = 43.74583 72.28182 58.01382
# Shear Modulus (GPa) = 29.31372 42.09150 35.70261
#
# Velocity S-wave (km/s) = 3.64180 4.36393 4.01912
# Velocity P-wave (km/s) = 6.12176 7.62201 6.91271
#
# Compressibility (1/GPa) = 0.02285932
#
# Stress axis : x y z
#
# Youngs Moduli (GPa) = 51.75488 71.29012 103.49582
#
# Poissons Ratio (x) = 0.33725 0.35631
# Poissons Ratio (y) = 0.24484 0.19690
# Poissons Ratio (z) = 0.17818 0.13563
#
# Static dielectric constant tensor:
#      x y z
#    x 1.731830 -0.049030 -0.085290 
#    y -0.049030 1.876370 -0.033420 
#    z -0.085290 -0.033420 1.679560 
# 
# From -- ./inp_files/74296.got.cif
#   From: 2010.05.17/outbox.cif.g08.bks.cpg/sg2_38_cif.got.tgz:74296.got - 2010.06.03 11:33:40.
