data_PCOD9039092
_publ_section_title
;
Structure prediction by ZEFSAII (Michael W. Deem and Ramdas Pophale) SiO2 
 PCOD9039092
Probable space group: P -1
;
_chemical_formula_sum "Si O2"
_cell_formula_units_Z 12
_cell_length_a 9.415393
_cell_length_b 6.949928
_cell_length_c 10.919262
_cell_angle_alpha 72.902880
_cell_angle_beta 45.445405
_cell_angle_gamma 96.507892
_cell_volume 429.744855
_symmetry_space_group_name_H-M "P -1"
_symmetry_group_IT_number 2
_symmetry_cell_setting 'triclinic'
loop_
_space_group_symop_operation_xyz
x,y,z
-x,-y,-z
loop_
_atom_site_type_symbol
_atom_site_label
_atom_site_fract_x
_atom_site_fract_y
_atom_site_fract_z
Si Si1 0.847900 0.006440 0.706946
Si Si2 0.977018 0.748750 0.076485
Si Si3 0.615673 0.211700 0.073095
Si Si4 0.502121 0.394118 0.347562
Si Si5 0.840211 0.108625 0.309802
Si Si6 0.285169 0.711199 0.407926
O O1 0.580077 0.822872 0.899245
O O2 0.960996 0.952184 0.762019
O O3 0.839491 0.241718 0.641361
O O4 0.000000 0.000000 0.500000
O O5 0.120187 0.711133 0.104860
O O6 0.099320 0.744458 0.875698
O O7 0.715239 0.569044 0.263022
O O8 0.000000 0.000000 0.000000
O O9 0.577099 0.357757 0.174444
O O10 0.523087 0.946215 0.216020
O O11 0.331905 0.499499 0.415158
O O12 0.375078 0.139873 0.526764
O O13 0.813794 0.241721 0.416566
#
# Coordination Sequence:
#
# PCOD9039092 Si02
#       6
#     2   2   2   2   2   2
#     4   8  15  40  63  87 126 158 196 263 297 354
#     4  12  24  44  61  92 130 159 206 263 299 363
#     4   9  20  40  62  88 129 157 199 259 299 358
#     4  11  21  41  65  91 123 168 199 250 317 358
#     4  10  23  42  66  91 124 163 206 253 307 365
#     4   8  18  38  64  91 121 156 206 250 297 364
#
# _framework density 27.923546000000002
#
# number of rings (size 3 to 8) (size 9 to 14) (size 15 to 20)
#    1.000    1.333    3.333    0.500    0.000    4.000 
#    6.000    4.167    0.000    0.000    0.000    0.000 
#    0.000    0.000    0.000    0.000    0.000    0.000 
#
# Total GULP energy -67149.696343 kJ/mol
# GULP energy per Si atom -5595.808029 kJ/mol
# Density = 2.785999 g / cm^3
# Si number density = 27.923546 Si / 1000 Ang^3
#
#
#
# Elastic Constant Matrix: (Units=GPa)
#
#
# Indices 1 2 3 4 5 6 
#
# 1 150.2735 54.2409 55.4579 1.6498 -33.9533 -22.1673
# 2 54.2409 166.5178 47.0008 -2.0696 -1.0688 -35.3593
# 3 55.4579 47.0008 113.5959 -24.3876 -37.6316 -6.1935
# 4 1.6498 -2.0696 -24.3876 57.6199 2.3479 2.3588
# 5 -33.9533 -1.0688 -37.6316 2.3479 51.0733 7.5008
# 6 -22.1673 -35.3593 -6.1935 2.3588 7.5008 41.9340
#
#
#
# Elastic Compliance Matrix: (Units=1/GPa)
#
#
# Indices 1 2 3 4 5 6 
#
# 1 0.009668 -0.001766 -0.002946 -0.001853 0.003925 0.002589
# 2 -0.001766 0.009479 -0.004880 -0.001751 -0.005583 0.007436
# 3 -0.002946 -0.004880 0.017100 0.006923 0.011030 -0.005509
# 4 -0.001853 -0.001751 0.006923 0.020268 0.003367 -0.003176
# 5 0.003925 -0.005583 0.011030 0.003367 0.031035 -0.006744
# 6 0.002589 0.007436 -0.005509 -0.003176 -0.006744 0.032057
#
#
# Mechanical properties :
#
#
# Convention : Reuss Voigt Hill
#
# Bulk Modulus (GPa) = 58.60188 82.64295 70.62241
# Shear Modulus (GPa) = 34.60693 48.37129 41.48911
#
# Velocity S-wave (km/s) = 3.52425 4.16658 3.85880
# Velocity P-wave (km/s) = 6.13128 7.26688 6.72310
#
# Compressibility (1/GPa) = 0.01706430
#
# Stress axis : x y z
#
# Youngs Moduli (GPa) = 103.43300 105.49172 58.47831
#
# Poissons Ratio (x) = 0.18628 0.17227
# Poissons Ratio (y) = 0.18265 0.28538
# Poissons Ratio (z) = 0.30470 0.51481
#
# Static dielectric constant tensor:
#      x y z
#    x 2.156960 0.055800 -0.007780 
#    y 0.055800 2.209160 0.063100 
#    z -0.007780 0.063100 2.216640 
# 
# From -- ./inp_files/492241.got.cif
#   From: 2010.05.17/outbox.cif.g08.bks.cpg/sg2_247_cif.got.tgz:492241.got - 2010.06.03 11:33:40.
