data_PCOD9039755
_publ_section_title
;
Structure prediction by ZEFSAII (Michael W. Deem and Ramdas Pophale) SiO2 
 PCOD9039755
Probable space group: P -1
;
_chemical_formula_sum "Si O2"
_cell_formula_units_Z 16
_cell_length_a 6.556559
_cell_length_b 18.202663
_cell_length_c 8.753913
_cell_angle_alpha 131.509387
_cell_angle_beta 95.133008
_cell_angle_gamma 101.055369
_cell_volume 733.752254
_symmetry_space_group_name_H-M "P -1"
_symmetry_group_IT_number 2
_symmetry_cell_setting 'triclinic'
loop_
_space_group_symop_operation_xyz
x,y,z
-x,-y,-z
loop_
_atom_site_type_symbol
_atom_site_label
_atom_site_fract_x
_atom_site_fract_y
_atom_site_fract_z
Si Si1 0.040633 0.791442 0.391444
Si Si2 0.590135 0.837403 0.989714
Si Si3 0.591567 0.623326 0.150277
Si Si4 0.012710 0.014062 0.202794
Si Si5 0.296716 0.911731 0.283455
Si Si6 0.201876 0.530722 0.443801
Si Si7 0.636610 0.278741 0.485098
Si Si8 0.396830 0.359333 0.155765
O O1 0.939711 0.868620 0.578431
O O2 0.134413 0.844017 0.308719
O O3 0.237571 0.779218 0.485025
O O4 0.849649 0.679902 0.222600
O O5 0.497720 0.797059 0.761165
O O6 0.703743 0.757807 0.953125
O O7 0.396679 0.839881 0.090399
O O8 0.769202 0.950151 0.153821
O O9 0.513040 0.678169 0.358611
O O10 0.500000 0.500000 0.000000
O O11 0.501588 0.641693 0.004919
O O12 0.175728 0.966760 0.235269
O O13 0.000000 0.000000 0.000000
O O14 0.500000 0.000000 0.500000
O O15 0.197441 0.617252 0.439930
O O16 0.242138 0.429178 0.238402
O O17 0.414292 0.587652 0.637980
O O18 0.000000 0.500000 0.500000
#
# Coordination Sequence:
#
# PCOD9039755 Si02
#       8
#     2   2   2   2   2   2   2   2
#     4  12  28  44  76 105 146 189 242 293 367 426
#     4  11  25  46  75 102 150 185 240 295 364 428
#     4  12  26  45  70  99 146 186 238 298 351 422
#     4  12  27  46  75 109 145 194 239 293 367 435
#     4  12  27  47  75 109 147 189 242 298 359 436
#     4  10  23  42  70  97 141 181 245 290 356 425
#     4  11  26  45  69 109 140 192 237 301 357 433
#     4  10  23  43  67  99 135 192 228 298 355 418
#
# _framework density 21.805726
#
# number of rings (size 3 to 8) (size 9 to 14) (size 15 to 20)
#    0.000    0.750    2.500    3.375    7.000    7.500 
#    0.000    0.000    0.000    0.000    0.000    0.000 
#    0.000    0.000    0.000    0.000    0.000    0.000 
#
# Total GULP energy -89493.103160 kJ/mol
# GULP energy per Si atom -5593.318947 kJ/mol
# Density = 2.175610 g / cm^3
# Si number density = 21.805726 Si / 1000 Ang^3
#
#
#
# Elastic Constant Matrix: (Units=GPa)
#
#
# Indices 1 2 3 4 5 6 
#
# 1 66.1524 42.1768 33.2024 -0.0801 -0.0839 0.6998
# 2 42.1768 111.4513 38.7733 -13.1933 23.4401 -2.0302
# 3 33.2024 38.7733 129.5076 -9.6424 -5.0862 -0.2995
# 4 -0.0801 -13.1933 -9.6424 41.2014 7.7134 4.1789
# 5 -0.0839 23.4401 -5.0862 7.7134 22.5265 -6.6219
# 6 0.6998 -2.0302 -0.2995 4.1789 -6.6219 45.6433
#
#
#
# Elastic Compliance Matrix: (Units=1/GPa)
#
#
# Indices 1 2 3 4 5 6 
#
# 1 0.024353 -0.012602 -0.002417 -0.007743 0.015917 0.002068
# 2 -0.012602 0.022856 -0.003880 0.012493 -0.030262 -0.004350
# 3 -0.002417 -0.003880 0.009742 -0.000295 0.006598 0.000913
# 4 -0.007743 0.012493 -0.000295 0.033785 -0.026505 -0.006266
# 5 0.015917 -0.030262 0.006598 -0.026505 0.090630 0.014028
# 6 0.002068 -0.004350 0.000913 -0.006266 0.014028 0.024299
#
#
# Mechanical properties :
#
#
# Convention : Reuss Voigt Hill
#
# Bulk Modulus (GPa) = 52.21303 59.49070 55.85186
# Shear Modulus (GPa) = 20.01221 34.73815 27.37518
#
# Velocity S-wave (km/s) = 3.03273 3.99566 3.54702
# Velocity P-wave (km/s) = 6.02162 6.97341 6.51492
#
# Compressibility (1/GPa) = 0.01915231
#
# Stress axis : x y z
#
# Youngs Moduli (GPa) = 41.06220 43.75304 102.64492
#
# Poissons Ratio (x) = 0.55136 0.24813
# Poissons Ratio (y) = 0.51745 0.39830
# Poissons Ratio (z) = 0.09926 0.16978
#
# Static dielectric constant tensor:
#      x y z
#    x 1.776440 0.017710 0.026870 
#    y 0.017710 1.852210 0.022940 
#    z 0.026870 0.022940 1.825030 
# 
# From -- ./inp_files/139577.got.cif
#   From: 2010.05.17/outbox.cif.g08.bks.cpg/sg2_70_cif.got.tgz:139577.got - 2010.06.03 11:33:40.
