data_PCOD9039098
_publ_section_title
;
Structure prediction by ZEFSAII (Michael W. Deem and Ramdas Pophale) SiO2 
 PCOD9039098
Probable space group: P -1
;
_chemical_formula_sum "Si O2"
_cell_formula_units_Z 14
_cell_length_a 14.504201
_cell_length_b 9.416617
_cell_length_c 13.110120
_cell_angle_alpha 30.782404
_cell_angle_beta 134.142361
_cell_angle_gamma 136.573109
_cell_volume 616.424729
_symmetry_space_group_name_H-M "P -1"
_symmetry_group_IT_number 2
_symmetry_cell_setting 'triclinic'
loop_
_space_group_symop_operation_xyz
x,y,z
-x,-y,-z
loop_
_atom_site_type_symbol
_atom_site_label
_atom_site_fract_x
_atom_site_fract_y
_atom_site_fract_z
Si Si1 0.968282 0.025688 0.631872
Si Si2 0.662778 0.322388 0.718800
Si Si3 0.372158 0.703332 0.065097
Si Si4 0.563134 0.326406 0.079024
Si Si5 0.786521 0.886347 0.372740
Si Si6 0.124315 0.466778 0.751887
Si Si7 0.057551 0.812704 0.018841
O O1 0.928479 0.288116 0.488878
O O2 0.121117 0.144868 0.630236
O O3 0.969264 0.784807 0.865050
O O4 0.873871 0.928365 0.518574
O O5 0.662487 0.434067 0.765716
O O6 0.660942 0.582922 0.481291
O O7 0.538805 0.013890 0.796636
O O8 0.806649 0.268686 0.843325
O O9 0.258532 0.837098 0.856338
O O10 0.412234 0.545180 0.097322
O O11 0.500000 0.000000 0.000000
O O12 0.714678 0.369405 0.207324
O O13 0.500000 0.500000 0.000000
O O14 0.104820 0.160336 0.869239
O O15 0.035139 0.368021 0.848502
#
# Coordination Sequence:
#
# PCOD9039098 Si02
#       7
#     2   2   2   2   2   2   2
#     4  11  23  39  65  98 132 168 216 276 324 387
#     4  11  23  42  69  96 132 175 213 270 330 390
#     4  10  23  42  66  92 131 175 212 266 327 388
#     4  11  23  43  68  92 130 173 216 269 327 385
#     4  11  23  39  66  99 131 166 218 269 330 388
#     4  11  23  43  65  97 131 172 222 270 327 388
#     4  11  23  40  70  95 130 176 217 269 330 387
#
# _framework density 22.711614000000001
#
# number of rings (size 3 to 8) (size 9 to 14) (size 15 to 20)
#    0.000    1.143    5.714    0.429    2.000    2.857 
#    0.000    0.000    0.000    6.000    0.000    0.000 
#    0.000    0.000    0.000    0.000    0.000    0.000 
#
# Total GULP energy -78271.821666 kJ/mol
# GULP energy per Si atom -5590.844405 kJ/mol
# Density = 2.265992 g / cm^3
# Si number density = 22.711614 Si / 1000 Ang^3
#
#
#
# Elastic Constant Matrix: (Units=GPa)
#
#
# Indices 1 2 3 4 5 6 
#
# 1 146.0841 27.7871 25.7579 0.7768 10.3953 0.4338
# 2 27.7871 91.4985 18.2466 -1.1398 4.4487 7.5209
# 3 25.7579 18.2466 69.3054 -1.9623 -1.6438 9.9330
# 4 0.7768 -1.1398 -1.9623 32.5949 2.2657 1.3344
# 5 10.3953 4.4487 -1.6438 2.2657 32.9119 -4.1146
# 6 0.4338 7.5209 9.9330 1.3344 -4.1146 36.3553
#
#
#
# Elastic Compliance Matrix: (Units=1/GPa)
#
#
# Indices 1 2 3 4 5 6 
#
# 1 0.007805 -0.001809 -0.002592 -0.000280 -0.002238 0.000747
# 2 -0.001809 0.012177 -0.002258 0.000521 -0.001482 -0.002068
# 3 -0.002592 -0.002258 0.016611 0.001047 0.001391 -0.003922
# 4 -0.000280 0.000521 0.001047 0.031000 -0.002287 -0.001787
# 5 -0.002238 -0.001482 0.001391 -0.002287 0.031975 0.003656
# 6 0.000747 -0.002068 -0.003922 -0.001787 0.003656 0.029476
#
#
# Mechanical properties :
#
#
# Convention : Reuss Voigt Hill
#
# Bulk Modulus (GPa) = 42.96468 50.05237 46.50852
# Shear Modulus (GPa) = 33.30626 36.04552 34.67589
#
# Velocity S-wave (km/s) = 3.83363 3.98816 3.91166
# Velocity P-wave (km/s) = 6.20920 6.57976 6.39717
#
# Compressibility (1/GPa) = 0.02327493
#
# Stress axis : x y z
#
# Youngs Moduli (GPa) = 128.12049 82.11987 60.19942
#
# Poissons Ratio (x) = 0.14859 0.15607
# Poissons Ratio (y) = 0.23182 0.13591
# Poissons Ratio (z) = 0.33215 0.18539
#
# Static dielectric constant tensor:
#      x y z
#    x 1.860560 -0.007910 -0.009150 
#    y -0.007910 1.883990 0.016330 
#    z -0.009150 0.016330 1.843810 
# 
# From -- ./inp_files/531550.got.cif
#   From: 2010.05.17/outbox.cif.g08.bks.cpg/sg2_266_cif.got.tgz:531550.got - 2010.06.03 11:33:40.
