data_PCOD9039266
_publ_section_title
;
Structure prediction by ZEFSAII (Michael W. Deem and Ramdas Pophale) SiO2 
 PCOD9039266
Probable space group: P -1
;
_chemical_formula_sum "Si O2"
_cell_formula_units_Z 15
_cell_length_a 14.128763
_cell_length_b 25.489784
_cell_length_c 12.600291
_cell_angle_alpha 151.966328
_cell_angle_beta 152.300044
_cell_angle_gamma 22.459993
_cell_volume 750.943172
_symmetry_space_group_name_H-M "P -1"
_symmetry_group_IT_number 2
_symmetry_cell_setting 'triclinic'
loop_
_space_group_symop_operation_xyz
x,y,z
-x,-y,-z
loop_
_atom_site_type_symbol
_atom_site_label
_atom_site_fract_x
_atom_site_fract_y
_atom_site_fract_z
Si Si1 0.490797 0.586528 0.244671
Si Si2 0.692948 0.736944 0.424563
Si Si3 0.100018 0.608686 0.407490
Si Si4 0.144509 0.336648 0.963949
Si Si5 0.518348 0.977793 0.158763
Si Si6 0.000000 0.500000 0.500000
Si Si7 0.455070 0.434672 0.130517
Si Si8 0.083591 0.096507 0.767901
O O1 0.720507 0.594574 0.464506
O O2 0.529467 0.499719 0.232467
O O3 0.189306 0.737640 0.214557
O O4 0.500000 0.500000 0.000000
O O5 0.524002 0.904113 0.592543
O O6 0.843871 0.630538 0.486712
O O7 0.907102 0.692934 0.467892
O O8 0.524400 0.695119 0.131671
O O9 0.337552 0.614140 0.656736
O O10 0.921396 0.674466 0.241747
O O11 0.223076 0.439000 0.228985
O O12 0.855126 0.436884 0.915321
O O13 0.359883 0.176440 0.942289
O O14 0.723130 0.938214 0.198107
O O15 0.236973 0.058832 0.963727
O O16 0.000000 0.000000 0.500000
#
# Coordination Sequence:
#
# PCOD9039266 Si02
#       8
#     2   2   2   2   2   1   2   2
#     4  12  23  38  63  95 125 167 210 263 317 378
#     4  11  24  38  64  94 129 170 210 263 315 380
#     4  10  23  42  67  94 123 166 222 270 314 371
#     4  10  23  44  66  92 126 170 214 269 322 374
#     4  11  25  43  62  94 136 170 212 260 317 388
#     4  12  22  38  62  92 130 160 210 260 316 378
#     4  11  22  40  66  92 124 166 220 261 315 378
#     4  11  26  41  61  95 133 173 209 254 322 386
#
# _framework density 19.974881
#
# number of rings (size 3 to 8) (size 9 to 14) (size 15 to 20)
#    0.000    1.067    4.000    2.000    1.867    2.667 
#    0.000    0.667    0.000    0.000    0.000    0.000 
#    0.000    0.000    0.000    0.000    0.000    0.000 
#
# Total GULP energy -83573.286527 kJ/mol
# GULP energy per Si atom -5571.552435 kJ/mol
# Density = 1.992942 g / cm^3
# Si number density = 19.974881 Si / 1000 Ang^3
#
#
#
# Elastic Constant Matrix: (Units=GPa)
#
#
# Indices 1 2 3 4 5 6 
#
# 1 61.2327 10.0498 13.0406 4.6462 -2.2871 -2.5231
# 2 10.0498 87.2275 53.3804 10.3816 2.1687 -4.6278
# 3 13.0406 53.3804 97.6956 5.0381 -0.4622 -2.9888
# 4 4.6462 10.3816 5.0381 22.7681 -12.4299 1.0824
# 5 -2.2871 2.1687 -0.4622 -12.4299 20.9431 -1.4509
# 6 -2.5231 -4.6278 -2.9888 1.0824 -1.4509 30.9095
#
#
#
# Elastic Compliance Matrix: (Units=1/GPa)
#
#
# Indices 1 2 3 4 5 6 
#
# 1 0.017072 -0.000447 -0.001853 -0.002754 0.000322 0.001259
# 2 -0.000447 0.019220 -0.009836 -0.011459 -0.008928 0.001872
# 3 -0.001853 -0.009836 0.015715 0.002990 0.002933 -0.000071
# 4 -0.002754 -0.011459 0.002990 0.073355 0.044341 -0.002139
# 5 0.000322 -0.008928 0.002933 0.044341 0.075155 0.000948
# 6 0.001259 0.001872 -0.000071 -0.002139 0.000948 0.032848
#
#
# Mechanical properties :
#
#
# Convention : Reuss Voigt Hill
#
# Bulk Modulus (GPa) = 36.05384 44.34417 40.19900
# Shear Modulus (GPa) = 18.73483 26.23648 22.48566
#
# Velocity S-wave (km/s) = 3.06587 3.62812 3.35878
# Velocity P-wave (km/s) = 5.53367 6.30866 5.93383
#
# Compressibility (1/GPa) = 0.02773630
#
# Stress axis : x y z
#
# Youngs Moduli (GPa) = 58.57574 52.02813 63.63265
#
# Poissons Ratio (x) = 0.02323 0.11790
# Poissons Ratio (y) = 0.02615 0.62591
# Poissons Ratio (z) = 0.10853 0.51177
#
# Static dielectric constant tensor:
#      x y z
#    x 1.711940 0.003670 -0.001820 
#    y 0.003670 1.664320 -0.026080 
#    z -0.001820 -0.026080 1.760850 
# 
# From -- ./inp_files/458319.got.cif
#   From: 2010.05.17/outbox.cif.g08.bks.cpg/sg2_230_cif.got.tgz:458319.got - 2010.06.03 11:33:40.
