data_PCOD9039110
_publ_section_title
;
Structure prediction by ZEFSAII (Michael W. Deem and Ramdas Pophale) SiO2 
 PCOD9039110
Probable space group: P -1
;
_chemical_formula_sum "Si O2"
_cell_formula_units_Z 16
_cell_length_a 9.445864
_cell_length_b 6.175819
_cell_length_c 18.736076
_cell_angle_alpha 38.419247
_cell_angle_beta 83.066413
_cell_angle_gamma 82.820489
_cell_volume 673.407790
_symmetry_space_group_name_H-M "P -1"
_symmetry_group_IT_number 2
_symmetry_cell_setting 'triclinic'
loop_
_space_group_symop_operation_xyz
x,y,z
-x,-y,-z
loop_
_atom_site_type_symbol
_atom_site_label
_atom_site_fract_x
_atom_site_fract_y
_atom_site_fract_z
Si Si1 0.240522 0.760530 0.400997
Si Si2 0.986102 0.749166 0.633927
Si Si3 0.666217 0.938336 0.986465
Si Si4 0.535831 0.931728 0.598290
Si Si5 0.258192 0.750290 0.243403
Si Si6 0.865694 0.247794 0.149414
Si Si7 0.219896 0.996457 0.641613
Si Si8 0.112439 0.738109 0.020317
O O1 0.284549 0.866084 0.292238
O O2 0.196315 0.362697 0.507192
O O3 0.113079 0.018963 0.366474
O O4 0.367930 0.784417 0.444069
O O5 0.899413 0.404967 0.713826
O O6 0.000000 0.000000 0.500000
O O7 0.135757 0.712075 0.675626
O O8 0.703857 0.986180 0.888574
O O9 0.747535 0.235295 0.947831
O O10 0.747746 0.563648 0.094618
O O11 0.500000 0.000000 0.000000
O O12 0.632634 0.580947 0.689352
O O13 0.500000 0.000000 0.500000
O O14 0.387192 0.907594 0.653345
O O15 0.024800 0.389007 0.112337
O O16 0.837922 0.966688 0.284171
O O17 0.854047 0.160411 0.089379
O O18 0.000000 0.000000 0.000000
#
# Coordination Sequence:
#
# PCOD9039110 Si02
#       8
#     2   2   2   2   2   2   2   2
#     4  11  24  42  64  96 130 166 211 257 328 384
#     4  11  23  43  61  97 133 165 213 263 317 384
#     4  11  24  43  65  96 130 169 220 262 318 380
#     4  11  23  43  62  93 132 166 209 256 319 383
#     4  11  24  42  68  92 131 175 205 267 321 374
#     4  10  23  42  66  94 126 171 214 266 316 376
#     4  12  22  40  66  97 130 164 213 265 316 385
#     4   9  21  45  63  88 126 166 218 265 315 368
#
# _framework density 23.759747000000001
#
# number of rings (size 3 to 8) (size 9 to 14) (size 15 to 20)
#    0.000    1.250    2.500    3.000    0.000    6.500 
#    9.000    0.000    0.000    0.000    0.000    0.000 
#    0.000    0.000    0.000    0.000    0.000    0.000 
#
# Total GULP energy -89592.069573 kJ/mol
# GULP energy per Si atom -5599.504348 kJ/mol
# Density = 2.370567 g / cm^3
# Si number density = 23.759747 Si / 1000 Ang^3
#
#
#
# Elastic Constant Matrix: (Units=GPa)
#
#
# Indices 1 2 3 4 5 6 
#
# 1 132.1795 29.0417 21.2085 2.6491 -19.9127 12.2957
# 2 29.0417 91.2294 23.6298 22.5976 -8.4891 5.9602
# 3 21.2085 23.6298 109.0453 34.5437 -11.0920 2.6067
# 4 2.6491 22.5976 34.5437 48.8592 -9.9245 3.9612
# 5 -19.9127 -8.4891 -11.0920 -9.9245 30.4988 6.1547
# 6 12.2957 5.9602 2.6067 3.9612 6.1547 36.8143
#
#
#
# Elastic Compliance Matrix: (Units=1/GPa)
#
#
# Indices 1 2 3 4 5 6 
#
# 1 0.009820 -0.002658 -0.001670 0.003677 0.007132 -0.004319
# 2 -0.002658 0.013390 -0.000600 -0.005551 0.000099 -0.000657
# 3 -0.001670 -0.000600 0.012273 -0.008280 0.000389 0.000612
# 4 0.003677 -0.005551 -0.008280 0.030843 0.008795 -0.004532
# 5 0.007132 0.000099 0.000389 0.008795 0.042593 -0.010493
# 6 -0.004319 -0.000657 0.000612 -0.004532 -0.010493 0.030911
#
#
# Mechanical properties :
#
#
# Convention : Reuss Voigt Hill
#
# Bulk Modulus (GPa) = 39.02220 53.35713 46.18967
# Shear Modulus (GPa) = 31.59968 40.47273 36.03621
#
# Velocity S-wave (km/s) = 3.65083 4.13172 3.89870
# Velocity P-wave (km/s) = 5.85070 6.72809 6.30468
#
# Compressibility (1/GPa) = 0.02562644
#
# Stress axis : x y z
#
# Youngs Moduli (GPa) = 101.83237 74.68093 81.47907
#
# Poissons Ratio (x) = 0.19853 0.13605
# Poissons Ratio (y) = 0.27071 0.04891
# Poissons Ratio (z) = 0.17004 0.04483
#
# Static dielectric constant tensor:
#      x y z
#    x 1.893110 -0.005320 0.019010 
#    y -0.005320 1.905750 -0.045840 
#    z 0.019010 -0.045840 1.932140 
# 
# From -- ./inp_files/553161.got.cif
#   From: 2010.05.17/outbox.cif.g08.bks.cpg/sg2_277_cif.got.tgz:553161.got - 2010.06.03 11:33:40.
