data_PCOD9039223
_publ_section_title
;
Structure prediction by ZEFSAII (Michael W. Deem and Ramdas Pophale) SiO2 
 PCOD9039223
Probable space group: P -1
;
_chemical_formula_sum "Si O2"
_cell_formula_units_Z 16
_cell_length_a 9.783001
_cell_length_b 28.278011
_cell_length_c 12.543690
_cell_angle_alpha 154.834548
_cell_angle_beta 144.697208
_cell_angle_gamma 29.534107
_cell_volume 720.576523
_symmetry_space_group_name_H-M "P -1"
_symmetry_group_IT_number 2
_symmetry_cell_setting 'triclinic'
loop_
_space_group_symop_operation_xyz
x,y,z
-x,-y,-z
loop_
_atom_site_type_symbol
_atom_site_label
_atom_site_fract_x
_atom_site_fract_y
_atom_site_fract_z
Si Si1 0.911804 0.232071 0.015970
Si Si2 0.779052 0.130217 0.062844
Si Si3 0.878712 0.461886 0.182258
Si Si4 0.486105 0.487855 0.141984
Si Si5 0.241491 0.178544 0.905139
Si Si6 0.171375 0.569298 0.461792
Si Si7 0.632787 0.098246 0.664586
Si Si8 0.984642 0.692371 0.384474
O O1 0.640958 0.359549 0.051569
O O2 0.954417 0.294351 0.275914
O O3 0.840480 0.125090 0.784708
O O4 0.148326 0.182824 0.976237
O O5 0.914218 0.216709 0.315281
O O6 0.505085 0.192859 0.089526
O O7 0.693631 0.104770 0.840883
O O8 0.000000 0.000000 0.000000
O O9 0.720803 0.515866 0.304968
O O10 0.121220 0.480958 0.331648
O O11 0.641137 0.535501 0.092213
O O12 0.996815 0.306829 0.950087
O O13 0.222731 0.605246 0.273055
O O14 0.317302 0.041872 0.621419
O O15 0.500000 0.500000 0.500000
O O16 0.009398 0.598936 0.306977
O O17 0.318154 0.216035 0.673995
#
# Coordination Sequence:
#
# PCOD9039223 Si02
#       8
#     2   2   2   2   2   2   2   2
#     4  11  25  44  69 101 141 182 228 283 348 407
#     4  12  26  46  69 106 135 181 237 279 344 410
#     4  10  24  42  67 101 136 177 231 279 351 405
#     4  10  23  42  67 102 133 180 225 286 347 407
#     4  11  25  45  70  98 140 188 225 287 340 407
#     4  12  24  43  67 104 140 179 228 288 341 408
#     4  12  26  48  71 102 140 183 233 282 340 414
#     4  12  25  43  75 102 139 182 228 288 346 406
#
# _framework density 22.204443000000001
#
# number of rings (size 3 to 8) (size 9 to 14) (size 15 to 20)
#    0.000    0.750    3.750    3.000    5.250    2.000 
#    0.000    3.750    0.000    0.000    0.000    0.000 
#    0.000    0.000    0.000    0.000    0.000    0.000 
#
# Total GULP energy -89475.367386 kJ/mol
# GULP energy per Si atom -5592.210462 kJ/mol
# Density = 2.215390 g / cm^3
# Si number density = 22.204443 Si / 1000 Ang^3
#
#
#
# Elastic Constant Matrix: (Units=GPa)
#
#
# Indices 1 2 3 4 5 6 
#
# 1 174.4104 44.9017 36.7757 -2.8578 13.1664 2.6257
# 2 44.9017 111.1702 10.2878 -5.7291 -11.1577 6.4391
# 3 36.7757 10.2878 47.7579 -0.4117 0.6126 9.9348
# 4 -2.8578 -5.7291 -0.4117 29.4320 4.8233 1.1090
# 5 13.1664 -11.1577 0.6126 4.8233 34.2622 -0.8291
# 6 2.6257 6.4391 9.9348 1.1090 -0.8291 33.3482
#
#
#
# Elastic Compliance Matrix: (Units=1/GPa)
#
#
# Indices 1 2 3 4 5 6 
#
# 1 0.008076 -0.003192 -0.005802 0.000694 -0.004099 0.001584
# 2 -0.003192 0.010868 0.000466 0.001138 0.004551 -0.001911
# 3 -0.005802 0.000466 0.026862 -0.000095 0.001731 -0.007589
# 4 0.000694 0.001138 -0.000095 0.035121 -0.004876 -0.001535
# 5 -0.004099 0.004551 0.001731 -0.004876 0.032897 -0.000092
# 6 0.001584 -0.001911 -0.007589 -0.001535 -0.000092 0.032541
#
#
# Mechanical properties :
#
#
# Convention : Reuss Voigt Hill
#
# Bulk Modulus (GPa) = 34.78387 57.47431 46.12909
# Shear Modulus (GPa) = 28.90118 35.50003 32.20061
#
# Velocity S-wave (km/s) = 3.61168 4.00281 3.81226
# Velocity P-wave (km/s) = 5.75253 6.87777 6.34016
#
# Compressibility (1/GPa) = 0.02874896
#
# Stress axis : x y z
#
# Youngs Moduli (GPa) = 123.82751 92.01734 37.22714
#
# Poissons Ratio (x) = 0.29374 0.21599
# Poissons Ratio (y) = 0.39529 -0.01735
# Poissons Ratio (z) = 0.71845 -0.04288
#
# Static dielectric constant tensor:
#      x y z
#    x 1.886910 -0.028700 0.071200 
#    y -0.028700 1.829090 -0.025320 
#    z 0.071200 -0.025320 1.910720 
# 
# From -- ./inp_files/407366.got.cif
#   From: 2010.05.17/outbox.cif.g08.bks.cpg/sg2_204_cif.got.tgz:407366.got - 2010.06.03 11:33:40.
