data_PCOD9039823
_publ_section_title
;
Structure prediction by ZEFSAII (Michael W. Deem and Ramdas Pophale) SiO2 
 PCOD9039823
Probable space group: P -1
;
_chemical_formula_sum "Si O2"
_cell_formula_units_Z 14
_cell_length_a 6.364788
_cell_length_b 15.299189
_cell_length_c 12.200156
_cell_angle_alpha 130.711097
_cell_angle_beta 134.144312
_cell_angle_gamma 53.184389
_cell_volume 622.824887
_symmetry_space_group_name_H-M "P -1"
_symmetry_group_IT_number 2
_symmetry_cell_setting 'triclinic'
loop_
_space_group_symop_operation_xyz
x,y,z
-x,-y,-z
loop_
_atom_site_type_symbol
_atom_site_label
_atom_site_fract_x
_atom_site_fract_y
_atom_site_fract_z
Si Si1 0.192790 0.745945 0.058794
Si Si2 0.204235 0.237102 0.648782
Si Si3 0.709843 0.663455 0.461840
Si Si4 0.236514 0.897914 0.568701
Si Si5 0.896336 0.639927 0.052403
Si Si6 0.264595 0.043012 0.056425
Si Si7 0.308357 0.601247 0.772037
O O1 0.437846 0.816708 0.242432
O O2 0.102346 0.692961 0.092829
O O3 0.300176 0.631859 0.923349
O O4 0.936381 0.834459 0.967955
O O5 0.176459 0.328947 0.614386
O O6 0.119210 0.297242 0.785000
O O7 0.985830 0.153507 0.475922
O O8 0.445519 0.782437 0.487340
O O9 0.614249 0.540234 0.338380
O O10 0.991452 0.655638 0.640177
O O11 0.482273 0.952446 0.759187
O O12 0.000000 0.000000 0.500000
O O13 0.578311 0.659702 0.886149
O O14 0.000000 0.500000 0.000000
O O15 0.500000 0.000000 0.000000
O O16 0.000000 0.000000 0.000000
#
# Coordination Sequence:
#
# PCOD9039823 Si02
#       7
#     2   2   2   2   2   2   2
#     4  11  24  45  73 105 150 200 249 313 382 463
#     4  11  25  42  71 101 146 188 252 307 379 451
#     4  11  24  44  69 107 145 192 245 319 386 456
#     4  12  28  47  72 104 145 192 251 320 381 453
#     4  11  23  42  69 106 147 200 247 304 381 465
#     4  12  31  52  80 111 150 205 262 324 391 466
#     4  10  23  42  71 104 149 189 248 307 390 458
#
# _framework density 22.478225999999999
#
# number of rings (size 3 to 8) (size 9 to 14) (size 15 to 20)
#    0.000    0.857    1.429    4.286   12.000    2.857 
#    0.000    3.571    0.000    0.000    0.000    0.000 
#    0.000    0.000    0.000    0.000    0.000    0.000 
#
# Total GULP energy -78002.924798 kJ/mol
# GULP energy per Si atom -5571.637486 kJ/mol
# Density = 2.242706 g / cm^3
# Si number density = 22.478226 Si / 1000 Ang^3
#
#
#
# Elastic Constant Matrix: (Units=GPa)
#
#
# Indices 1 2 3 4 5 6 
#
# 1 97.3563 44.6861 57.2510 -2.0413 21.6953 -7.5299
# 2 44.6861 100.4539 24.6073 -11.1338 2.5187 -4.6876
# 3 57.2510 24.6073 140.3903 -28.0213 33.9294 -8.1986
# 4 -2.0413 -11.1338 -28.0213 29.6593 -3.9854 -2.6109
# 5 21.6953 2.5187 33.9294 -3.9854 41.6230 0.1560
# 6 -7.5299 -4.6876 -8.1986 -2.6109 0.1560 23.8291
#
#
#
# Elastic Compliance Matrix: (Units=1/GPa)
#
#
# Indices 1 2 3 4 5 6 
#
# 1 0.018568 -0.007357 -0.006806 -0.008414 -0.004495 0.001186
# 2 -0.007357 0.013605 0.001369 0.006363 0.002499 0.001503
# 3 -0.006806 0.001369 0.014143 0.012879 -0.006848 0.004441
# 4 -0.008414 0.006363 0.012879 0.048167 -0.001917 0.008314
# 5 -0.004495 0.002499 -0.006848 -0.001917 0.031629 -0.003702
# 6 0.001186 0.001503 0.004441 0.008314 -0.003702 0.045099
#
#
# Mechanical properties :
#
#
# Convention : Reuss Voigt Hill
#
# Bulk Modulus (GPa) = 48.24285 65.69883 56.97084
# Shear Modulus (GPa) = 24.54489 33.13267 28.83878
#
# Velocity S-wave (km/s) = 3.30804 3.84342 3.58574
# Velocity P-wave (km/s) = 6.00828 6.99908 6.52252
#
# Compressibility (1/GPa) = 0.02072846
#
# Stress axis : x y z
#
# Youngs Moduli (GPa) = 53.85684 73.50373 70.70473
#
# Poissons Ratio (x) = 0.54076 0.48123
# Poissons Ratio (y) = 0.39622 -0.09682
# Poissons Ratio (z) = 0.36656 -0.10066
#
# Static dielectric constant tensor:
#      x y z
#    x 1.911800 -0.089660 -0.008870 
#    y -0.089660 1.809740 -0.002720 
#    z -0.008870 -0.002720 1.830540 
# 
# From -- ./inp_files/78707.got.cif
#   From: 2010.05.17/outbox.cif.g08.bks.cpg/sg2_40_cif.got.tgz:78707.got - 2010.06.03 11:33:40.
