data_PCOD9039127
_publ_section_title
;
Structure prediction by ZEFSAII (Michael W. Deem and Ramdas Pophale) SiO2 
 PCOD9039127
Probable space group: P -1
;
_chemical_formula_sum "Si O2"
_cell_formula_units_Z 16
_cell_length_a 14.855942
_cell_length_b 12.644398
_cell_length_c 9.869377
_cell_angle_alpha 40.994380
_cell_angle_beta 42.081536
_cell_angle_gamma 35.657609
_cell_volume 667.426577
_symmetry_space_group_name_H-M "P -1"
_symmetry_group_IT_number 2
_symmetry_cell_setting 'triclinic'
loop_
_space_group_symop_operation_xyz
x,y,z
-x,-y,-z
loop_
_atom_site_type_symbol
_atom_site_label
_atom_site_fract_x
_atom_site_fract_y
_atom_site_fract_z
Si Si1 0.778798 0.033145 0.212081
Si Si2 0.644380 0.957276 0.983042
Si Si3 0.121532 0.587631 0.944619
Si Si4 0.993368 0.671351 0.721460
Si Si5 0.551538 0.582809 0.744248
Si Si6 0.031359 0.965341 0.224469
Si Si7 0.503909 0.597478 0.264485
Si Si8 0.662820 0.827771 0.401549
O O1 0.605825 0.192744 0.317120
O O2 0.905521 0.998850 0.215766
O O3 0.795760 0.841330 0.321657
O O4 0.803554 0.117976 0.964293
O O5 0.646885 0.882272 0.206093
O O6 0.610312 0.169279 0.830576
O O7 0.500000 0.000000 0.000000
O O8 0.816694 0.813752 0.854675
O O9 0.306868 0.476662 0.900548
O O10 0.123811 0.567295 0.798184
O O11 0.029302 0.820634 0.854440
O O12 0.029606 0.481855 0.187133
O O13 0.032568 0.811630 0.468742
O O14 0.565590 0.472833 0.701506
O O15 0.688938 0.618877 0.589049
O O16 0.500000 0.500000 0.000000
O O17 0.500000 0.500000 0.500000
O O18 0.500000 0.000000 0.500000
#
# Coordination Sequence:
#
# PCOD9039127 Si02
#       8
#     2   2   2   2   2   2   2   2
#     4  10  23  44  68  97 131 183 234 269 352 419
#     4  12  24  42  70 104 138 184 233 284 355 415
#     4  11  24  44  67 103 140 176 235 290 343 425
#     4  11  26  44  72 102 142 184 232 289 357 410
#     4  11  24  42  66 101 136 176 228 287 344 415
#     4  11  23  46  71  95 139 184 229 290 343 414
#     4  12  24  41  69 103 141 178 233 291 345 413
#     4  10  23  42  66  95 138 179 221 282 347 409
#
# _framework density 23.972673
#
# number of rings (size 3 to 8) (size 9 to 14) (size 15 to 20)
#    0.000    1.000    2.500    4.125    3.500    3.000 
#    4.500    1.250    0.000    0.000    0.000    0.000 
#    0.000    0.000    0.000    0.000    0.000    0.000 
#
# Total GULP energy -89441.634059 kJ/mol
# GULP energy per Si atom -5590.102129 kJ/mol
# Density = 2.391811 g / cm^3
# Si number density = 23.972673 Si / 1000 Ang^3
#
#
#
# Elastic Constant Matrix: (Units=GPa)
#
#
# Indices 1 2 3 4 5 6 
#
# 1 122.9998 41.9720 19.9777 -11.5673 -18.0315 48.0736
# 2 41.9720 118.7955 42.2606 -19.8074 -14.7925 34.4383
# 3 19.9777 42.2606 120.0240 -20.4888 -12.4244 34.3872
# 4 -11.5673 -19.8074 -20.4888 38.5778 8.2550 -16.4436
# 5 -18.0315 -14.7925 -12.4244 8.2550 37.5493 -7.7773
# 6 48.0736 34.4383 34.3872 -16.4436 -7.7773 54.4387
#
#
#
# Elastic Compliance Matrix: (Units=1/GPa)
#
#
# Indices 1 2 3 4 5 6 
#
# 1 0.013598 -0.001767 0.001949 -0.001876 0.004393 -0.012060
# 2 -0.001767 0.011386 -0.002187 0.002384 0.001706 -0.003297
# 3 0.001949 -0.002187 0.011215 0.002244 0.001953 -0.006465
# 4 -0.001876 0.002384 0.002244 0.032079 -0.004665 0.007753
# 5 0.004393 0.001706 0.001953 -0.004665 0.030410 -0.003257
# 6 -0.012060 -0.003297 -0.006465 0.007753 -0.003257 0.037065
#
#
# Mechanical properties :
#
#
# Convention : Reuss Voigt Hill
#
# Bulk Modulus (GPa) = 31.06756 63.36000 47.21378
# Shear Modulus (GPa) = 33.22451 43.28711 38.25581
#
# Velocity S-wave (km/s) = 3.72685 4.25395 3.99909
# Velocity P-wave (km/s) = 5.61310 7.11446 6.40790
#
# Compressibility (1/GPa) = 0.03218792
#
# Stress axis : x y z
#
# Youngs Moduli (GPa) = 73.54225 87.82826 89.16961
#
# Poissons Ratio (x) = 0.15520 -0.17375
# Poissons Ratio (y) = 0.12996 0.19497
# Poissons Ratio (z) = -0.14330 0.19204
#
# Static dielectric constant tensor:
#      x y z
#    x 1.973090 -0.013140 -0.105130 
#    y -0.013140 1.935260 0.011330 
#    z -0.105130 0.011330 2.007740 
# 
# From -- ./inp_files/306433.got.cif
#   From: 2010.05.17/outbox.cif.g08.bks.cpg/sg2_154_cif.got.tgz:306433.got - 2010.06.03 11:33:40.
