data_PCOD9039480
_publ_section_title
;
Structure prediction by ZEFSAII (Michael W. Deem and Ramdas Pophale) SiO2 
 PCOD9039480
Probable space group: P -1
;
_chemical_formula_sum "Si O2"
_cell_formula_units_Z 14
_cell_length_a 9.756829
_cell_length_b 16.385195
_cell_length_c 15.426187
_cell_angle_alpha 143.151457
_cell_angle_beta 28.357912
_cell_angle_gamma 144.538956
_cell_volume 647.650125
_symmetry_space_group_name_H-M "P -1"
_symmetry_group_IT_number 2
_symmetry_cell_setting 'triclinic'
loop_
_space_group_symop_operation_xyz
x,y,z
-x,-y,-z
loop_
_atom_site_type_symbol
_atom_site_label
_atom_site_fract_x
_atom_site_fract_y
_atom_site_fract_z
Si Si1 0.668059 0.989639 0.141146
Si Si2 0.154870 0.513588 0.333947
Si Si3 0.725738 0.619010 0.546098
Si Si4 0.331906 0.682204 0.976988
Si Si5 0.175364 0.386422 0.919679
Si Si6 0.909267 0.747635 0.966888
Si Si7 0.383345 0.890514 0.389052
O O1 0.460528 0.983826 0.335847
O O2 0.532999 0.834885 0.037077
O O3 0.765906 0.124531 0.134653
O O4 0.000000 0.000000 0.000000
O O5 0.498824 0.629350 0.261265
O O6 0.194894 0.370738 0.152771
O O7 0.000000 0.500000 0.500000
O O8 0.938509 0.546803 0.413961
O O9 0.500000 0.500000 0.500000
O O10 0.508485 0.644136 0.764580
O O11 0.014482 0.776885 0.494935
O O12 0.234078 0.551563 0.992197
O O13 0.035558 0.703397 0.117317
O O14 0.031955 0.331421 0.046873
O O15 0.625044 0.804941 0.182289
O O16 0.500000 0.000000 0.500000
#
# Coordination Sequence:
#
# PCOD9039480 Si02
#       7
#     2   2   2   2   2   2   2
#     4  10  23  42  68  97 138 185 237 282 356 425
#     4  12  25  41  70 102 141 183 237 292 352 422
#     4  12  26  42  71 109 145 182 243 299 351 425
#     4  11  25  43  70 103 142 183 236 296 356 420
#     4  11  23  42  70 101 139 185 234 289 359 412
#     4  11  24  42  70 100 139 187 235 285 356 430
#     4  11  25  43  73 100 142 192 236 289 361 429
#
# _framework density 21.616610999999999
#
# number of rings (size 3 to 8) (size 9 to 14) (size 15 to 20)
#    0.000    0.857    2.857    4.714   10.000    0.571 
#    0.000    1.429    0.000    3.429    0.000    0.000 
#    0.000    0.000    0.000    0.000    0.000    0.000 
#
# Total GULP energy -78023.918484 kJ/mol
# GULP energy per Si atom -5573.137035 kJ/mol
# Density = 2.156741 g / cm^3
# Si number density = 21.616611 Si / 1000 Ang^3
#
#
#
# Elastic Constant Matrix: (Units=GPa)
#
#
# Indices 1 2 3 4 5 6 
#
# 1 173.4082 96.1044 43.9091 -10.4493 8.6497 14.3769
# 2 96.1044 112.5294 45.9568 -61.0629 16.1163 3.6951
# 3 43.9091 45.9568 73.1692 5.2288 17.5361 -1.5321
# 4 -10.4493 -61.0629 5.2288 13.5028 -3.9498 14.6178
# 5 8.6497 16.1163 17.5361 -3.9498 39.8567 -7.9253
# 6 14.3769 3.6951 -1.5321 14.6178 -7.9253 58.8633
#
#
#
# Elastic Compliance Matrix: (Units=1/GPa)
#
#
# Indices 1 2 3 4 5 6 
#
# 1 0.008452 -0.001259 -0.005080 0.007160 0.000868 -0.003779
# 2 -0.001259 -0.002443 0.004171 -0.019793 -0.001485 0.005285
# 3 -0.005080 0.004171 0.014997 0.009118 -0.006634 -0.001788
# 4 0.007160 -0.019793 0.009118 -0.017675 0.001547 0.004329
# 5 0.000868 -0.001485 -0.006634 0.001547 0.029222 0.003259
# 6 -0.003779 0.005285 -0.001788 0.004329 0.003259 0.016897
#
#
# Mechanical properties :
#
#
# Convention : Reuss Voigt Hill
#
# Bulk Modulus (GPa) = 59.99024 81.22750 70.60887
# Shear Modulus (GPa) = 84.25505 33.98698 59.12101
#
# Velocity S-wave (km/s) = 6.24993 3.96948 5.23538
# Velocity P-wave (km/s) = 8.93836 7.65944 8.32350
#
# Compressibility (1/GPa) = 0.01666938
#
# Stress axis : x y z
#
# Youngs Moduli (GPa) = 118.31161 -409.31692 66.68028
#
# Poissons Ratio (x) = -0.51530 0.33876
# Poissons Ratio (y) = 0.14895 -0.27812
# Poissons Ratio (z) = 0.60106 1.70722
#
# Static dielectric constant tensor:
#      x y z
#    x 1.782020 -0.046520 -0.003460 
#    y -0.046520 1.872630 -0.049760 
#    z -0.003460 -0.049760 1.858130 
# 
# From -- ./inp_files/505531.got.cif
#   From: 2010.05.17/outbox.cif.g08.bks.cpg/sg2_253_cif.got.tgz:505531.got - 2010.06.03 11:33:40.
