data_PCOD9039354
_publ_section_title
;
Structure prediction by ZEFSAII (Michael W. Deem and Ramdas Pophale) SiO2 
 PCOD9039354
Probable space group: P -1
;
_chemical_formula_sum "Si O2"
_cell_formula_units_Z 12
_cell_length_a 16.720376
_cell_length_b 9.028350
_cell_length_c 4.864617
_cell_angle_alpha 102.185997
_cell_angle_beta 97.344649
_cell_angle_gamma 138.551532
_cell_volume 426.188906
_symmetry_space_group_name_H-M "P -1"
_symmetry_group_IT_number 2
_symmetry_cell_setting 'triclinic'
loop_
_space_group_symop_operation_xyz
x,y,z
-x,-y,-z
loop_
_atom_site_type_symbol
_atom_site_label
_atom_site_fract_x
_atom_site_fract_y
_atom_site_fract_z
Si Si1 0.922276 0.598810 0.969406
Si Si2 0.566909 0.478652 0.222743
Si Si3 0.566031 0.201044 0.369237
Si Si4 0.197814 0.991250 0.530651
Si Si5 0.761074 0.257022 0.257142
Si Si6 0.219208 0.320073 0.988581
O O1 0.811642 0.344340 0.004189
O O2 0.901880 0.743220 0.109769
O O3 0.067264 0.766868 0.203650
O O4 0.881733 0.507767 0.601986
O O5 0.487754 0.242947 0.287377
O O6 0.649441 0.482317 0.075428
O O7 0.685469 0.760058 0.513217
O O8 0.500000 0.500000 0.000000
O O9 0.629032 0.163262 0.189522
O O10 0.500000 0.000000 0.500000
O O11 0.705711 0.496758 0.643672
O O12 0.251188 0.926410 0.689353
O O13 0.169448 0.078482 0.785650
#
# Coordination Sequence:
#
# PCOD9039354 Si02
#       6
#     2   2   2   2   2   2
#     4  11  22  45  68 102 140 184 232 284 352 422
#     4  10  24  44  65  99 136 178 240 281 348 412
#     4  11  25  44  70  99 138 190 231 291 352 419
#     4  10  23  42  68 100 136 182 225 294 343 415
#     4  11  24  42  68 105 139 182 233 288 350 419
#     4   9  23  42  65  96 133 176 233 280 346 409
#
# _framework density 28.156527000000001
#
# number of rings (size 3 to 8) (size 9 to 14) (size 15 to 20)
#    1.000    0.667    1.667    1.500    2.333    6.667 
#    0.000    4.167    0.000    0.000    0.000    0.000 
#    0.000    0.000    0.000    0.000    0.000    0.000 
#
# Total GULP energy -66995.581485 kJ/mol
# GULP energy per Si atom -5582.965124 kJ/mol
# Density = 2.809244 g / cm^3
# Si number density = 28.156527 Si / 1000 Ang^3
#
#
#
# Elastic Constant Matrix: (Units=GPa)
#
#
# Indices 1 2 3 4 5 6 
#
# 1 180.0915 48.5760 20.5841 4.8669 3.1091 -41.0644
# 2 48.5760 141.7894 9.9796 14.9918 4.7880 -39.5905
# 3 20.5841 9.9796 36.6309 3.2310 -8.7159 -5.7067
# 4 4.8669 14.9918 3.2310 43.6197 -1.9016 -4.8824
# 5 3.1091 4.7880 -8.7159 -1.9016 53.5027 4.0698
# 6 -41.0644 -39.5905 -5.7067 -4.8824 4.0698 46.9683
#
#
#
# Elastic Compliance Matrix: (Units=1/GPa)
#
#
# Indices 1 2 3 4 5 6 
#
# 1 0.007439 -0.000715 -0.003452 0.000242 -0.001350 0.005624
# 2 -0.000715 0.009749 -0.001299 -0.002428 -0.001686 0.007328
# 3 -0.003452 -0.001299 0.030836 -0.001327 0.005367 -0.000970
# 4 0.000242 -0.002428 -0.001327 0.023913 0.000805 0.000420
# 5 -0.001350 -0.001686 0.005367 0.000805 0.020097 -0.003607
# 6 0.005624 0.007328 -0.000970 0.000420 -0.003607 0.032623
#
#
# Mechanical properties :
#
#
# Convention : Reuss Voigt Hill
#
# Bulk Modulus (GPa) = 26.96079 57.42124 42.19102
# Shear Modulus (GPa) = 33.79398 47.44296 40.61847
#
# Velocity S-wave (km/s) = 3.46818 4.10929 3.80227
# Velocity P-wave (km/s) = 5.06298 6.55385 5.85605
#
# Compressibility (1/GPa) = 0.03709090
#
# Stress axis : x y z
#
# Youngs Moduli (GPa) = 134.41997 102.57400 32.42963
#
# Poissons Ratio (x) = 0.07338 0.11194
# Poissons Ratio (y) = 0.09617 0.04214
# Poissons Ratio (z) = 0.46400 0.13329
#
# Static dielectric constant tensor:
#      x y z
#    x 2.239260 0.003700 0.050240 
#    y 0.003700 2.324560 -0.041490 
#    z 0.050240 -0.041490 2.371380 
# 
# From -- ./inp_files/107385.got.cif
#   From: 2010.05.17/outbox.cif.g08.bks.cpg/sg2_54_cif.got.tgz:107385.got - 2010.06.03 11:33:40.
