data_PCOD9039550
_publ_section_title
;
Structure prediction by ZEFSAII (Michael W. Deem and Ramdas Pophale) SiO2 
 PCOD9039550
Probable space group: P -1
;
_chemical_formula_sum "Si O2"
_cell_formula_units_Z 16
_cell_length_a 15.206048
_cell_length_b 5.038448
_cell_length_c 12.123909
_cell_angle_alpha 71.974151
_cell_angle_beta 121.464957
_cell_angle_gamma 72.743931
_cell_volume 621.689854
_symmetry_space_group_name_H-M "P -1"
_symmetry_group_IT_number 2
_symmetry_cell_setting 'triclinic'
loop_
_space_group_symop_operation_xyz
x,y,z
-x,-y,-z
loop_
_atom_site_type_symbol
_atom_site_label
_atom_site_fract_x
_atom_site_fract_y
_atom_site_fract_z
Si Si1 0.420366 0.813488 0.822718
Si Si2 0.155604 0.291071 0.812166
Si Si3 0.782645 0.742622 0.690190
Si Si4 0.365505 0.589769 0.370494
Si Si5 0.751606 0.416529 0.322489
Si Si6 0.932325 0.284219 0.653309
Si Si7 0.892144 0.420701 0.029592
Si Si8 0.344842 0.611474 0.104809
O O1 0.305952 0.794994 0.711656
O O2 0.520872 0.701612 0.804621
O O3 0.363899 0.194811 0.775415
O O4 0.500000 0.500000 0.000000
O O5 0.179142 0.555102 0.741677
O O6 0.110082 0.356448 0.900950
O O7 0.047757 0.287003 0.680769
O O8 0.288308 0.933779 0.946841
O O9 0.671339 0.679863 0.624608
O O10 0.847732 0.607782 0.633733
O O11 0.725591 0.123808 0.638755
O O12 0.880731 0.526979 0.881717
O O13 0.500000 0.500000 0.500000
O O14 0.346304 0.720916 0.215958
O O15 0.849237 0.282547 0.503053
O O16 0.995300 0.955994 0.816288
O O17 0.760741 0.462433 0.957634
#
# Coordination Sequence:
#
# PCOD9039550 Si02
#       8
#     2   2   2   2   2   2   2   2
#     4  12  26  46  73 100 140 181 232 285 336 418
#     4  11  23  46  71  94 141 184 235 280 345 410
#     4  11  25  45  69 104 137 178 239 272 348 408
#     4  11  25  43  69 101 141 181 219 288 343 414
#     4  12  29  44  71 106 139 181 230 290 348 403
#     4  11  28  44  69 104 140 183 228 291 343 406
#     4  10  23  45  72  98 136 188 231 287 334 420
#     4  10  23  42  69 102 133 183 230 280 351 406
#
# _framework density 25.736305999999999
#
# number of rings (size 3 to 8) (size 9 to 14) (size 15 to 20)
#    0.000    1.000    2.500    2.250   10.500    1.000 
#    0.000    0.000    0.000    0.000    0.000    0.000 
#    0.000    0.000    0.000    0.000    0.000    0.000 
#
# Total GULP energy -89686.087426 kJ/mol
# GULP energy per Si atom -5605.380464 kJ/mol
# Density = 2.567773 g / cm^3
# Si number density = 25.736306 Si / 1000 Ang^3
#
#
#
# Elastic Constant Matrix: (Units=GPa)
#
#
# Indices 1 2 3 4 5 6 
#
# 1 84.5791 8.6710 36.9502 -1.1109 14.3413 -11.9054
# 2 8.6710 86.0351 3.9449 8.9463 -2.9824 -3.8440
# 3 36.9502 3.9449 131.9817 22.9613 21.2716 5.8473
# 4 -1.1109 8.9463 22.9613 33.1832 2.8216 0.6856
# 5 14.3413 -2.9824 21.2716 2.8216 34.0122 1.0917
# 6 -11.9054 -3.8440 5.8473 0.6856 1.0917 32.2814
#
#
#
# Elastic Compliance Matrix: (Units=1/GPa)
#
#
# Indices 1 2 3 4 5 6 
#
# 1 0.015795 -0.001705 -0.004729 0.004503 -0.004435 0.006533
# 2 -0.001705 0.012271 0.000455 -0.003850 0.001805 0.000771
# 3 -0.004729 0.000455 0.011001 -0.007473 -0.004118 -0.003384
# 4 0.004503 -0.003850 -0.007473 0.036514 -0.000649 0.001802
# 5 -0.004435 0.001805 -0.004118 -0.000649 0.034117 -0.001815
# 6 0.006533 0.000771 -0.003384 0.001802 -0.001815 0.034115
#
#
# Mechanical properties :
#
#
# Convention : Reuss Voigt Hill
#
# Bulk Modulus (GPa) = 36.88743 44.63646 40.76194
# Shear Modulus (GPa) = 30.33864 36.76403 33.55134
#
# Velocity S-wave (km/s) = 3.43713 3.78364 3.61454
# Velocity P-wave (km/s) = 5.48778 6.03898 5.76997
#
# Compressibility (1/GPa) = 0.02710951
#
# Stress axis : x y z
#
# Youngs Moduli (GPa) = 63.31208 81.48985 90.90208
#
# Poissons Ratio (x) = 0.13895 0.42988
# Poissons Ratio (y) = 0.10795 -0.04139
# Poissons Ratio (z) = 0.29940 -0.03711
#
# Static dielectric constant tensor:
#      x y z
#    x 2.053640 -0.010380 -0.012350 
#    y -0.010380 2.017200 -0.017000 
#    z -0.012350 -0.017000 2.047770 
# 
# From -- ./inp_files/118460.got.cif
#   From: 2010.05.17/outbox.cif.g08.bks.cpg/sg2_60_cif.got.tgz:118460.got - 2010.06.03 11:33:40.
