data_PCOD9039681
_publ_section_title
;
Structure prediction by ZEFSAII (Michael W. Deem and Ramdas Pophale) SiO2 
 PCOD9039681
Probable space group: P -1
;
_chemical_formula_sum "Si O2"
_cell_formula_units_Z 12
_cell_length_a 9.446195
_cell_length_b 14.699896
_cell_length_c 7.770091
_cell_angle_alpha 125.874452
_cell_angle_beta 31.955549
_cell_angle_gamma 121.947745
_cell_volume 461.431271
_symmetry_space_group_name_H-M "P -1"
_symmetry_group_IT_number 2
_symmetry_cell_setting 'triclinic'
loop_
_space_group_symop_operation_xyz
x,y,z
-x,-y,-z
loop_
_atom_site_type_symbol
_atom_site_label
_atom_site_fract_x
_atom_site_fract_y
_atom_site_fract_z
Si Si1 0.377096 0.909001 0.663572
Si Si2 0.859647 0.993154 0.452563
Si Si3 0.713446 0.341097 0.656165
Si Si4 0.352548 0.509810 0.388271
Si Si5 0.275351 0.355441 0.609051
Si Si6 0.794274 0.250566 0.818861
O O1 0.373910 0.782842 0.458451
O O2 0.077823 0.940162 0.048366
O O3 0.500000 0.000000 0.500000
O O4 0.573613 0.924443 0.643987
O O5 0.810989 0.122333 0.606788
O O6 0.500379 0.281096 0.211083
O O7 0.000000 0.000000 0.500000
O O8 0.828176 0.418080 0.466454
O O9 0.875925 0.323322 0.644307
O O10 0.465708 0.408708 0.052880
O O11 0.249664 0.460769 0.622224
O O12 0.602292 0.596166 0.287112
O O13 0.995495 0.282899 0.803327
#
# Coordination Sequence:
#
# PCOD9039681 Si02
#       6
#     2   2   2   2   2   2
#     4  12  26  48  74 104 140 185 233 289 353 414
#     4  12  28  46  71 107 139 185 237 288 349 416
#     4  10  23  42  70 100 138 179 227 286 344 412
#     4   9  22  43  67 101 136 178 229 281 342 410
#     4  10  23  43  69  98 134 180 226 281 345 409
#     4  11  24  43  70  97 139 179 226 287 342 409
#
# _framework density 26.006038
#
# number of rings (size 3 to 8) (size 9 to 14) (size 15 to 20)
#    0.000    1.333    1.667    2.000    7.000    6.667 
#    0.000    6.667    0.000    0.000    0.000    0.000 
#    0.000    0.000    0.000    0.000    0.000    0.000 
#
# Total GULP energy -67248.954814 kJ/mol
# GULP energy per Si atom -5604.079568 kJ/mol
# Density = 2.594685 g / cm^3
# Si number density = 26.006038 Si / 1000 Ang^3
#
#
#
# Elastic Constant Matrix: (Units=GPa)
#
#
# Indices 1 2 3 4 5 6 
#
# 1 136.7432 33.6379 28.8462 21.3439 -4.9333 7.9035
# 2 33.6379 73.1809 50.6739 41.2701 -8.3214 3.4979
# 3 28.8462 50.6739 148.0109 28.1077 -7.7510 4.9789
# 4 21.3439 41.2701 28.1077 42.7690 12.9957 -0.6291
# 5 -4.9333 -8.3214 -7.7510 12.9957 34.9310 -0.5372
# 6 7.9035 3.4979 4.9789 -0.6291 -0.5372 52.2014
#
#
#
# Elastic Compliance Matrix: (Units=1/GPa)
#
#
# Indices 1 2 3 4 5 6 
#
# 1 0.008388 -0.001859 -0.000369 -0.002662 0.001633 -0.001125
# 2 -0.001859 0.056629 -0.005610 -0.060550 0.034458 -0.003353
# 3 -0.000369 -0.005610 0.008895 -0.000485 0.000759 -0.000415
# 4 -0.002662 -0.060550 -0.000485 0.099259 -0.051757 0.005170
# 5 0.001633 0.034458 0.000759 -0.051757 0.056450 -0.002671
# 6 -0.001125 -0.003353 -0.000415 0.005170 -0.002671 0.019626
#
#
# Mechanical properties :
#
#
# Convention : Reuss Voigt Hill
#
# Bulk Modulus (GPa) = 17.17173 64.91680 41.04426
# Shear Modulus (GPa) = 17.58495 42.29875 29.94185
#
# Velocity S-wave (km/s) = 2.60318 4.03736 3.39682
# Velocity P-wave (km/s) = 3.95635 6.83740 5.58582
#
# Compressibility (1/GPa) = 0.05823524
#
# Stress axis : x y z
#
# Youngs Moduli (GPa) = 119.22291 17.65881 112.42795
#
# Poissons Ratio (x) = 0.03283 0.04153
# Poissons Ratio (y) = 0.22163 0.63068
# Poissons Ratio (z) = 0.04404 0.09906
#
# Static dielectric constant tensor:
#      x y z
#    x 2.096710 -0.042990 0.010100 
#    y -0.042990 2.058980 -0.035880 
#    z 0.010100 -0.035880 1.980460 
# 
# From -- ./inp_files/203930.got.cif
#   From: 2010.05.17/outbox.cif.g08.bks.cpg/sg2_102_cif.got.tgz:203930.got - 2010.06.03 11:33:40.
