data_PCOD9039573
_publ_section_title
;
Structure prediction by ZEFSAII (Michael W. Deem and Ramdas Pophale) SiO2 
 PCOD9039573
Probable space group: P -1
;
_chemical_formula_sum "Si O2"
_cell_formula_units_Z 12
_cell_length_a 7.750754
_cell_length_b 14.158853
_cell_length_c 13.409116
_cell_angle_alpha 148.287202
_cell_angle_beta 140.032086
_cell_angle_gamma 37.548808
_cell_volume 451.585915
_symmetry_space_group_name_H-M "P -1"
_symmetry_group_IT_number 2
_symmetry_cell_setting 'triclinic'
loop_
_space_group_symop_operation_xyz
x,y,z
-x,-y,-z
loop_
_atom_site_type_symbol
_atom_site_label
_atom_site_fract_x
_atom_site_fract_y
_atom_site_fract_z
Si Si1 0.055956 0.543932 0.690763
Si Si2 0.564274 0.916667 0.564419
Si Si3 0.633285 0.197474 0.971430
Si Si4 0.944728 0.455602 0.070965
Si Si5 0.770719 0.949306 0.263974
Si Si6 0.585815 0.383346 0.535720
O O1 0.279368 0.316313 0.579985
O O2 0.047225 0.583687 0.842536
O O3 0.262012 0.417969 0.460156
O O4 0.160169 0.695942 0.821942
O O5 0.500000 0.000000 0.500000
O O6 0.766218 0.016390 0.791095
O O7 0.289911 0.991501 0.590782
O O8 0.350517 0.364710 0.937845
O O9 0.512983 0.106506 0.925833
O O10 0.206463 0.531733 0.239386
O O11 0.983046 0.255481 0.851186
O O12 0.746547 0.147533 0.379407
O O13 0.500000 0.500000 0.500000
#
# Coordination Sequence:
#
# PCOD9039573 Si02
#       6
#     2   2   2   2   2   2
#     4  11  23  44  69  96 139 183 226 278 336 405
#     4  10  23  42  69 105 133 176 224 283 344 399
#     4  10  24  41  70 103 134 172 232 285 337 393
#     4  11  23  44  70 100 138 179 228 279 341 403
#     4  10  25  43  70 103 136 180 227 283 339 403
#     4  10  26  45  67  99 141 184 226 276 339 408
#
# _framework density 26.573014000000001
#
# number of rings (size 3 to 8) (size 9 to 14) (size 15 to 20)
#    1.000    0.667    1.667    1.000    2.333   10.000 
#    0.000    0.000    0.000    0.000    0.000    0.000 
#    0.000    0.000    0.000    0.000    0.000    0.000 
#
# Total GULP energy -67120.450358 kJ/mol
# GULP energy per Si atom -5593.370863 kJ/mol
# Density = 2.651253 g / cm^3
# Si number density = 26.573014 Si / 1000 Ang^3
#
#
#
# Elastic Constant Matrix: (Units=GPa)
#
#
# Indices 1 2 3 4 5 6 
#
# 1 55.9462 43.5108 51.1565 -0.6619 -3.8557 -3.0621
# 2 43.5108 155.5878 66.0139 24.4438 -0.7271 4.8395
# 3 51.1565 66.0139 206.3207 42.2328 -2.8959 -6.4623
# 4 -0.6619 24.4438 42.2328 52.4302 -6.7791 6.0920
# 5 -3.8557 -0.7271 -2.8959 -6.7791 61.8484 -4.0060
# 6 -3.0621 4.8395 -6.4623 6.0920 -4.0060 46.3072
#
#
#
# Elastic Compliance Matrix: (Units=1/GPa)
#
#
# Indices 1 2 3 4 5 6 
#
# 1 0.030134 -0.006904 -0.007178 0.009635 0.002561 0.000666
# 2 -0.006904 0.009210 -0.000460 -0.004000 -0.000849 -0.001030
# 3 -0.007178 -0.000460 0.008193 -0.006747 -0.000709 0.001543
# 4 0.009635 -0.004000 -0.006747 0.027257 0.003017 -0.003211
# 5 0.002561 -0.000849 -0.000709 0.003017 0.016694 0.001206
# 6 0.000666 -0.001030 0.001543 -0.003211 0.001206 0.022489
#
#
# Mechanical properties :
#
#
# Convention : Reuss Voigt Hill
#
# Bulk Modulus (GPa) = 54.19312 82.13522 68.16417
# Shear Modulus (GPa) = 33.50912 49.26204 41.38558
#
# Velocity S-wave (km/s) = 3.55494 4.31029 3.95071
# Velocity P-wave (km/s) = 6.10642 7.46645 6.82042
#
# Compressibility (1/GPa) = 0.01845253
#
# Stress axis : x y z
#
# Youngs Moduli (GPa) = 33.18481 108.57967 122.05132
#
# Poissons Ratio (x) = 0.74964 0.87609
# Poissons Ratio (y) = 0.22911 0.05618
# Poissons Ratio (z) = 0.23820 0.04998
#
# Static dielectric constant tensor:
#      x y z
#    x 2.299530 -0.022920 0.025030 
#    y -0.022920 2.099210 -0.075280 
#    z 0.025030 -0.075280 2.099250 
# 
# From -- ./inp_files/502393.got.cif
#   From: 2010.05.17/outbox.cif.g08.bks.cpg/sg2_252_cif.got.tgz:502393.got - 2010.06.03 11:33:40.
