data_PCOD9039320
_publ_section_title
;
Structure prediction by ZEFSAII (Michael W. Deem and Ramdas Pophale) SiO2 
 PCOD9039320
Probable space group: P -1
;
_chemical_formula_sum "Si O2"
_cell_formula_units_Z 14
_cell_length_a 29.554879
_cell_length_b 7.126925
_cell_length_c 9.464465
_cell_angle_alpha 61.674315
_cell_angle_beta 24.522432
_cell_angle_gamma 52.237346
_cell_volume 633.020112
_symmetry_space_group_name_H-M "P -1"
_symmetry_group_IT_number 2
_symmetry_cell_setting 'triclinic'
loop_
_space_group_symop_operation_xyz
x,y,z
-x,-y,-z
loop_
_atom_site_type_symbol
_atom_site_label
_atom_site_fract_x
_atom_site_fract_y
_atom_site_fract_z
Si Si1 0.125328 0.410702 0.079865
Si Si2 0.500467 0.582975 0.707015
Si Si3 0.171681 0.909103 0.190735
Si Si4 0.731557 0.965547 0.649089
Si Si5 0.375079 0.394214 0.925652
Si Si6 0.232258 0.725793 0.795572
Si Si7 0.044295 0.165334 0.737560
O O1 0.000000 0.500000 0.500000
O O2 0.061885 0.549870 0.065187
O O3 0.203153 0.118663 0.973740
O O4 0.205319 0.532080 0.862339
O O5 0.449693 0.416102 0.838347
O O6 0.535526 0.702452 0.431849
O O7 0.625696 0.416487 0.498723
O O8 0.392461 0.792191 0.031769
O O9 0.068869 0.050594 0.551137
O O10 0.277372 0.672876 0.056017
O O11 0.146769 0.814583 0.148102
O O12 0.830674 0.869997 0.530873
O O13 0.784846 0.056348 0.336703
O O14 0.692938 0.761857 0.796353
O O15 0.000000 0.000000 0.000000
#
# Coordination Sequence:
#
# PCOD9039320 Si02
#       7
#     2   2   2   2   2   2   2
#     4  10  24  44  68  94 135 175 217 270 325 389
#     4  10  23  42  67  97 136 172 216 274 327 397
#     4  10  24  43  68  92 136 170 218 270 318 397
#     4  12  24  43  68 100 137 169 219 277 328 389
#     4  10  23  42  69 102 128 173 222 265 337 389
#     4  11  25  43  69 104 126 176 222 266 340 386
#     4  11  23  45  68  97 134 173 219 271 330 387
#
# _framework density 22.116199000000002
#
# number of rings (size 3 to 8) (size 9 to 14) (size 15 to 20)
#    0.000    1.429    2.857    0.857    8.000    8.571 
#    0.000    1.429    0.000    0.000    0.000    0.000 
#    0.000    0.000    0.000    0.000    0.000    0.000 
#
# Total GULP energy -78182.469056 kJ/mol
# GULP energy per Si atom -5584.462075 kJ/mol
# Density = 2.206586 g / cm^3
# Si number density = 22.116199 Si / 1000 Ang^3
#
#
#
# Elastic Constant Matrix: (Units=GPa)
#
#
# Indices 1 2 3 4 5 6 
#
# 1 77.7283 37.0680 15.5093 10.9127 -13.2136 -11.2086
# 2 37.0680 101.1700 23.1344 -17.2072 -10.5577 -6.6741
# 3 15.5093 23.1344 45.9869 0.2699 -1.6473 -1.0300
# 4 10.9127 -17.2072 0.2699 32.7862 0.7310 -1.4754
# 5 -13.2136 -10.5577 -1.6473 0.7310 32.2377 -7.5699
# 6 -11.2086 -6.6741 -1.0300 -1.4754 -7.5699 19.6231
#
#
#
# Elastic Compliance Matrix: (Units=1/GPa)
#
#
# Indices 1 2 3 4 5 6 
#
# 1 0.021984 -0.007336 -0.003025 -0.010781 0.009713 0.012839
# 2 -0.007336 0.016156 -0.005570 0.011038 0.002399 0.002768
# 3 -0.003025 -0.005570 0.025414 -0.002224 -0.002520 -0.003428
# 4 -0.010781 0.011038 -0.002224 0.039931 -0.001880 -0.000244
# 5 0.009713 0.002399 -0.002520 -0.001880 0.040829 0.021841
# 6 0.012839 0.002768 -0.003428 -0.000244 0.021841 0.067463
#
#
# Mechanical properties :
#
#
# Convention : Reuss Voigt Hill
#
# Bulk Modulus (GPa) = 31.55453 41.81209 36.68331
# Shear Modulus (GPa) = 19.66931 26.87430 23.27180
#
# Velocity S-wave (km/s) = 2.98545 3.48967 3.24736
# Velocity P-wave (km/s) = 5.11688 5.93159 5.53923
#
# Compressibility (1/GPa) = 0.03169117
#
# Stress axis : x y z
#
# Youngs Moduli (GPa) = 45.48829 61.89524 39.34876
#
# Poissons Ratio (x) = 0.45407 0.11902
# Poissons Ratio (y) = 0.33371 0.21919
# Poissons Ratio (z) = 0.13759 0.34478
#
# Static dielectric constant tensor:
#      x y z
#    x 1.821770 -0.014760 0.021130 
#    y -0.014760 1.811030 0.032730 
#    z 0.021130 0.032730 1.851090 
# 
# From -- ./inp_files/273789.got.cif
#   From: 2010.05.17/outbox.cif.g08.bks.cpg/sg2_137_cif.got.tgz:273789.got - 2010.06.03 11:33:40.
