data_PCOD9039012
_publ_section_title
;
Structure prediction by ZEFSAII (Michael W. Deem and Ramdas Pophale) SiO2 
 PCOD9039012
Probable space group: P -1
;
_chemical_formula_sum "Si O2"
_cell_formula_units_Z 16
_cell_length_a 16.350131
_cell_length_b 12.872191
_cell_length_c 18.044046
_cell_angle_alpha 46.244762
_cell_angle_beta 28.254149
_cell_angle_gamma 27.974559
_cell_volume 776.892521
_symmetry_space_group_name_H-M "P -1"
_symmetry_group_IT_number 2
_symmetry_cell_setting 'triclinic'
loop_
_space_group_symop_operation_xyz
x,y,z
-x,-y,-z
loop_
_atom_site_type_symbol
_atom_site_label
_atom_site_fract_x
_atom_site_fract_y
_atom_site_fract_z
Si Si1 0.207248 0.961501 0.137635
Si Si2 0.429085 0.557632 0.853298
Si Si3 0.048945 0.829375 0.597706
Si Si4 0.097313 0.232421 0.775056
Si Si5 0.317824 0.024669 0.541568
Si Si6 0.048898 0.602349 0.464084
Si Si7 0.216224 0.264760 0.227412
Si Si8 0.632785 0.338944 0.316188
O O1 0.392466 0.690286 0.127611
O O2 0.443301 0.928802 0.950687
O O3 0.061853 0.071843 0.279874
O O4 0.953825 0.135257 0.193443
O O5 0.618613 0.572571 0.709485
O O6 0.408575 0.556390 0.781528
O O7 0.103803 0.763256 0.040910
O O8 0.387772 0.564131 0.454515
O O9 0.876475 0.809753 0.709962
O O10 0.000000 0.000000 0.500000
O O11 0.418180 0.040460 0.644164
O O12 0.934902 0.487397 0.801577
O O13 0.135282 0.194686 0.674874
O O14 0.427471 0.790717 0.583816
O O15 0.127827 0.154010 0.556172
O O16 0.000000 0.500000 0.500000
O O17 0.909879 0.673775 0.619908
#
# Coordination Sequence:
#
# PCOD9039012 Si02
#       8
#     2   2   2   2   2   2   2   2
#     4  11  25  44  69  99 128 175 224 274 333 389
#     4  11  24  44  65  98 136 171 220 276 328 390
#     4  12  23  46  71  93 133 180 218 277 339 383
#     4  10  23  42  65  96 133 174 217 271 329 396
#     4  11  23  41  66  98 133 179 220 262 334 395
#     4  12  23  41  66  97 135 179 217 267 328 398
#     4  11  23  44  68  95 134 173 218 275 331 389
#     4  12  24  44  69  98 133 171 223 273 329 398
#
# _framework density 20.59487
#
# number of rings (size 3 to 8) (size 9 to 14) (size 15 to 20)
#    0.000    0.750    6.250    0.750    3.500    2.000 
#    0.000    0.625    0.000    0.000    0.000    0.000 
#    0.000    0.000    0.000    0.000    0.000    0.000 
#
# Total GULP energy -89410.197157 kJ/mol
# GULP energy per Si atom -5588.137322 kJ/mol
# Density = 2.054800 g / cm^3
# Si number density = 20.594870 Si / 1000 Ang^3
#
#
#
# Elastic Constant Matrix: (Units=GPa)
#
#
# Indices 1 2 3 4 5 6 
#
# 1 58.3337 -7.6559 34.6763 -3.2114 -18.4905 -6.2219
# 2 -7.6559 64.3563 8.9098 -4.1327 -14.3568 2.0980
# 3 34.6763 8.9098 172.7777 4.7500 -21.5343 -8.1261
# 4 -3.2114 -4.1327 4.7500 17.1095 3.8638 0.7179
# 5 -18.4905 -14.3568 -21.5343 3.8638 21.1153 4.1896
# 6 -6.2219 2.0980 -8.1261 0.7179 4.1896 28.5113
#
#
#
# Elastic Compliance Matrix: (Units=1/GPa)
#
#
# Indices 1 2 3 4 5 6 
#
# 1 0.030024 0.010845 -0.002852 0.002193 0.030269 0.000438
# 2 0.010845 0.022627 -0.000484 0.002211 0.024600 -0.003107
# 3 -0.002852 -0.000484 0.007151 -0.003801 0.005000 0.000812
# 4 0.002193 0.002211 -0.003801 0.063158 -0.011889 -0.000611
# 5 0.030269 0.024600 0.005000 -0.011889 0.099473 -0.008097
# 6 0.000438 -0.003107 0.000812 -0.000611 -0.008097 0.036835
#
#
# Mechanical properties :
#
#
# Convention : Reuss Voigt Hill
#
# Bulk Modulus (GPa) = 13.36553 40.81424 27.08989
# Shear Modulus (GPa) = 18.57431 30.64972 24.61202
#
# Velocity S-wave (km/s) = 3.00641 3.86193 3.46071
# Velocity P-wave (km/s) = 4.30757 6.30450 5.39916
#
# Compressibility (1/GPa) = 0.07481932
#
# Stress axis : x y z
#
# Youngs Moduli (GPa) = 33.30724 44.19547 139.83832
#
# Poissons Ratio (x) = -0.47932 0.39883
# Poissons Ratio (y) = -0.36123 0.06773
# Poissons Ratio (z) = 0.09500 0.02141
#
# Static dielectric constant tensor:
#      x y z
#    x 1.700170 -0.003430 -0.017310 
#    y -0.003430 1.783510 -0.017110 
#    z -0.017310 -0.017110 1.744520 
# 
# From -- ./inp_files/205822.got.cif
#   From: 2010.05.17/outbox.cif.g08.bks.cpg/sg2_103_cif.got.tgz:205822.got - 2010.06.03 11:33:40.
