data_PCOD9039472
_publ_section_title
;
Structure prediction by ZEFSAII (Michael W. Deem and Ramdas Pophale) SiO2 
 PCOD9039472
Probable space group: P -1
;
_chemical_formula_sum "Si O2"
_cell_formula_units_Z 16
_cell_length_a 10.879801
_cell_length_b 20.441480
_cell_length_c 8.445960
_cell_angle_alpha 52.781524
_cell_angle_beta 41.842505
_cell_angle_gamma 36.098257
_cell_volume 738.233521
_symmetry_space_group_name_H-M "P -1"
_symmetry_group_IT_number 2
_symmetry_cell_setting 'triclinic'
loop_
_space_group_symop_operation_xyz
x,y,z
-x,-y,-z
loop_
_atom_site_type_symbol
_atom_site_label
_atom_site_fract_x
_atom_site_fract_y
_atom_site_fract_z
Si Si1 0.682515 0.711129 0.103172
Si Si2 0.941001 0.421190 0.665273
Si Si3 0.740689 0.109213 0.524784
Si Si4 0.696811 0.524599 0.419150
Si Si5 0.359011 0.857969 0.931706
Si Si6 0.991173 0.893038 0.003537
Si Si7 0.191011 0.603046 0.832528
Si Si8 0.353689 0.161097 0.611960
O O1 0.435949 0.799775 0.309136
O O2 0.786221 0.591327 0.225727
O O3 0.581513 0.746050 0.971956
O O4 0.899773 0.711052 0.930272
O O5 0.812411 0.446715 0.578488
O O6 0.000000 0.500000 0.500000
O O7 0.190272 0.291148 0.615818
O O8 0.794594 0.440051 0.940359
O O9 0.812051 0.154137 0.256953
O O10 0.571009 0.089076 0.638843
O O11 0.000000 0.000000 0.500000
O O12 0.399563 0.609989 0.607545
O O13 0.753836 0.467994 0.275248
O O14 0.157297 0.855712 0.056046
O O15 0.493113 0.869722 0.649402
O O16 0.199733 0.972665 0.013926
O O17 0.834161 0.857893 0.193296
#
# Coordination Sequence:
#
# PCOD9039472 Si02
#       8
#     2   2   2   2   2   2   2   2
#     4  12  23  43  69  94 136 178 217 278 346 401
#     4  12  24  45  71 100 139 182 226 287 345 411
#     4  11  23  43  64  98 138 177 222 277 336 400
#     4  11  26  45  69 100 135 178 229 286 344 411
#     4  10  23  42  68  97 133 174 224 283 338 399
#     4  10  23  44  66  96 134 177 228 279 334 407
#     4  11  25  45  67 100 138 174 234 283 341 411
#     4  11  24  43  69  98 132 181 230 274 346 410
#
# _framework density 21.673359999999999
#
# number of rings (size 3 to 8) (size 9 to 14) (size 15 to 20)
#    0.000    1.000    3.750    1.875    3.500    3.500 
#    4.500    0.000    0.000    0.000    0.000    0.000 
#    0.000    0.000    0.000    0.000    0.000    0.000 
#
# Total GULP energy -89296.172101 kJ/mol
# GULP energy per Si atom -5581.010756 kJ/mol
# Density = 2.162403 g / cm^3
# Si number density = 21.673360 Si / 1000 Ang^3
#
#
#
# Elastic Constant Matrix: (Units=GPa)
#
#
# Indices 1 2 3 4 5 6 
#
# 1 87.1645 29.4764 35.0382 -12.3869 -14.9706 -17.5670
# 2 29.4764 56.5475 13.4088 11.0818 -4.5230 -18.8535
# 3 35.0382 13.4088 96.4865 17.5410 -10.4425 5.0640
# 4 -12.3869 11.0818 17.5410 30.2418 -3.3107 4.1778
# 5 -14.9706 -4.5230 -10.4425 -3.3107 52.1830 2.8506
# 6 -17.5670 -18.8535 5.0640 4.1778 2.8506 35.5628
#
#
#
# Elastic Compliance Matrix: (Units=1/GPa)
#
#
# Indices 1 2 3 4 5 6 
#
# 1 0.024733 -0.012674 -0.010712 0.020955 0.004955 0.004165
# 2 -0.012674 0.031645 0.003027 -0.020545 -0.002284 0.012681
# 3 -0.010712 0.003027 0.016698 -0.014601 -0.000159 -0.004336
# 4 0.020955 -0.020545 -0.014601 0.059041 0.005373 -0.005828
# 5 0.004955 -0.002284 -0.000159 0.005373 0.020753 -0.001035
# 6 0.004165 0.012681 -0.004336 -0.005828 -0.001035 0.038285
#
#
# Mechanical properties :
#
#
# Convention : Reuss Voigt Hill
#
# Bulk Modulus (GPa) = 30.90464 44.00503 37.45484
# Shear Modulus (GPa) = 20.60512 34.41585 27.51048
#
# Velocity S-wave (km/s) = 3.08671 3.98921 3.56662
# Velocity P-wave (km/s) = 5.19557 6.44719 5.85492
#
# Compressibility (1/GPa) = 0.03235760
#
# Stress axis : x y z
#
# Youngs Moduli (GPa) = 40.43179 31.60079 59.88654
#
# Poissons Ratio (x) = 0.40052 0.64151
# Poissons Ratio (y) = 0.51244 -0.18128
# Poissons Ratio (z) = 0.43311 -0.09566
#
# Static dielectric constant tensor:
#      x y z
#    x 1.838290 -0.021250 0.054820 
#    y -0.021250 1.777130 0.021870 
#    z 0.054820 0.021870 1.779230 
# 
# From -- ./inp_files/282859.got.cif
#   From: 2010.05.17/outbox.cif.g08.bks.cpg/sg2_142_cif.got.tgz:282859.got - 2010.06.03 11:33:40.
