data_PCOD9039005
_publ_section_title
;
Structure prediction by ZEFSAII (Michael W. Deem and Ramdas Pophale) SiO2 
 PCOD9039005
Probable space group: P -1
;
_chemical_formula_sum "Si O2"
_cell_formula_units_Z 16
_cell_length_a 25.547542
_cell_length_b 7.815259
_cell_length_c 6.316994
_cell_angle_alpha 86.463891
_cell_angle_beta 66.605631
_cell_angle_gamma 41.041524
_cell_volume 698.391478
_symmetry_space_group_name_H-M "P -1"
_symmetry_group_IT_number 2
_symmetry_cell_setting 'triclinic'
loop_
_space_group_symop_operation_xyz
x,y,z
-x,-y,-z
loop_
_atom_site_type_symbol
_atom_site_label
_atom_site_fract_x
_atom_site_fract_y
_atom_site_fract_z
Si Si1 0.741758 0.585068 0.731810
Si Si2 0.399557 0.537807 0.603577
Si Si3 0.079267 0.192342 0.992441
Si Si4 0.920206 0.147215 0.782768
Si Si5 0.390703 0.953389 0.743660
Si Si6 0.787484 0.658878 0.240618
Si Si7 0.266687 0.763279 0.434944
Si Si8 0.223689 0.974331 0.050150
O O1 0.825031 0.340135 0.783295
O O2 0.786521 0.613256 0.490407
O O3 0.714582 0.471938 0.669394
O O4 0.655254 0.883705 0.971021
O O5 0.404177 0.715008 0.698457
O O6 0.506119 0.217176 0.449643
O O7 0.354909 0.630878 0.432446
O O8 0.316488 0.641895 0.859194
O O9 0.120538 0.150393 0.157120
O O10 0.044019 0.089567 0.107461
O O11 0.000000 0.500000 0.000000
O O12 0.172485 0.965224 0.713170
O O13 0.881800 0.376155 0.993463
O O14 0.000000 0.000000 0.500000
O O15 0.308898 0.204323 0.693182
O O16 0.774142 0.875958 0.135568
O O17 0.238967 0.958249 0.274224
#
# Coordination Sequence:
#
# PCOD9039005 Si02
#       8
#     2   2   2   2   2   2   2   2
#     4  11  23  43  68  95 141 181 219 284 346 400
#     4   9  21  41  67  99 136 177 230 281 334 405
#     4  11  25  42  65  98 136 177 224 280 339 408
#     4  11  25  42  65  98 136 177 224 280 339 408
#     4   9  21  41  67  99 136 177 230 281 334 405
#     4  10  23  42  65  95 134 180 225 274 337 404
#     4  11  23  43  68  95 141 181 219 284 346 400
#     4  10  23  42  65  95 134 180 225 274 337 404
#
# _framework density 22.909786
#
# number of rings (size 3 to 8) (size 9 to 14) (size 15 to 20)
#    0.000    1.750    2.500    0.000    3.500   11.500 
#    0.000    7.500    0.000    0.000    0.000    0.000 
#    0.000    0.000    0.000    0.000    0.000    0.000 
#
# Total GULP energy -89102.740138 kJ/mol
# GULP energy per Si atom -5568.921259 kJ/mol
# Density = 2.285764 g / cm^3
# Si number density = 22.909786 Si / 1000 Ang^3
#
#
#
# Elastic Constant Matrix: (Units=GPa)
#
#
# Indices 1 2 3 4 5 6 
#
# 1 75.9272 37.7372 34.5359 15.8961 12.2846 -3.4776
# 2 37.7372 92.1280 68.9765 17.2085 -6.4634 -0.7176
# 3 34.5359 68.9765 116.3088 13.6503 -2.0740 11.0399
# 4 15.8961 17.2085 13.6503 49.2983 -5.5325 -6.9659
# 5 12.2846 -6.4634 -2.0740 -5.5325 31.6494 2.5620
# 6 -3.4776 -0.7176 11.0399 -6.9659 2.5620 35.5316
#
#
#
# Elastic Compliance Matrix: (Units=1/GPa)
#
#
# Indices 1 2 3 4 5 6 
#
# 1 0.020022 -0.006678 -0.001862 -0.004435 -0.010216 0.002270
# 2 -0.006678 0.023057 -0.011648 -0.001614 0.006038 0.002680
# 3 -0.001862 -0.011648 0.016693 -0.000794 -0.000236 -0.005743
# 4 -0.004435 -0.001614 -0.000794 0.023647 0.005146 0.004045
# 5 -0.010216 0.006038 -0.000236 0.005146 0.037883 -0.002527
# 6 0.002270 0.002680 -0.005743 0.004045 -0.002527 0.031180
#
#
# Mechanical properties :
#
#
# Convention : Reuss Voigt Hill
#
# Bulk Modulus (GPa) = 51.55915 62.98480 57.27197
# Shear Modulus (GPa) = 25.08503 32.83684 28.96093
#
# Velocity S-wave (km/s) = 3.31259 3.79002 3.55932
# Velocity P-wave (km/s) = 6.09796 6.83407 6.47648
#
# Compressibility (1/GPa) = 0.01939520
#
# Stress axis : x y z
#
# Youngs Moduli (GPa) = 49.94519 43.37139 59.90688
#
# Poissons Ratio (x) = 0.28963 0.11155
# Poissons Ratio (y) = 0.33352 0.69780
# Poissons Ratio (z) = 0.09300 0.50519
#
# Static dielectric constant tensor:
#      x y z
#    x 2.098150 0.097590 0.039460 
#    y 0.097590 1.969000 0.060700 
#    z 0.039460 0.060700 1.905950 
# 
# From -- ./inp_files/128247.got.cif
#   From: 2010.05.17/outbox.cif.g08.bks.cpg/sg2_65_cif.got.tgz:128247.got - 2010.06.03 11:33:40.
