data_PCOD9039882
_publ_section_title
;
Structure prediction by ZEFSAII (Michael W. Deem and Ramdas Pophale) SiO2 
 PCOD9039882
Probable space group: P -1
;
_chemical_formula_sum "Si O2"
_cell_formula_units_Z 13
_cell_length_a 14.866511
_cell_length_b 14.485418
_cell_length_c 11.471713
_cell_angle_alpha 30.187302
_cell_angle_beta 149.741589
_cell_angle_gamma 152.036736
_cell_volume 527.145928
_symmetry_space_group_name_H-M "P -1"
_symmetry_group_IT_number 2
_symmetry_cell_setting 'triclinic'
loop_
_space_group_symop_operation_xyz
x,y,z
-x,-y,-z
loop_
_atom_site_type_symbol
_atom_site_label
_atom_site_fract_x
_atom_site_fract_y
_atom_site_fract_z
Si Si1 0.724948 0.309073 0.647471
Si Si2 0.298394 0.004584 0.226586
Si Si3 0.461433 0.505637 0.106314
Si Si4 0.523181 0.677868 0.240304
Si Si5 0.065542 0.354741 0.662055
Si Si6 0.000000 0.000000 0.500000
Si Si7 0.792881 0.257368 0.042723
O O1 0.525075 0.327531 0.374328
O O2 0.903003 0.554164 0.533894
O O3 0.761850 0.146209 0.791426
O O4 0.706405 0.241907 0.832320
O O5 0.500000 0.000000 0.500000
O O6 0.359827 0.244784 0.001690
O O7 0.119919 0.888713 0.251527
O O8 0.421010 0.549884 0.144826
O O9 0.276118 0.424655 0.894410
O O10 0.500000 0.500000 0.500000
O O11 0.377750 0.762011 0.035433
O O12 0.776292 0.849063 0.335866
O O13 0.000000 0.500000 0.500000
O O14 0.878216 0.099380 0.325188
O O15 0.000000 0.500000 0.000000
#
# Coordination Sequence:
#
# PCOD9039882 Si02
#       7
#     2   2   2   2   2   1   2
#     4  11  24  45  71 106 143 190 242 301 365 442
#     4  11  24  43  67 103 141 188 242 299 362 434
#     4  12  24  47  72 103 148 191 241 305 364 433
#     4  12  26  48  76 111 151 197 249 306 373 441
#     4  10  23  42  71  99 141 192 237 301 361 426
#     4  12  26  50  76 108 148 198 248 304 378 442
#     4  12  26  47  78 111 151 197 249 308 373 447
#
# _framework density 24.661102
#
# number of rings (size 3 to 8) (size 9 to 14) (size 15 to 20)
#    0.000    0.615    6.154    1.846    4.308    1.846 
#    0.000    0.000    0.000    0.000    0.000    0.000 
#    0.000    0.000    0.000    0.000    0.000    0.000 
#
# Total GULP energy -72369.590295 kJ/mol
# GULP energy per Si atom -5566.891561 kJ/mol
# Density = 2.460497 g / cm^3
# Si number density = 24.661102 Si / 1000 Ang^3
#
#
#
# Elastic Constant Matrix: (Units=GPa)
#
#
# Indices 1 2 3 4 5 6 
#
# 1 136.6840 21.1391 52.0741 -0.6202 8.5533 -9.5580
# 2 21.1391 93.8011 33.4569 -0.5629 -0.5591 12.3945
# 3 52.0741 33.4569 128.0509 -4.4891 35.8567 2.8527
# 4 -0.6202 -0.5629 -4.4891 29.5650 3.8032 7.4515
# 5 8.5533 -0.5591 35.8567 3.8032 54.8330 -2.9420
# 6 -9.5580 12.3945 2.8527 7.4515 -2.9420 33.3350
#
#
#
# Elastic Compliance Matrix: (Units=1/GPa)
#
#
# Indices 1 2 3 4 5 6 
#
# 1 0.009190 -0.001163 -0.003993 -0.001610 0.001487 0.003900
# 2 -0.001163 0.012761 -0.003352 0.000619 0.002206 -0.004735
# 3 -0.003993 -0.003352 0.012762 0.003462 -0.008130 -0.002482
# 4 -0.001610 0.000619 0.003462 0.037461 -0.005131 -0.009815
# 5 0.001487 0.002206 -0.008130 -0.005131 0.023891 0.003557
# 6 0.003900 -0.004735 -0.002482 -0.009815 0.003557 0.035598
#
#
# Mechanical properties :
#
#
# Convention : Reuss Voigt Hill
#
# Bulk Modulus (GPa) = 56.50540 63.54177 60.02359
# Shear Modulus (GPa) = 32.34630 40.33764 36.34197
#
# Velocity S-wave (km/s) = 3.62558 4.04874 3.84299
# Velocity P-wave (km/s) = 6.36309 6.90495 6.63955
#
# Compressibility (1/GPa) = 0.01769742
#
# Stress axis : x y z
#
# Youngs Moduli (GPa) = 108.81873 78.36352 78.35652
#
# Poissons Ratio (x) = 0.09113 0.31287
# Poissons Ratio (y) = 0.12655 0.26264
# Poissons Ratio (z) = 0.43450 0.26267
#
# Static dielectric constant tensor:
#      x y z
#    x 2.211020 0.078640 -0.005470 
#    y 0.078640 2.117420 -0.033210 
#    z -0.005470 -0.033210 1.935820 
# 
# From -- ./inp_files/454434.got.cif
#   From: 2010.05.17/outbox.cif.g08.bks.cpg/sg2_228_cif.got.tgz:454434.got - 2010.06.03 11:33:40.
