data_PCOD9039837
_publ_section_title
;
Structure prediction by ZEFSAII (Michael W. Deem and Ramdas Pophale) SiO2 
 PCOD9039837
Probable space group: P -1
;
_chemical_formula_sum "Si O2"
_cell_formula_units_Z 12
_cell_length_a 6.356943
_cell_length_b 11.079380
_cell_length_c 12.098523
_cell_angle_alpha 67.185372
_cell_angle_beta 119.609858
_cell_angle_gamma 134.334016
_cell_volume 528.665403
_symmetry_space_group_name_H-M "P -1"
_symmetry_group_IT_number 2
_symmetry_cell_setting 'triclinic'
loop_
_space_group_symop_operation_xyz
x,y,z
-x,-y,-z
loop_
_atom_site_type_symbol
_atom_site_label
_atom_site_fract_x
_atom_site_fract_y
_atom_site_fract_z
Si Si1 0.957903 0.833139 0.537484
Si Si2 0.778509 0.977048 0.057171
Si Si3 0.760850 0.263345 0.486070
Si Si4 0.295909 0.582794 0.127337
Si Si5 0.226565 0.264166 0.248312
Si Si6 0.738254 0.394371 0.635947
O O1 0.990816 0.780800 0.685456
O O2 0.623194 0.695095 0.443502
O O3 0.216741 0.870254 0.510481
O O4 0.000000 0.000000 0.500000
O O5 0.577685 0.778164 0.103733
O O6 0.038408 0.122663 0.156896
O O7 0.500000 0.000000 0.000000
O O8 0.000000 0.000000 0.000000
O O9 0.480249 0.255585 0.371660
O O10 0.784152 0.277515 0.618978
O O11 0.056130 0.434657 0.441921
O O12 0.372808 0.453804 0.185768
O O13 0.192911 0.581594 0.226419
O O14 0.000000 0.500000 0.000000
#
# Coordination Sequence:
#
# PCOD9039837 Si02
#       6
#     2   2   2   2   2   2
#     4  11  23  45  71 107 152 194 251 328 403 463
#     4  12  30  54  77 115 162 210 273 333 391 474
#     4  10  23  42  76 108 147 198 252 333 388 475
#     4  12  26  50  80 109 158 214 266 322 401 477
#     4  11  26  47  76 110 154 202 263 326 392 481
#     4  10  23  42  71 107 146 193 260 310 392 467
#
# _framework density 22.698668000000001
#
# number of rings (size 3 to 8) (size 9 to 14) (size 15 to 20)
#    0.000    1.000    3.333    1.500    9.333    4.667 
#    6.000    0.000    0.000    0.000    0.000    0.000 
#    0.000    0.000    0.000    0.000    0.000    0.000 
#
# Total GULP energy -66863.224014 kJ/mol
# GULP energy per Si atom -5571.935335 kJ/mol
# Density = 2.264701 g / cm^3
# Si number density = 22.698668 Si / 1000 Ang^3
#
#
#
# Elastic Constant Matrix: (Units=GPa)
#
#
# Indices 1 2 3 4 5 6 
#
# 1 143.3821 68.6038 61.6891 12.9755 -28.9192 -12.5850
# 2 68.6038 166.6291 65.6190 3.9052 -10.3890 -8.0282
# 3 61.6891 65.6190 133.8376 37.4637 -27.3747 -12.9033
# 4 12.9755 3.9052 37.4637 43.1882 -8.0618 -8.2662
# 5 -28.9192 -10.3890 -27.3747 -8.0618 37.2981 1.0033
# 6 -12.5850 -8.0282 -12.9033 -8.2662 1.0033 53.4021
#
#
#
# Elastic Compliance Matrix: (Units=1/GPa)
#
#
# Indices 1 2 3 4 5 6 
#
# 1 0.010670 -0.003126 -0.002128 0.000299 0.005866 0.001467
# 2 -0.003126 0.008756 -0.004296 0.003450 -0.002395 0.000121
# 3 -0.002128 -0.004296 0.014744 -0.010574 0.005671 0.000672
# 4 0.000299 0.003450 -0.010574 0.032587 0.000392 0.003071
# 5 0.005866 -0.002395 0.005671 0.000392 0.034890 0.001798
# 6 0.001467 0.000121 0.000672 0.003071 0.001798 0.019693
#
#
# Mechanical properties :
#
#
# Convention : Reuss Voigt Hill
#
# Bulk Modulus (GPa) = 66.35853 92.85251 79.60552
# Shear Modulus (GPa) = 34.37304 43.30683 38.83993
#
# Velocity S-wave (km/s) = 3.89565 4.37269 4.14104
# Velocity P-wave (km/s) = 7.03795 8.15410 7.61650
#
# Compressibility (1/GPa) = 0.01506965
#
# Stress axis : x y z
#
# Youngs Moduli (GPa) = 93.71787 114.21153 67.82622
#
# Poissons Ratio (x) = 0.35699 0.14434
# Poissons Ratio (y) = 0.29293 0.29139
# Poissons Ratio (z) = 0.19944 0.49067
#
# Static dielectric constant tensor:
#      x y z
#    x 2.017930 -0.075260 -0.059280 
#    y -0.075260 1.972110 -0.010650 
#    z -0.059280 -0.010650 1.847350 
# 
# From -- ./inp_files/360702.got.cif
#   From: 2010.05.17/outbox.cif.g08.bks.cpg/sg2_181_cif.got.tgz:360702.got - 2010.06.03 11:33:40.
