data_PCOD9039820
_publ_section_title
;
Structure prediction by ZEFSAII (Michael W. Deem and Ramdas Pophale) SiO2 
 PCOD9039820
Probable space group: P -1
;
_chemical_formula_sum "Si O2"
_cell_formula_units_Z 14
_cell_length_a 9.733305
_cell_length_b 16.847361
_cell_length_c 5.454389
_cell_angle_alpha 93.297892
_cell_angle_beta 90.100148
_cell_angle_gamma 136.103564
_cell_volume 617.913855
_symmetry_space_group_name_H-M "P -1"
_symmetry_group_IT_number 2
_symmetry_cell_setting 'triclinic'
loop_
_space_group_symop_operation_xyz
x,y,z
-x,-y,-z
loop_
_atom_site_type_symbol
_atom_site_label
_atom_site_fract_x
_atom_site_fract_y
_atom_site_fract_z
Si Si1 0.506382 0.952435 0.239030
Si Si2 0.743431 0.788780 0.480948
Si Si3 0.903077 0.307638 0.740583
Si Si4 0.969591 0.422523 0.244863
Si Si5 0.324605 0.412872 0.786185
Si Si6 0.107924 0.996045 0.783097
Si Si7 0.329203 0.578114 0.540946
O O1 0.305215 0.820181 0.243923
O O2 0.697732 0.976919 0.199446
O O3 0.500000 0.000000 0.500000
O O4 0.500000 0.000000 0.000000
O O5 0.690470 0.685500 0.316355
O O6 0.810286 0.895817 0.359242
O O7 0.529853 0.711666 0.591743
O O8 0.934686 0.862554 0.668582
O O9 0.919773 0.340962 0.459060
O O10 0.093191 0.334429 0.827509
O O11 0.902607 0.371674 0.967912
O O12 0.840451 0.445980 0.315309
O O13 0.211122 0.526940 0.274160
O O14 0.362925 0.501691 0.610923
O O15 0.500000 0.500000 0.000000
O O16 0.000000 0.000000 0.000000
#
# Coordination Sequence:
#
# PCOD9039820 Si02
#       7
#     2   2   2   2   2   2   2
#     4  12  28  47  77 108 147 193 260 316 374 439
#     4  11  25  47  72 101 150 183 258 293 382 436
#     4  11  24  44  71 100 147 189 242 300 372 431
#     4  10  23  43  69 104 141 185 238 293 370 451
#     4  11  25  41  72 110 146 192 236 304 379 451
#     4  11  29  48  77 105 146 205 255 313 374 444
#     4  10  23  42  71 104 145 184 237 300 371 443
#
# _framework density 22.656880999999998
#
# number of rings (size 3 to 8) (size 9 to 14) (size 15 to 20)
#    0.000    1.143    0.000    3.857   10.000    8.571 
#    0.000    0.000    0.000    0.000    0.000    0.000 
#    0.000    0.000    0.000    0.000    0.000    0.000 
#
# Total GULP energy -77968.076349 kJ/mol
# GULP energy per Si atom -5569.148311 kJ/mol
# Density = 2.260531 g / cm^3
# Si number density = 22.656881 Si / 1000 Ang^3
#
#
#
# Elastic Constant Matrix: (Units=GPa)
#
#
# Indices 1 2 3 4 5 6 
#
# 1 168.9988 69.8682 56.8549 6.3761 4.6417 17.4559
# 2 69.8682 177.3864 49.5725 14.0728 17.7236 50.4282
# 3 56.8549 49.5725 91.8236 3.3140 17.8631 5.9875
# 4 6.3761 14.0728 3.3140 42.1752 -0.0516 -6.9019
# 5 4.6417 17.7236 17.8631 -0.0516 28.2750 -0.6908
# 6 17.4559 50.4282 5.9875 -6.9019 -0.6908 48.3555
#
#
#
# Elastic Compliance Matrix: (Units=1/GPa)
#
#
# Indices 1 2 3 4 5 6 
#
# 1 0.008291 -0.002289 -0.004452 -0.000142 0.002885 -0.000034
# 2 -0.002289 0.011649 -0.002859 -0.005253 -0.005418 -0.011796
# 3 -0.004452 -0.002859 0.016527 0.000734 -0.007855 0.002535
# 4 -0.000142 -0.005253 0.000734 0.026958 0.003130 0.009331
# 5 0.002885 -0.005418 -0.007855 0.003130 0.043420 0.006648
# 6 -0.000034 -0.011796 0.002535 0.009331 0.006648 0.034106
#
#
# Mechanical properties :
#
#
# Convention : Reuss Voigt Hill
#
# Bulk Modulus (GPa) = 57.91282 87.86667 72.88975
# Shear Modulus (GPa) = 30.13750 41.22203 35.67976
#
# Velocity S-wave (km/s) = 3.65111 4.27008 3.97266
# Velocity P-wave (km/s) = 6.58714 7.94840 7.29957
#
# Compressibility (1/GPa) = 0.01726733
#
# Stress axis : x y z
#
# Youngs Moduli (GPa) = 120.61721 85.84157 60.50845
#
# Poissons Ratio (x) = 0.19648 0.26936
# Poissons Ratio (y) = 0.27608 0.17300
# Poissons Ratio (z) = 0.53694 0.24544
#
# Static dielectric constant tensor:
#      x y z
#    x 1.752980 -0.006170 0.052620 
#    y -0.006170 1.903600 0.071340 
#    z 0.052620 0.071340 2.038530 
# 
# From -- ./inp_files/38795.got.cif
#   From: 2010.05.17/outbox.cif.g08.bks.cpg/sg2_20_cif.got.tgz:38795.got - 2010.06.03 11:33:40.
