data_PCOD9039974
_publ_section_title
;
Structure prediction by ZEFSAII (Michael W. Deem and Ramdas Pophale) SiO2 
 PCOD9039974
Probable space group: P -1
;
_chemical_formula_sum "Si O2"
_cell_formula_units_Z 16
_cell_length_a 21.342522
_cell_length_b 5.192841
_cell_length_c 11.385273
_cell_angle_alpha 74.112476
_cell_angle_beta 147.192447
_cell_angle_gamma 110.674360
_cell_volume 638.987671
_symmetry_space_group_name_H-M "P -1"
_symmetry_group_IT_number 2
_symmetry_cell_setting 'triclinic'
loop_
_space_group_symop_operation_xyz
x,y,z
-x,-y,-z
loop_
_atom_site_type_symbol
_atom_site_label
_atom_site_fract_x
_atom_site_fract_y
_atom_site_fract_z
Si Si1 0.871479 0.109450 0.904212
Si Si2 0.205774 0.174037 0.832461
Si Si3 0.385445 0.725609 0.997159
Si Si4 0.011178 0.363677 0.860493
Si Si5 0.445767 0.012127 0.284256
Si Si6 0.662265 0.288270 0.452265
Si Si7 0.024987 0.778453 0.430600
Si Si8 0.628484 0.834566 0.250939
O O1 0.745425 0.184941 0.690408
O O2 0.931664 0.236710 0.860639
O O3 0.947412 0.311208 0.095831
O O4 0.881317 0.795268 0.954972
O O5 0.270968 0.476756 0.851901
O O6 0.000000 0.500000 0.500000
O O7 0.106647 0.165417 0.776790
O O8 0.312441 0.054215 0.067497
O O9 0.487966 0.699174 0.069539
O O10 0.435820 0.762118 0.205592
O O11 0.125512 0.001951 0.625435
O O12 0.356544 0.011474 0.869610
O O13 0.942823 0.278634 0.643248
O O14 0.537561 0.250018 0.328304
O O15 0.500000 0.000000 0.500000
O O16 0.697222 0.598226 0.418088
O O17 0.656530 0.074971 0.362934
#
# Coordination Sequence:
#
# PCOD9039974 Si02
#       8
#     2   2   2   2   2   2   2   2
#     4  10  23  45  74 107 144 194 242 311 378 449
#     4  11  25  47  71 108 147 195 257 305 381 442
#     4  10  23  45  69 104 146 193 246 308 373 447
#     4  10  24  47  73 102 145 191 254 311 373 439
#     4  11  26  44  70 108 152 198 244 299 376 457
#     4  11  23  43  71 113 149 193 243 305 377 449
#     4  11  27  47  74 107 143 199 258 318 372 438
#     4  10  23  42  73 105 151 189 245 305 371 447
#
# _framework density 25.039605999999999
#
# number of rings (size 3 to 8) (size 9 to 14) (size 15 to 20)
#    0.000    1.500    1.250    1.500    7.000    5.000 
#    4.500    0.000    0.000    0.000    0.000    0.000 
#    0.000    0.000    0.000    0.000    0.000    0.000 
#
# Total GULP energy -89504.651137 kJ/mol
# GULP energy per Si atom -5594.040696 kJ/mol
# Density = 2.498261 g / cm^3
# Si number density = 25.039606 Si / 1000 Ang^3
#
#
#
# Elastic Constant Matrix: (Units=GPa)
#
#
# Indices 1 2 3 4 5 6 
#
# 1 102.5177 57.6779 46.7103 18.3322 -13.3485 -6.8353
# 2 57.6779 125.9411 16.3190 10.3691 -8.6192 15.0400
# 3 46.7103 16.3190 99.6543 14.0015 9.6702 2.1686
# 4 18.3322 10.3691 14.0015 39.5022 -12.0950 0.6462
# 5 -13.3485 -8.6192 9.6702 -12.0950 48.0661 -1.4163
# 6 -6.8353 15.0400 2.1686 0.6462 -1.4163 31.8858
#
#
#
# Elastic Compliance Matrix: (Units=1/GPa)
#
#
# Indices 1 2 3 4 5 6 
#
# 1 0.020317 -0.008740 -0.008446 -0.002645 0.005384 0.009345
# 2 -0.008740 0.012548 0.002338 -0.000223 -0.000939 -0.007989
# 3 -0.008446 0.002338 0.014797 -0.003695 -0.005954 -0.004109
# 4 -0.002645 -0.000223 -0.003695 0.030234 0.007562 -0.000487
# 5 0.005384 -0.000939 -0.005954 0.007562 0.025320 0.002973
# 6 0.009345 -0.007989 -0.004109 -0.000487 0.002973 0.037555
#
#
# Mechanical properties :
#
#
# Convention : Reuss Voigt Hill
#
# Bulk Modulus (GPa) = 55.65956 63.28082 59.47019
# Shear Modulus (GPa) = 28.33577 37.71789 33.02683
#
# Velocity S-wave (km/s) = 3.36763 3.88536 3.63572
# Velocity P-wave (km/s) = 6.11540 6.74204 6.43635
#
# Compressibility (1/GPa) = 0.01796637
#
# Stress axis : x y z
#
# Youngs Moduli (GPa) = 49.21969 79.69348 67.58156
#
# Poissons Ratio (x) = 0.69652 0.57079
# Poissons Ratio (y) = 0.43018 -0.15802
# Poissons Ratio (z) = 0.41571 -0.18634
#
# Static dielectric constant tensor:
#      x y z
#    x 1.892230 -0.061230 -0.000110 
#    y -0.061230 1.969920 -0.054840 
#    z -0.000110 -0.054840 2.080880 
# 
# From -- ./inp_files/468352.got.cif
#   From: 2010.05.17/outbox.cif.g08.bks.cpg/sg2_235_cif.got.tgz:468352.got - 2010.06.03 11:33:40.
