data_PCOD9039952
_publ_section_title
;
Structure prediction by ZEFSAII (Michael W. Deem and Ramdas Pophale) SiO2 
 PCOD9039952
Probable space group: P -1
;
_chemical_formula_sum "Si O2"
_cell_formula_units_Z 13
_cell_length_a 9.587318
_cell_length_b 8.063634
_cell_length_c 15.401109
_cell_angle_alpha 57.712864
_cell_angle_beta 144.972102
_cell_angle_gamma 100.999238
_cell_volume 497.549251
_symmetry_space_group_name_H-M "P -1"
_symmetry_group_IT_number 2
_symmetry_cell_setting 'triclinic'
loop_
_space_group_symop_operation_xyz
x,y,z
-x,-y,-z
loop_
_atom_site_type_symbol
_atom_site_label
_atom_site_fract_x
_atom_site_fract_y
_atom_site_fract_z
Si Si1 0.552741 0.008308 0.702493
Si Si2 0.483649 0.663431 0.644181
Si Si3 0.608575 0.596903 0.177346
Si Si4 0.523559 0.265267 0.123225
Si Si5 0.500000 0.000000 0.000000
Si Si6 0.896259 0.520382 0.742188
Si Si7 0.977475 0.086038 0.804847
O O1 0.553118 0.818506 0.695793
O O2 0.470983 0.949493 0.769855
O O3 0.310352 0.252033 0.477937
O O4 0.849765 0.990104 0.838394
O O5 0.434639 0.503353 0.727706
O O6 0.744463 0.524943 0.751823
O O7 0.230193 0.838371 0.404300
O O8 0.707549 0.363193 0.233288
O O9 0.768799 0.736685 0.236020
O O10 0.456905 0.774860 0.959898
O O11 0.209235 0.473242 0.930405
O O12 0.704763 0.065979 0.024559
O O13 0.940554 0.310392 0.767312
#
# Coordination Sequence:
#
# PCOD9039952 Si02
#       7
#     2   2   2   2   1   2   2
#     4  10  23  42  73 100 128 176 223 275 331 380
#     4  10  23  43  72  97 128 176 222 276 325 391
#     4  10  24  44  61  98 134 175 220 265 332 392
#     4  10  23  45  66  96 135 174 225 268 326 400
#     4  12  26  40  64  98 136 182 210 272 340 386
#     4  11  22  42  68 102 131 172 217 276 334 382
#     4  11  24  43  64 102 135 172 223 271 331 399
#
# _framework density 26.128067000000001
#
# number of rings (size 3 to 8) (size 9 to 14) (size 15 to 20)
#    0.000    1.538    1.538    3.692    6.462    4.923 
#    2.769    2.308    0.000    0.000    0.000    0.000 
#    0.000    0.000    0.000    0.000    0.000    0.000 
#
# Total GULP energy -72375.062547 kJ/mol
# GULP energy per Si atom -5567.312504 kJ/mol
# Density = 2.606860 g / cm^3
# Si number density = 26.128067 Si / 1000 Ang^3
#
#
#
# Elastic Constant Matrix: (Units=GPa)
#
#
# Indices 1 2 3 4 5 6 
#
# 1 217.0817 285.7562 67.1036 -206.7113 68.1511 -112.5390
# 2 285.7562 -632.2226 97.1851 312.5220 -199.1184 431.7606
# 3 67.1036 97.1851 91.2446 -77.7296 18.8185 -19.5224
# 4 -206.7113 312.5220 -77.7296 -74.2423 78.0314 -213.1429
# 5 68.1511 -199.1184 18.8185 78.0314 11.8464 102.6821
# 6 -112.5390 431.7606 -19.5224 -213.1429 102.6821 -171.6580
#
#
#
# Elastic Compliance Matrix: (Units=1/GPa)
#
#
# Indices 1 2 3 4 5 6 
#
# 1 0.005115 0.001751 -0.003571 0.003105 0.000972 -0.001816
# 2 0.001751 0.005906 -0.000225 0.007578 0.000351 0.004532
# 3 -0.003571 -0.000225 0.015553 0.003048 0.000764 -0.003320
# 4 0.003105 0.007578 0.003048 0.017490 0.005358 -0.001833
# 5 0.000972 0.000351 0.000764 0.005358 0.016897 0.003612
# 6 -0.001816 0.004532 -0.003320 -0.001833 0.003612 0.011578
#
#
# Mechanical properties :
#
#
# Convention : Reuss Voigt Hill
#
# Bulk Modulus (GPa) = 44.47508 64.02149 54.24829
# Shear Modulus (GPa) = 59.43617 -98.40686 -19.48534
#
# Velocity S-wave (km/s) = 4.77466 -6.14370 -2.73383
# Velocity P-wave (km/s) = 6.88879 5.07647 3.29279
#
# Compressibility (1/GPa) = 0.02248450
#
# Stress axis : x y z
#
# Youngs Moduli (GPa) = 195.50564 169.32890 64.29433
#
# Poissons Ratio (x) = -0.29651 0.22960
# Poissons Ratio (y) = -0.34234 0.01445
# Poissons Ratio (z) = 0.69816 0.03807
#
# Static dielectric constant tensor:
#      x y z
#    x 2.467890 -0.710520 0.420990 
#    y -0.710520 3.027710 -0.945340 
#    z 0.420990 -0.945340 2.662160 
# 
# From -- ./inp_files/555048.got.cif
#   From: 2010.05.17/outbox.cif.g08.bks.cpg/sg2_278_cif.got.tgz:555048.got - 2010.06.03 11:33:40.
