data_PCOD9039908
_publ_section_title
;
Structure prediction by ZEFSAII (Michael W. Deem and Ramdas Pophale) SiO2 
 PCOD9039908
Probable space group: P -1
;
_chemical_formula_sum "Si O2"
_cell_formula_units_Z 16
_cell_length_a 11.169025
_cell_length_b 15.919525
_cell_length_c 5.188171
_cell_angle_alpha 118.942835
_cell_angle_beta 78.059193
_cell_angle_gamma 124.005325
_cell_volume 666.626223
_symmetry_space_group_name_H-M "P -1"
_symmetry_group_IT_number 2
_symmetry_cell_setting 'triclinic'
loop_
_space_group_symop_operation_xyz
x,y,z
-x,-y,-z
loop_
_atom_site_type_symbol
_atom_site_label
_atom_site_fract_x
_atom_site_fract_y
_atom_site_fract_z
Si Si1 0.057660 0.623947 0.773425
Si Si2 0.848180 0.050507 0.251789
Si Si3 0.395739 0.750559 0.753289
Si Si4 0.988298 0.696008 0.419958
Si Si5 0.424514 0.538207 0.385046
Si Si6 0.724055 0.666972 0.183891
Si Si7 0.126688 0.083624 0.378403
Si Si8 0.455705 0.092763 0.591710
O O1 0.228385 0.710071 0.779358
O O2 0.000000 0.500000 0.500000
O O3 0.986586 0.670531 0.681646
O O4 0.021928 0.626913 0.092919
O O5 0.873908 0.173986 0.464736
O O6 0.021271 0.096761 0.246443
O O7 0.720376 0.972377 0.396259
O O8 0.802887 0.973246 0.899285
O O9 0.385359 0.630229 0.605991
O O10 0.475305 0.832475 0.589479
O O11 0.478754 0.820613 0.072066
O O12 0.832636 0.669182 0.351979
O O13 0.500000 0.500000 0.500000
O O14 0.556412 0.611434 0.240175
O O15 0.294026 0.422658 0.153560
O O16 0.781008 0.799431 0.332987
O O17 0.000000 0.000000 0.500000
O O18 0.500000 0.000000 0.500000
#
# Coordination Sequence:
#
# PCOD9039908 Si02
#       8
#     2   2   2   2   2   2   2   2
#     4  12  26  47  74 104 145 191 251 310 376 441
#     4  10  24  42  68 105 142 191 238 304 376 439
#     4  12  28  47  76 110 149 200 254 309 381 455
#     4  11  26  45  76 106 145 191 248 313 373 454
#     4  11  27  46  75 105 154 202 250 313 375 459
#     4  10  25  45  70 109 144 193 254 307 381 445
#     4  10  23  42  72 104 144 188 248 309 374 444
#     4  12  27  48  76 108 154 196 250 310 381 459
#
# _framework density 24.001456000000001
#
# number of rings (size 3 to 8) (size 9 to 14) (size 15 to 20)
#    0.000    1.000    0.000    4.500   14.000    2.000 
#    0.000    0.000    0.000    0.000    0.000    0.000 
#    0.000    0.000    0.000    0.000    0.000    0.000 
#
# Total GULP energy -89159.718695 kJ/mol
# GULP energy per Si atom -5572.482418 kJ/mol
# Density = 2.394683 g / cm^3
# Si number density = 24.001456 Si / 1000 Ang^3
#
#
#
# Elastic Constant Matrix: (Units=GPa)
#
#
# Indices 1 2 3 4 5 6 
#
# 1 83.8471 11.1121 28.1329 5.4892 12.1634 13.9486
# 2 11.1121 78.8336 60.0337 19.0175 17.3333 23.9939
# 3 28.1329 60.0337 125.7614 32.6223 -1.0336 2.7026
# 4 5.4892 19.0175 32.6223 53.6249 3.5803 -4.1338
# 5 12.1634 17.3333 -1.0336 3.5803 37.9695 0.3327
# 6 13.9486 23.9939 2.7026 -4.1338 0.3327 50.8366
#
#
#
# Elastic Compliance Matrix: (Units=1/GPa)
#
#
# Indices 1 2 3 4 5 6 
#
# 1 0.015652 0.006890 -0.006717 0.000044 -0.008284 -0.007132
# 2 0.006890 0.034804 -0.017227 -0.002705 -0.018156 -0.017503
# 3 -0.006717 -0.017227 0.018807 -0.004715 0.010898 0.008519
# 4 0.000044 -0.002705 -0.004715 0.022804 -0.001087 0.003377
# 5 -0.008284 -0.018156 0.010898 -0.001087 0.037591 0.009928
# 6 -0.007132 -0.017503 0.008519 0.003377 0.009928 0.029645
#
#
# Mechanical properties :
#
#
# Convention : Reuss Voigt Hill
#
# Bulk Modulus (GPa) = 28.44386 54.11105 41.27745
# Shear Modulus (GPa) = 24.37479 41.09711 32.73595
#
# Velocity S-wave (km/s) = 3.19023 4.14245 3.69713
# Velocity P-wave (km/s) = 5.04448 6.74342 5.95485
#
# Compressibility (1/GPa) = 0.03515698
#
# Stress axis : x y z
#
# Youngs Moduli (GPa) = 63.88860 28.73221 53.17145
#
# Poissons Ratio (x) = -0.19797 0.35713
# Poissons Ratio (y) = -0.44020 0.91597
# Poissons Ratio (z) = 0.42912 0.49496
#
# Static dielectric constant tensor:
#      x y z
#    x 1.776930 -0.243330 0.045190 
#    y -0.243330 1.083560 0.259090 
#    z 0.045190 0.259090 1.892940 
# 
# From -- ./inp_files/81691.got.cif
#   From: 2010.05.17/outbox.cif.g08.bks.cpg/sg2_41_cif.got.tgz:81691.got - 2010.06.03 11:33:40.
