data_PCOD9039913
_publ_section_title
;
Structure prediction by ZEFSAII (Michael W. Deem and Ramdas Pophale) SiO2 
 PCOD9039913
Probable space group: P -1
;
_chemical_formula_sum "Si O2"
_cell_formula_units_Z 14
_cell_length_a 4.904526
_cell_length_b 7.060912
_cell_length_c 25.915202
_cell_angle_alpha 61.817985
_cell_angle_beta 50.044973
_cell_angle_gamma 45.356970
_cell_volume 489.106569
_symmetry_space_group_name_H-M "P -1"
_symmetry_group_IT_number 2
_symmetry_cell_setting 'triclinic'
loop_
_space_group_symop_operation_xyz
x,y,z
-x,-y,-z
loop_
_atom_site_type_symbol
_atom_site_label
_atom_site_fract_x
_atom_site_fract_y
_atom_site_fract_z
Si Si1 0.850749 0.878039 0.110952
Si Si2 0.178894 0.018345 0.782889
Si Si3 0.562824 0.534749 0.653515
Si Si4 0.304529 0.597315 0.455291
Si Si5 0.211042 0.535162 0.802577
Si Si6 0.465772 0.981938 0.368079
Si Si7 0.026336 0.705126 0.004180
O O1 0.295103 0.708143 0.207893
O O2 0.089689 0.564576 0.136784
O O3 0.704336 0.853356 0.073866
O O4 0.016715 0.056376 0.052440
O O5 0.338411 0.014481 0.821602
O O6 0.491369 0.989029 0.702161
O O7 0.112985 0.787163 0.812441
O O8 0.412227 0.520469 0.616973
O O9 0.253080 0.560391 0.733408
O O10 0.049304 0.267412 0.639316
O O11 0.599296 0.775562 0.624875
O O12 0.500000 0.500000 0.500000
O O13 0.140176 0.902256 0.431518
O O14 0.000000 0.500000 0.500000
O O15 0.500000 0.500000 0.000000
O O16 0.000000 0.500000 0.000000
#
# Coordination Sequence:
#
# PCOD9039913 Si02
#       7
#     2   2   2   2   2   2   2
#     4  11  25  40  71 100 144 182 242 294 352 428
#     4  10  23  42  72 105 139 183 238 297 363 424
#     4  10  23  46  70 104 145 186 237 300 361 425
#     4  12  25  46  73 106 144 195 246 293 356 432
#     4  10  23  42  72 105 139 183 238 297 363 424
#     4  10  23  46  70 104 145 186 237 300 361 425
#     4  11  28  47  70 102 145 194 237 291 356 426
#
# _framework density 28.623615000000001
#
# number of rings (size 3 to 8) (size 9 to 14) (size 15 to 20)
#    0.000    1.429    1.429    1.714    8.000    3.429 
#    0.000    8.571    0.000    0.000    0.000    0.000 
#    0.000    0.000    0.000    0.000    0.000    0.000 
#
# Total GULP energy -78403.536439 kJ/mol
# GULP energy per Si atom -5600.252603 kJ/mol
# Density = 2.855847 g / cm^3
# Si number density = 28.623615 Si / 1000 Ang^3
#
#
#
# Elastic Constant Matrix: (Units=GPa)
#
#
# Indices 1 2 3 4 5 6 
#
# 1 175.1252 79.7696 63.2497 -2.8543 38.1035 39.6604
# 2 79.7696 227.4017 85.3674 -23.7738 24.4661 34.6929
# 3 63.2497 85.3674 195.5019 -9.8808 32.5958 37.5128
# 4 -2.8543 -23.7738 -9.8808 72.0909 14.4837 -6.3769
# 5 38.1035 24.4661 32.5958 14.4837 48.4345 12.0009
# 6 39.6604 34.6929 37.5128 -6.3769 12.0009 66.9983
#
#
#
# Elastic Compliance Matrix: (Units=1/GPa)
#
#
# Indices 1 2 3 4 5 6 
#
# 1 0.008401 -0.001737 -0.000605 0.000375 -0.004730 -0.002852
# 2 -0.001737 0.006048 -0.001680 0.001801 -0.000891 -0.000832
# 3 -0.000605 -0.001680 0.007001 0.000828 -0.003126 -0.002053
# 4 0.000375 0.001801 0.000828 0.016071 -0.006850 0.001138
# 5 -0.004730 -0.000891 -0.003126 -0.006850 0.029185 -0.000868
# 6 -0.002852 -0.000832 -0.002053 0.001138 -0.000868 0.018459
#
#
# Mechanical properties :
#
#
# Convention : Reuss Voigt Hill
#
# Bulk Modulus (GPa) = 74.58194 117.20024 95.89109
# Shear Modulus (GPa) = 51.18910 62.14754 56.66832
#
# Velocity S-wave (km/s) = 4.23348 4.66467 4.45429
# Velocity P-wave (km/s) = 7.07171 8.36937 7.74776
#
# Compressibility (1/GPa) = 0.01340807
#
# Stress axis : x y z
#
# Youngs Moduli (GPa) = 119.03509 165.33056 142.82921
#
# Poissons Ratio (x) = 0.28712 0.08636
# Poissons Ratio (y) = 0.20672 0.23996
# Poissons Ratio (z) = 0.07198 0.27776
#
# Static dielectric constant tensor:
#      x y z
#    x 2.346340 -0.128500 -0.192750 
#    y -0.128500 2.235610 0.062780 
#    z -0.192750 0.062780 2.283760 
# 
# From -- ./inp_files/10484.got.cif
#   From: 2010.05.17/outbox.cif.g08.bks.cpg/sg2_6_cif.got.tgz:10484.got - 2010.06.03 11:33:40.
