data_PCOD9039822
_publ_section_title
;
Structure prediction by ZEFSAII (Michael W. Deem and Ramdas Pophale) SiO2 
 PCOD9039822
Probable space group: P -1
;
_chemical_formula_sum "Si O2"
_cell_formula_units_Z 16
_cell_length_a 5.202936
_cell_length_b 13.031361
_cell_length_c 10.942965
_cell_angle_alpha 110.536801
_cell_angle_beta 63.467928
_cell_angle_gamma 100.732582
_cell_volume 621.236063
_symmetry_space_group_name_H-M "P -1"
_symmetry_group_IT_number 2
_symmetry_cell_setting 'triclinic'
loop_
_space_group_symop_operation_xyz
x,y,z
-x,-y,-z
loop_
_atom_site_type_symbol
_atom_site_label
_atom_site_fract_x
_atom_site_fract_y
_atom_site_fract_z
Si Si1 0.861187 0.226027 0.828368
Si Si2 0.698077 0.620398 0.777436
Si Si3 0.238637 0.715172 0.367834
Si Si4 0.310065 0.207939 0.335331
Si Si5 0.317143 0.601400 0.536903
Si Si6 0.966462 0.404889 0.065179
Si Si7 0.492019 0.025574 0.865761
Si Si8 0.662485 0.923764 0.338624
O O1 0.843116 0.317601 0.765473
O O2 0.048312 0.127357 0.694985
O O3 0.588633 0.153367 0.896676
O O4 0.984908 0.288376 0.944484
O O5 0.715432 0.745008 0.776005
O O6 0.362961 0.588406 0.814147
O O7 0.981098 0.579101 0.628775
O O8 0.789094 0.595834 0.885012
O O9 0.361353 0.625714 0.393842
O O10 0.458218 0.814984 0.336119
O O11 0.967937 0.760499 0.516013
O O12 0.564765 0.284115 0.376401
O O13 0.340893 0.078893 0.266791
O O14 0.500000 0.500000 0.500000
O O15 0.000000 0.500000 0.000000
O O16 0.273785 0.030289 0.793463
O O17 0.500000 0.000000 0.000000
O O18 0.500000 0.000000 0.500000
#
# Coordination Sequence:
#
# PCOD9039822 Si02
#       8
#     2   2   2   2   2   2   2   2
#     4  11  26  45  71 107 151 199 267 309 389 476
#     4  11  26  51  76 111 153 196 261 319 388 463
#     4  10  23  42  71 104 147 197 252 310 389 455
#     4  11  23  46  72 109 152 198 247 320 388 464
#     4  11  25  46  78 112 153 198 257 328 395 469
#     4  12  28  51  78 106 153 206 260 320 387 462
#     4  11  25  42  72 107 147 200 259 318 391 464
#     4  11  23  44  70 106 152 198 259 322 386 473
#
# _framework density 25.755102999999998
#
# number of rings (size 3 to 8) (size 9 to 14) (size 15 to 20)
#    0.000    1.000    1.250    4.125    5.250    8.500 
#    2.250    0.000    0.000    0.000    0.000    0.000 
#    0.000    0.000    0.000    0.000    0.000    0.000 
#
# Total GULP energy -89265.856294 kJ/mol
# GULP energy per Si atom -5579.116018 kJ/mol
# Density = 2.569648 g / cm^3
# Si number density = 25.755103 Si / 1000 Ang^3
#
#
#
# Elastic Constant Matrix: (Units=GPa)
#
#
# Indices 1 2 3 4 5 6 
#
# 1 82.3190 23.8239 27.0376 -14.2976 0.4915 -21.0380
# 2 23.8239 108.1659 33.2909 -10.1277 8.6009 -15.1205
# 3 27.0376 33.2909 114.7416 -9.2941 11.2536 -12.5937
# 4 -14.2976 -10.1277 -9.2941 60.3788 -12.8055 11.6367
# 5 0.4915 8.6009 11.2536 -12.8055 48.9186 -12.8594
# 6 -21.0380 -15.1205 -12.5937 11.6367 -12.8594 41.9909
#
#
#
# Elastic Compliance Matrix: (Units=1/GPa)
#
#
# Indices 1 2 3 4 5 6 
#
# 1 0.015600 -0.001738 -0.002548 0.002377 0.003125 0.006724
# 2 -0.001738 0.010733 -0.002385 0.000505 -0.000681 0.001930
# 3 -0.002548 -0.002385 0.010231 0.000125 -0.001783 0.000352
# 4 0.002377 0.000505 0.000125 0.018571 0.004065 -0.002491
# 5 0.003125 -0.000681 -0.001783 0.004065 0.023834 0.006958
# 6 0.006724 0.001930 0.000352 -0.002491 0.006958 0.030806
#
#
# Mechanical properties :
#
#
# Convention : Reuss Voigt Hill
#
# Bulk Modulus (GPa) = 43.05937 52.61460 47.83699
# Shear Modulus (GPa) = 38.20938 44.99592 41.60265
#
# Velocity S-wave (km/s) = 3.85589 4.18433 4.02346
# Velocity P-wave (km/s) = 6.04805 6.61951 6.34022
#
# Compressibility (1/GPa) = 0.02322375
#
# Stress axis : x y z
#
# Youngs Moduli (GPa) = 64.10123 93.16908 97.73934
#
# Poissons Ratio (x) = 0.16191 0.24901
# Poissons Ratio (y) = 0.11140 0.23311
# Poissons Ratio (z) = 0.16331 0.22221
#
# Static dielectric constant tensor:
#      x y z
#    x 2.255150 0.057380 -0.008750 
#    y 0.057380 2.001670 -0.038500 
#    z -0.008750 -0.038500 2.160810 
# 
# From -- ./inp_files/364710.got.cif
#   From: 2010.05.17/outbox.cif.g08.bks.cpg/sg2_183_cif.got.tgz:364710.got - 2010.06.03 11:33:40.
