data_PCOD9039671
_publ_section_title
;
Structure prediction by ZEFSAII (Michael W. Deem and Ramdas Pophale) SiO2 
 PCOD9039671
Probable space group: P -1
;
_chemical_formula_sum "Si O2"
_cell_formula_units_Z 15
_cell_length_a 9.375048
_cell_length_b 8.379764
_cell_length_c 15.259848
_cell_angle_alpha 78.271666
_cell_angle_beta 49.935454
_cell_angle_gamma 108.820957
_cell_volume 715.185122
_symmetry_space_group_name_H-M "P -1"
_symmetry_group_IT_number 2
_symmetry_cell_setting 'triclinic'
loop_
_space_group_symop_operation_xyz
x,y,z
-x,-y,-z
loop_
_atom_site_type_symbol
_atom_site_label
_atom_site_fract_x
_atom_site_fract_y
_atom_site_fract_z
Si Si1 0.424042 0.133807 0.291719
Si Si2 0.933624 0.309261 0.602758
Si Si3 0.801017 0.768398 0.273203
Si Si4 0.000000 0.000000 0.000000
Si Si5 0.648136 0.458096 0.008298
Si Si6 0.071996 0.722927 0.922388
Si Si7 0.365706 0.308247 0.468973
Si Si8 0.752656 0.214162 0.870268
O O1 0.495502 0.299032 0.166521
O O2 0.656914 0.154371 0.219952
O O3 0.352125 0.187825 0.402778
O O4 0.227058 0.908141 0.358714
O O5 0.797017 0.295426 0.744795
O O6 0.000000 0.500000 0.500000
O O7 0.174669 0.348962 0.528347
O O8 0.618599 0.526983 0.351108
O O9 0.701379 0.800813 0.397382
O O10 0.052044 0.820406 0.188432
O O11 0.831677 0.904968 0.164615
O O12 0.028102 0.817055 0.011075
O O13 0.500000 0.500000 0.000000
O O14 0.749116 0.361813 0.922234
O O15 0.872830 0.668434 0.937092
O O16 0.000000 0.500000 0.000000
O O17 0.500000 0.000000 0.000000
#
# Coordination Sequence:
#
# PCOD9039671 Si02
#       8
#     2   2   2   1   2   2   2   2
#     4  11  22  45  68  94 143 179 225 287 346 407
#     4  11  26  41  66  98 132 184 228 275 343 413
#     4  10  23  42  70 100 128 181 224 281 344 409
#     4  12  24  40  78  98 136 172 240 276 346 412
#     4  11  24  39  68 105 135 172 232 291 346 409
#     4  10  24  43  66 105 138 178 225 290 354 401
#     4  10  23  45  68  90 140 179 220 277 350 408
#     4  11  23  44  67  94 140 171 226 294 345 397
#
# _framework density 20.973590000000002
#
# number of rings (size 3 to 8) (size 9 to 14) (size 15 to 20)
#    0.000    1.333    1.333    4.400    5.600    0.000 
#    2.400    0.667    0.000    0.000    0.000    0.000 
#    0.000    0.000    0.000    0.000    0.000    0.000 
#
# Total GULP energy -83551.934859 kJ/mol
# GULP energy per Si atom -5570.128991 kJ/mol
# Density = 2.092585 g / cm^3
# Si number density = 20.973590 Si / 1000 Ang^3
#
#
#
# Elastic Constant Matrix: (Units=GPa)
#
#
# Indices 1 2 3 4 5 6 
#
# 1 83.3624 -7.4278 44.4374 -12.3727 3.0514 -0.3001
# 2 -7.4278 55.2119 37.6364 14.5256 15.7593 -3.4454
# 3 44.4374 37.6364 150.2167 4.8332 26.3905 8.3399
# 4 -12.3727 14.5256 4.8332 44.2835 13.6207 -7.1059
# 5 3.0514 15.7593 26.3905 13.6207 53.3975 2.8744
# 6 -0.3001 -3.4454 8.3399 -7.1059 2.8744 30.0975
#
#
#
# Elastic Compliance Matrix: (Units=1/GPa)
#
#
# Indices 1 2 3 4 5 6 
#
# 1 0.016813 0.006192 -0.006743 0.004244 -0.000744 0.003818
# 2 0.006192 0.026882 -0.008083 -0.004405 -0.003420 0.004666
# 3 -0.006743 -0.008083 0.011355 -0.000327 -0.002544 -0.003973
# 4 0.004244 -0.004405 -0.000327 0.028321 -0.006378 0.006924
# 5 -0.000744 -0.003420 -0.002544 -0.006378 0.022845 -0.003382
# 6 0.003818 0.004666 -0.003973 0.006924 -0.003382 0.036856
#
#
# Mechanical properties :
#
#
# Convention : Reuss Voigt Hill
#
# Bulk Modulus (GPa) = 26.46795 48.67589 37.57192
# Shear Modulus (GPa) = 28.91290 39.83204 34.37247
#
# Velocity S-wave (km/s) = 3.71690 4.36265 4.05266
# Velocity P-wave (km/s) = 5.57382 6.97392 6.31281
#
# Compressibility (1/GPa) = 0.03778154
#
# Stress axis : x y z
#
# Youngs Moduli (GPa) = 59.47852 37.20023 88.06662
#
# Poissons Ratio (x) = -0.23036 0.59383
# Poissons Ratio (y) = -0.36832 0.71188
# Poissons Ratio (z) = 0.40106 0.30071
#
# Static dielectric constant tensor:
#      x y z
#    x 2.318670 -0.336680 0.522220 
#    y -0.336680 2.016560 -0.354200 
#    z 0.522220 -0.354200 2.151500 
# 
# From -- ./inp_files/294660.got.cif
#   From: 2010.05.17/outbox.cif.g08.bks.cpg/sg2_148_cif.got.tgz:294660.got - 2010.06.03 11:33:40.
