data_PCOD9039720
_publ_section_title
;
Structure prediction by ZEFSAII (Michael W. Deem and Ramdas Pophale) SiO2 
 PCOD9039720
Probable space group: P -1
;
_chemical_formula_sum "Si O2"
_cell_formula_units_Z 14
_cell_length_a 7.223252
_cell_length_b 22.325677
_cell_length_c 8.708822
_cell_angle_alpha 143.488679
_cell_angle_beta 111.155677
_cell_angle_gamma 48.252891
_cell_volume 573.390711
_symmetry_space_group_name_H-M "P -1"
_symmetry_group_IT_number 2
_symmetry_cell_setting 'triclinic'
loop_
_space_group_symop_operation_xyz
x,y,z
-x,-y,-z
loop_
_atom_site_type_symbol
_atom_site_label
_atom_site_fract_x
_atom_site_fract_y
_atom_site_fract_z
Si Si1 0.225185 0.971411 0.615966
Si Si2 0.195372 0.221008 0.770950
Si Si3 0.939393 0.506909 0.675387
Si Si4 0.701190 0.113480 0.198841
Si Si5 0.746917 0.510864 0.903837
Si Si6 0.737665 0.308145 0.624305
Si Si7 0.794009 0.801406 0.906251
O O1 0.505294 0.882215 0.421203
O O2 0.302332 0.885079 0.615408
O O3 0.107275 0.120566 0.942597
O O4 0.000000 0.000000 0.500000
O O5 0.009759 0.205627 0.594003
O O6 0.207469 0.199478 0.911428
O O7 0.035833 0.383444 0.039802
O O8 0.086580 0.347443 0.421087
O O9 0.000000 0.500000 0.500000
O O10 0.675579 0.568795 0.827716
O O11 0.629212 0.246933 0.381692
O O12 0.504502 0.098107 0.045116
O O13 0.000000 0.000000 0.000000
O O14 0.806250 0.372318 0.657480
O O15 0.498470 0.599833 0.130204
O O16 0.000000 0.500000 0.000000
#
# Coordination Sequence:
#
# PCOD9039720 Si02
#       7
#     2   2   2   2   2   2   2
#     4  12  26  47  74 102 140 200 245 293 362 436
#     4  11  23  47  72 102 145 189 245 291 355 446
#     4  10  23  42  70 105 145 182 230 303 362 416
#     4  12  26  43  67 106 144 183 246 302 362 427
#     4  11  22  43  72 102 148 188 241 289 357 440
#     4  11  25  41  76 106 139 196 242 291 363 432
#     4  11  25  44  70 101 146 185 235 307 361 419
#
# _framework density 24.416159
#
# number of rings (size 3 to 8) (size 9 to 14) (size 15 to 20)
#    0.000    0.857    1.429    5.143    6.000    0.000 
#    0.000    3.571    0.000    0.000    0.000    0.000 
#    0.000    0.000    0.000    0.000    0.000    0.000 
#
# Total GULP energy -77954.306610 kJ/mol
# GULP energy per Si atom -5568.164758 kJ/mol
# Density = 2.436059 g / cm^3
# Si number density = 24.416159 Si / 1000 Ang^3
#
#
#
# Elastic Constant Matrix: (Units=GPa)
#
#
# Indices 1 2 3 4 5 6 
#
# 1 144.8709 44.5114 25.4014 -6.1604 9.0271 9.8043
# 2 44.5114 71.6900 -7.4587 -3.4113 9.8084 12.1191
# 3 25.4014 -7.4587 76.8817 18.9005 25.1638 4.0597
# 4 -6.1604 -3.4113 18.9005 23.9885 3.3919 -5.3790
# 5 9.0271 9.8084 25.1638 3.3919 57.4687 -4.5731
# 6 9.8043 12.1191 4.0597 -5.3790 -4.5731 57.0403
#
#
#
# Elastic Compliance Matrix: (Units=1/GPa)
#
#
# Indices 1 2 3 4 5 6 
#
# 1 0.010362 -0.007266 -0.006539 0.006706 0.002162 0.001034
# 2 -0.007266 0.020622 0.007896 -0.005370 -0.005891 -0.004673
# 3 -0.006539 0.007896 0.024294 -0.019359 -0.010208 -0.004927
# 4 0.006706 -0.005370 -0.019359 0.058774 0.005455 0.007346
# 5 0.002162 -0.005891 -0.010208 0.005455 0.022527 0.003927
# 6 0.001034 -0.004673 -0.004927 0.007346 0.003927 0.019705
#
#
# Mechanical properties :
#
#
# Convention : Reuss Voigt Hill
#
# Bulk Modulus (GPa) = 23.00955 46.48340 34.74648
# Shear Modulus (GPa) = 27.38399 43.09873 35.24136
#
# Velocity S-wave (km/s) = 3.35259 4.20595 3.80328
# Velocity P-wave (km/s) = 4.94276 6.53192 5.79210
#
# Compressibility (1/GPa) = 0.04346021
#
# Stress axis : x y z
#
# Youngs Moduli (GPa) = 96.50527 48.49190 41.16239
#
# Poissons Ratio (x) = 0.35232 0.26918
# Poissons Ratio (y) = 0.70116 -0.32502
# Poissons Ratio (z) = 0.63109 -0.38289
#
# Static dielectric constant tensor:
#      x y z
#    x 1.851740 0.033500 0.018640 
#    y 0.033500 2.048540 0.087310 
#    z 0.018640 0.087310 2.085500 
# 
# From -- ./inp_files/140920.got.cif
#   From: 2010.05.17/outbox.cif.g08.bks.cpg/sg2_71_cif.got.tgz:140920.got - 2010.06.03 11:33:40.
