data_PCOD9039245
_publ_section_title
;
Structure prediction by ZEFSAII (Michael W. Deem and Ramdas Pophale) SiO2 
 PCOD9039245
Probable space group: P -1
;
_chemical_formula_sum "Si O2"
_cell_formula_units_Z 14
_cell_length_a 5.236447
_cell_length_b 11.384742
_cell_length_c 19.201928
_cell_angle_alpha 34.066959
_cell_angle_beta 106.945192
_cell_angle_gamma 119.682711
_cell_volume 540.252339
_symmetry_space_group_name_H-M "P -1"
_symmetry_group_IT_number 2
_symmetry_cell_setting 'triclinic'
loop_
_space_group_symop_operation_xyz
x,y,z
-x,-y,-z
loop_
_atom_site_type_symbol
_atom_site_label
_atom_site_fract_x
_atom_site_fract_y
_atom_site_fract_z
Si Si1 0.066601 0.892007 0.990118
Si Si2 0.581379 0.773058 0.889669
Si Si3 0.301513 0.674519 0.213602
Si Si4 0.549811 0.824817 0.288343
Si Si5 0.300937 0.577209 0.529420
Si Si6 0.868300 0.783125 0.648671
Si Si7 0.460975 0.064816 0.340325
O O1 0.824147 0.834987 0.939362
O O2 0.393091 0.078277 0.895374
O O3 0.080051 0.673443 0.135546
O O4 0.000000 0.000000 0.000000
O O5 0.681108 0.908208 0.757331
O O6 0.370887 0.895549 0.839254
O O7 0.500000 0.500000 0.000000
O O8 0.236658 0.700093 0.277190
O O9 0.315876 0.442401 0.304848
O O10 0.547448 0.740085 0.409142
O O11 0.686717 0.668053 0.337753
O O12 0.000000 0.500000 0.500000
O O13 0.338644 0.784124 0.484179
O O14 0.173921 0.807806 0.697468
O O15 0.650555 0.814085 0.670700
O O16 0.000000 0.000000 0.500000
#
# Coordination Sequence:
#
# PCOD9039245 Si02
#       7
#     2   2   2   2   2   2   2
#     4  11  25  48  71 111 145 203 266 313 392 462
#     4  11  25  45  79 111 159 198 256 334 394 467
#     4  11  26  43  78 100 152 202 263 317 380 475
#     4  10  23  42  67 107 136 195 253 300 382 452
#     4  10  24  41  72  98 148 192 250 317 376 461
#     4  12  28  50  76 116 158 208 255 323 398 473
#     4  11  28  48  74 115 155 204 263 319 398 460
#
# _framework density 25.913813999999999
#
# number of rings (size 3 to 8) (size 9 to 14) (size 15 to 20)
#    0.000    1.143    1.429    2.143   16.000    0.000 
#    0.000    2.143    0.000    0.000    0.000    0.000 
#    0.000    0.000    0.000    0.000    0.000    0.000 
#
# Total GULP energy -78049.249053 kJ/mol
# GULP energy per Si atom -5574.946361 kJ/mol
# Density = 2.585483 g / cm^3
# Si number density = 25.913814 Si / 1000 Ang^3
#
#
#
# Elastic Constant Matrix: (Units=GPa)
#
#
# Indices 1 2 3 4 5 6 
#
# 1 85.1161 30.0883 12.5407 -15.8005 21.8342 -16.0420
# 2 30.0883 163.2146 39.0977 -11.4251 16.6458 -18.3854
# 3 12.5407 39.0977 124.7640 -8.6803 45.9000 -12.7712
# 4 -15.8005 -11.4251 -8.6803 68.9621 -13.9916 11.6335
# 5 21.8342 16.6458 45.9000 -13.9916 33.7479 3.5443
# 6 -16.0420 -18.3854 -12.7712 11.6335 3.5443 43.3640
#
#
#
# Elastic Compliance Matrix: (Units=1/GPa)
#
#
# Indices 1 2 3 4 5 6 
#
# 1 0.019976 -0.002005 0.009851 -0.002169 -0.027521 0.012272
# 2 -0.002005 0.007129 -0.002048 0.000310 0.000531 0.001551
# 3 0.009851 -0.002048 0.024640 -0.006294 -0.043086 0.015243
# 4 -0.002169 0.000310 -0.006294 0.018521 0.018435 -0.009000
# 5 -0.027521 0.000531 -0.043086 0.018435 0.117323 -0.037180
# 6 0.012272 0.001551 0.015243 -0.009000 -0.037180 0.038201
#
#
# Mechanical properties :
#
#
# Convention : Reuss Voigt Hill
#
# Bulk Modulus (GPa) = 15.78742 59.61643 37.70193
# Shear Modulus (GPa) = 21.24862 48.63934 34.94398
#
# Velocity S-wave (km/s) = 2.86662 4.33710 3.67613
# Velocity P-wave (km/s) = 4.13064 6.93802 5.70957
#
# Compressibility (1/GPa) = 0.06334158
#
# Stress axis : x y z
#
# Youngs Moduli (GPa) = 50.05972 140.26659 40.58396
#
# Poissons Ratio (x) = 0.28121 -0.39977
# Poissons Ratio (y) = 0.10036 0.08311
# Poissons Ratio (z) = -0.49312 0.28723
#
# Static dielectric constant tensor:
#      x y z
#    x 2.177880 -0.053770 -0.120630 
#    y -0.053770 2.287340 0.291180 
#    z -0.120630 0.291180 2.582310 
# 
# From -- ./inp_files/583222.got.cif
#   From: 2010.05.17/outbox.cif.g08.bks.cpg/sg2_292_cif.got.tgz:583222.got - 2010.06.03 11:33:40.
