data_PCOD9039990
_publ_section_title
;
Structure prediction by ZEFSAII (Michael W. Deem and Ramdas Pophale) SiO2 
 PCOD9039990
Probable space group: P -1
;
_chemical_formula_sum "Si O2"
_cell_formula_units_Z 8
_cell_length_a 8.123387
_cell_length_b 5.031923
_cell_length_c 7.822138
_cell_angle_alpha 80.850698
_cell_angle_beta 69.387740
_cell_angle_gamma 88.268195
_cell_volume 295.349028
_symmetry_space_group_name_H-M "P -1"
_symmetry_group_IT_number 2
_symmetry_cell_setting 'triclinic'
loop_
_space_group_symop_operation_xyz
x,y,z
-x,-y,-z
loop_
_atom_site_type_symbol
_atom_site_label
_atom_site_fract_x
_atom_site_fract_y
_atom_site_fract_z
Si Si1 0.630707 0.445268 0.298549
Si Si2 0.783786 0.045959 0.487906
Si Si3 0.993103 0.781257 0.171550
Si Si4 0.699869 0.486275 0.746397
O O1 0.500000 0.500000 0.500000
O O2 0.821137 0.591081 0.223171
O O3 0.512001 0.553425 0.175124
O O4 0.670168 0.130847 0.351251
O O5 0.957791 0.946795 0.342013
O O6 0.717637 0.797558 0.652983
O O7 0.776990 0.310894 0.578585
O O8 0.170445 0.611336 0.142569
O O9 0.000000 0.000000 0.000000
#
# Coordination Sequence:
#
# PCOD9039990 Si02
#       4
#     2   2   2   2
#     4  10  23  42  73  97 131 172 233 268 324 394
#     4  11  22  45  71 101 126 179 228 271 320 403
#     4  12  27  44  66 104 141 172 216 281 339 387
#     4  11  25  43  74  98 129 178 230 269 323 398
#
# _framework density 27.086601000000002
#
# number of rings (size 3 to 8) (size 9 to 14) (size 15 to 20)
#    0.000    1.000    5.000    2.250    7.000    2.000 
#    0.000    1.250    0.000    0.000    0.000    0.000 
#    0.000    0.000    0.000    0.000    0.000    0.000 
#
# Total GULP energy -44697.501978 kJ/mol
# GULP energy per Si atom -5587.187747 kJ/mol
# Density = 2.702495 g / cm^3
# Si number density = 27.086601 Si / 1000 Ang^3
#
#
#
# Elastic Constant Matrix: (Units=GPa)
#
#
# Indices 1 2 3 4 5 6 
#
# 1 279.9606 70.8391 52.6445 -41.9277 12.0968 -60.9222
# 2 70.8391 122.5675 33.1741 -34.9866 7.1826 -24.8442
# 3 52.6445 33.1741 64.4839 -24.3493 13.6457 -2.9701
# 4 -41.9277 -34.9866 -24.3493 65.7076 -8.9116 11.8937
# 5 12.0968 7.1826 13.6457 -8.9116 40.2410 -8.9413
# 6 -60.9222 -24.8442 -2.9701 11.8937 -8.9413 72.6365
#
#
#
# Elastic Compliance Matrix: (Units=1/GPa)
#
#
# Indices 1 2 3 4 5 6 
#
# 1 0.005520 -0.001195 -0.003522 0.000969 0.000857 0.004024
# 2 -0.001195 0.011234 -0.003507 0.003634 0.000838 0.002205
# 3 -0.003522 -0.003507 0.022936 0.004399 -0.006162 -0.004695
# 4 0.000969 0.003634 0.004399 0.019785 0.001775 -0.000786
# 5 0.000857 0.000838 -0.006162 0.001775 0.027789 0.003883
# 6 0.004024 0.002205 -0.004695 -0.000786 0.003883 0.018311
#
#
# Mechanical properties :
#
#
# Convention : Reuss Voigt Hill
#
# Bulk Modulus (GPa) = 43.02683 86.70302 64.86493
# Shear Modulus (GPa) = 38.52926 56.40728 47.46827
#
# Velocity S-wave (km/s) = 3.77563 4.56837 4.19078
# Velocity P-wave (km/s) = 5.90987 7.73988 6.88594
#
# Compressibility (1/GPa) = 0.02324131
#
# Stress axis : x y z
#
# Youngs Moduli (GPa) = 181.14497 89.01653 43.59931
#
# Poissons Ratio (x) = 0.10640 0.15356
# Poissons Ratio (y) = 0.21652 0.15291
# Poissons Ratio (z) = 0.63802 0.31219
#
# Static dielectric constant tensor:
#      x y z
#    x 2.429270 0.054150 0.183700 
#    y 0.054150 2.097980 0.055680 
#    z 0.183700 0.055680 2.188220 
# 
# From -- ./inp_files/16310.got.cif
#   From: 2010.05.17/outbox.cif.g08.bks.cpg/sg2_9_cif.got.tgz:16310.got - 2010.06.03 11:33:40.
