data_PCOD9039999
_publ_section_title
;
Structure prediction by ZEFSAII (Michael W. Deem and Ramdas Pophale) SiO2 
 PCOD9039999
Probable space group: P -1
;
_chemical_formula_sum "Si O2"
_cell_formula_units_Z 16
_cell_length_a 17.923161
_cell_length_b 9.191631
_cell_length_c 6.025642
_cell_angle_alpha 128.948605
_cell_angle_beta 107.197748
_cell_angle_gamma 80.981008
_cell_volume 736.936432
_symmetry_space_group_name_H-M "P -1"
_symmetry_group_IT_number 2
_symmetry_cell_setting 'triclinic'
loop_
_space_group_symop_operation_xyz
x,y,z
-x,-y,-z
loop_
_atom_site_type_symbol
_atom_site_label
_atom_site_fract_x
_atom_site_fract_y
_atom_site_fract_z
Si Si1 0.295102 0.221543 0.269322
Si Si2 0.213403 0.825666 0.845788
Si Si3 0.032765 0.806090 0.774890
Si Si4 0.232195 0.533328 0.229914
Si Si5 0.507659 0.226950 0.736058
Si Si6 0.327841 0.558796 0.935891
Si Si7 0.455819 0.195148 0.159528
Si Si8 0.938577 0.512028 0.152634
O O1 0.236115 0.360716 0.236393
O O2 0.328779 0.357041 0.624122
O O3 0.364067 0.169996 0.111680
O O4 0.251781 0.029653 0.119171
O O5 0.119656 0.828134 0.771033
O O6 0.233640 0.734988 0.540545
O O7 0.254293 0.678700 0.903593
O O8 0.045460 0.663249 0.847627
O O9 0.965011 0.705012 0.474875
O O10 0.000000 0.000000 0.000000
O O11 0.309429 0.527268 0.145328
O O12 0.151086 0.499438 0.002056
O O13 0.485105 0.284596 0.512963
O O14 0.500000 0.000000 0.500000
O O15 0.594993 0.315596 0.923644
O O16 0.468913 0.274495 0.992514
O O17 0.500000 0.000000 0.000000
O O18 0.000000 0.500000 0.000000
#
# Coordination Sequence:
#
# PCOD9039999 Si02
#       8
#     2   2   2   2   2   2   2   2
#     4  11  28  43  73 103 142 180 242 292 359 437
#     4  11  24  46  67 102 139 185 231 292 360 426
#     4  11  26  41  71 101 138 184 237 287 353 431
#     4  11  26  45  69 102 139 185 233 293 360 428
#     4  10  23  42  73  99 141 187 244 291 367 435
#     4  11  26  46  70 101 141 187 231 296 362 428
#     4  10  23  45  70 104 139 192 236 304 362 437
#     4  11  24  47  67  97 143 182 230 293 350 418
#
# _framework density 21.711507000000001
#
# number of rings (size 3 to 8) (size 9 to 14) (size 15 to 20)
#    0.000    1.250    2.500    1.500   12.250    3.500 
#    0.000    0.000    0.000    0.000    0.000    0.000 
#    0.000    0.000    0.000    0.000    0.000    0.000 
#
# Total GULP energy -89212.436110 kJ/mol
# GULP energy per Si atom -5575.777257 kJ/mol
# Density = 2.166209 g / cm^3
# Si number density = 21.711507 Si / 1000 Ang^3
#
#
#
# Elastic Constant Matrix: (Units=GPa)
#
#
# Indices 1 2 3 4 5 6 
#
# 1 70.0684 -12.5511 56.2377 15.4203 -0.3226 34.8345
# 2 -12.5511 -16.5211 103.0201 35.5372 7.6239 46.8529
# 3 56.2377 103.0201 105.6337 9.3440 -12.7122 -14.5774
# 4 15.4203 35.5372 9.3440 45.9534 -3.8008 -11.5476
# 5 -0.3226 7.6239 -12.7122 -3.8008 39.2381 -10.3220
# 6 34.8345 46.8529 -14.5774 -11.5476 -10.3220 16.2821
#
#
#
# Elastic Compliance Matrix: (Units=1/GPa)
#
#
# Indices 1 2 3 4 5 6 
#
# 1 0.013041 -0.008084 0.000705 0.001314 0.001470 -0.002144
# 2 -0.008084 0.003858 0.002460 0.002670 0.003536 0.012530
# 3 0.000705 0.002460 0.005963 -0.005398 -0.001110 -0.007780
# 4 0.001314 0.002670 -0.005398 0.019845 -0.000797 -0.001760
# 5 0.001470 0.003536 -0.001110 -0.000797 0.024555 0.000690
# 6 -0.002144 0.012530 -0.007780 -0.001760 0.000690 0.022173
#
#
# Mechanical properties :
#
#
# Convention : Reuss Voigt Hill
#
# Bulk Modulus (GPa) = 76.77861 50.28829 63.53345
# Shear Modulus (GPa) = 48.25642 21.12633 34.69138
#
# Velocity S-wave (km/s) = 4.71958 3.12276 4.00163
# Velocity P-wave (km/s) = 8.07088 6.01785 7.11876
#
# Compressibility (1/GPa) = 0.01302446
#
# Stress axis : x y z
#
# Youngs Moduli (GPa) = 76.68092 259.20832 167.70674
#
# Poissons Ratio (x) = 2.09532 -0.11830
# Poissons Ratio (y) = 0.61985 -0.41248
# Poissons Ratio (z) = -0.05409 -0.63753
#
# Static dielectric constant tensor:
#      x y z
#    x 1.744370 0.003630 -0.023330 
#    y 0.003630 1.803560 -0.073830 
#    z -0.023330 -0.073830 1.787640 
# 
# From -- ./inp_files/106130.got.cif
#   From: 2010.05.17/outbox.cif.g08.bks.cpg/sg2_54_cif.got.tgz:106130.got - 2010.06.03 11:33:40.
