data_PCOD9039081
_publ_section_title
;
Structure prediction by ZEFSAII (Michael W. Deem and Ramdas Pophale) SiO2 
 PCOD9039081
Probable space group: P -1
;
_chemical_formula_sum "Si O2"
_cell_formula_units_Z 13
_cell_length_a 8.794044
_cell_length_b 7.481477
_cell_length_c 13.960269
_cell_angle_alpha 60.268530
_cell_angle_beta 128.946706
_cell_angle_gamma 133.824393
_cell_volume 512.343983
_symmetry_space_group_name_H-M "P -1"
_symmetry_group_IT_number 2
_symmetry_cell_setting 'triclinic'
loop_
_space_group_symop_operation_xyz
x,y,z
-x,-y,-z
loop_
_atom_site_type_symbol
_atom_site_label
_atom_site_fract_x
_atom_site_fract_y
_atom_site_fract_z
Si Si1 0.349663 0.838364 0.892456
Si Si2 0.500000 0.000000 0.500000
Si Si3 0.220674 0.364075 0.055904
Si Si4 0.978499 0.256435 0.516443
Si Si5 0.486524 0.514075 0.677500
Si Si6 0.250913 0.898542 0.154991
Si Si7 0.869669 0.574899 0.682728
O O1 0.077726 0.741021 0.797603
O O2 0.492153 0.988817 0.814942
O O3 0.337939 0.582071 0.965165
O O4 0.500000 0.000000 0.000000
O O5 0.722011 0.042471 0.508441
O O6 0.513559 0.237141 0.390154
O O7 0.357493 0.483735 0.175680
O O8 0.236622 0.129601 0.110859
O O9 0.943297 0.252480 0.965649
O O10 0.000000 0.500000 0.500000
O O11 0.213854 0.283232 0.642263
O O12 0.033925 0.296087 0.415004
O O13 0.624106 0.519526 0.636733
O O14 0.180391 0.703185 0.264903
#
# Coordination Sequence:
#
# PCOD9039081 Si02
#       7
#     2   1   2   2   2   2   2
#     4  11  23  40  68 105 145 186 228 289 352 424
#     4  10  26  46  66  98 136 188 238 290 352 414
#     4  10  23  42  66 105 140 187 236 284 353 423
#     4  10  25  45  69 100 137 183 238 294 352 419
#     4  11  24  43  70 102 141 183 235 294 352 421
#     4  10  23  42  69 101 144 186 235 290 348 423
#     4  11  25  44  72 106 143 184 239 291 354 424
#
# _framework density 25.373577999999998
#
# number of rings (size 3 to 8) (size 9 to 14) (size 15 to 20)
#    0.000    1.538    0.000    2.769    8.615    6.769 
#    0.000    0.000    0.000    0.000    0.000    0.000 
#    0.000    0.000    0.000    0.000    0.000    0.000 
#
# Total GULP energy -72441.329085 kJ/mol
# GULP energy per Si atom -5572.409930 kJ/mol
# Density = 2.531583 g / cm^3
# Si number density = 25.373578 Si / 1000 Ang^3
#
#
#
# Elastic Constant Matrix: (Units=GPa)
#
#
# Indices 1 2 3 4 5 6 
#
# 1 108.0033 36.9280 24.1440 17.9171 15.2665 46.0586
# 2 36.9280 103.8784 40.4848 -15.2172 7.3359 18.6604
# 3 24.1440 40.4848 76.4423 0.5543 0.4627 16.2242
# 4 17.9171 -15.2172 0.5543 52.0505 0.8209 7.1505
# 5 15.2665 7.3359 0.4627 0.8209 38.6762 -9.4667
# 6 46.0586 18.6604 16.2242 7.1505 -9.4667 58.4395
#
#
#
# Elastic Compliance Matrix: (Units=1/GPa)
#
#
# Indices 1 2 3 4 5 6 
#
# 1 0.019650 -0.004101 -0.000752 -0.005733 -0.010512 -0.014971
# 2 -0.004101 0.014625 -0.006355 0.005860 -0.001353 -0.000610
# 3 -0.000752 -0.006355 0.017069 -0.001550 0.000895 -0.001782
# 4 -0.005733 0.005860 -0.001550 0.022846 0.000785 0.000409
# 5 -0.010512 -0.001353 0.000895 0.000785 0.033617 0.013819
# 6 -0.014971 -0.000610 -0.001782 0.000409 0.013819 0.031789
#
#
# Mechanical properties :
#
#
# Convention : Reuss Voigt Hill
#
# Bulk Modulus (GPa) = 34.56797 54.60418 44.58607
# Shear Modulus (GPa) = 29.12820 42.28439 35.70630
#
# Velocity S-wave (km/s) = 3.39185 4.08667 3.75537
# Velocity P-wave (km/s) = 5.38449 6.62078 6.03438
#
# Compressibility (1/GPa) = 0.02892852
#
# Stress axis : x y z
#
# Youngs Moduli (GPa) = 50.88935 68.37769 58.58515
#
# Poissons Ratio (x) = 0.28038 0.04407
# Poissons Ratio (y) = 0.20867 0.37232
# Poissons Ratio (z) = 0.03828 0.43455
#
# Static dielectric constant tensor:
#      x y z
#    x 1.802580 -0.033940 0.239320 
#    y -0.033940 2.091260 0.014580 
#    z 0.239320 0.014580 1.664850 
# 
# From -- ./inp_files/492178.got.cif
#   From: 2010.05.17/outbox.cif.g08.bks.cpg/sg2_247_cif.got.tgz:492178.got - 2010.06.03 11:33:40.
