data_PCOD9039642
_publ_section_title
;
Structure prediction by ZEFSAII (Michael W. Deem and Ramdas Pophale) SiO2 
 PCOD9039642
Probable space group: P -1
;
_chemical_formula_sum "Si O2"
_cell_formula_units_Z 16
_cell_length_a 8.585608
_cell_length_b 16.989549
_cell_length_c 8.844027
_cell_angle_alpha 100.814563
_cell_angle_beta 127.532849
_cell_angle_gamma 116.928034
_cell_volume 688.722439
_symmetry_space_group_name_H-M "P -1"
_symmetry_group_IT_number 2
_symmetry_cell_setting 'triclinic'
loop_
_space_group_symop_operation_xyz
x,y,z
-x,-y,-z
loop_
_atom_site_type_symbol
_atom_site_label
_atom_site_fract_x
_atom_site_fract_y
_atom_site_fract_z
Si Si1 0.345896 0.330611 0.107519
Si Si2 0.518969 0.947322 0.633442
Si Si3 0.823482 0.554461 0.075516
Si Si4 0.786332 0.333673 0.373455
Si Si5 0.432492 0.680777 0.044290
Si Si6 0.692378 0.131211 0.217265
Si Si7 0.435428 0.750547 0.369433
Si Si8 0.046272 0.192217 0.169540
O O1 0.619000 0.362520 0.346121
O O2 0.111081 0.257343 0.074379
O O3 0.355212 0.424104 0.087764
O O4 0.329008 0.272916 0.921587
O O5 0.270964 0.881197 0.589695
O O6 0.495971 0.852984 0.518152
O O7 0.500000 0.000000 0.500000
O O8 0.813662 0.055788 0.934239
O O9 0.954958 0.609421 0.341452
O O10 0.107043 0.630345 0.167529
O O11 0.645991 0.420826 0.942120
O O12 0.595602 0.195672 0.199607
O O13 0.831483 0.372396 0.240200
O O14 0.494896 0.767874 0.231875
O O15 0.927091 0.204353 0.249285
O O16 0.500000 0.000000 0.000000
O O17 0.662673 0.759367 0.581972
#
# Coordination Sequence:
#
# PCOD9039642 Si02
#       8
#     2   2   2   2   2   2   2   2
#     4  10  24  43  70 101 135 181 234 280 348 403
#     4  11  24  43  71  99 135 185 224 280 353 409
#     4  12  22  46  71  97 144 183 232 295 338 403
#     4  10  23  43  70  97 136 180 231 275 356 395
#     4  10  26  43  68 102 138 182 239 285 344 401
#     4  10  23  42  69  98 135 178 226 281 343 409
#     4  12  24  43  66 101 141 183 227 287 342 414
#     4  11  24  43  69 101 139 181 229 281 345 418
#
# _framework density 23.231418999999999
#
# number of rings (size 3 to 8) (size 9 to 14) (size 15 to 20)
#    0.750    0.500    2.500    2.250    7.000    1.000 
#    0.000    1.875    0.000    0.000    0.000    0.000 
#    0.000    0.000    0.000    0.000    0.000    0.000 
#
# Total GULP energy -89133.293344 kJ/mol
# GULP energy per Si atom -5570.830834 kJ/mol
# Density = 2.317854 g / cm^3
# Si number density = 23.231419 Si / 1000 Ang^3
#
#
#
# Elastic Constant Matrix: (Units=GPa)
#
#
# Indices 1 2 3 4 5 6 
#
# 1 125.2331 59.9804 38.6882 -25.8853 -29.2628 21.6200
# 2 59.9804 113.0727 29.0502 -23.1562 -1.0289 5.4226
# 3 38.6882 29.0502 44.8535 -6.0992 -5.3122 10.7139
# 4 -25.8853 -23.1562 -6.0992 26.3658 3.8378 -10.1069
# 5 -29.2628 -1.0289 -5.3122 3.8378 43.3466 -13.2003
# 6 21.6200 5.4226 10.7139 -10.1069 -13.2003 40.9081
#
#
#
# Elastic Compliance Matrix: (Units=1/GPa)
#
#
# Indices 1 2 3 4 5 6 
#
# 1 0.017399 -0.004880 -0.009309 0.008941 0.009437 -0.000857
# 2 -0.004880 0.014212 -0.004987 0.008151 -0.003401 0.002917
# 3 -0.009309 -0.004987 0.033590 -0.007627 -0.003509 -0.006233
# 4 0.008941 0.008151 -0.007627 0.055847 0.003762 0.011204
# 5 0.009437 -0.003401 -0.003509 0.003762 0.030805 0.007252
# 6 -0.000857 0.002917 -0.006233 0.011204 0.007252 0.031252
#
#
# Mechanical properties :
#
#
# Convention : Reuss Voigt Hill
#
# Bulk Modulus (GPa) = 37.24423 59.84408 48.54415
# Shear Modulus (GPa) = 21.70072 32.48680 27.09376
#
# Velocity S-wave (km/s) = 3.05964 3.74357 3.41875
# Velocity P-wave (km/s) = 5.34308 6.67096 6.04360
#
# Compressibility (1/GPa) = 0.02684980
#
# Stress axis : x y z
#
# Youngs Moduli (GPa) = 57.47399 70.36285 29.77058
#
# Poissons Ratio (x) = 0.34337 0.27713
# Poissons Ratio (y) = 0.28047 0.14846
# Poissons Ratio (z) = 0.53502 0.35089
#
# Static dielectric constant tensor:
#      x y z
#    x 1.919360 0.032150 0.017750 
#    y 0.032150 1.920000 0.007070 
#    z 0.017750 0.007070 1.922910 
# 
# From -- ./inp_files/217739.got.cif
#   From: 2010.05.17/outbox.cif.g08.bks.cpg/sg2_109_cif.got.tgz:217739.got - 2010.06.03 11:33:40.
