data_PCOD9039401
_publ_section_title
;
Structure prediction by ZEFSAII (Michael W. Deem and Ramdas Pophale) SiO2 
 PCOD9039401
Probable space group: P -1
;
_chemical_formula_sum "Si O2"
_cell_formula_units_Z 16
_cell_length_a 23.593851
_cell_length_b 14.979935
_cell_length_c 5.563799
_cell_angle_alpha 93.445854
_cell_angle_beta 91.713322
_cell_angle_gamma 19.509895
_cell_volume 653.428422
_symmetry_space_group_name_H-M "P -1"
_symmetry_group_IT_number 2
_symmetry_cell_setting 'triclinic'
loop_
_space_group_symop_operation_xyz
x,y,z
-x,-y,-z
loop_
_atom_site_type_symbol
_atom_site_label
_atom_site_fract_x
_atom_site_fract_y
_atom_site_fract_z
Si Si1 0.839208 0.000490 0.216446
Si Si2 0.957152 0.730270 0.582373
Si Si3 0.665703 0.422616 0.069084
Si Si4 0.187813 0.489702 0.957979
Si Si5 0.427924 0.207826 0.574105
Si Si6 0.797076 0.312805 0.571987
Si Si7 0.266167 0.026053 0.039006
Si Si8 0.251381 0.229788 0.202195
O O1 0.711563 0.251708 0.099204
O O2 0.846231 0.977201 0.498772
O O3 0.800683 0.956216 0.123846
O O4 0.026324 0.760918 0.136421
O O5 0.088431 0.579868 0.757938
O O6 0.078670 0.504920 0.365548
O O7 0.831503 0.846914 0.703415
O O8 0.717061 0.389124 0.328844
O O9 0.466920 0.723494 0.040304
O O10 0.757620 0.325523 0.826988
O O11 0.306722 0.381419 0.820690
O O12 0.294046 0.258995 0.080729
O O13 0.305089 0.439098 0.402507
O O14 0.500000 0.000000 0.500000
O O15 0.595123 0.015585 0.633270
O O16 0.000000 0.000000 0.500000
O O17 0.226651 0.187560 0.001340
#
# Coordination Sequence:
#
# PCOD9039401 Si02
#       8
#     2   2   2   2   2   2   2   2
#     4  10  25  44  71  99 143 200 246 312 369 456
#     4  10  23  42  69 101 145 195 243 304 380 444
#     4  12  28  49  78 109 151 194 262 305 379 448
#     4  10  23  42  68 103 142 190 245 305 381 443
#     4  12  25  44  77 108 146 194 251 316 374 455
#     4  12  30  52  80 113 156 202 248 317 379 458
#     4  11  25  43  68 108 145 195 250 310 373 444
#     4  11  23  43  68 107 145 194 243 310 378 452
#
# _framework density 24.486232999999999
#
# number of rings (size 3 to 8) (size 9 to 14) (size 15 to 20)
#    0.000    1.000    2.500    2.250    8.750    7.000 
#    0.000    0.000    0.000    0.000    0.000    0.000 
#    0.000    0.000    0.000    0.000    0.000    0.000 
#
# Total GULP energy -89396.497012 kJ/mol
# GULP energy per Si atom -5587.281063 kJ/mol
# Density = 2.443050 g / cm^3
# Si number density = 24.486233 Si / 1000 Ang^3
#
#
#
# Elastic Constant Matrix: (Units=GPa)
#
#
# Indices 1 2 3 4 5 6 
#
# 1 61.0028 30.2149 24.9903 8.1749 -0.7419 -2.0416
# 2 30.2149 99.7096 24.5482 -14.4949 -4.9154 -15.0631
# 3 24.9903 24.5482 70.5413 -20.0387 7.4384 -5.5899
# 4 8.1749 -14.4949 -20.0387 21.9628 3.2309 -8.1402
# 5 -0.7419 -4.9154 7.4384 3.2309 30.0559 -2.2127
# 6 -2.0416 -15.0631 -5.5899 -8.1402 -2.2127 48.4195
#
#
#
# Elastic Compliance Matrix: (Units=1/GPa)
#
#
# Indices 1 2 3 4 5 6 
#
# 1 0.047546 -0.018496 -0.032521 -0.068191 0.012172 -0.018412
# 2 -0.018496 0.019753 0.010820 0.034767 -0.002733 0.012334
# 3 -0.032521 0.010820 0.044695 0.069091 -0.016194 0.018030
# 4 -0.068191 0.034767 0.069091 0.177629 -0.028918 0.044458
# 5 0.012172 -0.002733 -0.016194 -0.028918 0.039855 -0.005247
# 6 -0.018412 0.012334 0.018030 0.044458 -0.005247 0.033030
#
#
# Mechanical properties :
#
#
# Convention : Reuss Voigt Hill
#
# Bulk Modulus (GPa) = 31.64492 43.41782 37.53137
# Shear Modulus (GPa) = 11.02696 30.18765 20.60731
#
# Velocity S-wave (km/s) = 2.12441 3.51499 2.90416
# Velocity P-wave (km/s) = 4.35535 5.85180 5.15813
#
# Compressibility (1/GPa) = 0.03160065
#
# Stress axis : x y z
#
# Youngs Moduli (GPa) = 21.03207 50.62625 22.37398
#
# Poissons Ratio (x) = 0.93637 0.72763
# Poissons Ratio (y) = 0.38900 -0.24210
# Poissons Ratio (z) = 0.68399 -0.54780
#
# Static dielectric constant tensor:
#      x y z
#    x 1.986490 0.098040 0.044670 
#    y 0.098040 1.935540 0.032170 
#    z 0.044670 0.032170 2.012500 
# 
# From -- ./inp_files/70870.got.cif
#   From: 2010.05.17/outbox.cif.g08.bks.cpg/sg2_36_cif.got.tgz:70870.got - 2010.06.03 11:33:40.
