data_PCOD9039904
_publ_section_title
;
Structure prediction by ZEFSAII (Michael W. Deem and Ramdas Pophale) SiO2 
 PCOD9039904
Probable space group: P -1
;
_chemical_formula_sum "Si O2"
_cell_formula_units_Z 14
_cell_length_a 11.246768
_cell_length_b 5.411581
_cell_length_c 12.293487
_cell_angle_alpha 72.889734
_cell_angle_beta 118.113992
_cell_angle_gamma 104.760348
_cell_volume 624.712411
_symmetry_space_group_name_H-M "P -1"
_symmetry_group_IT_number 2
_symmetry_cell_setting 'triclinic'
loop_
_space_group_symop_operation_xyz
x,y,z
-x,-y,-z
loop_
_atom_site_type_symbol
_atom_site_label
_atom_site_fract_x
_atom_site_fract_y
_atom_site_fract_z
Si Si1 0.622090 0.449575 0.138014
Si Si2 0.660342 0.257472 0.386102
Si Si3 0.335742 0.987451 0.932947
Si Si4 0.088006 0.387954 0.232118
Si Si5 0.894429 0.153457 0.995371
Si Si6 0.954496 0.284448 0.418209
Si Si7 0.354562 0.335806 0.483096
O O1 0.559314 0.323413 0.239005
O O2 0.705125 0.268777 0.123899
O O3 0.697119 0.737234 0.163316
O O4 0.500000 0.500000 0.000000
O O5 0.793603 0.245770 0.372011
O O6 0.687342 0.492842 0.453980
O O7 0.624397 0.965244 0.452098
O O8 0.257402 0.959888 0.017371
O O9 0.500000 0.000000 0.000000
O O10 0.235860 0.323343 0.342680
O O11 0.975769 0.203575 0.138079
O O12 0.013756 0.403219 0.314353
O O13 0.118118 0.618237 0.126396
O O14 0.000000 0.000000 0.000000
O O15 0.000000 0.500000 0.500000
O O16 0.000000 0.000000 0.500000
O O17 0.500000 0.500000 0.500000
#
# Coordination Sequence:
#
# PCOD9039904 Si02
#       7
#     2   2   2   2   2   2   2
#     4  10  23  42  72 103 145 181 243 306 368 435
#     4  12  24  46  72 107 138 193 246 311 372 437
#     4  10  23  46  71 107 146 191 249 303 368 446
#     4  11  27  49  72 111 152 196 255 307 392 448
#     4  11  28  46  78 109 157 203 244 318 386 464
#     4  12  24  44  77 105 143 189 250 311 367 441
#     4  12  28  49  72 105 149 198 254 308 377 457
#
# _framework density 22.410311
#
# number of rings (size 3 to 8) (size 9 to 14) (size 15 to 20)
#    0.000    0.857    2.857    2.143   10.000    4.571 
#    2.571    0.000    0.000    0.000    0.000    0.000 
#    0.000    0.000    0.000    0.000    0.000    0.000 
#
# Total GULP energy -77942.551241 kJ/mol
# GULP energy per Si atom -5567.325089 kJ/mol
# Density = 2.235930 g / cm^3
# Si number density = 22.410311 Si / 1000 Ang^3
#
#
#
# Elastic Constant Matrix: (Units=GPa)
#
#
# Indices 1 2 3 4 5 6 
#
# 1 129.7756 12.5416 27.4977 8.4743 -14.3205 4.0425
# 2 12.5416 124.2078 33.3809 -2.4201 -9.8342 -24.4005
# 3 27.4977 33.3809 148.6725 7.0927 -8.2846 -6.0214
# 4 8.4743 -2.4201 7.0927 9.2921 -8.1368 -2.1790
# 5 -14.3205 -9.8342 -8.2846 -8.1368 26.9844 10.4610
# 6 4.0425 -24.4005 -6.0214 -2.1790 10.4610 38.6638
#
#
#
# Elastic Compliance Matrix: (Units=1/GPa)
#
#
# Indices 1 2 3 4 5 6 
#
# 1 0.008857 -0.000997 -0.001093 -0.005007 0.003653 -0.002996
# 2 -0.000997 0.010336 -0.002169 0.009349 0.003070 0.005986
# 3 -0.001093 -0.002169 0.007657 -0.006160 -0.000803 -0.000192
# 4 -0.005007 0.009349 -0.006160 0.160501 0.046510 0.001926
# 5 0.003653 0.003070 -0.000803 0.046510 0.058455 -0.011764
# 6 -0.002996 0.005986 -0.000192 0.001926 -0.011764 0.033216
#
#
# Mechanical properties :
#
#
# Convention : Reuss Voigt Hill
#
# Bulk Modulus (GPa) = 54.55285 61.05514 57.80400
# Shear Modulus (GPa) = 17.02708 36.93711 26.98210
#
# Velocity S-wave (km/s) = 2.75942 4.06423 3.47364
# Velocity P-wave (km/s) = 5.87776 7.02334 6.47593
#
# Compressibility (1/GPa) = 0.01833085
#
# Stress axis : x y z
#
# Youngs Moduli (GPa) = 112.90503 96.75227 130.60498
#
# Poissons Ratio (x) = 0.09651 0.14277
# Poissons Ratio (y) = 0.11262 0.28324
# Poissons Ratio (z) = 0.12342 0.20982
#
# Static dielectric constant tensor:
#      x y z
#    x 2.599350 0.319860 -0.322140 
#    y 0.319860 2.124070 -0.256630 
#    z -0.322140 -0.256630 2.173070 
# 
# From -- ./inp_files/410349.got.cif
#   From: 2010.05.17/outbox.cif.g08.bks.cpg/sg2_206_cif.got.tgz:410349.got - 2010.06.03 11:33:40.
