data_PCOD9039690
_publ_section_title
;
Structure prediction by ZEFSAII (Michael W. Deem and Ramdas Pophale) SiO2 
 PCOD9039690
Probable space group: P -1
;
_chemical_formula_sum "Si O2"
_cell_formula_units_Z 16
_cell_length_a 12.546195
_cell_length_b 11.280667
_cell_length_c 12.753451
_cell_angle_alpha 32.739027
_cell_angle_beta 134.129785
_cell_angle_gamma 124.383391
_cell_volume 699.633492
_symmetry_space_group_name_H-M "P -1"
_symmetry_group_IT_number 2
_symmetry_cell_setting 'triclinic'
loop_
_space_group_symop_operation_xyz
x,y,z
-x,-y,-z
loop_
_atom_site_type_symbol
_atom_site_label
_atom_site_fract_x
_atom_site_fract_y
_atom_site_fract_z
Si Si1 0.673050 0.562703 0.069981
Si Si2 0.130823 0.011572 0.495985
Si Si3 0.156181 0.494318 0.169062
Si Si4 0.661856 0.375329 0.991878
Si Si5 0.941391 0.247393 0.558406
Si Si6 0.197883 0.036583 0.019823
Si Si7 0.828966 0.455259 0.621506
Si Si8 0.602878 0.831303 0.126809
O O1 0.721100 0.793177 0.977133
O O2 0.779241 0.379660 0.342824
O O3 0.500000 0.500000 0.000000
O O4 0.700035 0.561975 0.962181
O O5 0.067433 0.947898 0.387517
O O6 0.204472 0.239399 0.388973
O O7 0.255221 0.829928 0.744289
O O8 0.000000 0.000000 0.500000
O O9 0.271448 0.609506 0.089636
O O10 0.124826 0.574655 0.204077
O O11 0.000000 0.500000 0.000000
O O12 0.493798 0.316472 0.905753
O O13 0.031844 0.136885 0.800623
O O14 0.047939 0.432038 0.447888
O O15 0.287173 0.039663 0.967964
O O16 0.206651 0.789585 0.254048
O O17 0.696458 0.643945 0.394126
O O18 0.500000 0.000000 0.000000
#
# Coordination Sequence:
#
# PCOD9039690 Si02
#       8
#     2   2   2   2   2   2   2   2
#     4  11  23  48  70  94 134 185 235 278 335 404
#     4  11  20  37  64  97 133 171 211 268 340 406
#     4  12  21  36  64  98 136 164 210 273 335 401
#     4  11  24  40  64  94 131 173 224 272 330 402
#     4  10  23  42  70 101 131 176 229 280 340 401
#     4  11  24  44  72  94 134 183 227 284 336 390
#     4  11  24  41  67 105 136 169 227 276 339 413
#     4  11  24  42  65  99 138 177 215 270 347 411
#
# _framework density 22.869118
#
# number of rings (size 3 to 8) (size 9 to 14) (size 15 to 20)
#    0.000    1.000    3.750    3.375    1.750    3.500 
#    0.000    5.625    0.000    0.000    0.000    0.000 
#    0.000    0.000    0.000    0.000    0.000    0.000 
#
# Total GULP energy -89374.973375 kJ/mol
# GULP energy per Si atom -5585.935836 kJ/mol
# Density = 2.281707 g / cm^3
# Si number density = 22.869118 Si / 1000 Ang^3
#
#
#
# Elastic Constant Matrix: (Units=GPa)
#
#
# Indices 1 2 3 4 5 6 
#
# 1 40.4687 -1.6933 30.3516 -0.8704 15.8384 1.7481
# 2 -1.6933 111.6780 45.4067 -7.0503 14.2408 -5.8889
# 3 30.3516 45.4067 94.4948 1.6939 13.4731 6.1595
# 4 -0.8704 -7.0503 1.6939 40.0265 4.6687 6.3382
# 5 15.8384 14.2408 13.4731 4.6687 31.5667 -1.6158
# 6 1.7481 -5.8889 6.1595 6.3382 -1.6158 34.5985
#
#
#
# Elastic Compliance Matrix: (Units=1/GPa)
#
#
# Indices 1 2 3 4 5 6 
#
# 1 0.046887 0.010975 -0.017341 0.006181 -0.021968 0.000428
# 2 0.010975 0.014418 -0.009488 0.003761 -0.008389 0.002508
# 3 -0.017341 -0.009488 0.020353 -0.002864 0.004532 -0.003626
# 4 0.006181 0.003761 -0.002864 0.027546 -0.007884 -0.004577
# 5 -0.021968 -0.008389 0.004532 -0.007884 0.045844 0.002460
# 6 0.000428 0.002508 -0.003626 -0.004577 0.002460 0.030907
#
#
# Mechanical properties :
#
#
# Convention : Reuss Voigt Hill
#
# Bulk Modulus (GPa) = 20.01931 43.86350 31.94141
# Shear Modulus (GPa) = 21.33908 32.74344 27.04126
#
# Velocity S-wave (km/s) = 3.05798 3.78799 3.44239
# Velocity P-wave (km/s) = 4.60881 6.19303 5.45870
#
# Compressibility (1/GPa) = 0.04995176
#
# Stress axis : x y z
#
# Youngs Moduli (GPa) = 21.32780 69.35792 49.13251
#
# Poissons Ratio (x) = -0.76123 0.85198
# Poissons Ratio (y) = -0.23408 0.46618
# Poissons Ratio (z) = 0.36983 0.65808
#
# Static dielectric constant tensor:
#      x y z
#    x 2.059690 0.001560 -0.141370 
#    y 0.001560 1.846580 0.011820 
#    z -0.141370 0.011820 1.982090 
# 
# From -- ./inp_files/531545.got.cif
#   From: 2010.05.17/outbox.cif.g08.bks.cpg/sg2_266_cif.got.tgz:531545.got - 2010.06.03 11:33:40.
