data_PCOD9039037
_publ_section_title
;
Structure prediction by ZEFSAII (Michael W. Deem and Ramdas Pophale) SiO2 
 PCOD9039037
Probable space group: P -1
;
_chemical_formula_sum "Si O2"
_cell_formula_units_Z 12
_cell_length_a 11.105110
_cell_length_b 4.942767
_cell_length_c 19.871183
_cell_angle_alpha 87.217173
_cell_angle_beta 155.110196
_cell_angle_gamma 96.943825
_cell_volume 450.790393
_symmetry_space_group_name_H-M "P -1"
_symmetry_group_IT_number 2
_symmetry_cell_setting 'triclinic'
loop_
_space_group_symop_operation_xyz
x,y,z
-x,-y,-z
loop_
_atom_site_type_symbol
_atom_site_label
_atom_site_fract_x
_atom_site_fract_y
_atom_site_fract_z
Si Si1 0.814297 0.577274 0.694149
Si Si2 0.269602 0.870820 0.663669
Si Si3 0.511324 0.867099 0.645661
Si Si4 0.031063 0.133635 0.731070
Si Si5 0.439921 0.408630 0.827903
Si Si6 0.986210 0.262435 0.942403
O O1 0.500000 0.500000 0.500000
O O2 0.735322 0.708503 0.722922
O O3 0.954866 0.314694 0.752040
O O4 0.013475 0.826704 0.751953
O O5 0.447149 0.138665 0.788843
O O6 0.214142 0.605417 0.686917
O O7 0.234174 0.879092 0.457758
O O8 0.000000 0.000000 0.500000
O O9 0.405652 0.759777 0.667085
O O10 0.692594 0.167676 0.752309
O O11 0.324227 0.277881 0.841430
O O12 0.739735 0.622518 0.967758
O O13 0.000000 0.500000 0.000000
O O14 0.000000 0.000000 0.000000
#
# Coordination Sequence:
#
# PCOD9039037 Si02
#       6
#     2   2   2   2   2   2
#     4  10  23  42  65  98 123 170 218 273 315 377
#     4  12  24  38  67  98 129 168 215 270 332 378
#     4  11  23  41  68  93 131 166 221 261 324 380
#     4  11  24  41  67  94 131 165 220 269 322 374
#     4  12  24  43  62  97 136 167 211 271 324 388
#     4  12  25  42  62  96 134 173 211 259 326 395
#
# _framework density 26.619910999999998
#
# number of rings (size 3 to 8) (size 9 to 14) (size 15 to 20)
#    0.000    0.667    5.000    3.500    0.000    6.667 
#    0.000    1.667    0.000    0.000    0.000    0.000 
#    0.000    0.000    0.000    0.000    0.000    0.000 
#
# Total GULP energy -67203.112585 kJ/mol
# GULP energy per Si atom -5600.259382 kJ/mol
# Density = 2.655932 g / cm^3
# Si number density = 26.619911 Si / 1000 Ang^3
#
#
#
# Elastic Constant Matrix: (Units=GPa)
#
#
# Indices 1 2 3 4 5 6 
#
# 1 148.5545 20.5385 39.0766 12.1448 -6.3998 -6.0905
# 2 20.5385 137.5801 30.7566 39.5508 -15.7302 -3.8524
# 3 39.0766 30.7566 111.9291 20.5556 5.5563 5.1767
# 4 12.1448 39.5508 20.5556 37.2895 3.2747 5.9724
# 5 -6.3998 -15.7302 5.5563 3.2747 44.1223 15.8070
# 6 -6.0905 -3.8524 5.1767 5.9724 15.8070 42.9933
#
#
#
# Elastic Compliance Matrix: (Units=1/GPa)
#
#
# Indices 1 2 3 4 5 6 
#
# 1 0.007599 -0.000031 -0.002506 -0.001342 0.001090 0.001161
# 2 -0.000031 0.011661 -0.001229 -0.012284 0.004817 0.001124
# 3 -0.002506 -0.001229 0.010931 -0.003654 -0.001671 -0.000659
# 4 -0.001342 -0.012284 -0.003654 0.043566 -0.005614 -0.004839
# 5 0.001090 0.004817 -0.001671 -0.005614 0.028338 -0.008852
# 6 0.001161 0.001124 -0.000659 -0.004839 -0.008852 0.027531
#
#
# Mechanical properties :
#
#
# Convention : Reuss Voigt Hill
#
# Bulk Modulus (GPa) = 44.12951 64.31189 54.22070
# Shear Modulus (GPa) = 34.55168 45.39383 39.97276
#
# Velocity S-wave (km/s) = 3.60664 4.13396 3.87927
# Velocity P-wave (km/s) = 5.82730 6.85550 6.36220
#
# Compressibility (1/GPa) = 0.02266057
#
# Stress axis : x y z
#
# Youngs Moduli (GPa) = 131.59109 85.75327 91.48147
#
# Poissons Ratio (x) = 0.00268 0.22923
# Poissons Ratio (y) = 0.00411 0.11240
# Poissons Ratio (z) = 0.32974 0.10536
#
# Static dielectric constant tensor:
#      x y z
#    x 2.112150 0.074580 -0.004150 
#    y 0.074580 2.087820 -0.117390 
#    z -0.004150 -0.117390 2.216970 
# 
# From -- ./inp_files/55804.got.cif
#   From: 2010.05.17/outbox.cif.g08.bks.cpg/sg2_28_cif.got.tgz:55804.got - 2010.06.03 11:33:40.
