data_PCOD9039093
_publ_section_title
;
Structure prediction by ZEFSAII (Michael W. Deem and Ramdas Pophale) SiO2 
 PCOD9039093
Probable space group: P -1
;
_chemical_formula_sum "Si O2"
_cell_formula_units_Z 14
_cell_length_a 13.642859
_cell_length_b 9.373700
_cell_length_c 7.315691
_cell_angle_alpha 96.747481
_cell_angle_beta 140.772968
_cell_angle_gamma 74.494717
_cell_volume 563.916131
_symmetry_space_group_name_H-M "P -1"
_symmetry_group_IT_number 2
_symmetry_cell_setting 'triclinic'
loop_
_space_group_symop_operation_xyz
x,y,z
-x,-y,-z
loop_
_atom_site_type_symbol
_atom_site_label
_atom_site_fract_x
_atom_site_fract_y
_atom_site_fract_z
Si Si1 0.172526 0.060710 0.348419
Si Si2 0.333819 0.717196 0.548235
Si Si3 0.229756 0.560298 0.696444
Si Si4 0.668155 0.768485 0.133924
Si Si5 0.341671 0.143704 0.283308
Si Si6 0.914722 0.145848 0.284315
Si Si7 0.577225 0.312187 0.741512
O O1 0.305381 0.110078 0.669449
O O2 0.198455 0.115109 0.191745
O O3 0.007822 0.134892 0.227133
O O4 0.211121 0.882850 0.385117
O O5 0.261648 0.609433 0.548079
O O6 0.382233 0.658924 0.404857
O O7 0.488583 0.749762 0.874391
O O8 0.216528 0.394758 0.671374
O O9 0.090376 0.697913 0.599665
O O10 0.384658 0.569024 0.047439
O O11 0.696862 0.814142 0.975863
O O12 0.408549 0.274580 0.490362
O O13 0.500000 0.000000 0.500000
O O14 0.723964 0.165928 0.988128
O O15 0.000000 0.000000 0.500000
#
# Coordination Sequence:
#
# PCOD9039093 Si02
#       7
#     2   2   2   2   2   2   2
#     4  12  23  40  66  97 127 162 219 254 318 373
#     4  11  21  38  69  95 121 167 216 264 317 365
#     4  10  23  43  61  96 128 172 207 258 325 369
#     4  11  25  39  66  96 133 163 207 272 315 374
#     4  11  23  40  65  99 125 164 209 267 319 361
#     4  10  23  42  66  91 128 175 207 263 307 379
#     4   9  22  41  63  92 126 160 221 252 311 376
#
# _framework density 24.826385999999999
#
# number of rings (size 3 to 8) (size 9 to 14) (size 15 to 20)
#    0.857    0.571    4.286    1.714    4.000    4.571 
#    2.571    0.714    0.000    0.000    0.000    0.000 
#    0.000    0.000    0.000    0.000    0.000    0.000 
#
# Total GULP energy -78400.056487 kJ/mol
# GULP energy per Si atom -5600.004035 kJ/mol
# Density = 2.476988 g / cm^3
# Si number density = 24.826386 Si / 1000 Ang^3
#
#
#
# Elastic Constant Matrix: (Units=GPa)
#
#
# Indices 1 2 3 4 5 6 
#
# 1 143.3314 59.5525 17.4586 -23.7965 -8.2290 19.7960
# 2 59.5525 121.3517 13.4409 -23.5600 -20.2897 6.3781
# 3 17.4586 13.4409 51.5971 -4.8726 -15.3770 14.1953
# 4 -23.7965 -23.5600 -4.8726 40.5599 0.3079 -4.9661
# 5 -8.2290 -20.2897 -15.3770 0.3079 38.4181 -10.2092
# 6 19.7960 6.3781 14.1953 -4.9661 -10.2092 39.0685
#
#
#
# Elastic Compliance Matrix: (Units=1/GPa)
#
#
# Indices 1 2 3 4 5 6 
#
# 1 0.009775 -0.004213 -0.001415 0.002657 -0.001747 -0.003870
# 2 -0.004213 0.012144 -0.000138 0.004813 0.006054 0.002396
# 3 -0.001415 -0.000138 0.023876 0.001191 0.007632 -0.005790
# 4 0.002657 0.004813 0.001191 0.029392 0.003937 0.002200
# 5 -0.001747 0.006054 0.007632 0.003937 0.033576 0.006398
# 6 -0.003870 0.002396 -0.005790 0.002200 0.006398 0.031221
#
#
# Mechanical properties :
#
#
# Convention : Reuss Voigt Hill
#
# Bulk Modulus (GPa) = 29.18751 55.24269 42.21510
# Shear Modulus (GPa) = 30.68656 38.66452 34.67554
#
# Velocity S-wave (km/s) = 3.51956 3.95067 3.74133
# Velocity P-wave (km/s) = 5.31964 6.56584 5.97532
#
# Compressibility (1/GPa) = 0.03426123
#
# Stress axis : x y z
#
# Youngs Moduli (GPa) = 102.30133 82.34410 41.88374
#
# Poissons Ratio (x) = 0.34693 0.05927
# Poissons Ratio (y) = 0.43101 0.00580
# Poissons Ratio (z) = 0.14477 0.01140
#
# Static dielectric constant tensor:
#      x y z
#    x 1.933120 -0.019460 0.024170 
#    y -0.019460 1.977360 -0.003850 
#    z 0.024170 -0.003850 2.003080 
# 
# From -- ./inp_files/290477.got.cif
#   From: 2010.05.17/outbox.cif.g08.bks.cpg/sg2_146_cif.got.tgz:290477.got - 2010.06.03 11:33:40.
