data_PCOD9039553
_publ_section_title
;
Structure prediction by ZEFSAII (Michael W. Deem and Ramdas Pophale) SiO2 
 PCOD9039553
Probable space group: P -1
;
_chemical_formula_sum "Si O2"
_cell_formula_units_Z 16
_cell_length_a 11.351361
_cell_length_b 8.512907
_cell_length_c 13.614761
_cell_angle_alpha 123.307225
_cell_angle_beta 41.413430
_cell_angle_gamma 118.165230
_cell_volume 722.999573
_symmetry_space_group_name_H-M "P -1"
_symmetry_group_IT_number 2
_symmetry_cell_setting 'triclinic'
loop_
_space_group_symop_operation_xyz
x,y,z
-x,-y,-z
loop_
_atom_site_type_symbol
_atom_site_label
_atom_site_fract_x
_atom_site_fract_y
_atom_site_fract_z
Si Si1 0.635563 0.214539 0.089443
Si Si2 0.851390 0.744417 0.722635
Si Si3 0.335807 0.363554 0.011967
Si Si4 0.398589 0.335132 0.744133
Si Si5 0.301794 0.960149 0.216854
Si Si6 0.028512 0.291695 0.871119
Si Si7 0.208413 0.605274 0.494270
Si Si8 0.034516 0.639428 0.289275
O O1 0.606825 0.436254 0.188660
O O2 0.474400 0.082518 0.195636
O O3 0.836941 0.183212 0.984072
O O4 0.629434 0.163164 0.958972
O O5 0.737366 0.771150 0.900288
O O6 0.807653 0.888111 0.716365
O O7 0.789102 0.530645 0.649731
O O8 0.060215 0.747167 0.617003
O O9 0.168313 0.480746 0.133586
O O10 0.500000 0.500000 0.000000
O O11 0.391613 0.285532 0.846745
O O12 0.216153 0.240014 0.776872
O O13 0.594374 0.301519 0.572117
O O14 0.163624 0.816310 0.314121
O O15 0.032289 0.296671 0.752313
O O16 0.000000 0.500000 0.000000
O O17 0.123615 0.458089 0.579025
#
# Coordination Sequence:
#
# PCOD9039553 Si02
#       8
#     2   2   2   2   2   2   2   2
#     4   9  17  29  53  83 100 131 173 227 265 298
#     4  10  21  33  50  76 115 143 169 224 264 322
#     4  11  18  31  53  81 102 138 182 215 266 304
#     4  11  18  35  57  80 108 139 180 228 258 309
#     4  10  17  33  55  78 112 136 174 221 273 312
#     4   9  17  32  55  81 104 136 181 230 255 303
#     4  10  21  35  48  81 114 139 181 208 269 326
#     4  10  21  34  54  82 109 142 175 216 271 321
#
# _framework density 22.130026999999998
#
# number of rings (size 3 to 8) (size 9 to 14) (size 15 to 20)
#    0.000    2.000    6.250    0.000    1.750    1.000 
#    0.000    0.000    0.000    6.000    0.000    0.000 
#    0.000    0.000    0.000    0.000    0.000    0.000 
#
# Total GULP energy -89313.506540 kJ/mol
# GULP energy per Si atom -5582.094159 kJ/mol
# Density = 2.207966 g / cm^3
# Si number density = 22.130027 Si / 1000 Ang^3
#
#
#
# Elastic Constant Matrix: (Units=GPa)
#
#
# Indices 1 2 3 4 5 6 
#
# 1 115.9884 13.9137 44.5079 -21.3374 -41.1775 10.4290
# 2 13.9137 57.1297 28.2898 -15.1960 -13.8621 6.0251
# 3 44.5079 28.2898 94.2186 -34.4780 -29.6815 -2.0848
# 4 -21.3374 -15.1960 -34.4780 32.4423 5.1479 -8.9092
# 5 -41.1775 -13.8621 -29.6815 5.1479 43.1860 -2.2480
# 6 10.4290 6.0251 -2.0848 -8.9092 -2.2480 25.0454
#
#
#
# Elastic Compliance Matrix: (Units=1/GPa)
#
#
# Indices 1 2 3 4 5 6 
#
# 1 0.015061 0.002296 -0.001315 0.006545 0.013235 -0.003417
# 2 0.002296 0.022241 -0.003990 0.005652 0.005697 -0.004117
# 3 -0.001315 -0.003990 0.027556 0.028533 0.013794 0.015189
# 4 0.006545 0.005652 0.028533 0.071917 0.020431 0.025706
# 5 0.013235 0.005697 0.013794 0.020431 0.044939 0.005568
# 6 -0.003417 -0.004117 0.015189 0.025706 0.005568 0.053249
#
#
# Mechanical properties :
#
#
# Convention : Reuss Voigt Hill
#
# Bulk Modulus (GPa) = 16.99569 48.97327 32.98448
# Shear Modulus (GPa) = 19.18693 32.17645 25.68169
#
# Velocity S-wave (km/s) = 2.94770 3.81724 3.41029
# Velocity P-wave (km/s) = 4.39111 6.45029 5.51761
#
# Compressibility (1/GPa) = 0.05883845
#
# Stress axis : x y z
#
# Youngs Moduli (GPa) = 66.39793 44.96217 36.29000
#
# Poissons Ratio (x) = -0.10323 0.04772
# Poissons Ratio (y) = -0.15244 0.14481
# Poissons Ratio (z) = 0.08731 0.17942
#
# Static dielectric constant tensor:
#      x y z
#    x 1.850970 0.016630 -0.013270 
#    y 0.016630 1.853450 0.000750 
#    z -0.013270 0.000750 1.858890 
# 
# From -- ./inp_files/238460.got.cif
#   From: 2010.05.17/outbox.cif.g08.bks.cpg/sg2_120_cif.got.tgz:238460.got - 2010.06.03 11:33:40.
