data_PCOD9039448
_publ_section_title
;
Structure prediction by ZEFSAII (Michael W. Deem and Ramdas Pophale) SiO2 
 PCOD9039448
Probable space group: P -1
;
_chemical_formula_sum "Si O2"
_cell_formula_units_Z 14
_cell_length_a 5.928400
_cell_length_b 4.855555
_cell_length_c 19.814035
_cell_angle_alpha 95.595123
_cell_angle_beta 115.034463
_cell_angle_gamma 85.278991
_cell_volume 513.781734
_symmetry_space_group_name_H-M "P -1"
_symmetry_group_IT_number 2
_symmetry_cell_setting 'triclinic'
loop_
_space_group_symop_operation_xyz
x,y,z
-x,-y,-z
loop_
_atom_site_type_symbol
_atom_site_label
_atom_site_fract_x
_atom_site_fract_y
_atom_site_fract_z
Si Si1 0.652293 0.551177 0.087545
Si Si2 0.888620 0.990598 0.293693
Si Si3 0.442639 0.671521 0.197811
Si Si4 0.026628 0.768987 0.440162
Si Si5 0.015139 0.935809 0.841892
Si Si6 0.545613 0.423571 0.337246
Si Si7 0.550222 0.758052 0.532549
O O1 0.474230 0.499477 0.128676
O O2 0.761418 0.856316 0.111224
O O3 0.896996 0.347610 0.118969
O O4 0.500000 0.500000 0.000000
O O5 0.663157 0.171365 0.302522
O O6 0.736977 0.726003 0.247374
O O7 0.063478 0.935238 0.379122
O O8 0.995889 0.103311 0.241520
O O9 0.374231 0.578125 0.263087
O O10 0.245527 0.923256 0.163881
O O11 0.801823 0.573994 0.393132
O O12 0.281935 0.569231 0.479542
O O13 0.564718 0.910573 0.462978
O O14 0.413303 0.325143 0.385429
O O15 0.000000 0.000000 0.500000
#
# Coordination Sequence:
#
# PCOD9039448 Si02
#       7
#     2   2   2   2   2   2   2
#     4  11  25  47  74 112 150 184 233 288 349 429
#     4  10  23  42  68  95 137 181 241 298 352 425
#     4  10  25  45  70 106 144 186 242 292 353 433
#     4  11  23  43  64  91 128 189 236 295 376 416
#     4  11  25  45  74 107 142 193 234 284 359 423
#     4  11  23  45  69  89 138 193 234 307 361 431
#     4  12  28  42  61  99 132 172 240 303 355 419
#
# _framework density 27.248923999999999
#
# number of rings (size 3 to 8) (size 9 to 14) (size 15 to 20)
#    0.000    1.143    2.857    1.714    8.000    1.143 
#    0.000    0.000    0.000    0.000    0.000    0.000 
#    0.000    0.000    0.000    0.000    0.000    0.000 
#
# Total GULP energy -78045.685914 kJ/mol
# GULP energy per Si atom -5574.691851 kJ/mol
# Density = 2.718690 g / cm^3
# Si number density = 27.248924 Si / 1000 Ang^3
#
#
#
# Elastic Constant Matrix: (Units=GPa)
#
#
# Indices 1 2 3 4 5 6 
#
# 1 92.6267 32.5771 59.3888 2.0867 -0.2845 -1.8718
# 2 32.5771 136.3034 45.4804 -10.5320 -10.9498 -18.3455
# 3 59.3888 45.4804 214.4463 4.2853 -11.4191 -21.6996
# 4 2.0867 -10.5320 4.2853 45.5638 -2.7148 7.8107
# 5 -0.2845 -10.9498 -11.4191 -2.7148 32.3443 -7.6498
# 6 -1.8718 -18.3455 -21.6996 7.8107 -7.6498 53.3630
#
#
#
# Elastic Compliance Matrix: (Units=1/GPa)
#
#
# Indices 1 2 3 4 5 6 
#
# 1 0.014065 -0.002702 -0.003674 -0.000704 -0.002669 -0.002209
# 2 -0.002702 0.009070 -0.000721 0.001998 0.003661 0.002963
# 3 -0.003674 -0.000721 0.006252 -0.000893 0.002483 0.002652
# 4 -0.000704 0.001998 -0.000893 0.023111 0.001620 -0.002851
# 5 -0.002669 0.003661 0.002483 0.001620 0.034784 0.006924
# 6 -0.002209 0.002963 0.002652 -0.002851 0.006924 0.022169
#
#
# Mechanical properties :
#
#
# Convention : Reuss Voigt Hill
#
# Bulk Modulus (GPa) = 65.81383 79.80768 72.81075
# Shear Modulus (GPa) = 38.84798 46.64956 42.74877
#
# Velocity S-wave (km/s) = 3.77990 4.14209 3.96514
# Velocity P-wave (km/s) = 6.57689 7.22689 6.90953
#
# Compressibility (1/GPa) = 0.01519438
#
# Stress axis : x y z
#
# Youngs Moduli (GPa) = 71.09984 110.25357 159.95249
#
# Poissons Ratio (x) = 0.29789 0.58762
# Poissons Ratio (y) = 0.19210 0.11525
# Poissons Ratio (z) = 0.26120 0.07944
#
# Static dielectric constant tensor:
#      x y z
#    x 2.378130 0.178250 0.200510 
#    y 0.178250 2.389090 0.139760 
#    z 0.200510 0.139760 2.261860 
# 
# From -- ./inp_files/8890.got.cif
#   From: 2010.05.17/outbox.cif.g08.bks.cpg/sg2_5_cif.got.tgz:8890.got - 2010.06.03 11:33:40.
