data_PCOD9039726
_publ_section_title
;
Structure prediction by ZEFSAII (Michael W. Deem and Ramdas Pophale) SiO2 
 PCOD9039726
Probable space group: P -1
;
_chemical_formula_sum "Si O2"
_cell_formula_units_Z 16
_cell_length_a 12.261267
_cell_length_b 7.967053
_cell_length_c 10.150004
_cell_angle_alpha 78.792914
_cell_angle_beta 52.219751
_cell_angle_gamma 111.293914
_cell_volume 601.927773
_symmetry_space_group_name_H-M "P -1"
_symmetry_group_IT_number 2
_symmetry_cell_setting 'triclinic'
loop_
_space_group_symop_operation_xyz
x,y,z
-x,-y,-z
loop_
_atom_site_type_symbol
_atom_site_label
_atom_site_fract_x
_atom_site_fract_y
_atom_site_fract_z
Si Si1 0.677372 0.896491 0.899853
Si Si2 0.833992 0.868856 0.544196
Si Si3 0.163835 0.700682 0.422909
Si Si4 0.733556 0.079208 0.449080
Si Si5 0.257454 0.350570 0.750519
Si Si6 0.361670 0.560492 0.375924
Si Si7 0.866355 0.091669 0.971374
Si Si8 0.689562 0.265629 0.196847
O O1 0.678257 0.799751 0.776152
O O2 0.696213 0.108159 0.808318
O O3 0.852667 0.016366 0.842441
O O4 0.525995 0.721661 0.136009
O O5 0.785478 0.636801 0.577614
O O6 0.782236 0.913880 0.432080
O O7 0.000000 0.000000 0.500000
O O8 0.123608 0.808139 0.548891
O O9 0.274757 0.676544 0.449550
O O10 0.000000 0.500000 0.500000
O O11 0.762575 0.218224 0.279188
O O12 0.519918 0.916949 0.644104
O O13 0.383394 0.494648 0.511823
O O14 0.284312 0.512178 0.824350
O O15 0.061664 0.244293 0.857875
O O16 0.242407 0.140940 0.836914
O O17 0.784905 0.220641 0.023023
#
# Coordination Sequence:
#
# PCOD9039726 Si02
#       8
#     2   2   2   2   2   2   2   2
#     4  11  26  42  67 104 141 180 243 300 366 449
#     4  11  24  46  71 102 143 191 243 310 370 438
#     4  11  22  44  71  98 140 187 237 299 363 438
#     4  10  23  42  70 107 143 183 248 297 372 446
#     4  11  25  45  74 103 147 197 246 305 371 438
#     4  12  23  43  70  99 137 187 241 301 374 433
#     4  11  25  46  68 110 146 191 256 303 366 446
#     4  11  23  44  73 109 151 191 245 311 368 440
#
# _framework density 26.581263
#
# number of rings (size 3 to 8) (size 9 to 14) (size 15 to 20)
#    0.000    1.000    1.250    5.625    3.500    2.500 
#    2.250    0.000    0.000    0.000    0.000    0.000 
#    0.000    0.000    0.000    0.000    0.000    0.000 
#
# Total GULP energy -89123.261111 kJ/mol
# GULP energy per Si atom -5570.203819 kJ/mol
# Density = 2.652076 g / cm^3
# Si number density = 26.581263 Si / 1000 Ang^3
#
#
#
# Elastic Constant Matrix: (Units=GPa)
#
#
# Indices 1 2 3 4 5 6 
#
# 1 139.9195 22.7431 14.8152 -14.9302 20.1027 14.3052
# 2 22.7431 -25.8903 57.1338 11.6498 12.1422 51.9426
# 3 14.8152 57.1338 96.7436 -24.5462 14.6146 4.9807
# 4 -14.9302 11.6498 -24.5462 34.4492 12.5545 -6.8846
# 5 20.1027 12.1422 14.6146 12.5545 37.6559 -1.5207
# 6 14.3052 51.9426 4.9807 -6.8846 -1.5207 36.8474
#
#
#
# Elastic Compliance Matrix: (Units=1/GPa)
#
#
# Indices 1 2 3 4 5 6 
#
# 1 0.009123 0.001003 0.001044 0.006392 -0.007901 -0.004229
# 2 0.001003 -0.005663 0.005731 0.009489 -0.003757 0.008436
# 3 0.001044 0.005731 0.010665 0.007806 -0.009505 -0.008860
# 4 0.006392 0.009489 0.007806 0.040649 -0.023470 -0.010286
# 5 -0.007901 -0.003757 -0.009505 -0.023470 0.043785 0.007070
# 6 -0.004229 0.008436 -0.008860 -0.010286 0.007070 0.016456
#
#
# Mechanical properties :
#
#
# Convention : Reuss Voigt Hill
#
# Bulk Modulus (GPa) = 33.69136 44.46191 39.07663
# Shear Modulus (GPa) = 45.72367 29.52921 37.62644
#
# Velocity S-wave (km/s) = 4.15196 3.33664 3.76643
# Velocity P-wave (km/s) = 5.97390 5.62204 5.80064
#
# Compressibility (1/GPa) = 0.02968120
#
# Stress axis : x y z
#
# Youngs Moduli (GPa) = 109.61318 -176.59333 93.76817
#
# Poissons Ratio (x) = 0.17719 -0.09785
# Poissons Ratio (y) = -0.10998 -0.53741
# Poissons Ratio (z) = -0.11438 1.01211
#
# Static dielectric constant tensor:
#      x y z
#    x 2.120590 -0.104730 0.046260 
#    y -0.104730 2.405360 -0.039540 
#    z 0.046260 -0.039540 2.233610 
# 
# From -- ./inp_files/416835.got.cif
#   From: 2010.05.17/outbox.cif.g08.bks.cpg/sg2_209_cif.got.tgz:416835.got - 2010.06.03 11:33:40.
