data_PCOD9039981
_publ_section_title
;
Structure prediction by ZEFSAII (Michael W. Deem and Ramdas Pophale) SiO2 
 PCOD9039981
Probable space group: P -1
;
_chemical_formula_sum "Si O2"
_cell_formula_units_Z 13
_cell_length_a 23.744446
_cell_length_b 11.996245
_cell_length_c 17.351503
_cell_angle_alpha 155.032291
_cell_angle_beta 161.751439
_cell_angle_gamma 20.494030
_cell_volume 535.347180
_symmetry_space_group_name_H-M "P -1"
_symmetry_group_IT_number 2
_symmetry_cell_setting 'triclinic'
loop_
_space_group_symop_operation_xyz
x,y,z
-x,-y,-z
loop_
_atom_site_type_symbol
_atom_site_label
_atom_site_fract_x
_atom_site_fract_y
_atom_site_fract_z
Si Si1 0.500000 0.500000 0.500000
Si Si2 0.797102 0.539910 0.217614
Si Si3 0.944202 0.125922 0.918932
Si Si4 0.320037 0.831633 0.819211
Si Si5 0.594008 0.665909 0.274374
Si Si6 0.084162 0.319376 0.695792
Si Si7 0.769499 0.698983 0.870332
O O1 0.706832 0.224865 0.647022
O O2 0.681610 0.512602 0.685050
O O3 0.000000 0.500000 0.500000
O O4 0.777624 0.688357 0.200878
O O5 0.558424 0.770221 0.086885
O O6 0.867103 0.174558 0.072758
O O7 0.928069 0.452128 0.109526
O O8 0.000000 0.000000 0.000000
O O9 0.360777 0.494513 0.683143
O O10 0.193644 0.981184 0.668775
O O11 0.207235 0.083450 0.900186
O O12 0.838948 0.507536 0.463213
O O13 0.424584 0.042987 0.278448
O O14 0.500000 0.500000 0.000000
O O15 0.000000 0.500000 0.000000
#
# Coordination Sequence:
#
# PCOD9039981 Si02
#       7
#     1   2   2   2   2   2   2
#     4  12  22  46  80 104 152 194 252 310 388 452
#     4  11  23  41  72 108 147 193 248 309 385 452
#     4  10  23  42  73 108 146 196 254 313 375 458
#     4  11  23  44  67 103 148 191 244 312 383 451
#     4  10  23  45  68 100 144 191 244 312 383 446
#     4  11  22  45  70 105 148 193 257 307 377 473
#     4  11  25  46  73 108 144 196 258 309 378 463
#
# _framework density 24.283307000000001
#
# number of rings (size 3 to 8) (size 9 to 14) (size 15 to 20)
#    0.000    1.231    1.538    5.538    2.154    0.000 
#    5.538    9.231    0.000    0.000    0.000    0.000 
#    0.000    0.000    0.000    0.000    0.000    0.000 
#
# Total GULP energy -72369.647557 kJ/mol
# GULP energy per Si atom -5566.895966 kJ/mol
# Density = 2.422804 g / cm^3
# Si number density = 24.283307 Si / 1000 Ang^3
#
#
#
# Elastic Constant Matrix: (Units=GPa)
#
#
# Indices 1 2 3 4 5 6 
#
# 1 115.9938 77.0252 39.5752 -17.6884 26.4118 15.3708
# 2 77.0252 88.3857 27.0982 -31.3646 5.4596 25.5962
# 3 39.5752 27.0982 80.4995 -31.7795 24.0165 -12.1270
# 4 -17.6884 -31.3646 -31.7795 43.5610 2.2802 -1.9137
# 5 26.4118 5.4596 24.0165 2.2802 42.0628 -9.4527
# 6 15.3708 25.5962 -12.1270 -1.9137 -9.4527 58.4726
#
#
#
# Elastic Compliance Matrix: (Units=1/GPa)
#
#
# Indices 1 2 3 4 5 6 
#
# 1 0.029915 -0.027982 -0.007073 -0.012587 -0.010240 0.000851
# 2 -0.027982 0.045227 0.004998 0.024140 0.005347 -0.009752
# 3 -0.007073 0.004998 0.026494 0.020835 -0.011570 0.003978
# 4 -0.012587 0.024140 0.020835 0.050847 -0.010551 -0.002979
# 5 -0.010240 0.005347 -0.011570 -0.010551 0.037513 0.003671
# 6 0.000851 -0.009752 0.003978 -0.002979 0.003671 0.022468
#
#
# Mechanical properties :
#
#
# Convention : Reuss Voigt Hill
#
# Bulk Modulus (GPa) = 24.08451 63.58625 43.83538
# Shear Modulus (GPa) = 17.45688 38.23129 27.84409
#
# Velocity S-wave (km/s) = 2.68411 3.97216 3.38987
# Velocity P-wave (km/s) = 4.42104 6.87600 5.78035
#
# Compressibility (1/GPa) = 0.04152047
#
# Stress axis : x y z
#
# Youngs Moduli (GPa) = 33.42774 22.11058 37.74497
#
# Poissons Ratio (x) = 0.61870 0.26698
# Poissons Ratio (y) = 0.93538 -0.18863
# Poissons Ratio (z) = 0.23645 -0.11050
#
# Static dielectric constant tensor:
#      x y z
#    x 2.011070 0.089150 0.002000 
#    y 0.089150 2.061150 0.001550 
#    z 0.002000 0.001550 1.970270 
# 
# From -- ./inp_files/165331.got.cif
#   From: 2010.05.17/outbox.cif.g08.bks.cpg/sg2_83_cif.got.tgz:165331.got - 2010.06.03 11:33:40.
