data_PCOD9039795
_publ_section_title
;
Structure prediction by ZEFSAII (Michael W. Deem and Ramdas Pophale) SiO2 
 PCOD9039795
Probable space group: P -1
;
_chemical_formula_sum "Si O2"
_cell_formula_units_Z 12
_cell_length_a 7.765698
_cell_length_b 5.719568
_cell_length_c 14.285027
_cell_angle_alpha 94.964484
_cell_angle_beta 65.534688
_cell_angle_gamma 122.749866
_cell_volume 477.818605
_symmetry_space_group_name_H-M "P -1"
_symmetry_group_IT_number 2
_symmetry_cell_setting 'triclinic'
loop_
_space_group_symop_operation_xyz
x,y,z
-x,-y,-z
loop_
_atom_site_type_symbol
_atom_site_label
_atom_site_fract_x
_atom_site_fract_y
_atom_site_fract_z
Si Si1 0.511142 0.020128 0.735155
Si Si2 0.700330 0.187536 0.036063
Si Si3 0.886705 0.972015 0.267937
Si Si4 0.770107 0.721534 0.959498
Si Si5 0.105164 0.429609 0.387066
Si Si6 0.509868 0.415265 0.390695
O O1 0.419386 0.823355 0.839712
O O2 0.310615 0.055013 0.752749
O O3 0.539989 0.885651 0.631165
O O4 0.755802 0.305874 0.706315
O O5 0.837655 0.508832 0.977292
O O6 0.500000 0.000000 0.000000
O O7 0.799419 0.989448 0.017386
O O8 0.110962 0.141104 0.161342
O O9 0.930738 0.150530 0.358448
O O10 0.769932 0.644843 0.307629
O O11 0.500000 0.500000 0.000000
O O12 0.308967 0.410678 0.381123
O O13 0.000000 0.500000 0.500000
O O14 0.500000 0.500000 0.500000
#
# Coordination Sequence:
#
# PCOD9039795 Si02
#       6
#     2   2   2   2   2   2
#     4  11  26  44  71 103 142 189 239 300 362 439
#     4  10  23  42  71 101 147 186 243 295 359 430
#     4  11  26  44  72 101 143 190 240 296 370 432
#     4  10  23  43  69 105 143 190 243 296 356 435
#     4  11  24  45  72 101 140 186 240 302 367 435
#     4  11  26  46  69 106 142 180 242 303 364 440
#
# _framework density 25.114135000000001
#
# number of rings (size 3 to 8) (size 9 to 14) (size 15 to 20)
#    0.000    1.333    0.000    4.000   11.667    8.000 
#    0.000    0.000    0.000    0.000    0.000    0.000 
#    0.000    0.000    0.000    0.000    0.000    0.000 
#
# Total GULP energy -67068.636958 kJ/mol
# GULP energy per Si atom -5589.053080 kJ/mol
# Density = 2.505697 g / cm^3
# Si number density = 25.114135 Si / 1000 Ang^3
#
#
#
# Elastic Constant Matrix: (Units=GPa)
#
#
# Indices 1 2 3 4 5 6 
#
# 1 70.6529 13.4427 4.8513 -4.7197 -7.4689 -0.5130
# 2 13.4427 152.6877 10.5617 -0.7561 -3.8852 10.3652
# 3 4.8513 10.5617 94.8092 2.8846 -7.1938 5.6225
# 4 -4.7197 -0.7561 2.8846 45.7667 7.9080 -2.0141
# 5 -7.4689 -3.8852 -7.1938 7.9080 37.1739 3.9557
# 6 -0.5130 10.3652 5.6225 -2.0141 3.9557 41.1187
#
#
#
# Elastic Compliance Matrix: (Units=1/GPa)
#
#
# Indices 1 2 3 4 5 6 
#
# 1 0.014758 -0.001223 -0.000489 0.001123 0.002464 0.000377
# 2 -0.001223 0.006826 -0.000547 -0.000155 0.000578 -0.001724
# 3 -0.000489 -0.000547 0.010952 -0.001238 0.002404 -0.001658
# 4 0.001123 -0.000155 -0.001238 0.023007 -0.005120 0.001842
# 5 0.002464 0.000578 0.002404 -0.005120 0.029385 -0.003521
# 6 0.000377 -0.001724 -0.001658 0.001842 -0.003521 0.025415
#
#
# Mechanical properties :
#
#
# Convention : Reuss Voigt Hill
#
# Bulk Modulus (GPa) = 35.69013 41.76235 38.72624
# Shear Modulus (GPa) = 40.25786 44.09812 42.17799
#
# Velocity S-wave (km/s) = 4.00809 4.19490 4.10256
# Velocity P-wave (km/s) = 5.97174 6.33467 6.15588
#
# Compressibility (1/GPa) = 0.02801895
#
# Stress axis : x y z
#
# Youngs Moduli (GPa) = 67.75917 146.50260 91.30925
#
# Poissons Ratio (x) = 0.17915 0.04461
# Poissons Ratio (y) = 0.08286 0.04994
# Poissons Ratio (z) = 0.03310 0.08013
#
# Static dielectric constant tensor:
#      x y z
#    x 2.044850 -0.113360 0.013930 
#    y -0.113360 1.993870 -0.050520 
#    z 0.013930 -0.050520 1.988040 
# 
# From -- ./inp_files/31490.got.cif
#   From: 2010.05.17/outbox.cif.g08.bks.cpg/sg2_16_cif.got.tgz:31490.got - 2010.06.03 11:33:40.
