data_PCOD9039181
_publ_section_title
;
Structure prediction by ZEFSAII (Michael W. Deem and Ramdas Pophale) SiO2 
 PCOD9039181
Probable space group: P -1
;
_chemical_formula_sum "Si O2"
_cell_formula_units_Z 16
_cell_length_a 28.647078
_cell_length_b 12.132601
_cell_length_c 17.757300
_cell_angle_alpha 19.741425
_cell_angle_beta 160.206431
_cell_angle_gamma 153.428854
_cell_volume 703.866411
_symmetry_space_group_name_H-M "P -1"
_symmetry_group_IT_number 2
_symmetry_cell_setting 'triclinic'
loop_
_space_group_symop_operation_xyz
x,y,z
-x,-y,-z
loop_
_atom_site_type_symbol
_atom_site_label
_atom_site_fract_x
_atom_site_fract_y
_atom_site_fract_z
Si Si1 0.266377 0.711648 0.340374
Si Si2 0.268226 0.642548 0.224024
Si Si3 0.489655 0.504410 0.391780
Si Si4 0.799829 0.333446 0.179517
Si Si5 0.145934 0.004974 0.674856
Si Si6 0.894790 0.070844 0.859854
Si Si7 0.022418 0.155322 0.156525
Si Si8 0.395689 0.785210 0.647818
O O1 0.332045 0.726385 0.348259
O O2 0.202505 0.347604 0.502422
O O3 0.362547 0.823410 0.484107
O O4 0.129544 0.909572 0.997985
O O5 0.363544 0.391274 0.489678
O O6 0.115349 0.476769 0.115928
O O7 0.247991 0.911357 0.956794
O O8 0.500000 0.500000 0.500000
O O9 0.455698 0.129410 0.552941
O O10 0.365649 0.720588 0.041596
O O11 0.854175 0.248811 0.232291
O O12 0.882495 0.127293 0.495355
O O13 0.827191 0.706669 0.006135
O O14 0.000000 0.000000 0.500000
O O15 0.760966 0.280664 0.512083
O O16 0.987026 0.195208 0.989958
O O17 0.000000 0.000000 0.000000
O O18 0.500000 0.500000 0.000000
#
# Coordination Sequence:
#
# PCOD9039181 Si02
#       8
#     2   2   2   2   2   2   2   2
#     4  11  24  44  66 103 137 172 234 291 334 409
#     4  12  23  41  68  98 137 178 227 278 346 408
#     4  11  25  45  67  97 140 184 226 280 345 419
#     4  11  23  42  64  95 136 178 227 280 345 413
#     4  12  22  38  68  98 133 176 221 280 347 396
#     4  10  23  42  66  99 134 176 231 283 350 409
#     4  11  22  41  65  98 135 171 227 287 344 400
#     4  10  24  46  70  95 140 182 230 288 338 411
#
# _framework density 22.731584999999999
#
# number of rings (size 3 to 8) (size 9 to 14) (size 15 to 20)
#    0.000    1.000    3.750    3.000    3.500    1.000 
#    4.500    0.000    0.000    0.000    0.000    0.000 
#    0.000    0.000    0.000    0.000    0.000    0.000 
#
# Total GULP energy -89333.224607 kJ/mol
# GULP energy per Si atom -5583.326538 kJ/mol
# Density = 2.267985 g / cm^3
# Si number density = 22.731585 Si / 1000 Ang^3
#
#
#
# Elastic Constant Matrix: (Units=GPa)
#
#
# Indices 1 2 3 4 5 6 
#
# 1 113.9505 22.0286 37.2250 23.6570 23.9495 -20.1888
# 2 22.0286 82.5014 28.0055 12.0613 -6.0392 -28.1787
# 3 37.2250 28.0055 174.5889 28.2768 12.8232 5.3293
# 4 23.6570 12.0613 28.2768 38.4413 1.9529 3.3391
# 5 23.9495 -6.0392 12.8232 1.9529 26.6848 -3.1910
# 6 -20.1888 -28.1787 5.3293 3.3391 -3.1910 37.6611
#
#
#
# Elastic Compliance Matrix: (Units=1/GPa)
#
#
# Indices 1 2 3 4 5 6 
#
# 1 0.014571 -0.000730 -0.001086 -0.007989 -0.011279 0.007171
# 2 -0.000730 0.020781 -0.003509 -0.005442 0.009469 0.016939
# 3 -0.001086 -0.003509 0.007431 -0.003137 -0.003674 -0.004292
# 4 -0.007989 -0.005442 -0.003137 0.035701 0.003545 -0.010776
# 5 -0.011279 0.009469 -0.003674 0.003545 0.051921 0.005643
# 6 0.007171 0.016939 -0.004292 -0.010776 0.005643 0.045112
#
#
# Mechanical properties :
#
#
# Convention : Reuss Voigt Hill
#
# Bulk Modulus (GPa) = 31.12044 60.61768 45.86906
# Shear Modulus (GPa) = 25.39615 39.47622 32.43619
#
# Velocity S-wave (km/s) = 3.34611 4.17180 3.78156
# Velocity P-wave (km/s) = 5.35245 7.06611 6.26812
#
# Compressibility (1/GPa) = 0.03213322
#
# Stress axis : x y z
#
# Youngs Moduli (GPa) = 68.62742 48.12000 134.56790
#
# Poissons Ratio (x) = 0.03514 0.14618
# Poissons Ratio (y) = 0.05011 0.47218
# Poissons Ratio (z) = 0.07455 0.16885
#
# Static dielectric constant tensor:
#      x y z
#    x 1.883070 0.047550 0.051620 
#    y 0.047550 1.914080 0.013950 
#    z 0.051620 0.013950 1.904040 
# 
# From -- ./inp_files/471167.got.cif
#   From: 2010.05.17/outbox.cif.g08.bks.cpg/sg2_236_cif.got.tgz:471167.got - 2010.06.03 11:33:40.
