data_PCOD9039362
_publ_section_title
;
Structure prediction by ZEFSAII (Michael W. Deem and Ramdas Pophale) SiO2 
 PCOD9039362
Probable space group: P -1
;
_chemical_formula_sum "Si O2"
_cell_formula_units_Z 16
_cell_length_a 22.455433
_cell_length_b 5.123080
_cell_length_c 8.939230
_cell_angle_alpha 112.334720
_cell_angle_beta 139.773860
_cell_angle_gamma 79.400215
_cell_volume 604.523819
_symmetry_space_group_name_H-M "P -1"
_symmetry_group_IT_number 2
_symmetry_cell_setting 'triclinic'
loop_
_space_group_symop_operation_xyz
x,y,z
-x,-y,-z
loop_
_atom_site_type_symbol
_atom_site_label
_atom_site_fract_x
_atom_site_fract_y
_atom_site_fract_z
Si Si1 0.323621 0.900676 0.957864
Si Si2 0.710977 0.497046 0.465966
Si Si3 0.296597 0.477239 0.200648
Si Si4 0.562121 0.371345 0.707244
Si Si5 0.851342 0.454533 0.274736
Si Si6 0.973706 0.118363 0.259091
Si Si7 0.920611 0.478347 0.968052
Si Si8 0.564106 0.752873 0.081516
O O1 0.321362 0.788150 0.758802
O O2 0.234246 0.667792 0.804672
O O3 0.429014 0.880774 0.215228
O O4 0.304575 0.191898 0.059266
O O5 0.676662 0.508748 0.574135
O O6 0.820837 0.494058 0.702962
O O7 0.666775 0.752914 0.357548
O O8 0.363554 0.717081 0.288880
O O9 0.194137 0.518113 0.969621
O O10 0.500000 0.500000 0.500000
O O11 0.579670 0.627466 0.919866
O O12 0.924547 0.249688 0.332720
O O13 0.915838 0.749858 0.511339
O O14 0.930011 0.216629 0.040826
O O15 0.950828 0.784841 0.169673
O O16 0.000000 0.500000 0.000000
O O17 0.500000 0.500000 0.000000
O O18 0.500000 0.000000 0.000000
#
# Coordination Sequence:
#
# PCOD9039362 Si02
#       8
#     2   2   2   2   2   2   2   2
#     4  10  24  43  68 102 141 187 248 297 377 433
#     4  11  25  47  73 109 152 195 249 316 368 451
#     4  11  23  45  73 103 141 199 242 306 375 443
#     4  10  24  44  68 104 143 187 243 302 369 449
#     4  10  23  42  68 100 143 191 245 314 361 449
#     4  11  25  43  70 101 145 193 253 301 379 434
#     4  12  26  45  69 110 147 201 251 309 376 446
#     4  11  27  48  76 113 148 193 244 306 375 441
#
# _framework density 26.467115
#
# number of rings (size 3 to 8) (size 9 to 14) (size 15 to 20)
#    0.000    1.250    1.250    2.625    8.750    2.500 
#    2.250    0.000    0.000    0.000    0.000    0.000 
#    0.000    0.000    0.000    0.000    0.000    0.000 
#
# Total GULP energy -89188.349609 kJ/mol
# GULP energy per Si atom -5574.271851 kJ/mol
# Density = 2.640688 g / cm^3
# Si number density = 26.467115 Si / 1000 Ang^3
#
#
#
# Elastic Constant Matrix: (Units=GPa)
#
#
# Indices 1 2 3 4 5 6 
#
# 1 130.1887 17.9525 36.2670 -10.7887 -18.3648 4.2714
# 2 17.9525 95.3085 15.3862 -14.8493 -16.6264 3.4242
# 3 36.2670 15.3862 167.2838 -42.0352 -15.9261 17.0383
# 4 -10.7887 -14.8493 -42.0352 39.6498 2.2355 2.6047
# 5 -18.3648 -16.6264 -15.9261 2.2355 57.2702 -0.8236
# 6 4.2714 3.4242 17.0383 2.6047 -0.8236 20.5881
#
#
#
# Elastic Compliance Matrix: (Units=1/GPa)
#
#
# Indices 1 2 3 4 5 6 
#
# 1 0.008544 -0.000952 -0.001444 0.000347 0.002043 -0.000381
# 2 -0.000952 0.012025 0.001115 0.005460 0.003235 -0.003287
# 3 -0.001444 0.001115 0.010248 0.011408 0.002125 -0.009725
# 4 0.000347 0.005460 0.011408 0.040293 0.003075 -0.015396
# 5 0.002043 0.003235 0.002125 0.003075 0.019493 -0.002330
# 6 -0.000381 -0.003287 -0.009725 -0.015396 -0.002330 0.059100
#
#
# Mechanical properties :
#
#
# Convention : Reuss Voigt Hill
#
# Bulk Modulus (GPa) = 35.39263 59.11027 47.25145
# Shear Modulus (GPa) = 30.92467 45.04664 37.98565
#
# Velocity S-wave (km/s) = 3.42192 4.12999 3.79252
# Velocity P-wave (km/s) = 5.38647 6.71747 6.08845
#
# Compressibility (1/GPa) = 0.02825447
#
# Stress axis : x y z
#
# Youngs Moduli (GPa) = 117.03826 83.16184 97.58083
#
# Poissons Ratio (x) = 0.07918 0.14094
# Poissons Ratio (y) = 0.11144 -0.10883
# Poissons Ratio (z) = 0.16904 -0.09274
#
# Static dielectric constant tensor:
#      x y z
#    x 2.306740 -0.096280 0.360540 
#    y -0.096280 2.426860 -0.235990 
#    z 0.360540 -0.235990 2.650190 
# 
# From -- ./inp_files/350785.got.cif
#   From: 2010.05.17/outbox.cif.g08.bks.cpg/sg2_176_cif.got.tgz:350785.got - 2010.06.03 11:33:40.
