data_PCOD9039789
_publ_section_title
;
Structure prediction by ZEFSAII (Michael W. Deem and Ramdas Pophale) SiO2 
 PCOD9039789
Probable space group: P -1
;
_chemical_formula_sum "Si O2"
_cell_formula_units_Z 16
_cell_length_a 11.690915
_cell_length_b 12.572822
_cell_length_c 7.699170
_cell_angle_alpha 143.914776
_cell_angle_beta 108.045871
_cell_angle_gamma 68.450391
_cell_volume 619.783421
_symmetry_space_group_name_H-M "P -1"
_symmetry_group_IT_number 2
_symmetry_cell_setting 'triclinic'
loop_
_space_group_symop_operation_xyz
x,y,z
-x,-y,-z
loop_
_atom_site_type_symbol
_atom_site_label
_atom_site_fract_x
_atom_site_fract_y
_atom_site_fract_z
Si Si1 0.629881 0.399772 0.349362
Si Si2 0.118921 0.521519 0.265642
Si Si3 0.849365 0.685744 0.476799
Si Si4 0.306647 0.596222 0.010131
Si Si5 0.568865 0.109010 0.436700
Si Si6 0.332828 0.001911 0.276170
Si Si7 0.104280 0.839709 0.406304
Si Si8 0.222961 0.155730 0.975791
O O1 0.500000 0.500000 0.500000
O O2 0.751627 0.443236 0.552667
O O3 0.636428 0.440520 0.200567
O O4 0.644753 0.180493 0.068685
O O5 0.088042 0.661798 0.273046
O O6 0.991373 0.586406 0.397936
O O7 0.153839 0.296949 0.981196
O O8 0.755656 0.573361 0.193164
O O9 0.807504 0.889343 0.645758
O O10 0.810593 0.723504 0.708736
O O11 0.393151 0.690853 0.301470
O O12 0.184371 0.758577 0.169214
O O13 0.620261 0.050960 0.578052
O O14 0.424936 0.120803 0.393907
O O15 0.635947 0.933790 0.122816
O O16 0.175711 0.965715 0.721055
O O17 0.000000 0.000000 0.500000
#
# Coordination Sequence:
#
# PCOD9039789 Si02
#       8
#     2   2   2   2   2   2   2   2
#     4  11  24  48  74 104 143 193 243 302 363 432
#     4  12  27  45  75 107 152 190 243 302 372 429
#     4  12  26  43  71 109 144 192 239 306 366 440
#     4  10  24  46  69 106 141 185 242 301 357 434
#     4   9  22  46  69  98 144 190 242 301 352 436
#     4  10  23  42  71 101 139 192 244 293 372 424
#     4  11  27  45  71 106 148 194 243 296 362 441
#     4  11  24  45  70 102 143 191 244 299 360 437
#
# _framework density 25.815470999999999
#
# number of rings (size 3 to 8) (size 9 to 14) (size 15 to 20)
#    0.000    1.250    1.250    2.625    8.750    3.000 
#    4.500    0.000    0.000    0.000    0.000    0.000 
#    0.000    0.000    0.000    0.000    0.000    0.000 
#
# Total GULP energy -89331.017618 kJ/mol
# GULP energy per Si atom -5583.188601 kJ/mol
# Density = 2.575671 g / cm^3
# Si number density = 25.815471 Si / 1000 Ang^3
#
#
#
# Elastic Constant Matrix: (Units=GPa)
#
#
# Indices 1 2 3 4 5 6 
#
# 1 121.0419 38.8711 64.9333 5.0446 -28.7062 -8.7741
# 2 38.8711 114.2407 33.5515 21.3379 -18.9105 -8.9489
# 3 64.9333 33.5515 135.6952 17.1530 -28.7525 0.1966
# 4 5.0446 21.3379 17.1530 27.1245 -0.2099 -5.1419
# 5 -28.7062 -18.9105 -28.7525 -0.2099 52.7786 13.8708
# 6 -8.7741 -8.9489 0.1966 -5.1419 13.8708 42.3878
#
#
#
# Elastic Compliance Matrix: (Units=1/GPa)
#
#
# Indices 1 2 3 4 5 6 
#
# 1 0.012545 -0.002849 -0.005204 0.003524 0.002558 0.001610
# 2 -0.002849 0.011773 0.000145 -0.008815 0.002731 -0.000068
# 3 -0.005204 0.000145 0.011676 -0.007145 0.004454 -0.003425
# 4 0.003524 -0.008815 -0.007145 0.048951 -0.006796 0.007063
# 5 0.002558 0.002731 0.004454 -0.006796 0.025873 -0.008205
# 6 0.001610 -0.000068 -0.003425 0.007063 -0.008205 0.027468
#
#
# Mechanical properties :
#
#
# Convention : Reuss Voigt Hill
#
# Bulk Modulus (GPa) = 49.55810 71.74329 60.65070
# Shear Modulus (GPa) = 31.08913 40.03296 35.56104
#
# Velocity S-wave (km/s) = 3.47404 3.94221 3.71551
# Velocity P-wave (km/s) = 5.94396 6.96940 6.47701
#
# Compressibility (1/GPa) = 0.02017833
#
# Stress axis : x y z
#
# Youngs Moduli (GPa) = 79.71418 84.93748 85.64726
#
# Poissons Ratio (x) = 0.24195 0.44574
# Poissons Ratio (y) = 0.22707 -0.01243
# Poissons Ratio (z) = 0.41486 -0.01233
#
# Static dielectric constant tensor:
#      x y z
#    x 2.161100 0.048860 0.075470 
#    y 0.048860 2.089350 -0.019490 
#    z 0.075470 -0.019490 2.065110 
# 
# From -- ./inp_files/274897.got.cif
#   From: 2010.05.17/outbox.cif.g08.bks.cpg/sg2_138_cif.got.tgz:274897.got - 2010.06.03 11:33:40.
