data_PCOD9039729
_publ_section_title
;
Structure prediction by ZEFSAII (Michael W. Deem and Ramdas Pophale) SiO2 
 PCOD9039729
Probable space group: P -1
;
_chemical_formula_sum "Si O2"
_cell_formula_units_Z 13
_cell_length_a 7.247609
_cell_length_b 10.976976
_cell_length_c 10.348663
_cell_angle_alpha 127.824997
_cell_angle_beta 53.370541
_cell_angle_gamma 104.210133
_cell_volume 512.386702
_symmetry_space_group_name_H-M "P -1"
_symmetry_group_IT_number 2
_symmetry_cell_setting 'triclinic'
loop_
_space_group_symop_operation_xyz
x,y,z
-x,-y,-z
loop_
_atom_site_type_symbol
_atom_site_label
_atom_site_fract_x
_atom_site_fract_y
_atom_site_fract_z
Si Si1 0.366838 0.116468 0.985491
Si Si2 0.346652 0.623454 0.239747
Si Si3 0.797234 0.738438 0.124125
Si Si4 0.000000 0.500000 0.500000
Si Si5 0.801436 0.488890 0.294840
Si Si6 0.891034 0.151735 0.721449
Si Si7 0.467176 0.246068 0.278136
O O1 0.236294 0.179489 0.950057
O O2 0.635014 0.138787 0.873254
O O3 0.386238 0.929275 0.873033
O O4 0.288796 0.219396 0.216553
O O5 0.539447 0.723647 0.269583
O O6 0.156894 0.720914 0.288199
O O7 0.216861 0.549537 0.356238
O O8 0.500000 0.500000 0.000000
O O9 0.934563 0.826157 0.223485
O O10 0.969919 0.570241 0.924384
O O11 0.118462 0.547923 0.616018
O O12 0.331451 0.330634 0.514981
O O13 0.627650 0.370827 0.253086
O O14 0.000000 0.000000 0.500000
#
# Coordination Sequence:
#
# PCOD9039729 Si02
#       7
#     2   2   2   1   2   2   2
#     4  10  23  45  72 108 160 203 263 318 387 471
#     4  11  27  50  78 114 155 198 262 326 379 467
#     4  11  24  49  77 108 150 208 258 324 392 459
#     4  12  26  46  74 118 150 202 256 316 392 458
#     4  11  23  42  77 111 157 201 260 322 386 455
#     4  11  27  48  74 108 153 208 256 318 398 463
#     4  10  23  42  70 118 157 202 261 324 382 465
#
# _framework density 25.371464
#
# number of rings (size 3 to 8) (size 9 to 14) (size 15 to 20)
#    0.000    1.231    3.077    0.923    4.308    6.154 
#    2.769    0.000    0.000    0.000    0.000    0.000 
#    0.000    0.000    0.000    0.000    0.000    0.000 
#
# Total GULP energy -72578.594474 kJ/mol
# GULP energy per Si atom -5582.968806 kJ/mol
# Density = 2.531372 g / cm^3
# Si number density = 25.371464 Si / 1000 Ang^3
#
#
#
# Elastic Constant Matrix: (Units=GPa)
#
#
# Indices 1 2 3 4 5 6 
#
# 1 195.7269 50.3694 64.6002 13.5669 28.3811 -0.9014
# 2 50.3694 101.5701 52.7648 3.4231 6.2844 -13.1381
# 3 64.6002 52.7648 121.2363 22.7063 35.7691 -5.3696
# 4 13.5669 3.4231 22.7063 51.1140 8.7755 4.3484
# 5 28.3811 6.2844 35.7691 8.7755 39.4069 -7.2699
# 6 -0.9014 -13.1381 -5.3696 4.3484 -7.2699 49.1239
#
#
#
# Elastic Compliance Matrix: (Units=1/GPa)
#
#
# Indices 1 2 3 4 5 6 
#
# 1 0.006740 -0.002465 -0.001580 -0.000278 -0.003178 -0.001154
# 2 -0.002465 0.014813 -0.007060 0.001392 0.006239 0.003945
# 3 -0.001580 -0.007060 0.016421 -0.004215 -0.011983 -0.001523
# 4 -0.000278 0.001392 -0.004215 0.021862 -0.001478 -0.002248
# 5 -0.003178 0.006239 -0.011983 -0.001478 0.039021 0.006206
# 6 -0.001154 0.003945 -0.001523 -0.002248 0.006206 0.022342
#
#
# Mechanical properties :
#
#
# Convention : Reuss Voigt Hill
#
# Bulk Modulus (GPa) = 63.43954 83.77801 73.60878
# Shear Modulus (GPa) = 33.63334 44.64889 39.14111
#
# Velocity S-wave (km/s) = 3.64488 4.19956 3.93201
# Velocity P-wave (km/s) = 6.54004 7.52378 7.04909
#
# Compressibility (1/GPa) = 0.01576304
#
# Stress axis : x y z
#
# Youngs Moduli (GPa) = 148.37528 67.50937 60.89948
#
# Poissons Ratio (x) = 0.16639 0.09622
# Poissons Ratio (y) = 0.36571 0.42997
# Poissons Ratio (z) = 0.23443 0.47663
#
# Static dielectric constant tensor:
#      x y z
#    x 2.111310 -0.074450 -0.033340 
#    y -0.074450 2.188980 0.059980 
#    z -0.033340 0.059980 1.918620 
# 
# From -- ./inp_files/129590.got.cif
#   From: 2010.05.17/outbox.cif.g08.bks.cpg/sg2_65_cif.got.tgz:129590.got - 2010.06.03 11:33:40.
