data_PCOD9039804
_publ_section_title
;
Structure prediction by ZEFSAII (Michael W. Deem and Ramdas Pophale) SiO2 
 PCOD9039804
Probable space group: P -1
;
_chemical_formula_sum "Si O2"
_cell_formula_units_Z 12
_cell_length_a 12.846503
_cell_length_b 12.197938
_cell_length_c 7.611855
_cell_angle_alpha 145.735069
_cell_angle_beta 54.992710
_cell_angle_gamma 137.279586
_cell_volume 453.847840
_symmetry_space_group_name_H-M "P -1"
_symmetry_group_IT_number 2
_symmetry_cell_setting 'triclinic'
loop_
_space_group_symop_operation_xyz
x,y,z
-x,-y,-z
loop_
_atom_site_type_symbol
_atom_site_label
_atom_site_fract_x
_atom_site_fract_y
_atom_site_fract_z
Si Si1 0.114429 0.668277 0.451160
Si Si2 0.577789 0.852522 0.243897
Si Si3 0.792754 0.904272 0.661668
Si Si4 0.890634 0.731070 0.035041
Si Si5 0.160430 0.376122 0.460692
Si Si6 0.504980 0.342223 0.541696
O O1 0.000000 0.500000 0.500000
O O2 0.992577 0.630272 0.373301
O O3 0.244685 0.943892 0.713313
O O4 0.200956 0.538695 0.169496
O O5 0.556039 0.778896 0.371514
O O6 0.500000 0.000000 0.500000
O O7 0.527892 0.600558 0.868492
O O8 0.829699 0.858965 0.371143
O O9 0.814938 0.746803 0.566515
O O10 0.618228 0.821151 0.704193
O O11 0.936480 0.156091 0.912352
O O12 0.874058 0.744918 0.861089
O O13 0.328768 0.613447 0.588761
#
# Coordination Sequence:
#
# PCOD9039804 Si02
#       6
#     2   2   2   2   2   2
#     4  10  23  42  71 103 133 188 239 283 345 421
#     4  11  23  44  74 101 143 189 232 288 355 416
#     4  11  24  42  69 105 140 180 234 290 351 413
#     4  10  23  43  69 101 137 180 240 284 350 418
#     4  11  24  44  70  99 139 189 227 286 353 409
#     4  11  25  43  68 106 143 180 236 291 349 420
#
# _framework density 26.440581999999999
#
# number of rings (size 3 to 8) (size 9 to 14) (size 15 to 20)
#    0.000    1.333    0.000    6.000   11.667    0.667 
#    3.000    0.833    0.000    0.000    0.000    0.000 
#    0.000    0.000    0.000    0.000    0.000    0.000 
#
# Total GULP energy -66995.608696 kJ/mol
# GULP energy per Si atom -5582.967391 kJ/mol
# Density = 2.638040 g / cm^3
# Si number density = 26.440582 Si / 1000 Ang^3
#
#
#
# Elastic Constant Matrix: (Units=GPa)
#
#
# Indices 1 2 3 4 5 6 
#
# 1 145.8500 25.1219 22.8453 22.8342 12.9120 11.3497
# 2 25.1219 104.0959 30.0560 25.6019 0.9231 -2.0939
# 3 22.8453 30.0560 54.0187 30.5137 0.3170 3.7597
# 4 22.8342 25.6019 30.5137 40.7330 3.3795 8.0526
# 5 12.9120 0.9231 0.3170 3.3795 38.6897 4.8662
# 6 11.3497 -2.0939 3.7597 8.0526 4.8662 50.5951
#
#
#
# Elastic Compliance Matrix: (Units=1/GPa)
#
#
# Indices 1 2 3 4 5 6 
#
# 1 0.007893 -0.000917 -0.001375 -0.002413 -0.002251 -0.001106
# 2 -0.000917 0.012100 -0.003915 -0.004512 0.000230 0.001693
# 3 -0.001375 -0.003915 0.033936 -0.022567 0.002118 0.001012
# 4 -0.002413 -0.004512 -0.022567 0.046867 -0.002341 -0.005202
# 5 -0.002251 0.000230 0.002118 -0.002341 0.027015 -0.001868
# 6 -0.001106 0.001693 0.001012 -0.005202 -0.001868 0.021015
#
#
# Mechanical properties :
#
#
# Convention : Reuss Voigt Hill
#
# Bulk Modulus (GPa) = 24.08681 51.11233 37.59957
# Shear Modulus (GPa) = 28.55885 41.06633 34.81259
#
# Velocity S-wave (km/s) = 3.29007 3.94528 3.63248
# Velocity P-wave (km/s) = 4.85411 6.33456 5.64309
#
# Compressibility (1/GPa) = 0.04151651
#
# Stress axis : x y z
#
# Youngs Moduli (GPa) = 126.69932 82.64488 29.46706
#
# Poissons Ratio (x) = 0.07576 0.04050
# Poissons Ratio (y) = 0.11614 0.11536
# Poissons Ratio (z) = 0.17415 0.32356
#
# Static dielectric constant tensor:
#      x y z
#    x 2.130990 0.123570 -0.102800 
#    y 0.123570 2.162360 -0.018230 
#    z -0.102800 -0.018230 2.212150 
# 
# From -- ./inp_files/301863.got.cif
#   From: 2010.05.17/outbox.cif.g08.bks.cpg/sg2_151_cif.got.tgz:301863.got - 2010.06.03 11:33:40.
