data_PCOD9039924
_publ_section_title
;
Structure prediction by ZEFSAII (Michael W. Deem and Ramdas Pophale) SiO2 
 PCOD9039924
Probable space group: P -1
;
_chemical_formula_sum "Si O2"
_cell_formula_units_Z 12
_cell_length_a 5.012788
_cell_length_b 11.675634
_cell_length_c 11.903676
_cell_angle_alpha 112.777704
_cell_angle_beta 131.071720
_cell_angle_gamma 63.693849
_cell_volume 466.060498
_symmetry_space_group_name_H-M "P -1"
_symmetry_group_IT_number 2
_symmetry_cell_setting 'triclinic'
loop_
_space_group_symop_operation_xyz
x,y,z
-x,-y,-z
loop_
_atom_site_type_symbol
_atom_site_label
_atom_site_fract_x
_atom_site_fract_y
_atom_site_fract_z
Si Si1 0.859255 0.318302 0.449610
Si Si2 0.984923 0.853937 0.926943
Si Si3 0.189739 0.201565 0.892417
Si Si4 0.114693 0.467677 0.893383
Si Si5 0.082168 0.432374 0.353905
Si Si6 0.175349 0.949164 0.649110
O O1 0.515515 0.360437 0.458126
O O2 0.075504 0.418554 0.593630
O O3 0.016979 0.165662 0.427379
O O4 0.839733 0.361082 0.329800
O O5 0.609931 0.869891 0.758508
O O6 0.975698 0.795970 0.027532
O O7 0.388559 0.796217 0.967152
O O8 0.000000 0.000000 0.000000
O O9 0.072325 0.322134 0.820261
O O10 0.138277 0.071789 0.768530
O O11 0.911381 0.559831 0.774481
O O12 0.500000 0.500000 0.000000
O O13 0.000000 0.500000 0.000000
O O14 0.000000 0.000000 0.500000
#
# Coordination Sequence:
#
# PCOD9039924 Si02
#       6
#     2   2   2   2   2   2
#     4  10  23  42  72  92 137 176 220 280 346 406
#     4  10  23  44  67  98 142 181 218 279 349 415
#     4  11  25  47  68 102 142 179 228 284 349 412
#     4  12  26  42  69 101 135 179 231 279 333 410
#     4  10  23  45  63 101 134 176 223 278 336 406
#     4  11  24  44  73 104 134 181 235 290 345 406
#
# _framework density 25.747731000000002
#
# number of rings (size 3 to 8) (size 9 to 14) (size 15 to 20)
#    0.000    1.333    0.000    5.000    7.000    2.667 
#    0.000   20.000    0.000    0.000    0.000    0.000 
#    0.000    0.000    0.000    0.000    0.000    0.000 
#
# Total GULP energy -66848.718576 kJ/mol
# GULP energy per Si atom -5570.726548 kJ/mol
# Density = 2.568913 g / cm^3
# Si number density = 25.747731 Si / 1000 Ang^3
#
#
#
# Elastic Constant Matrix: (Units=GPa)
#
#
# Indices 1 2 3 4 5 6 
#
# 1 132.6868 44.7523 16.3815 1.2858 -23.7576 31.0751
# 2 44.7523 176.1032 52.9911 20.7776 -27.6113 38.8040
# 3 16.3815 52.9911 112.9069 6.8306 -23.6029 4.9421
# 4 1.2858 20.7776 6.8306 44.6431 -9.5033 -9.7581
# 5 -23.7576 -27.6113 -23.6029 -9.5033 25.1022 -6.0620
# 6 31.0751 38.8040 4.9421 -9.7581 -6.0620 35.3692
#
#
#
# Elastic Compliance Matrix: (Units=1/GPa)
#
#
# Indices 1 2 3 4 5 6 
#
# 1 0.011026 0.000528 0.000476 -0.000671 0.009044 -0.008968
# 2 0.000528 0.010776 -0.003438 -0.006616 0.003467 -0.013037
# 3 0.000476 -0.003438 0.012179 0.002804 0.010190 0.004172
# 4 -0.000671 -0.006616 0.002804 0.031322 0.010922 0.017970
# 5 0.009044 0.003467 0.010190 0.010922 0.066213 0.001188
# 6 -0.008968 -0.013037 0.004172 0.017970 0.001188 0.055034
#
#
# Mechanical properties :
#
#
# Convention : Reuss Voigt Hill
#
# Bulk Modulus (GPa) = 34.34926 72.21630 53.28278
# Shear Modulus (GPa) = 24.86050 41.52770 33.19410
#
# Velocity S-wave (km/s) = 3.11069 4.02041 3.59445
# Velocity P-wave (km/s) = 5.12557 7.04699 6.16164
#
# Compressibility (1/GPa) = 0.02911271
#
# Stress axis : x y z
#
# Youngs Moduli (GPa) = 90.69598 92.80138 82.10576
#
# Poissons Ratio (x) = -0.04901 -0.03910
# Poissons Ratio (y) = -0.04790 0.28232
# Poissons Ratio (z) = -0.04319 0.31909
#
# Static dielectric constant tensor:
#      x y z
#    x 2.182340 -0.156450 0.162410 
#    y -0.156450 2.202740 -0.042890 
#    z 0.162410 -0.042890 2.259660 
# 
# From -- ./inp_files/362238.got.cif
#   From: 2010.05.17/outbox.cif.g08.bks.cpg/sg2_182_cif.got.tgz:362238.got - 2010.06.03 11:33:40.
