data_PCOD9039856
_publ_section_title
;
Structure prediction by ZEFSAII (Michael W. Deem and Ramdas Pophale) SiO2 
 PCOD9039856
Probable space group: P -1
;
_chemical_formula_sum "Si O2"
_cell_formula_units_Z 15
_cell_length_a 19.230882
_cell_length_b 15.629714
_cell_length_c 5.106132
_cell_angle_alpha 105.311365
_cell_angle_beta 99.159350
_cell_angle_gamma 21.016706
_cell_volume 513.699032
_symmetry_space_group_name_H-M "P -1"
_symmetry_group_IT_number 2
_symmetry_cell_setting 'triclinic'
loop_
_space_group_symop_operation_xyz
x,y,z
-x,-y,-z
loop_
_atom_site_type_symbol
_atom_site_label
_atom_site_fract_x
_atom_site_fract_y
_atom_site_fract_z
Si Si1 0.766611 0.274936 0.306810
Si Si2 0.758125 0.034553 0.331512
Si Si3 0.917901 0.952905 0.787068
Si Si4 0.436923 0.403007 0.064476
Si Si5 0.812079 0.477884 0.054187
Si Si6 0.500000 0.000000 0.500000
Si Si7 0.760670 0.849258 0.373182
Si Si8 0.217132 0.329040 0.143196
O O1 0.636510 0.447079 0.620154
O O2 0.960999 0.107811 0.315336
O O3 0.649111 0.451722 0.128664
O O4 0.832173 0.099456 0.120028
O O5 0.668382 0.128995 0.062776
O O6 0.755005 0.115552 0.609822
O O7 0.668773 0.053930 0.441512
O O8 0.996196 0.743744 0.199757
O O9 0.081998 0.685267 0.752826
O O10 0.338869 0.421168 0.039924
O O11 0.735470 0.669570 0.110524
O O12 0.366179 0.062912 0.444020
O O13 0.373855 0.187161 0.317619
O O14 0.997111 0.586825 0.355427
O O15 0.766073 0.789571 0.054796
#
# Coordination Sequence:
#
# PCOD9039856 Si02
#       8
#     2   2   2   2   2   1   2   2
#     4  10  24  44  71 101 142 184 234 288 352 415
#     4  11  24  42  67  99 133 179 231 284 348 414
#     4  10  23  42  71  95 134 185 226 287 346 415
#     4  11  24  44  67 104 141 181 234 290 348 414
#     4  10  23  44  64  95 135 180 227 288 341 417
#     4  12  22  40  70  96 126 178 224 282 348 414
#     4  10  24  44  64  98 136 178 227 286 347 420
#     4  10  23  44  66  96 135 179 231 281 349 416
#
# _framework density 29.199974999999998
#
# number of rings (size 3 to 8) (size 9 to 14) (size 15 to 20)
#    0.000    1.600    1.333    1.600    3.733    8.000 
#    7.200    0.000    0.000    0.000    0.000    0.000 
#    0.000    0.000    0.000    0.000    0.000    0.000 
#
# Total GULP energy -83886.949413 kJ/mol
# GULP energy per Si atom -5592.463294 kJ/mol
# Density = 2.913351 g / cm^3
# Si number density = 29.199975 Si / 1000 Ang^3
#
#
#
# Elastic Constant Matrix: (Units=GPa)
#
#
# Indices 1 2 3 4 5 6 
#
# 1 166.9430 48.5422 21.9795 -34.5472 19.5651 -4.4289
# 2 48.5422 120.8245 51.2749 -40.2394 27.5152 -26.4584
# 3 21.9795 51.2749 105.6770 -37.5601 5.5393 9.3664
# 4 -34.5472 -40.2394 -37.5601 47.7475 -8.2215 6.2800
# 5 19.5651 27.5152 5.5393 -8.2215 47.1567 5.4260
# 6 -4.4289 -26.4584 9.3664 6.2800 5.4260 58.8356
#
#
#
# Elastic Compliance Matrix: (Units=1/GPa)
#
#
# Indices 1 2 3 4 5 6 
#
# 1 0.007456 -0.001816 0.001114 0.004629 -0.001264 -0.000810
# 2 -0.001816 0.017668 -0.006484 0.005766 -0.008829 0.009040
# 3 0.001114 -0.006484 0.016208 0.009654 0.003883 -0.006801
# 4 0.004629 0.005766 0.009654 0.037150 0.000356 -0.002593
# 5 -0.001264 -0.008829 0.003883 0.000356 0.027321 -0.007241
# 6 -0.000810 0.009040 -0.006801 -0.002593 -0.007241 0.023028
#
#
# Mechanical properties :
#
#
# Convention : Reuss Voigt Hill
#
# Bulk Modulus (GPa) = 37.09192 70.78197 53.93694
# Shear Modulus (GPa) = 32.85384 48.85781 40.85582
#
# Velocity S-wave (km/s) = 3.35794 4.09493 3.74461
# Velocity P-wave (km/s) = 5.26922 6.83015 6.09982
#
# Compressibility (1/GPa) = 0.02696005
#
# Stress axis : x y z
#
# Youngs Moduli (GPa) = 134.11749 56.59905 61.69906
#
# Poissons Ratio (x) = 0.10278 -0.06872
# Poissons Ratio (y) = 0.24354 0.40005
# Poissons Ratio (z) = -0.14938 0.36698
#
# Static dielectric constant tensor:
#      x y z
#    x 2.269570 0.131000 -0.080970 
#    y 0.131000 2.351680 -0.031090 
#    z -0.080970 -0.031090 2.005560 
# 
# From -- ./inp_files/120129.got.cif
#   From: 2010.05.17/outbox.cif.g08.bks.cpg/sg2_61_cif.got.tgz:120129.got - 2010.06.03 11:33:40.
