data_PCOD9039347
_publ_section_title
;
Structure prediction by ZEFSAII (Michael W. Deem and Ramdas Pophale) SiO2 
 PCOD9039347
Probable space group: P -1
;
_chemical_formula_sum "Si O2"
_cell_formula_units_Z 16
_cell_length_a 23.295359
_cell_length_b 14.561559
_cell_length_c 6.252824
_cell_angle_alpha 102.657795
_cell_angle_beta 77.228579
_cell_angle_gamma 159.908457
_cell_volume 710.183127
_symmetry_space_group_name_H-M "P -1"
_symmetry_group_IT_number 2
_symmetry_cell_setting 'triclinic'
loop_
_space_group_symop_operation_xyz
x,y,z
-x,-y,-z
loop_
_atom_site_type_symbol
_atom_site_label
_atom_site_fract_x
_atom_site_fract_y
_atom_site_fract_z
Si Si1 0.695557 0.372157 0.648233
Si Si2 0.437075 0.020450 0.326818
Si Si3 0.868375 0.312321 0.702028
Si Si4 0.589369 0.690770 0.218505
Si Si5 0.013426 0.185583 0.694890
Si Si6 0.692111 0.673098 0.419687
Si Si7 0.260176 0.446346 0.907456
Si Si8 0.102866 0.792208 0.026676
O O1 0.529672 0.155564 0.548265
O O2 0.836618 0.557727 0.453979
O O3 0.654296 0.216813 0.736818
O O4 0.758253 0.551783 0.832267
O O5 0.584232 0.258932 0.158957
O O6 0.302778 0.901178 0.351249
O O7 0.850449 0.187492 0.778066
O O8 0.000000 0.500000 0.500000
O O9 0.948278 0.505364 0.904137
O O10 0.670888 0.737047 0.336320
O O11 0.455769 0.548456 0.395835
O O12 0.500000 0.500000 0.000000
O O13 0.736649 0.972300 0.138336
O O14 0.095385 0.231448 0.805713
O O15 0.946080 0.173368 0.877200
O O16 0.863051 0.925134 0.539752
O O17 0.692212 0.587891 0.209445
#
# Coordination Sequence:
#
# PCOD9039347 Si02
#       8
#     2   2   2   2   2   2   2   2
#     4  10  23  43  70  99 136 186 222 284 353 405
#     4  10  23  42  67  99 139 176 232 280 344 416
#     4  11  26  43  72 106 139 178 230 288 342 414
#     4  11  26  47  73  98 140 188 228 285 348 406
#     4  11  24  45  69 100 138 182 231 280 345 417
#     4  11  27  45  71 104 135 184 238 284 340 412
#     4  11  25  43  70 102 137 176 233 288 339 410
#     4  11  26  45  71 105 138 185 229 281 351 412
#
# _framework density 22.529401
#
# number of rings (size 3 to 8) (size 9 to 14) (size 15 to 20)
#    0.000    1.250    1.250    2.250    8.750    6.500 
#    0.000    0.000    0.000    0.000    0.000    0.000 
#    0.000    0.000    0.000    0.000    0.000    0.000 
#
# Total GULP energy -89607.057860 kJ/mol
# GULP energy per Si atom -5600.441116 kJ/mol
# Density = 2.247812 g / cm^3
# Si number density = 22.529401 Si / 1000 Ang^3
#
#
#
# Elastic Constant Matrix: (Units=GPa)
#
#
# Indices 1 2 3 4 5 6 
#
# 1 88.7353 28.7420 18.0134 -5.8530 5.0949 26.3809
# 2 28.7420 79.0838 9.7547 -4.8428 8.8021 21.2940
# 3 18.0134 9.7547 49.4618 0.2690 -1.7726 13.7899
# 4 -5.8530 -4.8428 0.2690 30.8011 -10.6451 0.0845
# 5 5.0949 8.8021 -1.7726 -10.6451 29.0851 5.9567
# 6 26.3809 21.2940 13.7899 0.0845 5.9567 37.2146
#
#
#
# Elastic Compliance Matrix: (Units=1/GPa)
#
#
# Indices 1 2 3 4 5 6 
#
# 1 0.015388 -0.002922 -0.002683 0.002772 0.000754 -0.008369
# 2 -0.002922 0.015841 -0.000362 0.001059 -0.002597 -0.006445
# 3 -0.002683 -0.000362 0.023386 0.000512 0.003655 -0.007143
# 4 0.002772 0.001059 0.000512 0.038081 0.014212 -0.005121
# 5 0.000754 -0.002597 0.003655 0.014212 0.041923 -0.007146
# 6 -0.008369 -0.006445 -0.007143 -0.005121 -0.007146 0.040294
#
#
# Mechanical properties :
#
#
# Convention : Reuss Voigt Hill
#
# Bulk Modulus (GPa) = 23.42950 36.70012 30.06481
# Shear Modulus (GPa) = 24.86653 30.13823 27.50238
#
# Velocity S-wave (km/s) = 3.32586 3.66147 3.49769
# Velocity P-wave (km/s) = 5.01702 5.84811 5.44843
#
# Compressibility (1/GPa) = 0.04268123
#
# Stress axis : x y z
#
# Youngs Moduli (GPa) = 64.98421 63.12818 42.76129
#
# Poissons Ratio (x) = 0.18449 0.11471
# Poissons Ratio (y) = 0.18992 0.01547
# Poissons Ratio (z) = 0.17433 0.02283
#
# Static dielectric constant tensor:
#      x y z
#    x 1.798160 -0.029740 0.008780 
#    y -0.029740 1.829470 0.018830 
#    z 0.008780 0.018830 1.826050 
# 
# From -- ./inp_files/124313.got.cif
#   From: 2010.05.17/outbox.cif.g08.bks.cpg/sg2_63_cif.got.tgz:124313.got - 2010.06.03 11:33:40.
