data_PCOD9039278
_publ_section_title
;
Structure prediction by ZEFSAII (Michael W. Deem and Ramdas Pophale) SiO2 
 PCOD9039278
Probable space group: P -1
;
_chemical_formula_sum "Si O2"
_cell_formula_units_Z 16
_cell_length_a 15.268598
_cell_length_b 8.614913
_cell_length_c 13.505810
_cell_angle_alpha 32.185303
_cell_angle_beta 54.768233
_cell_angle_gamma 67.103849
_cell_volume 752.598957
_symmetry_space_group_name_H-M "P -1"
_symmetry_group_IT_number 2
_symmetry_cell_setting 'triclinic'
loop_
_space_group_symop_operation_xyz
x,y,z
-x,-y,-z
loop_
_atom_site_type_symbol
_atom_site_label
_atom_site_fract_x
_atom_site_fract_y
_atom_site_fract_z
Si Si1 0.261252 0.703973 0.500293
Si Si2 0.507416 0.895860 0.936025
Si Si3 0.086818 0.383389 0.438869
Si Si4 0.393372 0.346849 0.716578
Si Si5 0.491002 0.332673 0.345688
Si Si6 0.075101 0.770948 0.041135
Si Si7 0.761647 0.687133 0.450717
Si Si8 0.046683 0.826206 0.650050
O O1 0.288230 0.428112 0.693274
O O2 0.210385 0.561633 0.507418
O O3 0.175634 0.848818 0.534907
O O4 0.377490 0.928258 0.280020
O O5 0.404764 0.006235 0.897134
O O6 0.504434 0.548090 0.125775
O O7 0.500000 0.000000 0.000000
O O8 0.102313 0.586081 0.219423
O O9 0.195866 0.383939 0.431455
O O10 0.000000 0.500000 0.500000
O O11 0.036538 0.031335 0.639075
O O12 0.500000 0.500000 0.500000
O O13 0.418714 0.507946 0.719202
O O14 0.368449 0.337680 0.459379
O O15 0.500000 0.000000 0.500000
O O16 0.013336 0.519411 0.139265
O O17 0.177575 0.986892 0.803783
O O18 0.000000 0.000000 0.000000
O O19 0.000000 0.000000 0.500000
#
# Coordination Sequence:
#
# PCOD9039278 Si02
#       8
#     2   2   2   2   2   2   2   2
#     4  11  20  39  70  93 127 177 220 275 328 397
#     4   9  18  39  62  91 123 171 221 261 324 387
#     4  11  24  44  67  96 134 173 221 276 332 399
#     4   9  18  38  63  86 121 167 220 256 324 390
#     4  11  24  40  59  94 136 166 218 279 313 389
#     4  11  22  44  67  98 133 171 217 274 334 393
#     4  12  23  41  66  96 136 170 219 272 334 384
#     4  10  23  42  67  94 134 171 219 273 332 405
#
# _framework density 21.259663
#
# number of rings (size 3 to 8) (size 9 to 14) (size 15 to 20)
#    0.000    1.500    6.250    0.750    1.750    3.500 
#    0.000    2.500    0.000    0.000    0.000    0.000 
#    0.000    0.000    0.000    0.000    0.000    0.000 
#
# Total GULP energy -89258.187230 kJ/mol
# GULP energy per Si atom -5578.636702 kJ/mol
# Density = 2.121127 g / cm^3
# Si number density = 21.259663 Si / 1000 Ang^3
#
#
#
# Elastic Constant Matrix: (Units=GPa)
#
#
# Indices 1 2 3 4 5 6 
#
# 1 91.7707 17.1700 26.1964 -5.6059 18.7289 -1.1535
# 2 17.1700 87.7873 27.3739 -29.1388 -1.4330 -4.6493
# 3 26.1964 27.3739 125.0711 -19.5205 9.5529 -6.5133
# 4 -5.6059 -29.1388 -19.5205 39.9747 -5.3304 -2.4806
# 5 18.7289 -1.4330 9.5529 -5.3304 38.1226 -2.7128
# 6 -1.1535 -4.6493 -6.5133 -2.4806 -2.7128 29.0807
#
#
#
# Elastic Compliance Matrix: (Units=1/GPa)
#
#
# Indices 1 2 3 4 5 6 
#
# 1 0.013179 -0.002816 -0.002046 -0.002136 -0.006449 -0.001169
# 2 -0.002816 0.016534 -0.001321 0.011804 0.004245 0.003639
# 3 -0.002046 -0.001321 0.009404 0.003363 -0.000787 0.002027
# 4 -0.002136 0.011804 0.003363 0.036168 0.006150 0.006215
# 5 -0.006449 0.004245 -0.000787 0.006150 0.030876 0.003652
# 6 -0.001169 0.003639 0.002027 0.006215 0.003652 0.036247
#
#
# Mechanical properties :
#
#
# Convention : Reuss Voigt Hill
#
# Bulk Modulus (GPa) = 37.38277 49.56775 43.47526
# Shear Modulus (GPa) = 30.54548 37.02820 33.78684
#
# Velocity S-wave (km/s) = 3.79460 4.17791 3.99086
# Velocity P-wave (km/s) = 6.06801 6.82929 6.45988
#
# Compressibility (1/GPa) = 0.02675029
#
# Stress axis : x y z
#
# Youngs Moduli (GPa) = 75.88088 60.48152 106.34186
#
# Poissons Ratio (x) = 0.17031 0.21754
# Poissons Ratio (y) = 0.21367 0.14052
# Poissons Ratio (z) = 0.15523 0.07992
#
# Static dielectric constant tensor:
#      x y z
#    x 1.799150 0.045190 0.013610 
#    y 0.045190 1.829510 -0.009990 
#    z 0.013610 -0.009990 1.821330 
# 
# From -- ./inp_files/529227.got.cif
#   From: 2010.05.17/outbox.cif.g08.bks.cpg/sg2_265_cif.got.tgz:529227.got - 2010.06.03 11:33:40.
