data_PCOD9039462
_publ_section_title
;
Structure prediction by ZEFSAII (Michael W. Deem and Ramdas Pophale) SiO2 
 PCOD9039462
Probable space group: P -1
;
_chemical_formula_sum "Si O2"
_cell_formula_units_Z 14
_cell_length_a 11.834744
_cell_length_b 7.889676
_cell_length_c 17.857431
_cell_angle_alpha 45.505490
_cell_angle_beta 148.390165
_cell_angle_gamma 126.756581
_cell_volume 623.385885
_symmetry_space_group_name_H-M "P -1"
_symmetry_group_IT_number 2
_symmetry_cell_setting 'triclinic'
loop_
_space_group_symop_operation_xyz
x,y,z
-x,-y,-z
loop_
_atom_site_type_symbol
_atom_site_label
_atom_site_fract_x
_atom_site_fract_y
_atom_site_fract_z
Si Si1 0.558203 0.339148 0.010174
Si Si2 0.537198 0.761604 0.409342
Si Si3 0.020662 0.805282 0.637374
Si Si4 0.191802 0.477854 0.041582
Si Si5 0.896216 0.745771 0.188323
Si Si6 0.219380 0.803134 0.091186
Si Si7 0.693619 0.980766 0.670488
O O1 0.756674 0.167755 0.198243
O O2 0.500000 0.500000 0.000000
O O3 0.649277 0.496271 0.945704
O O4 0.321525 0.237004 0.891115
O O5 0.500000 0.500000 0.500000
O O6 0.788921 0.822746 0.541493
O O7 0.446607 0.778009 0.268563
O O8 0.379783 0.919428 0.321684
O O9 0.044383 0.528973 0.709228
O O10 0.000000 0.000000 0.500000
O O11 0.207400 0.719058 0.023794
O O12 0.254938 0.288902 0.199070
O O13 0.959780 0.371213 0.917994
O O14 0.111070 0.870532 0.300167
O O15 0.846554 0.919212 0.034982
O O16 0.500000 0.000000 0.500000
#
# Coordination Sequence:
#
# PCOD9039462 Si02
#       7
#     2   2   2   2   2   2   2
#     4  10  23  42  68  96 138 177 228 269 336 411
#     4  12  23  40  70  99 132 179 223 282 340 397
#     4  11  24  40  65 102 136 172 224 280 335 404
#     4  10  23  42  69  99 137 180 226 284 330 403
#     4  10  23  43  67  96 135 178 227 272 338 405
#     4  10  23  42  70  99 133 179 234 277 339 398
#     4  11  25  43  67 103 139 173 228 286 338 397
#
# _framework density 22.457999000000001
#
# number of rings (size 3 to 8) (size 9 to 14) (size 15 to 20)
#    0.000    1.429    1.429    2.571   10.000    4.000 
#    0.000    2.143    0.000    0.000    0.000    0.000 
#    0.000    0.000    0.000    0.000    0.000    0.000 
#
# Total GULP energy -78104.921022 kJ/mol
# GULP energy per Si atom -5578.922930 kJ/mol
# Density = 2.240688 g / cm^3
# Si number density = 22.457999 Si / 1000 Ang^3
#
#
#
# Elastic Constant Matrix: (Units=GPa)
#
#
# Indices 1 2 3 4 5 6 
#
# 1 98.9197 45.0113 5.1035 17.2976 13.8453 28.8687
# 2 45.0113 101.3482 39.9662 -8.0581 7.6295 21.4672
# 3 5.1035 39.9662 120.8776 11.2116 13.8928 9.7201
# 4 17.2976 -8.0581 11.2116 48.2938 11.9222 13.8200
# 5 13.8453 7.6295 13.8928 11.9222 33.0522 8.9624
# 6 28.8687 21.4672 9.7201 13.8200 8.9624 40.2472
#
#
#
# Elastic Compliance Matrix: (Units=1/GPa)
#
#
# Indices 1 2 3 4 5 6 
#
# 1 0.016467 -0.007458 0.003092 -0.005410 -0.002875 -0.006082
# 2 -0.007458 0.017245 -0.005734 0.008418 -0.000033 -0.005347
# 3 0.003092 -0.005734 0.010738 -0.003854 -0.003170 0.000276
# 4 -0.005410 0.008418 -0.003854 0.028826 -0.006235 -0.008189
# 5 -0.002875 -0.000033 -0.003170 -0.006235 0.035862 -0.003000
# 6 -0.006082 -0.005347 0.000276 -0.008189 -0.003000 0.035474
#
#
# Mechanical properties :
#
#
# Convention : Reuss Voigt Hill
#
# Bulk Modulus (GPa) = 41.23823 55.70085 48.46954
# Shear Modulus (GPa) = 28.91949 39.72296 34.32122
#
# Velocity S-wave (km/s) = 3.59237 4.21023 3.91351
# Velocity P-wave (km/s) = 5.96733 6.96354 6.48459
#
# Compressibility (1/GPa) = 0.02424935
#
# Stress axis : x y z
#
# Youngs Moduli (GPa) = 60.72853 57.98868 93.13055
#
# Poissons Ratio (x) = 0.43248 -0.28795
# Poissons Ratio (y) = 0.45291 0.53400
# Poissons Ratio (z) = -0.18777 0.33250
#
# Static dielectric constant tensor:
#      x y z
#    x 1.851360 -0.097670 0.146010 
#    y -0.097670 1.921040 -0.013370 
#    z 0.146010 -0.013370 1.949550 
# 
# From -- ./inp_files/159335.got.cif
#   From: 2010.05.17/outbox.cif.g08.bks.cpg/sg2_80_cif.got.tgz:159335.got - 2010.06.03 11:33:40.
