data_PCOD9039261
_publ_section_title
;
Structure prediction by ZEFSAII (Michael W. Deem and Ramdas Pophale) SiO2 
 PCOD9039261
Probable space group: P -1
;
_chemical_formula_sum "Si O2"
_cell_formula_units_Z 12
_cell_length_a 7.677040
_cell_length_b 14.378154
_cell_length_c 9.651210
_cell_angle_alpha 48.723200
_cell_angle_beta 130.530677
_cell_angle_gamma 142.178533
_cell_volume 471.394889
_symmetry_space_group_name_H-M "P -1"
_symmetry_group_IT_number 2
_symmetry_cell_setting 'triclinic'
loop_
_space_group_symop_operation_xyz
x,y,z
-x,-y,-z
loop_
_atom_site_type_symbol
_atom_site_label
_atom_site_fract_x
_atom_site_fract_y
_atom_site_fract_z
Si Si1 0.188790 0.139820 0.847562
Si Si2 0.350076 0.709566 0.465190
Si Si3 0.779773 0.565644 0.473124
Si Si4 0.731892 0.192885 0.958551
Si Si5 0.751402 0.036691 0.490948
Si Si6 0.064122 0.376405 0.187348
O O1 0.204365 0.292433 0.724420
O O2 0.514415 0.201270 0.933243
O O3 0.015875 0.068750 0.683558
O O4 0.000000 0.000000 0.000000
O O5 0.423270 0.597298 0.560677
O O6 0.218864 0.730924 0.240639
O O7 0.622064 0.886757 0.475207
O O8 0.111190 0.627451 0.545483
O O9 0.747494 0.546981 0.641945
O O10 0.047779 0.309681 0.086942
O O11 0.500000 0.000000 0.000000
O O12 0.500000 0.000000 0.500000
O O13 0.849752 0.195536 0.313955
O O14 0.000000 0.500000 0.000000
#
# Coordination Sequence:
#
# PCOD9039261 Si02
#       6
#     2   2   2   2   2   2
#     4  11  24  42  64  94 131 172 219 264 330 390
#     4  11  21  40  68  94 129 162 227 262 323 379
#     4  10  23  42  67  93 128 177 213 268 327 387
#     4  12  24  39  66  97 129 169 218 270 319 383
#     4  11  21  42  69  92 130 178 214 263 333 387
#     4  11  21  40  64  97 128 173 212 265 327 385
#
# _framework density 25.456365000000002
#
# number of rings (size 3 to 8) (size 9 to 14) (size 15 to 20)
#    0.000    1.000    6.667    2.000    0.000    1.333 
#    0.000    0.833    0.000    0.000    0.000    0.000 
#    0.000    0.000    0.000    0.000    0.000    0.000 
#
# Total GULP energy -66905.175673 kJ/mol
# GULP energy per Si atom -5575.431306 kJ/mol
# Density = 2.539843 g / cm^3
# Si number density = 25.456365 Si / 1000 Ang^3
#
#
#
# Elastic Constant Matrix: (Units=GPa)
#
#
# Indices 1 2 3 4 5 6 
#
# 1 78.2780 23.6327 7.1130 -9.4586 -3.0924 -18.2337
# 2 23.6327 242.8908 80.4959 -6.6272 0.6423 -47.5725
# 3 7.1130 80.4959 170.8663 5.4329 -6.5875 -11.5789
# 4 -9.4586 -6.6272 5.4329 70.4925 6.1791 1.5765
# 5 -3.0924 0.6423 -6.5875 6.1791 27.0959 -2.9912
# 6 -18.2337 -47.5725 -11.5789 1.5765 -2.9912 48.8750
#
#
#
# Elastic Compliance Matrix: (Units=1/GPa)
#
#
# Indices 1 2 3 4 5 6 
#
# 1 0.014330 -0.000339 -0.000076 0.001625 0.001813 0.005056
# 2 -0.000339 0.005989 -0.002498 0.000629 -0.000372 0.005068
# 3 -0.000076 -0.002498 0.007094 -0.000946 0.001921 -0.000631
# 4 0.001625 0.000629 -0.000946 0.014828 -0.003407 0.000308
# 5 0.001813 -0.000372 0.001921 -0.003407 0.038724 0.003249
# 6 0.005056 0.005068 -0.000631 0.000308 0.003249 0.027319
#
#
# Mechanical properties :
#
#
# Convention : Reuss Voigt Hill
#
# Bulk Modulus (GPa) = 46.32576 79.39092 62.85834
# Shear Modulus (GPa) = 41.21828 54.67891 47.94860
#
# Velocity S-wave (km/s) = 4.02826 4.63962 4.34471
# Velocity P-wave (km/s) = 6.31454 7.74314 7.06504
#
# Compressibility (1/GPa) = 0.02158626
#
# Stress axis : x y z
#
# Youngs Moduli (GPa) = 69.78336 166.98189 140.96532
#
# Poissons Ratio (x) = 0.05665 0.01069
# Poissons Ratio (y) = 0.02367 0.35215
# Poissons Ratio (z) = 0.00529 0.41714
#
# Static dielectric constant tensor:
#      x y z
#    x 1.978260 -0.072370 -0.468020 
#    y -0.072370 2.081920 -0.145260 
#    z -0.468020 -0.145260 1.730590 
# 
# From -- ./inp_files/199990.got.cif
#   From: 2010.05.17/outbox.cif.g08.bks.cpg/sg2_100_cif.got.tgz:199990.got - 2010.06.03 11:33:40.
