data_PCOD9039535
_publ_section_title
;
Structure prediction by ZEFSAII (Michael W. Deem and Ramdas Pophale) SiO2 
 PCOD9039535
Probable space group: P -1
;
_chemical_formula_sum "Si O2"
_cell_formula_units_Z 16
_cell_length_a 13.823213
_cell_length_b 11.381857
_cell_length_c 8.641114
_cell_angle_alpha 82.276105
_cell_angle_beta 146.736494
_cell_angle_gamma 107.811433
_cell_volume 690.510711
_symmetry_space_group_name_H-M "P -1"
_symmetry_group_IT_number 2
_symmetry_cell_setting 'triclinic'
loop_
_space_group_symop_operation_xyz
x,y,z
-x,-y,-z
loop_
_atom_site_type_symbol
_atom_site_label
_atom_site_fract_x
_atom_site_fract_y
_atom_site_fract_z
Si Si1 0.671219 0.318204 0.437262
Si Si2 0.959231 0.186986 0.361522
Si Si3 0.232116 0.188301 0.201635
Si Si4 0.311388 0.901541 0.698482
Si Si5 0.392049 0.430062 0.212333
Si Si6 0.927534 0.951119 0.705600
Si Si7 0.832484 0.521754 0.362335
Si Si8 0.612704 0.147684 0.673454
O O1 0.628681 0.207925 0.273528
O O2 0.510602 0.362854 0.285226
O O3 0.796585 0.439774 0.485363
O O4 0.717454 0.243459 0.657213
O O5 0.859412 0.152147 0.399392
O O6 0.071817 0.102918 0.454506
O O7 0.101139 0.330839 0.530661
O O8 0.776723 0.160878 0.012069
O O9 0.222180 0.310896 0.077928
O O10 0.124107 0.165545 0.223850
O O11 0.449541 0.198852 0.506520
O O12 0.125821 0.061294 0.984506
O O13 0.224023 0.984343 0.461939
O O14 0.500000 0.000000 0.000000
O O15 0.500000 0.500000 0.500000
O O16 0.329636 0.508027 0.982747
O O17 0.000000 0.500000 0.500000
O O18 0.500000 0.000000 0.500000
#
# Coordination Sequence:
#
# PCOD9039535 Si02
#       8
#     2   2   2   2   2   2   2   2
#     4  11  27  47  75 101 147 195 242 296 360 439
#     4  12  26  43  73 102 150 192 240 304 366 430
#     4  10  23  42  69 100 142 178 243 302 353 433
#     4  12  26  43  70 104 145 191 238 303 377 435
#     4  11  28  50  75 101 141 197 250 295 360 435
#     4  11  24  41  70 107 139 186 237 302 369 424
#     4  12  28  50  70 106 150 185 247 304 361 435
#     4  11  22  46  70 107 142 189 240 291 365 435
#
# _framework density 23.171254999999999
#
# number of rings (size 3 to 8) (size 9 to 14) (size 15 to 20)
#    0.000    0.750    2.500    3.750   10.500    1.500 
#    0.000    0.000    0.000    0.000    0.000    0.000 
#    0.000    0.000    0.000    0.000    0.000    0.000 
#
# Total GULP energy -89300.563316 kJ/mol
# GULP energy per Si atom -5581.285207 kJ/mol
# Density = 2.311852 g / cm^3
# Si number density = 23.171255 Si / 1000 Ang^3
#
#
#
# Elastic Constant Matrix: (Units=GPa)
#
#
# Indices 1 2 3 4 5 6 
#
# 1 110.3062 53.0094 4.9409 7.0670 -12.1226 3.2682
# 2 53.0094 92.4608 16.3936 5.6243 -6.5412 11.5733
# 3 4.9409 16.3936 82.4466 -0.4955 -1.1880 -6.9090
# 4 7.0670 5.6243 -0.4955 36.4039 -3.3164 -3.6051
# 5 -12.1226 -6.5412 -1.1880 -3.3164 24.3491 -7.1060
# 6 3.2682 11.5733 -6.9090 -3.6051 -7.1060 67.5442
#
#
#
# Elastic Compliance Matrix: (Units=1/GPa)
#
#
# Indices 1 2 3 4 5 6 
#
# 1 0.013157 -0.007452 0.000858 -0.000834 0.004824 0.001191
# 2 -0.007452 0.016017 -0.002991 -0.001400 -0.000568 -0.002824
# 3 0.000858 -0.002991 0.012851 0.000744 0.000912 0.001921
# 4 -0.000834 -0.001400 0.000744 0.028427 0.003780 0.002271
# 5 0.004824 -0.000568 0.000912 0.003780 0.045316 0.004926
# 6 0.001191 -0.002824 0.001921 0.002271 0.004926 0.016067
#
#
# Mechanical properties :
#
#
# Convention : Reuss Voigt Hill
#
# Bulk Modulus (GPa) = 43.75849 48.21125 45.98487
# Shear Modulus (GPa) = 31.52103 39.71742 35.61922
#
# Velocity S-wave (km/s) = 3.69229 4.14464 3.92499
# Velocity P-wave (km/s) = 6.09124 6.61481 6.35842
#
# Compressibility (1/GPa) = 0.02285271
#
# Stress axis : x y z
#
# Youngs Moduli (GPa) = 76.00620 62.43478 77.81435
#
# Poissons Ratio (x) = 0.46527 -0.06674
# Poissons Ratio (y) = 0.56641 0.23278
# Poissons Ratio (z) = -0.06518 0.18677
#
# Static dielectric constant tensor:
#      x y z
#    x 1.925820 0.082220 -0.150330 
#    y 0.082220 1.921010 -0.045800 
#    z -0.150330 -0.045800 1.882130 
# 
# From -- ./inp_files/282726.got.cif
#   From: 2010.05.17/outbox.cif.g08.bks.cpg/sg2_142_cif.got.tgz:282726.got - 2010.06.03 11:33:40.
