data_PCOD9039808
_publ_section_title
;
Structure prediction by ZEFSAII (Michael W. Deem and Ramdas Pophale) SiO2 
 PCOD9039808
Probable space group: P -1
;
_chemical_formula_sum "Si O2"
_cell_formula_units_Z 16
_cell_length_a 7.925011
_cell_length_b 8.206932
_cell_length_c 19.071145
_cell_angle_alpha 134.363437
_cell_angle_beta 45.740279
_cell_angle_gamma 123.576490
_cell_volume 629.946232
_symmetry_space_group_name_H-M "P -1"
_symmetry_group_IT_number 2
_symmetry_cell_setting 'triclinic'
loop_
_space_group_symop_operation_xyz
x,y,z
-x,-y,-z
loop_
_atom_site_type_symbol
_atom_site_label
_atom_site_fract_x
_atom_site_fract_y
_atom_site_fract_z
Si Si1 0.552264 0.177995 0.889442
Si Si2 0.201182 0.370049 0.967750
Si Si3 0.953113 0.920174 0.724203
Si Si4 0.303702 0.625959 0.876200
Si Si5 0.429937 0.235315 0.638693
Si Si6 0.581005 0.836315 0.542176
Si Si7 0.883725 0.452567 0.359819
Si Si8 0.767621 0.810190 0.882946
O O1 0.412771 0.219844 0.872884
O O2 0.716490 0.980104 0.774681
O O3 0.717190 0.401965 0.939591
O O4 0.338206 0.142898 0.997519
O O5 0.211472 0.436173 0.903874
O O6 0.938780 0.272310 0.039126
O O7 0.919361 0.981391 0.835719
O O8 0.989449 0.652175 0.640861
O O9 0.174614 0.078889 0.675718
O O10 0.399155 0.491922 0.744826
O O11 0.525364 0.758490 0.892228
O O12 0.489482 0.235427 0.539633
O O13 0.595650 0.111436 0.607885
O O14 0.806408 0.705728 0.456664
O O15 0.365051 0.722580 0.619931
O O16 0.067767 0.397120 0.228705
#
# Coordination Sequence:
#
# PCOD9039808 Si02
#       8
#     2   2   2   2   2   2   2   2
#     4  10  17  33  55  84 103 147 191 210 252 337
#     4   9  20  31  53  80 116 141 180 222 261 321
#     4   9  18  33  55  80 106 143 182 219 258 327
#     4  10  19  35  50  81 116 146 166 224 287 311
#     4  10  19  32  61  81 105 140 190 226 264 316
#     4   9  18  35  57  85  98 140 196 230 255 321
#     4   8  18  34  55  78 109 134 179 233 270 308
#     4   9  20  32  54  77 114 147 170 219 279 319
#
# _framework density 25.398992
#
# number of rings (size 3 to 8) (size 9 to 14) (size 15 to 20)
#    0.750    2.000    1.250    0.375    1.750    1.000 
#    0.000    1.875    8.250    0.000    0.000    0.000 
#    0.000    0.000    0.000    0.000    0.000    0.000 
#
# Total GULP energy -89161.198709 kJ/mol
# GULP energy per Si atom -5572.574919 kJ/mol
# Density = 2.534118 g / cm^3
# Si number density = 25.398992 Si / 1000 Ang^3
#
#
#
# Elastic Constant Matrix: (Units=GPa)
#
#
# Indices 1 2 3 4 5 6 
#
# 1 56.2835 22.3415 38.3019 8.1033 -33.6297 -7.5951
# 2 22.3415 69.8767 16.0163 2.8604 -20.9908 7.8804
# 3 38.3019 16.0163 95.0525 2.2177 -40.5717 -0.3382
# 4 8.1033 2.8604 2.2177 41.0979 -19.1044 -18.3084
# 5 -33.6297 -20.9908 -40.5717 -19.1044 49.9114 15.4176
# 6 -7.5951 7.8804 -0.3382 -18.3084 15.4176 35.9659
#
#
#
# Elastic Compliance Matrix: (Units=1/GPa)
#
#
# Indices 1 2 3 4 5 6 
#
# 1 0.033006 -0.004936 -0.005884 0.002551 0.015544 0.002632
# 2 -0.004936 0.019376 0.003091 -0.000080 0.010306 -0.009718
# 3 -0.005884 0.003091 0.019551 0.004931 0.017147 -0.006576
# 4 0.002551 -0.000080 0.004931 0.036431 0.015818 0.012367
# 5 0.015544 0.010306 0.017147 0.015818 0.059916 -0.016447
# 6 0.002632 -0.009718 -0.006576 0.012367 -0.016447 0.043773
#
#
# Mechanical properties :
#
#
# Convention : Reuss Voigt Hill
#
# Bulk Modulus (GPa) = 17.70724 41.61469 29.66096
# Shear Modulus (GPa) = 20.29744 35.03190 27.66467
#
# Velocity S-wave (km/s) = 2.82998 3.71787 3.30389
# Velocity P-wave (km/s) = 4.20299 5.90339 5.12422
#
# Compressibility (1/GPa) = 0.05647409
#
# Stress axis : x y z
#
# Youngs Moduli (GPa) = 30.29757 51.61057 51.14830
#
# Poissons Ratio (x) = 0.25476 0.30094
# Poissons Ratio (y) = 0.14956 -0.15807
# Poissons Ratio (z) = 0.17826 -0.15950
#
# Static dielectric constant tensor:
#      x y z
#    x 1.973760 -0.025030 -0.055460 
#    y -0.025030 2.176600 0.110060 
#    z -0.055460 0.110060 2.132750 
# 
# From -- ./inp_files/586815.got.cif
#   From: 2010.05.17/outbox.cif.g08.bks.cpg/sg2_294_cif.got.tgz:586815.got - 2010.06.03 11:33:40.
