data_PCOD9040511
_publ_section_title
;
Structure prediction by ZEFSAII (Michael W. Deem and Ramdas Pophale) SiO2 
 PCOD9040511
Probable space group: P -1
;
_chemical_formula_sum "Si O2"
_cell_formula_units_Z 14
_cell_length_a 8.738547
_cell_length_b 8.499462
_cell_length_c 9.528692
_cell_angle_alpha 114.816681
_cell_angle_beta 57.542888
_cell_angle_gamma 112.892319
_cell_volume 529.492810
_symmetry_space_group_name_H-M "P -1"
_symmetry_group_IT_number 2
_symmetry_cell_setting 'triclinic'
loop_
_space_group_symop_operation_xyz
x,y,z
-x,-y,-z
loop_
_atom_site_type_symbol
_atom_site_label
_atom_site_fract_x
_atom_site_fract_y
_atom_site_fract_z
Si Si1 0.247470 0.512684 0.255096
Si Si2 0.520778 0.613576 0.393646
Si Si3 0.936417 0.254946 0.700062
Si Si4 0.436806 0.224537 0.985052
Si Si5 0.756514 0.963205 0.475080
Si Si6 0.727715 0.333180 0.099141
Si Si7 0.821801 0.073403 0.169703
O O1 0.333068 0.562903 0.381644
O O2 0.061750 0.576377 0.335797
O O3 0.263152 0.314670 0.139879
O O4 0.404403 0.634185 0.121925
O O5 0.500000 0.500000 0.500000
O O6 0.570102 0.821846 0.477476
O O7 0.676807 0.527406 0.203578
O O8 0.113663 0.172237 0.595410
O O9 0.782811 0.100194 0.641451
O O10 0.880160 0.311903 0.901414
O O11 0.538498 0.209677 0.078647
O O12 0.354088 0.065296 0.863424
O O13 0.821979 0.061858 0.333794
O O14 0.796833 0.256522 0.178418
O O15 0.000000 0.000000 0.000000
#
# Coordination Sequence:
#
# PCOD9040511 Si02
#       7
#     2   2   2   2   2   2   2
#     4   9  19  39  64  91 120 168 210 259 321 378
#     4  11  25  43  66  99 127 165 221 272 313 378
#     4  10  23  43  67  91 132 176 211 256 335 378
#     4   9  19  38  64  92 125 162 213 261 316 377
#     4  11  25  44  64  95 137 167 213 271 318 376
#     4  10  23  43  67  96 129 169 218 257 327 388
#     4  12  23  39  65 101 129 166 218 265 317 382
#
# _framework density 26.440397000000001
#
# number of rings (size 3 to 8) (size 9 to 14) (size 15 to 20)
#    0.000    1.714    2.857    1.286    2.000    6.857 
#    0.000    0.714    0.000    0.000    0.000    0.000 
#    0.000    0.000    0.000    0.000    0.000    0.000 
#
# Total GULP energy -78334.619064 kJ/mol
# GULP energy per Si atom -5595.329933 kJ/mol
# Density = 2.638022 g / cm^3
# Si number density = 26.440397 Si / 1000 Ang^3
#
#
#
# Elastic Constant Matrix: (Units=GPa)
#
#
# Indices 1 2 3 4 5 6 
#
# 1 110.3295 38.2386 30.6732 0.5813 7.0866 -32.0991
# 2 38.2386 54.3011 28.1817 4.0180 13.4438 -10.7775
# 3 30.6732 28.1817 103.0131 11.5614 16.3473 0.2789
# 4 0.5813 4.0180 11.5614 49.6048 -10.7897 12.7031
# 5 7.0866 13.4438 16.3473 -10.7897 50.3679 6.9776
# 6 -32.0991 -10.7775 0.2789 12.7031 6.9776 65.6938
#
#
#
# Elastic Compliance Matrix: (Units=1/GPa)
#
#
# Indices 1 2 3 4 5 6 
#
# 1 0.013904 -0.007525 -0.001995 -0.000597 -0.000219 0.005706
# 2 -0.007525 0.028011 -0.004122 -0.003092 -0.006044 0.002176
# 3 -0.001995 -0.004122 0.012262 -0.002977 -0.003126 -0.000796
# 4 -0.000597 -0.003092 -0.002977 0.024483 0.008003 -0.006371
# 5 -0.000219 -0.006044 -0.003126 0.008003 0.024959 -0.005284
# 6 0.005706 0.002176 -0.000796 -0.006371 -0.005284 0.020164
#
#
# Mechanical properties :
#
#
# Convention : Reuss Voigt Hill
#
# Bulk Modulus (GPa) = 37.18549 51.31453 44.25001
# Shear Modulus (GPa) = 31.24418 44.50333 37.87375
#
# Velocity S-wave (km/s) = 3.44129 4.10708 3.78884
# Velocity P-wave (km/s) = 5.46666 6.47615 5.99270
#
# Compressibility (1/GPa) = 0.02689221
#
# Stress axis : x y z
#
# Youngs Moduli (GPa) = 71.92315 35.70020 81.55489
#
# Poissons Ratio (x) = 0.26863 0.16271
# Poissons Ratio (y) = 0.54119 0.33620
# Poissons Ratio (z) = 0.14350 0.14717
#
# Static dielectric constant tensor:
#      x y z
#    x 2.125240 0.014590 -0.018550 
#    y 0.014590 2.093110 -0.003900 
#    z -0.018550 -0.003900 2.117020 
# 
# From -- ./inp_files/157967.got.cif
#   From: 2010.05.17/outbox.cif.g08.bks.cpg/sg2_79_cif.got.tgz:157967.got - 2010.06.03 11:33:40.
