data_PCOD9040387
_publ_section_title
;
Structure prediction by ZEFSAII (Michael W. Deem and Ramdas Pophale) SiO2 
 PCOD9040387
Probable space group: P -1
;
_chemical_formula_sum "Si O2"
_cell_formula_units_Z 14
_cell_length_a 23.683586
_cell_length_b 6.579904
_cell_length_c 12.321632
_cell_angle_alpha 99.299993
_cell_angle_beta 156.828726
_cell_angle_gamma 91.361626
_cell_volume 668.163240
_symmetry_space_group_name_H-M "P -1"
_symmetry_group_IT_number 2
_symmetry_cell_setting 'triclinic'
loop_
_space_group_symop_operation_xyz
x,y,z
-x,-y,-z
loop_
_atom_site_type_symbol
_atom_site_label
_atom_site_fract_x
_atom_site_fract_y
_atom_site_fract_z
Si Si1 0.301707 0.402463 0.263729
Si Si2 0.043444 0.842301 0.310033
Si Si3 0.415279 0.735373 0.296309
Si Si4 0.397848 0.038209 0.727200
Si Si5 0.307603 0.733137 0.873667
Si Si6 0.818933 0.469605 0.737850
Si Si7 0.216707 0.298612 0.520323
O O1 0.323648 0.585861 0.225077
O O2 0.442053 0.329846 0.489006
O O3 0.311629 0.507296 0.410514
O O4 0.119405 0.200932 0.917963
O O5 0.190544 0.843511 0.638206
O O6 0.977520 0.609816 0.100631
O O7 0.095720 0.063956 0.345354
O O8 0.500000 0.000000 0.500000
O O9 0.303274 0.694198 0.990499
O O10 0.353254 0.233791 0.709161
O O11 0.241619 0.798879 0.411734
O O12 0.509884 0.105211 0.825798
O O13 0.500000 0.000000 0.000000
O O14 0.266055 0.500540 0.712891
O O15 0.836076 0.612504 0.672148
#
# Coordination Sequence:
#
# PCOD9040387 Si02
#       7
#     2   2   2   2   2   2   2
#     4   9  24  45  66  96 126 170 219 271 319 393
#     4  10  25  43  64 102 136 170 215 274 326 389
#     4  11  24  46  73  93 124 174 224 269 331 389
#     4  12  23  39  64  98 137 175 220 265 313 392
#     4  12  26  42  68 101 133 171 221 275 325 386
#     4  10  23  43  66  92 138 174 220 258 328 387
#     4  12  23  39  65  99 136 178 214 259 334 384
#
# _framework density 20.952960999999998
#
# number of rings (size 3 to 8) (size 9 to 14) (size 15 to 20)
#    0.857    0.286    2.857    2.571    2.000    7.429 
#    0.000    1.429    0.000    0.000    0.000    0.000 
#    0.000    0.000    0.000    0.000    0.000    0.000 
#
# Total GULP energy -78174.605483 kJ/mol
# GULP energy per Si atom -5583.900392 kJ/mol
# Density = 2.090527 g / cm^3
# Si number density = 20.952961 Si / 1000 Ang^3
#
#
#
# Elastic Constant Matrix: (Units=GPa)
#
#
# Indices 1 2 3 4 5 6 
#
# 1 103.1423 39.8142 28.8551 3.0627 -5.1958 28.2506
# 2 39.8142 67.5571 13.0533 9.5442 -0.7175 19.7788
# 3 28.8551 13.0533 58.0248 8.1173 4.1142 19.7997
# 4 3.0627 9.5442 8.1173 29.3200 7.8499 3.3695
# 5 -5.1958 -0.7175 4.1142 7.8499 39.0214 0.1960
# 6 28.2506 19.7788 19.7997 3.3695 0.1960 39.2337
#
#
#
# Elastic Compliance Matrix: (Units=1/GPa)
#
#
# Indices 1 2 3 4 5 6 
#
# 1 0.015062 -0.006681 -0.004578 0.001948 0.002000 -0.005344
# 2 -0.006681 0.021085 0.001438 -0.006029 0.000590 -0.006030
# 3 -0.004578 0.001438 0.022929 -0.004820 -0.001988 -0.008576
# 4 0.001948 -0.006029 -0.004820 0.039041 -0.007201 0.000752
# 5 0.002000 0.000590 -0.001988 -0.007201 0.027564 -0.000254
# 6 -0.005344 -0.006030 -0.008576 0.000752 -0.000254 0.036641
#
#
# Mechanical properties :
#
#
# Convention : Reuss Voigt Hill
#
# Bulk Modulus (GPa) = 25.35872 43.57438 34.46655
# Shear Modulus (GPa) = 25.62686 31.31512 28.47099
#
# Velocity S-wave (km/s) = 3.50103 3.87013 3.69020
# Velocity P-wave (km/s) = 5.33591 6.38842 5.88574
#
# Compressibility (1/GPa) = 0.03943416
#
# Stress axis : x y z
#
# Youngs Moduli (GPa) = 66.39316 47.42642 43.61376
#
# Poissons Ratio (x) = 0.31687 0.19965
# Poissons Ratio (y) = 0.44359 -0.06273
# Poissons Ratio (z) = 0.30393 -0.06821
#
# Static dielectric constant tensor:
#      x y z
#    x 1.776860 -0.006910 0.029630 
#    y -0.006910 1.742820 0.004340 
#    z 0.029630 0.004340 1.775470 
# 
# From -- ./inp_files/67571.got.cif
#   From: 2010.05.17/outbox.cif.g08.bks.cpg/sg2_34_cif.got.tgz:67571.got - 2010.06.03 11:33:40.
