data_PCOD9040242
_publ_section_title
;
Structure prediction by ZEFSAII (Michael W. Deem and Ramdas Pophale) SiO2 
 PCOD9040242
Probable space group: P -1
;
_chemical_formula_sum "Si O2"
_cell_formula_units_Z 15
_cell_length_a 9.271749
_cell_length_b 21.259828
_cell_length_c 5.167372
_cell_angle_alpha 79.451917
_cell_angle_beta 85.183259
_cell_angle_gamma 138.869353
_cell_volume 618.696215
_symmetry_space_group_name_H-M "P -1"
_symmetry_group_IT_number 2
_symmetry_cell_setting 'triclinic'
loop_
_space_group_symop_operation_xyz
x,y,z
-x,-y,-z
loop_
_atom_site_type_symbol
_atom_site_label
_atom_site_fract_x
_atom_site_fract_y
_atom_site_fract_z
Si Si1 0.076411 0.112794 0.869967
Si Si2 0.454984 0.419433 0.906152
Si Si3 0.687280 0.035447 0.247991
Si Si4 0.000000 0.000000 0.500000
Si Si5 0.283903 0.830040 0.137296
Si Si6 0.161195 0.549550 0.185272
Si Si7 0.519260 0.788993 0.929676
Si Si8 0.829396 0.712033 0.467878
O O1 0.325765 0.176321 0.872911
O O2 0.104315 0.191803 0.679904
O O3 0.947916 0.022561 0.758238
O O4 0.911025 0.063933 0.198228
O O5 0.296081 0.327632 0.208324
O O6 0.500000 0.500000 0.000000
O O7 0.699230 0.468244 0.800376
O O8 0.326495 0.372033 0.680579
O O9 0.500000 0.000000 0.500000
O O10 0.517365 0.939007 0.150858
O O11 0.793594 0.139369 0.061423
O O12 0.718100 0.877134 0.628032
O O13 0.350499 0.789783 0.010487
O O14 0.065137 0.751272 0.421666
O O15 0.356554 0.671286 0.011997
O O16 0.000000 0.500000 0.500000
O O17 0.000000 0.500000 0.000000
#
# Coordination Sequence:
#
# PCOD9040242 Si02
#       8
#     2   2   2   1   2   2   2   2
#     4  11  25  46  69 109 153 207 251 316 398 472
#     4  12  27  51  82 110 147 199 267 327 390 471
#     4  10  23  43  65 101 154 194 251 306 382 462
#     4  12  26  44  76 110 156 200 262 312 396 472
#     4  10  25  42  66 109 141 199 250 311 376 453
#     4  12  30  54  81 115 156 203 260 331 397 459
#     4  12  27  47  77 111 153 201 260 323 396 468
#     4  11  26  49  76 111 150 203 252 322 394 465
#
# _framework density 24.244533000000001
#
# number of rings (size 3 to 8) (size 9 to 14) (size 15 to 20)
#    0.000    0.800    2.667    2.400   11.200    0.000 
#    0.000    0.000    0.000    0.000    0.000    0.000 
#    0.000    0.000    0.000    0.000    0.000    0.000 
#
# Total GULP energy -83617.377443 kJ/mol
# GULP energy per Si atom -5574.491830 kJ/mol
# Density = 2.418935 g / cm^3
# Si number density = 24.244533 Si / 1000 Ang^3
#
#
#
# Elastic Constant Matrix: (Units=GPa)
#
#
# Indices 1 2 3 4 5 6 
#
# 1 108.3145 42.5750 14.0828 -0.3734 -38.5384 3.4530
# 2 42.5750 152.4736 16.7375 9.1539 -1.6454 -0.4047
# 3 14.0828 16.7375 126.9556 -0.5787 -27.7995 10.3501
# 4 -0.3734 9.1539 -0.5787 42.1412 -0.6708 3.1091
# 5 -38.5384 -1.6454 -27.7995 -0.6708 35.3210 -3.3050
# 6 3.4530 -0.4047 10.3501 3.1091 -3.3050 42.9303
#
#
#
# Elastic Compliance Matrix: (Units=1/GPa)
#
#
# Indices 1 2 3 4 5 6 
#
# 1 0.019652 -0.005780 0.003973 0.001934 0.024256 -0.000866
# 2 -0.005780 0.008459 -0.002206 -0.002088 -0.007629 0.000640
# 3 0.003973 -0.002206 0.010615 0.001007 0.012417 -0.002016
# 4 0.001934 -0.002088 0.001007 0.024407 0.003087 -0.001948
# 5 0.024256 -0.007629 0.012417 0.003087 0.064225 -0.000296
# 6 -0.000866 0.000640 -0.002016 -0.001948 -0.000296 0.023974
#
#
# Mechanical properties :
#
#
# Convention : Reuss Voigt Hill
#
# Bulk Modulus (GPa) = 32.57437 59.39267 45.98352
# Shear Modulus (GPa) = 29.48231 45.03507 37.25869
#
# Velocity S-wave (km/s) = 3.49096 4.31459 3.92444
# Velocity P-wave (km/s) = 5.45105 7.02648 6.28830
#
# Compressibility (1/GPa) = 0.03069898
#
# Stress axis : x y z
#
# Youngs Moduli (GPa) = 50.88445 118.21111 94.20771
#
# Poissons Ratio (x) = 0.68329 -0.37427
# Poissons Ratio (y) = 0.29413 0.20785
# Poissons Ratio (z) = -0.20215 0.26081
#
# Static dielectric constant tensor:
#      x y z
#    x 0.964870 -1.768030 -0.570150 
#    y -1.768030 -0.975440 -0.963320 
#    z -0.570150 -0.963320 1.742360 
# 
# From -- ./inp_files/52912.got.cif
#   From: 2010.05.17/outbox.cif.g08.bks.cpg/sg2_27_cif.got.tgz:52912.got - 2010.06.03 11:33:40.
