data_PCOD9040093
_publ_section_title
;
Structure prediction by ZEFSAII (Michael W. Deem and Ramdas Pophale) SiO2 
 PCOD9040093
Probable space group: P -1
;
_chemical_formula_sum "Si O2"
_cell_formula_units_Z 16
_cell_length_a 5.051809
_cell_length_b 24.181270
_cell_length_c 5.513863
_cell_angle_alpha 69.694652
_cell_angle_beta 85.896449
_cell_angle_gamma 77.186633
_cell_volume 615.969123
_symmetry_space_group_name_H-M "P -1"
_symmetry_group_IT_number 2
_symmetry_cell_setting 'triclinic'
loop_
_space_group_symop_operation_xyz
x,y,z
-x,-y,-z
loop_
_atom_site_type_symbol
_atom_site_label
_atom_site_fract_x
_atom_site_fract_y
_atom_site_fract_z
Si Si1 0.284373 0.241901 0.726472
Si Si2 0.221452 0.465853 0.219038
Si Si3 0.320982 0.592697 0.002144
Si Si4 0.019444 0.626213 0.447954
Si Si5 0.844400 0.180509 0.622785
Si Si6 0.393643 0.958015 0.375509
Si Si7 0.325253 0.152020 0.249179
Si Si8 0.881182 0.933068 0.996646
O O1 0.532645 0.214832 0.569512
O O2 0.206562 0.313055 0.630283
O O3 0.002756 0.220514 0.722402
O O4 0.387911 0.209261 0.020754
O O5 0.359621 0.521396 0.189408
O O6 0.110518 0.432405 0.496246
O O7 0.386577 0.411225 0.127422
O O8 0.000000 0.500000 0.000000
O O9 0.215047 0.628163 0.199480
O O10 0.150513 0.614485 0.729243
O O11 0.062607 0.171458 0.406080
O O12 0.862948 0.113420 0.838449
O O13 0.408367 0.892188 0.587442
O O14 0.500000 0.000000 0.500000
O O15 0.121908 0.001429 0.220636
O O16 0.636687 0.945177 0.185840
O O17 0.225768 0.107903 0.131905
#
# Coordination Sequence:
#
# PCOD9040093 Si02
#       8
#     2   2   2   2   2   2   2   2
#     4  11  26  42  64  93 129 173 227 272 331 404
#     4   9  21  42  68 101 135 174 218 277 340 404
#     4  10  23  43  67  98 135 173 222 278 340 402
#     4  11  25  41  66  97 132 179 226 279 335 408
#     4  10  23  43  62  90 127 171 219 278 337 396
#     4   8  13  27  58  90 126 162 211 267 334 399
#     4   9  19  37  61  88 127 170 214 275 335 399
#     4   8  15  31  57  92 121 164 214 269 331 403
#
# _framework density 25.975328000000001
#
# number of rings (size 3 to 8) (size 9 to 14) (size 15 to 20)
#    0.000    2.500    0.000    0.375    3.500    8.500 
#    0.000    0.625    0.000   67.500    0.000    0.000 
#    0.000    0.000    0.000    0.000    0.000    0.000 
#
# Total GULP energy -89311.722479 kJ/mol
# GULP energy per Si atom -5581.982655 kJ/mol
# Density = 2.591621 g / cm^3
# Si number density = 25.975328 Si / 1000 Ang^3
#
#
#
# Elastic Constant Matrix: (Units=GPa)
#
#
# Indices 1 2 3 4 5 6 
#
# 1 91.2441 22.4149 20.2417 -3.7634 3.8383 -21.4592
# 2 22.4149 155.1410 60.9380 -18.9615 8.0459 -35.3693
# 3 20.2417 60.9380 131.7036 -4.8925 9.5604 -14.1547
# 4 -3.7634 -18.9615 -4.8925 49.0765 -5.4279 -4.6634
# 5 3.8383 8.0459 9.5604 -5.4279 33.7432 -1.6691
# 6 -21.4592 -35.3693 -14.1547 -4.6634 -1.6691 30.5069
#
#
#
# Elastic Compliance Matrix: (Units=1/GPa)
#
#
# Indices 1 2 3 4 5 6 
#
# 1 0.013615 0.001402 -0.001443 0.002414 -0.000548 0.010872
# 2 0.001402 0.011467 -0.003873 0.005385 -0.000273 0.013292
# 3 -0.001443 -0.003873 0.009562 -0.000983 -0.001845 -0.001320
# 4 0.002414 0.005385 -0.000983 0.023966 0.003135 0.011320
# 5 -0.000548 -0.000273 -0.001845 0.003135 0.030820 0.000608
# 6 0.010872 0.013292 -0.001320 0.011320 0.000608 0.056989
#
#
# Mechanical properties :
#
#
# Convention : Reuss Voigt Hill
#
# Bulk Modulus (GPa) = 37.29151 65.03086 51.16118
# Shear Modulus (GPa) = 30.63980 40.96493 35.80236
#
# Velocity S-wave (km/s) = 3.43822 3.97554 3.71660
# Velocity P-wave (km/s) = 5.49085 6.79435 6.17708
#
# Compressibility (1/GPa) = 0.02681576
#
# Stress axis : x y z
#
# Youngs Moduli (GPa) = 73.44897 87.20634 104.57990
#
# Poissons Ratio (x) = -0.12225 0.15093
# Poissons Ratio (y) = -0.10296 0.40501
# Poissons Ratio (z) = 0.10600 0.33773
#
# Static dielectric constant tensor:
#      x y z
#    x 2.130270 0.079380 0.071470 
#    y 0.079380 2.100130 0.055380 
#    z 0.071470 0.055380 2.194280 
# 
# From -- ./inp_files/14369.got.cif
#   From: 2010.05.17/outbox.cif.g08.bks.cpg/sg2_8_cif.got.tgz:14369.got - 2010.06.03 11:33:40.
