data_PCOD9040951
_publ_section_title
;
Structure prediction by ZEFSAII (Michael W. Deem and Ramdas Pophale) SiO2 
 PCOD9040951
Probable space group: P -1
;
_chemical_formula_sum "Si O2"
_cell_formula_units_Z 14
_cell_length_a 8.651014
_cell_length_b 22.874499
_cell_length_c 15.847886
_cell_angle_alpha 20.685818
_cell_angle_beta 134.022099
_cell_angle_gamma 143.476767
_cell_volume 634.726836
_symmetry_space_group_name_H-M "P -1"
_symmetry_group_IT_number 2
_symmetry_cell_setting 'triclinic'
loop_
_space_group_symop_operation_xyz
x,y,z
-x,-y,-z
loop_
_atom_site_type_symbol
_atom_site_label
_atom_site_fract_x
_atom_site_fract_y
_atom_site_fract_z
Si Si1 0.766255 0.819432 0.967241
Si Si2 0.318792 0.571399 0.804173
Si Si3 0.018981 0.725934 0.055860
Si Si4 0.902051 0.814172 0.279476
Si Si5 0.227943 0.967480 0.636577
Si Si6 0.739113 0.489701 0.523638
Si Si7 0.851082 0.368174 0.038435
O O1 0.787595 0.661573 0.244925
O O2 0.445733 0.692424 0.003761
O O3 0.930668 0.846488 0.909665
O O4 0.908591 0.045336 0.759706
O O5 0.490680 0.814219 0.544486
O O6 0.242783 0.482765 0.801014
O O7 0.065659 0.486793 0.883602
O O8 0.500000 0.500000 0.000000
O O9 0.158057 0.647313 0.269280
O O10 0.186191 0.849004 0.868596
O O11 0.892152 0.632129 0.473558
O O12 0.582825 0.682390 0.355033
O O13 0.000000 0.000000 0.000000
O O14 0.000000 0.000000 0.500000
O O15 0.208725 0.853768 0.697147
O O16 0.000000 0.500000 0.000000
#
# Coordination Sequence:
#
# PCOD9040951 Si02
#       7
#     2   2   2   2   2   2   2
#     4  11  25  44  66 107 139 174 229 282 336 404
#     4  11  23  46  69  95 137 180 230 282 338 408
#     4  11  25  42  71  99 137 182 226 276 345 405
#     4   9  22  40  67  94 143 171 230 275 338 395
#     4  11  25  45  69  95 133 182 230 276 342 405
#     4  10  23  43  69  99 138 183 223 278 341 404
#     4  11  26  44  71 103 137 178 230 281 343 398
#
# _framework density 22.056733999999999
#
# number of rings (size 3 to 8) (size 9 to 14) (size 15 to 20)
#    0.000    1.429    2.857    1.286   14.000    3.429 
#    0.000    0.000    0.000    0.000    0.000    0.000 
#    0.000    0.000    0.000    0.000    0.000    0.000 
#
# Total GULP energy -78071.424761 kJ/mol
# GULP energy per Si atom -5576.530340 kJ/mol
# Density = 2.200653 g / cm^3
# Si number density = 22.056734 Si / 1000 Ang^3
#
#
#
# Elastic Constant Matrix: (Units=GPa)
#
#
# Indices 1 2 3 4 5 6 
#
# 1 99.8928 41.1588 25.8606 -13.4521 23.7897 -2.5363
# 2 41.1588 109.8453 32.7047 -23.2908 15.5332 -3.3861
# 3 25.8606 32.7047 87.2504 -24.2364 6.2768 -0.7222
# 4 -13.4521 -23.2908 -24.2364 55.1917 7.3855 10.1751
# 5 23.7897 15.5332 6.2768 7.3855 37.2534 -4.0551
# 6 -2.5363 -3.3861 -0.7222 10.1751 -4.0551 32.6020
#
#
#
# Elastic Compliance Matrix: (Units=1/GPa)
#
#
# Indices 1 2 3 4 5 6 
#
# 1 0.013938 -0.003069 -0.001686 0.002629 -0.007976 -0.001084
# 2 -0.003069 0.012297 -0.002318 0.004048 -0.003659 -0.000731
# 3 -0.001686 -0.002318 0.014484 0.005571 -0.001720 -0.002004
# 4 0.002629 0.004048 0.005571 0.025893 -0.010377 -0.008623
# 5 -0.007976 -0.003659 -0.001720 -0.010377 0.036544 0.006745
# 6 -0.001084 -0.000731 -0.002004 -0.008623 0.006745 0.033999
#
#
# Mechanical properties :
#
#
# Convention : Reuss Voigt Hill
#
# Bulk Modulus (GPa) = 37.63064 55.15964 46.39514
# Shear Modulus (GPa) = 31.21941 38.16038 34.68989
#
# Velocity S-wave (km/s) = 3.76628 4.16396 3.97010
# Velocity P-wave (km/s) = 6.00092 6.94121 6.48812
#
# Compressibility (1/GPa) = 0.02657409
#
# Stress axis : x y z
#
# Youngs Moduli (GPa) = 71.74878 81.32136 69.03932
#
# Poissons Ratio (x) = 0.24954 0.11638
# Poissons Ratio (y) = 0.22016 0.16005
# Poissons Ratio (z) = 0.12094 0.18852
#
# Static dielectric constant tensor:
#      x y z
#    x 1.807590 0.007510 -0.033400 
#    y 0.007510 1.842740 0.033980 
#    z -0.033400 0.033980 1.817820 
# 
# From -- ./inp_files/563286.got.cif
#   From: 2010.05.17/outbox.cif.g08.bks.cpg/sg2_282_cif.got.tgz:563286.got - 2010.06.03 11:33:40.
