data_PCOD9040694
_publ_section_title
;
Structure prediction by ZEFSAII (Michael W. Deem and Ramdas Pophale) SiO2 
 PCOD9040694
Probable space group: P -1
;
_chemical_formula_sum "Si O2"
_cell_formula_units_Z 16
_cell_length_a 24.192654
_cell_length_b 12.265968
_cell_length_c 5.360504
_cell_angle_alpha 75.539623
_cell_angle_beta 69.588418
_cell_angle_gamma 31.760488
_cell_volume 781.185217
_symmetry_space_group_name_H-M "P -1"
_symmetry_group_IT_number 2
_symmetry_cell_setting 'triclinic'
loop_
_space_group_symop_operation_xyz
x,y,z
-x,-y,-z
loop_
_atom_site_type_symbol
_atom_site_label
_atom_site_fract_x
_atom_site_fract_y
_atom_site_fract_z
Si Si1 0.010005 0.100823 0.069122
Si Si2 0.845859 0.435692 0.482853
Si Si3 0.118459 0.280703 0.320940
Si Si4 0.444504 0.728065 0.723402
Si Si5 0.215463 0.709510 0.274638
Si Si6 0.581675 0.492422 0.146646
Si Si7 0.091106 0.071566 0.531452
Si Si8 0.775978 0.797815 0.304081
O O1 0.891119 0.329870 0.200243
O O2 0.093121 0.932762 0.248210
O O3 0.069964 0.107362 0.839095
O O4 0.000000 0.000000 0.000000
O O5 0.776067 0.438350 0.661213
O O6 0.788961 0.646011 0.440789
O O7 0.962304 0.257717 0.547512
O O8 0.123614 0.139378 0.335311
O O9 0.195686 0.184120 0.491243
O O10 0.000000 0.500000 0.500000
O O11 0.148065 0.295760 0.005279
O O12 0.527730 0.610007 0.428816
O O13 0.400636 0.670568 0.795345
O O14 0.344555 0.973314 0.717254
O O15 0.502131 0.644825 0.949056
O O16 0.192706 0.819333 0.497229
O O17 0.308451 0.617320 0.021954
#
# Coordination Sequence:
#
# PCOD9040694 Si02
#       8
#     2   2   2   2   2   2   2   2
#     4  11  20  37  60  91 134 171 209 251 313 385
#     4  11  23  39  58  92 134 171 208 254 314 389
#     4  12  25  40  63  96 134 171 213 252 306 385
#     4  10  23  45  66  91 120 165 206 273 325 368
#     4  11  23  37  62  97 120 170 214 267 316 369
#     4  10  23  43  68  91 121 152 222 274 315 366
#     4  11  22  37  60  91 132 168 212 258 311 379
#     4  12  26  44  65  93 134 176 207 255 327 380
#
# _framework density 20.481698000000002
#
# number of rings (size 3 to 8) (size 9 to 14) (size 15 to 20)
#    0.000    1.000    3.750    3.375    7.000    1.000 
#    0.000    1.250    0.000    0.000    0.000    0.000 
#    0.000    0.000    0.000    0.000    0.000    0.000 
#
# Total GULP energy -89114.162525 kJ/mol
# GULP energy per Si atom -5569.635158 kJ/mol
# Density = 2.043508 g / cm^3
# Si number density = 20.481698 Si / 1000 Ang^3
#
#
#
# Elastic Constant Matrix: (Units=GPa)
#
#
# Indices 1 2 3 4 5 6 
#
# 1 53.3611 28.8754 33.1794 1.4568 -25.6652 9.4276
# 2 28.8754 96.5871 18.1338 -6.4219 -17.0623 11.8445
# 3 33.1794 18.1338 104.0371 -0.1240 -21.9623 4.6565
# 4 1.4568 -6.4219 -0.1240 26.2632 -1.0424 -2.1280
# 5 -25.6652 -17.0623 -21.9623 -1.0424 34.7910 -7.9372
# 6 9.4276 11.8445 4.6565 -2.1280 -7.9372 12.9361
#
#
#
# Elastic Compliance Matrix: (Units=1/GPa)
#
#
# Indices 1 2 3 4 5 6 
#
# 1 0.035750 -0.005578 -0.006338 -0.003359 0.017617 -0.008409
# 2 -0.005578 0.013238 -0.000032 0.003010 0.000843 -0.007032
# 3 -0.006338 -0.000032 0.012303 0.000760 0.003693 0.002611
# 4 -0.003359 0.003010 0.000760 0.039694 0.002354 0.007393
# 5 0.017617 0.000843 0.003693 0.002354 0.047946 0.014865
# 6 -0.008409 -0.007032 0.002611 0.007393 0.014865 0.099267
#
#
# Mechanical properties :
#
#
# Convention : Reuss Voigt Hill
#
# Bulk Modulus (GPa) = 26.74141 46.04030 36.39085
# Shear Modulus (GPa) = 17.57103 26.38450 21.97776
#
# Velocity S-wave (km/s) = 2.93215 3.59304 3.27929
# Velocity P-wave (km/s) = 4.95459 6.30403 5.66960
#
# Compressibility (1/GPa) = 0.03739518
#
# Stress axis : x y z
#
# Youngs Moduli (GPa) = 27.97192 75.53809 81.28398
#
# Poissons Ratio (x) = 0.42134 0.51516
# Poissons Ratio (y) = 0.15602 0.00262
# Poissons Ratio (z) = 0.17728 0.00244
#
# Static dielectric constant tensor:
#      x y z
#    x 1.600440 -0.125070 -0.014830 
#    y -0.125070 1.658330 -0.078200 
#    z -0.014830 -0.078200 1.843140 
# 
# From -- ./inp_files/69395.got.cif
#   From: 2010.05.17/outbox.cif.g08.bks.cpg/sg2_35_cif.got.tgz:69395.got - 2010.06.03 11:33:40.
