data_PCOD9040833
_publ_section_title
;
Structure prediction by ZEFSAII (Michael W. Deem and Ramdas Pophale) SiO2 
 PCOD9040833
Probable space group: P -1
;
_chemical_formula_sum "Si O2"
_cell_formula_units_Z 16
_cell_length_a 13.748672
_cell_length_b 7.804090
_cell_length_c 14.104394
_cell_angle_alpha 94.228020
_cell_angle_beta 40.263820
_cell_angle_gamma 64.509251
_cell_volume 639.628482
_symmetry_space_group_name_H-M "P -1"
_symmetry_group_IT_number 2
_symmetry_cell_setting 'triclinic'
loop_
_space_group_symop_operation_xyz
x,y,z
-x,-y,-z
loop_
_atom_site_type_symbol
_atom_site_label
_atom_site_fract_x
_atom_site_fract_y
_atom_site_fract_z
Si Si1 0.366477 0.258963 0.988352
Si Si2 0.496617 0.252368 0.097137
Si Si3 0.124108 0.243652 0.627748
Si Si4 0.848158 0.968725 0.582472
Si Si5 0.728708 0.222769 0.188299
Si Si6 0.384044 0.813793 0.537217
Si Si7 0.893947 0.404308 0.461270
Si Si8 0.085659 0.973438 0.160916
O O1 0.409869 0.016331 0.949874
O O2 0.573575 0.190062 0.788676
O O3 0.364194 0.323867 0.101803
O O4 0.122213 0.505836 0.131622
O O5 0.318995 0.474570 0.314582
O O6 0.702254 0.211274 0.928867
O O7 0.083987 0.121851 0.579957
O O8 0.158022 0.365107 0.531216
O O9 0.342239 0.029691 0.524283
O O10 0.904905 0.782194 0.617120
O O11 0.000000 0.000000 0.500000
O O12 0.583490 0.524181 0.329979
O O13 0.608165 0.202421 0.355270
O O14 0.755986 0.141473 0.056010
O O15 0.000000 0.000000 0.000000
O O16 0.125946 0.962540 0.712187
O O17 0.946796 0.249298 0.322889
#
# Coordination Sequence:
#
# PCOD9040833 Si02
#       8
#     2   2   2   2   2   2   2   2
#     4  11  22  39  60  90 133 186 222 263 317 384
#     4  11  21  37  64  90 133 184 225 259 321 386
#     4  12  24  40  65  95 139 176 220 276 330 389
#     4  12  25  39  60  93 135 183 231 272 311 386
#     4   9  21  45  73  96 129 166 215 280 344 404
#     4  10  23  43  69 102 128 166 222 278 340 396
#     4  12  22  40  61  94 136 181 221 269 330 381
#     4  11  21  39  70  97 126 175 225 271 327 397
#
# _framework density 25.014520999999998
#
# number of rings (size 3 to 8) (size 9 to 14) (size 15 to 20)
#    0.000    1.000    5.000    2.625    0.000    3.500 
#    0.000    0.625    0.000    7.500    0.000    0.000 
#    0.000    0.000    0.000    0.000    0.000    0.000 
#
# Total GULP energy -89200.522411 kJ/mol
# GULP energy per Si atom -5575.032651 kJ/mol
# Density = 2.495759 g / cm^3
# Si number density = 25.014521 Si / 1000 Ang^3
#
#
#
# Elastic Constant Matrix: (Units=GPa)
#
#
# Indices 1 2 3 4 5 6 
#
# 1 25.9461 -9.9684 10.9541 0.9624 13.7334 -3.9715
# 2 -9.9684 95.2894 24.8470 21.2495 -0.1891 -16.8777
# 3 10.9541 24.8470 149.3804 15.9601 6.3533 4.3916
# 4 0.9624 21.2495 15.9601 35.3693 -0.7344 -12.1140
# 5 13.7334 -0.1891 6.3533 -0.7344 53.3436 -6.0011
# 6 -3.9715 -16.8777 4.3916 -12.1140 -6.0011 24.5601
#
#
#
# Elastic Compliance Matrix: (Units=1/GPa)
#
#
# Indices 1 2 3 4 5 6 
#
# 1 0.052214 0.009136 -0.005185 -0.000480 -0.011378 0.012632
# 2 0.009136 0.014968 -0.002919 -0.004586 -0.000912 0.009800
# 3 -0.005185 -0.002919 0.008193 -0.003998 -0.000425 -0.006385
# 4 -0.000480 -0.004586 -0.003998 0.038873 0.003077 0.017411
# 5 -0.011378 -0.000912 -0.000425 0.003077 0.022280 0.004571
# 6 0.012632 0.009800 -0.006385 0.017411 0.004571 0.060340
#
#
# Mechanical properties :
#
#
# Convention : Reuss Voigt Hill
#
# Bulk Modulus (GPa) = 12.91326 35.80904 24.36115
# Shear Modulus (GPa) = 22.66379 38.97349 30.81864
#
# Velocity S-wave (km/s) = 3.01329 3.95148 3.51384
# Velocity P-wave (km/s) = 4.15693 5.93003 5.12081
#
# Compressibility (1/GPa) = 0.07743977
#
# Stress axis : x y z
#
# Youngs Moduli (GPa) = 19.15190 66.80937 122.05629
#
# Poissons Ratio (x) = -0.61036 0.63282
# Poissons Ratio (y) = -0.17497 0.35627
# Poissons Ratio (z) = 0.09930 0.19501
#
# Static dielectric constant tensor:
#      x y z
#    x 1.985730 0.031810 -0.016990 
#    y 0.031810 2.290280 -0.038070 
#    z -0.016990 -0.038070 2.073040 
# 
# From -- ./inp_files/528577.got.cif
#   From: 2010.05.17/outbox.cif.g08.bks.cpg/sg2_265_cif.got.tgz:528577.got - 2010.06.03 11:33:40.
