data_PCOD9040066
_publ_section_title
;
Structure prediction by ZEFSAII (Michael W. Deem and Ramdas Pophale) SiO2 
 PCOD9040066
Probable space group: P -1
;
_chemical_formula_sum "Si O2"
_cell_formula_units_Z 16
_cell_length_a 21.913401
_cell_length_b 6.957100
_cell_length_c 17.300225
_cell_angle_alpha 69.774179
_cell_angle_beta 14.904046
_cell_angle_gamma 71.752421
_cell_volume 634.127194
_symmetry_space_group_name_H-M "P -1"
_symmetry_group_IT_number 2
_symmetry_cell_setting 'triclinic'
loop_
_space_group_symop_operation_xyz
x,y,z
-x,-y,-z
loop_
_atom_site_type_symbol
_atom_site_label
_atom_site_fract_x
_atom_site_fract_y
_atom_site_fract_z
Si Si1 0.383616 0.815866 0.721263
Si Si2 0.958487 0.938902 0.148616
Si Si3 0.285020 0.529412 0.667595
Si Si4 0.346777 0.092439 0.874384
Si Si5 0.214167 0.487058 0.356831
Si Si6 0.978740 0.692687 0.855799
Si Si7 0.813022 0.257647 0.783193
Si Si8 0.338892 0.424077 0.384657
O O1 0.555734 0.636341 0.542466
O O2 0.500000 0.000000 0.500000
O O3 0.330107 0.915310 0.854190
O O4 0.141229 0.777916 0.975859
O O5 0.719026 0.801035 0.476501
O O6 0.986366 0.123392 0.149779
O O7 0.000000 0.000000 0.000000
O O8 0.418844 0.752587 0.454399
O O9 0.246636 0.447571 0.813392
O O10 0.000000 0.500000 0.000000
O O11 0.224530 0.588570 0.556977
O O12 0.122456 0.221194 0.111332
O O13 0.302244 0.971800 0.025767
O O14 0.147568 0.689002 0.362916
O O15 0.194801 0.449319 0.477265
O O16 0.052100 0.310264 0.533476
O O17 0.500000 0.500000 0.000000
O O18 0.620362 0.419516 0.023905
#
# Coordination Sequence:
#
# PCOD9040066 Si02
#       8
#     2   2   2   2   2   2   2   2
#     4  11  24  43  65  91 140 200 247 290 348 410
#     4  11  26  43  69 100 146 197 245 290 350 422
#     4  12  28  42  62  99 149 197 246 289 342 417
#     4  11  25  45  68 100 145 190 243 297 351 421
#     4   9  20  48  77 107 137 178 237 303 376 444
#     4  11  26  43  63 102 145 192 242 291 349 421
#     4  10  23  42  79 108 134 187 241 295 377 447
#     4  11  25  42  72 103 145 183 233 304 361 424
#
# _framework density 25.231531
#
# number of rings (size 3 to 8) (size 9 to 14) (size 15 to 20)
#    0.000    1.250    2.500    2.625    8.750    0.500 
#    0.000    0.625    0.000   27.000    0.000    0.000 
#    0.000    0.000    0.000    0.000    0.000    0.000 
#
# Total GULP energy -89348.319120 kJ/mol
# GULP energy per Si atom -5584.269945 kJ/mol
# Density = 2.517410 g / cm^3
# Si number density = 25.231531 Si / 1000 Ang^3
#
#
#
# Elastic Constant Matrix: (Units=GPa)
#
#
# Indices 1 2 3 4 5 6 
#
# 1 114.0440 41.9408 35.0937 -10.6888 -3.2209 -23.1300
# 2 41.9408 126.3894 50.2866 -6.8523 -0.4060 -13.4674
# 3 35.0937 50.2866 113.9127 -7.0121 -4.7241 -12.3972
# 4 -10.6888 -6.8523 -7.0121 54.0875 -22.5756 3.7986
# 5 -3.2209 -0.4060 -4.7241 -22.5756 41.6437 -2.0629
# 6 -23.1300 -13.4674 -12.3972 3.7986 -2.0629 54.2364
#
#
#
# Elastic Compliance Matrix: (Units=1/GPa)
#
#
# Indices 1 2 3 4 5 6 
#
# 1 0.011249 -0.002523 -0.001723 0.002285 0.002072 0.003696
# 2 -0.002523 0.010296 -0.003713 0.000102 -0.000431 0.000608
# 3 -0.001723 -0.003713 0.011207 0.001368 0.001887 0.000881
# 4 0.002285 0.000102 0.001368 0.024898 0.013835 0.000095
# 5 0.002072 -0.000431 0.001887 0.013835 0.031956 0.001454
# 6 0.003696 0.000608 0.000881 0.000095 0.001454 0.020415
#
#
# Mechanical properties :
#
#
# Convention : Reuss Voigt Hill
#
# Bulk Modulus (GPa) = 59.40589 67.66538 63.53563
# Shear Modulus (GPa) = 38.00852 45.12851 41.56852
#
# Velocity S-wave (km/s) = 3.88543 4.23374 4.06332
# Velocity P-wave (km/s) = 6.61243 7.12569 6.87385
#
# Compressibility (1/GPa) = 0.01683335
#
# Stress axis : x y z
#
# Youngs Moduli (GPa) = 88.89829 97.12938 89.23077
#
# Poissons Ratio (x) = 0.24505 0.15374
# Poissons Ratio (y) = 0.22428 0.33132
# Poissons Ratio (z) = 0.15317 0.36065
#
# Static dielectric constant tensor:
#      x y z
#    x 2.197910 -0.122040 -0.200030 
#    y -0.122040 2.120430 0.108510 
#    z -0.200030 0.108510 2.430130 
# 
# From -- ./inp_files/577793.got.cif
#   From: 2010.05.17/outbox.cif.g08.bks.cpg/sg2_289_cif.got.tgz:577793.got - 2010.06.03 11:33:40.
