data_PCOD9040554
_publ_section_title
;
Structure prediction by ZEFSAII (Michael W. Deem and Ramdas Pophale) SiO2 
 PCOD9040554
Probable space group: P -1
;
_chemical_formula_sum "Si O2"
_cell_formula_units_Z 16
_cell_length_a 8.161562
_cell_length_b 15.549671
_cell_length_c 9.100146
_cell_angle_alpha 132.851809
_cell_angle_beta 96.713204
_cell_angle_gamma 62.153197
_cell_volume 711.809037
_symmetry_space_group_name_H-M "P -1"
_symmetry_group_IT_number 2
_symmetry_cell_setting 'triclinic'
loop_
_space_group_symop_operation_xyz
x,y,z
-x,-y,-z
loop_
_atom_site_type_symbol
_atom_site_label
_atom_site_fract_x
_atom_site_fract_y
_atom_site_fract_z
Si Si1 0.206447 0.368572 0.814541
Si Si2 0.192876 0.438506 0.590234
Si Si3 0.219926 0.527409 0.409281
Si Si4 0.486260 0.143860 0.142218
Si Si5 0.072564 0.859739 0.250904
Si Si6 0.024461 0.758358 0.420110
Si Si7 0.105781 0.965561 0.816225
Si Si8 0.508888 0.259083 0.982821
O O1 0.276683 0.416841 0.737758
O O2 0.161836 0.255442 0.616705
O O3 0.354085 0.303870 0.887959
O O4 0.000000 0.500000 0.000000
O O5 0.220048 0.537591 0.597999
O O6 0.297109 0.286719 0.346114
O O7 0.963604 0.494424 0.651717
O O8 0.170391 0.644265 0.420610
O O9 0.425055 0.397410 0.231532
O O10 0.666946 0.130564 0.236404
O O11 0.512310 0.156146 0.985241
O O12 0.500000 0.000000 0.000000
O O13 0.077080 0.753929 0.248284
O O14 0.285070 0.798404 0.136037
O O15 0.000000 0.000000 0.500000
O O16 0.933797 0.908700 0.149271
O O17 0.009059 0.893059 0.638761
O O18 0.000000 0.000000 0.000000
#
# Coordination Sequence:
#
# PCOD9040554 Si02
#       8
#     2   2   2   2   2   2   2   2
#     4  11  22  42  68 102 134 171 215 270 329 400
#     4   9  20  39  65  97 132 163 215 280 322 383
#     4   9  19  41  66  94 131 166 217 274 325 390
#     4  11  26  42  70  98 124 179 230 274 326 388
#     4  10  24  43  64  91 137 179 216 274 331 389
#     4  10  23  43  67  96 132 176 213 269 345 384
#     4  11  24  47  63  91 136 174 224 276 322 389
#     4  11  22  43  66  99 133 169 229 271 323 402
#
# _framework density 22.477938000000002
#
# number of rings (size 3 to 8) (size 9 to 14) (size 15 to 20)
#    0.000    1.750    3.750    0.000    8.750    0.500 
#    2.250    5.625    0.000    0.000    0.000    0.000 
#    0.000    0.000    0.000    0.000    0.000    0.000 
#
# Total GULP energy -89217.762267 kJ/mol
# GULP energy per Si atom -5576.110142 kJ/mol
# Density = 2.242678 g / cm^3
# Si number density = 22.477938 Si / 1000 Ang^3
#
#
#
# Elastic Constant Matrix: (Units=GPa)
#
#
# Indices 1 2 3 4 5 6 
#
# 1 48.4081 31.1720 20.5279 -5.4446 -17.1143 -11.5225
# 2 31.1720 207.1046 37.5950 -53.9820 -23.6293 16.4500
# 3 20.5279 37.5950 61.5745 -23.1826 -24.2689 3.2998
# 4 -5.4446 -53.9820 -23.1826 50.9223 -1.0799 -11.0609
# 5 -17.1143 -23.6293 -24.2689 -1.0799 39.0221 -5.4254
# 6 -11.5225 16.4500 3.2998 -11.0609 -5.4254 40.3990
#
#
#
# Elastic Compliance Matrix: (Units=1/GPa)
#
#
# Indices 1 2 3 4 5 6 
#
# 1 0.031699 -0.003617 -0.004792 0.000286 0.010462 0.012389
# 2 -0.003617 0.007880 0.001098 0.008209 0.003878 -0.001561
# 3 -0.004792 0.001098 0.029720 0.015051 0.017778 0.002267
# 4 0.000286 0.008209 0.015051 0.037302 0.016595 0.007951
# 5 0.010462 0.003878 0.017778 0.016595 0.045555 0.010614
# 6 0.012389 -0.001561 0.002267 0.007951 0.010614 0.032340
#
#
# Mechanical properties :
#
#
# Convention : Reuss Voigt Hill
#
# Bulk Modulus (GPa) = 18.28950 55.07525 36.68237
# Shear Modulus (GPa) = 23.00502 41.25485 32.12993
#
# Velocity S-wave (km/s) = 3.20261 4.28874 3.78484
# Velocity P-wave (km/s) = 4.67225 7.00568 5.95439
#
# Compressibility (1/GPa) = 0.05467619
#
# Stress axis : x y z
#
# Youngs Moduli (GPa) = 31.54688 126.90515 33.64717
#
# Poissons Ratio (x) = 0.45901 0.16124
# Poissons Ratio (y) = 0.11410 -0.03693
# Poissons Ratio (z) = 0.15117 -0.13930
#
# Static dielectric constant tensor:
#      x y z
#    x 1.820270 0.026770 0.009140 
#    y 0.026770 1.983400 -0.026740 
#    z 0.009140 -0.026740 1.862710 
# 
# From -- ./inp_files/208728.got.cif
#   From: 2010.05.17/outbox.cif.g08.bks.cpg/sg2_105_cif.got.tgz:208728.got - 2010.06.03 11:33:40.
