data_PCOD9040719
_publ_section_title
;
Structure prediction by ZEFSAII (Michael W. Deem and Ramdas Pophale) SiO2 
 PCOD9040719
Probable space group: P -1
;
_chemical_formula_sum "Si O2"
_cell_formula_units_Z 14
_cell_length_a 9.259318
_cell_length_b 18.373818
_cell_length_c 12.324281
_cell_angle_alpha 26.187257
_cell_angle_beta 97.801082
_cell_angle_gamma 114.852405
_cell_volume 669.876857
_symmetry_space_group_name_H-M "P -1"
_symmetry_group_IT_number 2
_symmetry_cell_setting 'triclinic'
loop_
_space_group_symop_operation_xyz
x,y,z
-x,-y,-z
loop_
_atom_site_type_symbol
_atom_site_label
_atom_site_fract_x
_atom_site_fract_y
_atom_site_fract_z
Si Si1 0.986564 0.649309 0.223532
Si Si2 0.999838 0.810546 0.226664
Si Si3 0.618572 0.902446 0.741507
Si Si4 0.802131 0.234366 0.135179
Si Si5 0.556994 0.226417 0.656841
Si Si6 0.805743 0.262114 0.471273
Si Si7 0.565350 0.537378 0.582059
O O1 0.000000 0.500000 0.500000
O O2 0.033523 0.821487 0.087032
O O3 0.760726 0.460981 0.412423
O O4 0.130977 0.756671 0.992207
O O5 0.769226 0.589751 0.524796
O O6 0.131418 0.801016 0.333134
O O7 0.000000 0.000000 0.000000
O O8 0.398609 0.811369 0.823581
O O9 0.745533 0.032933 0.471690
O O10 0.728960 0.088655 0.599318
O O11 0.587835 0.691702 0.058552
O O12 0.994325 0.478477 0.877920
O O13 0.622955 0.237198 0.526065
O O14 0.411371 0.263368 0.627118
O O15 0.500000 0.000000 0.000000
O O16 0.500000 0.500000 0.500000
#
# Coordination Sequence:
#
# PCOD9040719 Si02
#       7
#     2   2   2   2   2   2   2
#     4  11  21  40  63  91 130 164 220 262 317 386
#     4  12  23  38  62  98 134 163 212 276 320 377
#     4  11  23  43  69  92 133 171 217 270 320 384
#     4  10  23  43  68  95 127 177 218 261 325 388
#     4  11  23  36  61  97 127 170 209 263 327 380
#     4  11  23  40  65  96 128 173 217 259 324 393
#     4  12  23  38  64  97 130 164 219 265 321 376
#
# _framework density 20.899365
#
# number of rings (size 3 to 8) (size 9 to 14) (size 15 to 20)
#    0.000    0.857    5.714    3.000    2.000    0.000 
#    0.000    2.857    3.143    2.571    0.000    0.000 
#    0.000    0.000    0.000    0.000    0.000    0.000 
#
# Total GULP energy -78107.381357 kJ/mol
# GULP energy per Si atom -5579.098668 kJ/mol
# Density = 2.085180 g / cm^3
# Si number density = 20.899365 Si / 1000 Ang^3
#
#
#
# Elastic Constant Matrix: (Units=GPa)
#
#
# Indices 1 2 3 4 5 6 
#
# 1 79.9121 21.3006 30.3438 6.9211 -7.2335 -18.1075
# 2 21.3006 80.0500 40.8483 6.0790 2.1302 -29.3155
# 3 30.3438 40.8483 159.9229 16.5863 4.8610 -14.7613
# 4 6.9211 6.0790 16.5863 33.7591 -2.4514 1.2550
# 5 -7.2335 2.1302 4.8610 -2.4514 37.5929 -5.6961
# 6 -18.1075 -29.3155 -14.7613 1.2550 -5.6961 34.8448
#
#
#
# Elastic Compliance Matrix: (Units=1/GPa)
#
#
# Indices 1 2 3 4 5 6 
#
# 1 0.015743 -0.000147 -0.002128 -0.002133 0.004378 0.007948
# 2 -0.000147 0.020238 -0.003481 -0.002381 0.001515 0.015808
# 3 -0.002128 -0.003481 0.007808 -0.002852 -0.001540 -0.000876
# 4 -0.002133 -0.002381 -0.002852 0.032186 0.001396 -0.005251
# 5 0.004378 0.001515 -0.001540 0.001396 0.028792 0.007553
# 6 0.007948 0.015808 -0.000876 -0.005251 0.007553 0.047182
#
#
# Mechanical properties :
#
#
# Convention : Reuss Voigt Hill
#
# Bulk Modulus (GPa) = 30.98233 56.09669 43.53951
# Shear Modulus (GPa) = 28.69962 36.39886 32.54924
#
# Velocity S-wave (km/s) = 3.70973 4.17781 3.95071
# Velocity P-wave (km/s) = 5.76248 7.08320 6.45670
#
# Compressibility (1/GPa) = 0.03227646
#
# Stress axis : x y z
#
# Youngs Moduli (GPa) = 63.52056 49.41316 128.07888
#
# Poissons Ratio (x) = 0.00726 0.27251
# Poissons Ratio (y) = 0.00934 0.44587
# Poissons Ratio (z) = 0.13515 0.17202
#
# Static dielectric constant tensor:
#      x y z
#    x 1.846330 0.019740 -0.060940 
#    y 0.019740 1.619810 0.030220 
#    z -0.060940 0.030220 1.798430 
# 
# From -- ./inp_files/203880.got.cif
#   From: 2010.05.17/outbox.cif.g08.bks.cpg/sg2_102_cif.got.tgz:203880.got - 2010.06.03 11:33:40.
