data_PCOD9040881
_publ_section_title
;
Structure prediction by ZEFSAII (Michael W. Deem and Ramdas Pophale) SiO2 
 PCOD9040881
Probable space group: P -1
;
_chemical_formula_sum "Si O2"
_cell_formula_units_Z 14
_cell_length_a 23.791183
_cell_length_b 5.333295
_cell_length_c 9.358133
_cell_angle_alpha 77.905138
_cell_angle_beta 32.615231
_cell_angle_gamma 70.360181
_cell_volume 596.410329
_symmetry_space_group_name_H-M "P -1"
_symmetry_group_IT_number 2
_symmetry_cell_setting 'triclinic'
loop_
_space_group_symop_operation_xyz
x,y,z
-x,-y,-z
loop_
_atom_site_type_symbol
_atom_site_label
_atom_site_fract_x
_atom_site_fract_y
_atom_site_fract_z
Si Si1 0.245510 0.339133 0.402826
Si Si2 0.989386 0.219972 0.620846
Si Si3 0.891724 0.042569 0.321109
Si Si4 0.409892 0.384000 0.273165
Si Si5 0.634373 0.674504 0.145933
Si Si6 0.588775 0.032845 0.463553
Si Si7 0.745497 0.265713 0.206485
O O1 0.169075 0.640939 0.565858
O O2 0.350608 0.274938 0.287268
O O3 0.182111 0.119019 0.576531
O O4 0.287345 0.337714 0.151938
O O5 0.000000 0.500000 0.500000
O O6 0.870062 0.255077 0.940054
O O7 0.000000 0.000000 0.500000
O O8 0.075165 0.096314 0.577712
O O9 0.000000 0.000000 0.000000
O O10 0.316905 0.604346 0.533702
O O11 0.458340 0.162930 0.316591
O O12 0.500000 0.500000 0.000000
O O13 0.512820 0.695593 0.347361
O O14 0.690072 0.439992 0.165347
O O15 0.614869 0.936551 0.257279
O O16 0.705288 0.008567 0.290520
#
# Coordination Sequence:
#
# PCOD9040881 Si02
#       7
#     2   2   2   2   2   2   2
#     4  12  28  46  79 105 151 194 249 304 377 444
#     4  12  28  48  78 110 146 192 257 313 370 439
#     4  12  28  51  73 110 150 200 250 313 376 445
#     4  11  27  45  71 110 147 196 244 301 370 459
#     4  10  23  43  69 109 140 186 242 296 373 438
#     4  10  24  43  73 101 148 189 240 302 369 447
#     4  11  24  44  73 102 146 187 245 303 376 432
#
# _framework density 23.473770999999999
#
# number of rings (size 3 to 8) (size 9 to 14) (size 15 to 20)
#    0.000    0.857    0.000    5.143   14.000    2.286 
#    0.000    0.000    0.000    0.000    0.000    0.000 
#    0.000    0.000    0.000    0.000    0.000    0.000 
#
# Total GULP energy -78349.310216 kJ/mol
# GULP energy per Si atom -5596.379301 kJ/mol
# Density = 2.342034 g / cm^3
# Si number density = 23.473771 Si / 1000 Ang^3
#
#
#
# Elastic Constant Matrix: (Units=GPa)
#
#
# Indices 1 2 3 4 5 6 
#
# 1 121.7169 26.6155 33.9628 -16.4997 4.4642 8.3662
# 2 26.6155 111.2696 49.5851 -9.0643 3.3973 4.2263
# 3 33.9628 49.5851 172.9249 -8.3790 8.4983 20.3411
# 4 -16.4997 -9.0643 -8.3790 36.2633 4.6683 -2.9203
# 5 4.4642 3.3973 8.4983 4.6683 48.4700 -3.9128
# 6 8.3662 4.2263 20.3411 -2.9203 -3.9128 44.3656
#
#
#
# Elastic Compliance Matrix: (Units=1/GPa)
#
#
# Indices 1 2 3 4 5 6 
#
# 1 0.009442 -0.001391 -0.001108 0.003744 -0.001018 -0.000983
# 2 -0.001391 0.010659 -0.002771 0.001468 -0.000227 0.000594
# 3 -0.001108 -0.002771 0.007219 0.000396 -0.001243 -0.002920
# 4 0.003744 0.001468 0.000396 0.030226 -0.003375 0.000665
# 5 -0.001018 -0.000227 -0.001243 -0.003375 0.021482 0.002456
# 6 -0.000983 0.000594 -0.002920 0.000665 0.002456 0.024268
#
#
# Mechanical properties :
#
#
# Convention : Reuss Voigt Hill
#
# Bulk Modulus (GPa) = 59.59919 69.58201 64.59060
# Shear Modulus (GPa) = 41.86604 45.53633 43.70118
#
# Velocity S-wave (km/s) = 4.22776 4.40919 4.31943
# Velocity P-wave (km/s) = 7.01974 7.45842 7.24240
#
# Compressibility (1/GPa) = 0.01677875
#
# Stress axis : x y z
#
# Youngs Moduli (GPa) = 105.91342 93.82129 138.52656
#
# Poissons Ratio (x) = 0.13051 0.15354
# Poissons Ratio (y) = 0.14734 0.38381
# Poissons Ratio (z) = 0.11740 0.25995
#
# Static dielectric constant tensor:
#      x y z
#    x 1.960460 0.065870 -0.031420 
#    y 0.065870 2.094600 0.048890 
#    z -0.031420 0.048890 1.947410 
# 
# From -- ./inp_files/74491.got.cif
#   From: 2010.05.17/outbox.cif.g08.bks.cpg/sg2_38_cif.got.tgz:74491.got - 2010.06.03 11:33:40.
