data_PCOD9040389
_publ_section_title
;
Structure prediction by ZEFSAII (Michael W. Deem and Ramdas Pophale) SiO2 
 PCOD9040389
Probable space group: P -1
;
_chemical_formula_sum "Si O2"
_cell_formula_units_Z 16
_cell_length_a 6.117945
_cell_length_b 13.989987
_cell_length_c 12.152347
_cell_angle_alpha 133.459259
_cell_angle_beta 118.033664
_cell_angle_gamma 57.835151
_cell_volume 629.921736
_symmetry_space_group_name_H-M "P -1"
_symmetry_group_IT_number 2
_symmetry_cell_setting 'triclinic'
loop_
_space_group_symop_operation_xyz
x,y,z
-x,-y,-z
loop_
_atom_site_type_symbol
_atom_site_label
_atom_site_fract_x
_atom_site_fract_y
_atom_site_fract_z
Si Si1 0.820263 0.190178 0.209977
Si Si2 0.527099 0.467488 0.785652
Si Si3 0.875901 0.650886 0.471261
Si Si4 0.726736 0.081820 0.870475
Si Si5 0.803541 0.898575 0.479034
Si Si6 0.815670 0.919818 0.250039
Si Si7 0.352020 0.421903 0.324669
Si Si8 0.214104 0.689001 0.061828
O O1 0.989513 0.293099 0.353114
O O2 0.534475 0.261718 0.252056
O O3 0.001833 0.041620 0.178573
O O4 0.772621 0.164551 0.052286
O O5 0.407088 0.366498 0.607713
O O6 0.638908 0.540677 0.773531
O O7 0.715341 0.381199 0.858068
O O8 0.313124 0.576263 0.900470
O O9 0.859530 0.763817 0.461656
O O10 0.063737 0.497838 0.360528
O O11 0.496871 0.016707 0.785832
O O12 0.648236 0.195696 0.845063
O O13 0.853529 0.856266 0.331128
O O14 0.500000 0.000000 0.500000
O O15 0.010909 0.978446 0.620372
O O16 0.918847 0.794404 0.087069
O O17 0.500000 0.500000 0.500000
#
# Coordination Sequence:
#
# PCOD9040389 Si02
#       8
#     2   2   2   2   2   2   2   2
#     4  10  23  43  66  93 135 181 231 291 336 390
#     4  11  24  42  67 101 137 184 221 281 357 414
#     4  11  23  41  68  96 133 182 231 283 341 411
#     4  11  23  45  67  95 141 180 229 294 344 403
#     4  11  23  43  67 103 140 173 229 289 344 411
#     4  11  23  39  71  99 130 185 227 278 353 418
#     4  10  23  44  66  96 136 178 235 281 332 409
#     4  11  24  42  66 102 143 173 228 287 351 417
#
# _framework density 25.399982999999999
#
# number of rings (size 3 to 8) (size 9 to 14) (size 15 to 20)
#    0.000    1.250    1.250    4.500    1.750    5.000 
#    0.000   11.250    0.000    0.000    0.000    0.000 
#    0.000    0.000    0.000    0.000    0.000    0.000 
#
# Total GULP energy -89334.419482 kJ/mol
# GULP energy per Si atom -5583.401218 kJ/mol
# Density = 2.534217 g / cm^3
# Si number density = 25.399983 Si / 1000 Ang^3
#
#
#
# Elastic Constant Matrix: (Units=GPa)
#
#
# Indices 1 2 3 4 5 6 
#
# 1 35.1169 24.1602 19.2206 -3.5281 -4.8283 16.7722
# 2 24.1602 123.5020 19.1067 12.5041 5.2169 -4.7815
# 3 19.2206 19.1067 105.9908 -2.1442 -12.0170 -6.4312
# 4 -3.5281 12.5041 -2.1442 37.3281 -7.3624 -10.7051
# 5 -4.8283 5.2169 -12.0170 -7.3624 49.7893 2.4856
# 6 16.7722 -4.7815 -6.4312 -10.7051 2.4856 34.7579
#
#
#
# Elastic Compliance Matrix: (Units=1/GPa)
#
#
# Indices 1 2 3 4 5 6 
#
# 1 0.057221 -0.011278 -0.009516 0.000936 0.006124 -0.031073
# 2 -0.011278 0.011037 0.000000 -0.003634 -0.003090 0.006062
# 3 -0.009516 0.000000 0.011869 0.002267 0.001910 0.007349
# 4 0.000936 -0.003634 0.002267 0.031816 0.005280 0.008889
# 5 0.006124 -0.003090 0.001910 0.005280 0.022394 -0.003002
# 6 -0.031073 0.006062 0.007349 0.008889 -0.003002 0.048911
#
#
# Mechanical properties :
#
#
# Convention : Reuss Voigt Hill
#
# Bulk Modulus (GPa) = 25.94857 43.28720 34.61788
# Shear Modulus (GPa) = 21.03650 37.84986 29.44318
#
# Velocity S-wave (km/s) = 2.88098 3.86444 3.40837
# Velocity P-wave (km/s) = 4.61573 6.08203 5.39889
#
# Compressibility (1/GPa) = 0.03853777
#
# Stress axis : x y z
#
# Youngs Moduli (GPa) = 17.47607 90.60775 84.25442
#
# Poissons Ratio (x) = 1.02190 0.80174
# Poissons Ratio (y) = 0.19710 0.00003
# Poissons Ratio (z) = 0.16630 0.00003
#
# Static dielectric constant tensor:
#      x y z
#    x 2.051990 -0.019150 -0.012240 
#    y -0.019150 2.001510 -0.005500 
#    z -0.012240 -0.005500 1.993920 
# 
# From -- ./inp_files/485272.got.cif
#   From: 2010.05.17/outbox.cif.g08.bks.cpg/sg2_243_cif.got.tgz:485272.got - 2010.06.03 11:33:40.
