data_PCOD9040824
_publ_section_title
;
Structure prediction by ZEFSAII (Michael W. Deem and Ramdas Pophale) SiO2 
 PCOD9040824
Probable space group: P -1
;
_chemical_formula_sum "Si O2"
_cell_formula_units_Z 16
_cell_length_a 11.769935
_cell_length_b 12.312393
_cell_length_c 9.038998
_cell_angle_alpha 103.852515
_cell_angle_beta 52.739621
_cell_angle_gamma 62.004462
_cell_volume 613.971669
_symmetry_space_group_name_H-M "P -1"
_symmetry_group_IT_number 2
_symmetry_cell_setting 'triclinic'
loop_
_space_group_symop_operation_xyz
x,y,z
-x,-y,-z
loop_
_atom_site_type_symbol
_atom_site_label
_atom_site_fract_x
_atom_site_fract_y
_atom_site_fract_z
Si Si1 0.914212 0.584240 0.308454
Si Si2 0.893210 0.896210 0.212324
Si Si3 0.436156 0.447512 0.160795
Si Si4 0.402949 0.972305 0.785015
Si Si5 0.895179 0.753760 0.644844
Si Si6 0.239225 0.488984 0.815627
Si Si7 0.778579 0.053523 0.659214
Si Si8 0.333058 0.758271 0.785442
O O1 0.684084 0.794938 0.495521
O O2 0.909533 0.633578 0.493674
O O3 0.848025 0.502833 0.273628
O O4 0.164042 0.448718 0.987387
O O5 0.718427 0.950622 0.252210
O O6 0.767938 0.036014 0.488918
O O7 0.074802 0.691229 0.061014
O O8 0.079992 0.866073 0.987356
O O9 0.554381 0.378556 0.208262
O O10 0.156657 0.616839 0.450609
O O11 0.500000 0.500000 0.000000
O O12 0.544479 0.263598 0.958080
O O13 0.332492 0.890247 0.870370
O O14 0.292845 0.129639 0.036006
O O15 0.823472 0.906286 0.652573
O O16 0.505927 0.349192 0.523034
O O17 0.000000 0.000000 0.500000
#
# Coordination Sequence:
#
# PCOD9040824 Si02
#       8
#     2   2   2   2   2   2   2   2
#     4  10  24  47  70 100 146 195 242 299 349 424
#     4  12  23  44  71 104 144 193 231 302 369 420
#     4  12  25  42  75 108 145 189 232 293 371 434
#     4  11  25  45  72 104 147 191 243 294 360 424
#     4  12  23  47  73 103 145 194 238 296 362 419
#     4  10  23  43  69 101 141 183 247 288 357 419
#     4  12  23  45  70 106 151 182 239 292 356 444
#     4  11  23  44  69 107 149 179 235 307 354 433
#
# _framework density 26.059830999999999
#
# number of rings (size 3 to 8) (size 9 to 14) (size 15 to 20)
#    0.000    0.750    5.000    1.875    0.000    3.500 
#    4.500    3.125    0.000    0.000    0.000    0.000 
#    0.000    0.000    0.000    0.000    0.000    0.000 
#
# Total GULP energy -89536.744920 kJ/mol
# GULP energy per Si atom -5596.046558 kJ/mol
# Density = 2.600052 g / cm^3
# Si number density = 26.059831 Si / 1000 Ang^3
#
#
#
# Elastic Constant Matrix: (Units=GPa)
#
#
# Indices 1 2 3 4 5 6 
#
# 1 83.8173 -3.1164 34.6929 -5.6176 15.7647 -4.6756
# 2 -3.1164 67.7604 5.9602 1.4253 -14.3411 -6.2830
# 3 34.6929 5.9602 159.5318 -1.5444 4.0719 -8.2486
# 4 -5.6176 1.4253 -1.5444 32.2165 1.1676 0.9530
# 5 15.7647 -14.3411 4.0719 1.1676 38.8035 10.4377
# 6 -4.6756 -6.2830 -8.2486 0.9530 10.4377 34.7888
#
#
#
# Elastic Compliance Matrix: (Units=1/GPa)
#
#
# Indices 1 2 3 4 5 6 
#
# 1 0.014706 -0.000253 -0.002827 0.002588 -0.006711 0.003203
# 2 -0.000253 0.016169 -0.000659 -0.001034 0.005914 0.000984
# 3 -0.002827 -0.000659 0.006972 -0.000160 -0.000145 0.001202
# 4 0.002588 -0.001034 -0.000160 0.031616 -0.002359 -0.000035
# 5 -0.006711 0.005914 -0.000145 -0.002359 0.033413 -0.009829
# 6 0.003203 0.000984 0.001202 -0.000035 -0.009829 0.032588
#
#
# Mechanical properties :
#
#
# Convention : Reuss Voigt Hill
#
# Bulk Modulus (GPa) = 32.92794 42.90922 37.91858
# Shear Modulus (GPa) = 32.66615 39.39995 36.03305
#
# Velocity S-wave (km/s) = 3.54433 3.89254 3.72251
# Velocity P-wave (km/s) = 5.42334 6.05837 5.74963
#
# Compressibility (1/GPa) = 0.03036935
#
# Stress axis : x y z
#
# Youngs Moduli (GPa) = 68.00130 61.84714 143.43120
#
# Poissons Ratio (x) = 0.01563 0.40542
# Poissons Ratio (y) = 0.01719 0.09455
# Poissons Ratio (z) = 0.19221 0.04077
#
# Static dielectric constant tensor:
#      x y z
#    x 2.074280 0.040850 -0.010800 
#    y 0.040850 2.163310 -0.059560 
#    z -0.010800 -0.059560 1.979310 
# 
# From -- ./inp_files/273619.got.cif
#   From: 2010.05.17/outbox.cif.g08.bks.cpg/sg2_137_cif.got.tgz:273619.got - 2010.06.03 11:33:40.
