data_PCOD9040179
_publ_section_title
;
Structure prediction by ZEFSAII (Michael W. Deem and Ramdas Pophale) SiO2 
 PCOD9040179
Probable space group: P -1
;
_chemical_formula_sum "Si O2"
_cell_formula_units_Z 14
_cell_length_a 12.814303
_cell_length_b 6.384412
_cell_length_c 13.548679
_cell_angle_alpha 99.791291
_cell_angle_beta 33.336303
_cell_angle_gamma 107.535859
_cell_volume 573.741515
_symmetry_space_group_name_H-M "P -1"
_symmetry_group_IT_number 2
_symmetry_cell_setting 'triclinic'
loop_
_space_group_symop_operation_xyz
x,y,z
-x,-y,-z
loop_
_atom_site_type_symbol
_atom_site_label
_atom_site_fract_x
_atom_site_fract_y
_atom_site_fract_z
Si Si1 0.559533 0.558868 0.070829
Si Si2 0.709058 0.683689 0.569809
Si Si3 0.419994 0.719779 0.648168
Si Si4 0.217552 0.045679 0.945204
Si Si5 0.100367 0.563339 0.273805
Si Si6 0.208073 0.248606 0.761681
Si Si7 0.115303 0.859866 0.461521
O O1 0.737278 0.446191 0.934800
O O2 0.500000 0.500000 0.000000
O O3 0.371728 0.439126 0.275090
O O4 0.655602 0.808922 0.054719
O O5 0.536656 0.600407 0.621343
O O6 0.915532 0.634362 0.383731
O O7 0.736135 0.945827 0.579323
O O8 0.245676 0.509425 0.730291
O O9 0.599249 0.816124 0.436966
O O10 0.329446 0.886283 0.791567
O O11 0.189253 0.203272 0.890083
O O12 0.994878 0.902978 0.138526
O O13 0.014745 0.323409 0.375761
O O14 0.193699 0.731230 0.303601
O O15 0.000000 0.000000 0.500000
#
# Coordination Sequence:
#
# PCOD9040179 Si02
#       7
#     2   2   2   2   2   2   2
#     4  12  26  44  67 103 142 187 227 274 346 410
#     4  11  25  42  65 101 136 180 233 279 344 408
#     4  11  24  45  75 103 133 175 234 292 347 412
#     4  11  25  46  72 103 140 177 231 289 342 415
#     4  10  23  43  64  91 142 180 227 286 331 408
#     4  10  24  49  71 104 132 179 231 290 361 395
#     4   9  19  40  64  89 126 183 232 275 328 396
#
# _framework density 24.401230000000002
#
# number of rings (size 3 to 8) (size 9 to 14) (size 15 to 20)
#    0.000    1.429    1.429    3.429    6.000    1.714 
#   12.857    0.000    0.000    0.000    0.000    0.000 
#    0.000    0.000    0.000    0.000    0.000    0.000 
#
# Total GULP energy -78270.599665 kJ/mol
# GULP energy per Si atom -5590.757119 kJ/mol
# Density = 2.434569 g / cm^3
# Si number density = 24.401230 Si / 1000 Ang^3
#
#
#
# Elastic Constant Matrix: (Units=GPa)
#
#
# Indices 1 2 3 4 5 6 
#
# 1 81.3529 30.4866 22.7032 -14.3412 5.6208 15.8353
# 2 30.4866 138.2767 54.4129 4.7360 -19.1364 34.6496
# 3 22.7032 54.4129 113.4691 7.7893 -16.6669 14.6955
# 4 -14.3412 4.7360 7.7893 40.5467 2.9270 -9.3245
# 5 5.6208 -19.1364 -16.6669 2.9270 34.8981 -3.4965
# 6 15.8353 34.6496 14.6955 -9.3245 -3.4965 40.4742
#
#
#
# Elastic Compliance Matrix: (Units=1/GPa)
#
#
# Indices 1 2 3 4 5 6 
#
# 1 0.016251 -0.003155 -0.002952 0.006788 -0.006485 -0.001582
# 2 -0.003155 0.012141 -0.003012 -0.004312 0.005226 -0.008607
# 3 -0.002952 -0.003012 0.011914 -0.003552 0.004711 -0.001003
# 4 0.006788 -0.004312 -0.003552 0.030773 -0.006851 0.008823
# 5 -0.006485 0.005226 0.004711 -0.006851 0.035170 -0.002187
# 6 -0.001582 -0.008607 -0.001003 0.008823 -0.002187 0.034903
#
#
# Mechanical properties :
#
#
# Convention : Reuss Voigt Hill
#
# Bulk Modulus (GPa) = 45.31754 60.92268 53.12011
# Shear Modulus (GPa) = 29.98575 38.21688 34.10132
#
# Velocity S-wave (km/s) = 3.50932 3.96180 3.74240
# Velocity P-wave (km/s) = 5.91883 6.77857 6.36324
#
# Compressibility (1/GPa) = 0.02206651
#
# Stress axis : x y z
#
# Youngs Moduli (GPa) = 61.53543 82.36867 83.93535
#
# Poissons Ratio (x) = 0.25985 0.24781
# Poissons Ratio (y) = 0.19413 0.25284
# Poissons Ratio (z) = 0.18167 0.24812
#
# Static dielectric constant tensor:
#      x y z
#    x 1.994650 0.030560 -0.004210 
#    y 0.030560 1.987570 -0.011140 
#    z -0.004210 -0.011140 1.933630 
# 
# From -- ./inp_files/525835.got.cif
#   From: 2010.05.17/outbox.cif.g08.bks.cpg/sg2_263_cif.got.tgz:525835.got - 2010.06.03 11:33:40.
