data_PCOD9040627
_publ_section_title
;
Structure prediction by ZEFSAII (Michael W. Deem and Ramdas Pophale) SiO2 
 PCOD9040627
Probable space group: P -1
;
_chemical_formula_sum "Si O2"
_cell_formula_units_Z 14
_cell_length_a 18.505431
_cell_length_b 4.991704
_cell_length_c 10.369752
_cell_angle_alpha 81.367598
_cell_angle_beta 49.832112
_cell_angle_gamma 52.469209
_cell_volume 531.829531
_symmetry_space_group_name_H-M "P -1"
_symmetry_group_IT_number 2
_symmetry_cell_setting 'triclinic'
loop_
_space_group_symop_operation_xyz
x,y,z
-x,-y,-z
loop_
_atom_site_type_symbol
_atom_site_label
_atom_site_fract_x
_atom_site_fract_y
_atom_site_fract_z
Si Si1 0.954863 0.419102 0.681062
Si Si2 0.649949 0.397975 0.568095
Si Si3 0.587591 0.364540 0.284305
Si Si4 0.758443 0.726710 0.307017
Si Si5 0.401837 0.441079 0.102303
Si Si6 0.268413 0.493212 0.006622
Si Si7 0.993335 0.810845 0.804772
O O1 0.988979 0.537363 0.755324
O O2 0.000000 0.500000 0.500000
O O3 0.024669 0.993085 0.653637
O O4 0.801924 0.635944 0.846465
O O5 0.499309 0.607360 0.724448
O O6 0.683886 0.594359 0.430993
O O7 0.676983 0.409630 0.684302
O O8 0.721669 0.006832 0.445641
O O9 0.500000 0.500000 0.500000
O O10 0.610885 0.632277 0.205664
O O11 0.712246 0.949150 0.210598
O O12 0.909083 0.384182 0.176206
O O13 0.500000 0.500000 0.000000
O O14 0.301177 0.605122 0.089051
O O15 0.500000 0.000000 0.000000
O O16 0.152739 0.824952 0.024415
#
# Coordination Sequence:
#
# PCOD9040627 Si02
#       7
#     2   2   2   2   2   2   2
#     4  10  23  43  68 100 145 188 229 288 359 424
#     4  11  24  44  72 104 142 191 244 293 368 422
#     4  10  23  48  74 103 146 194 241 301 353 422
#     4  11  24  45  71 105 143 194 241 294 348 434
#     4  12  26  44  70 102 146 182 236 303 360 431
#     4  10  26  45  71 108 144 185 242 291 369 422
#     4  10  24  43  69 104 144 185 239 288 358 425
#
# _framework density 26.324225999999999
#
# number of rings (size 3 to 8) (size 9 to 14) (size 15 to 20)
#    0.857    0.571    1.429    2.571    6.000    1.714 
#    5.143    0.714    0.000    0.000    0.000    0.000 
#    0.000    0.000    0.000    0.000    0.000    0.000 
#
# Total GULP energy -78203.310653 kJ/mol
# GULP energy per Si atom -5585.950761 kJ/mol
# Density = 2.626431 g / cm^3
# Si number density = 26.324226 Si / 1000 Ang^3
#
#
#
# Elastic Constant Matrix: (Units=GPa)
#
#
# Indices 1 2 3 4 5 6 
#
# 1 129.8132 47.8318 44.5076 1.9059 -23.4388 24.0729
# 2 47.8318 87.5652 17.2064 9.1755 -19.9080 18.9529
# 3 44.5076 17.2064 114.3335 -35.1144 -25.6649 12.6482
# 4 1.9059 9.1755 -35.1144 38.0849 5.3902 -16.1392
# 5 -23.4388 -19.9080 -25.6649 5.3902 54.8092 -14.8448
# 6 24.0729 18.9529 12.6482 -16.1392 -14.8448 50.2764
#
#
#
# Elastic Compliance Matrix: (Units=1/GPa)
#
#
# Indices 1 2 3 4 5 6 
#
# 1 0.012144 -0.003456 -0.005783 -0.007421 0.000529 -0.005283
# 2 -0.003456 0.016793 -0.002840 -0.009505 0.002530 -0.006266
# 3 -0.005783 -0.002840 0.017761 0.019682 0.004802 0.007107
# 4 -0.007421 -0.009505 0.019682 0.055495 0.002771 0.020817
# 5 0.000529 0.002530 0.004802 0.002771 0.022774 0.005199
# 6 -0.005283 -0.006266 0.007107 0.020817 0.005199 0.031211
#
#
# Mechanical properties :
#
#
# Convention : Reuss Voigt Hill
#
# Bulk Modulus (GPa) = 44.36549 61.20038 52.78294
# Shear Modulus (GPa) = 26.61715 43.44519 35.03117
#
# Velocity S-wave (km/s) = 3.18327 4.06690 3.65191
# Velocity P-wave (km/s) = 5.51371 6.73440 6.15439
#
# Compressibility (1/GPa) = 0.02254004
#
# Stress axis : x y z
#
# Youngs Moduli (GPa) = 82.34787 59.54880 56.30206
#
# Poissons Ratio (x) = 0.20578 0.32560
# Poissons Ratio (y) = 0.28457 0.15990
# Poissons Ratio (z) = 0.47623 0.16912
#
# Static dielectric constant tensor:
#      x y z
#    x 2.091300 -0.015100 0.031150 
#    y -0.015100 2.162460 0.069850 
#    z 0.031150 0.069850 2.122160 
# 
# From -- ./inp_files/468059.got.cif
#   From: 2010.05.17/outbox.cif.g08.bks.cpg/sg2_235_cif.got.tgz:468059.got - 2010.06.03 11:33:40.
