data_PCOD9040892
_publ_section_title
;
Structure prediction by ZEFSAII (Michael W. Deem and Ramdas Pophale) SiO2 
 PCOD9040892
Probable space group: P -1
;
_chemical_formula_sum "Si O2"
_cell_formula_units_Z 16
_cell_length_a 9.282472
_cell_length_b 7.276267
_cell_length_c 17.671998
_cell_angle_alpha 101.600479
_cell_angle_beta 38.320873
_cell_angle_gamma 101.320805
_cell_volume 723.529301
_symmetry_space_group_name_H-M "P -1"
_symmetry_group_IT_number 2
_symmetry_cell_setting 'triclinic'
loop_
_space_group_symop_operation_xyz
x,y,z
-x,-y,-z
loop_
_atom_site_type_symbol
_atom_site_label
_atom_site_fract_x
_atom_site_fract_y
_atom_site_fract_z
Si Si1 0.764979 0.582446 0.388544
Si Si2 0.738570 0.969270 0.676761
Si Si3 0.194732 0.995273 0.584052
Si Si4 0.983947 0.054542 0.922505
Si Si5 0.507936 0.144994 0.078197
Si Si6 0.225184 0.431779 0.443247
Si Si7 0.934028 0.731536 0.794149
Si Si8 0.507324 0.807543 0.327682
O O1 0.500000 0.500000 0.500000
O O2 0.847743 0.582985 0.441080
O O3 0.575748 0.065906 0.557623
O O4 0.931861 0.454691 0.262691
O O5 0.602969 0.956803 0.810765
O O6 0.702543 0.766963 0.634196
O O7 0.644784 0.128137 0.675724
O O8 0.005339 0.995807 0.594273
O O9 0.431420 0.593053 0.361111
O O10 0.217914 0.202751 0.625583
O O11 0.091036 0.846718 0.675586
O O12 0.933383 0.863024 0.878883
O O13 0.228549 0.147986 0.801012
O O14 0.774610 0.186075 0.996725
O O15 0.000000 0.000000 0.000000
O O16 0.324857 0.295006 0.138389
O O17 0.500000 0.000000 0.000000
O O18 0.000000 0.500000 0.500000
#
# Coordination Sequence:
#
# PCOD9040892 Si02
#       8
#     2   2   2   2   2   2   2   2
#     4  12  25  38  62 105 145 162 205 273 342 410
#     4  11  21  39  67  95 131 172 219 275 322 397
#     4  11  22  40  68 102 131 175 214 259 355 406
#     4  11  23  42  70  94 128 183 229 272 324 379
#     4   9  20  42  67  87 121 178 227 263 317 380
#     4  12  23  40  64 100 138 170 215 265 335 411
#     4  10  23  43  69  94 135 174 215 275 329 403
#     4  12  22  37  68  98 135 168 213 274 335 387
#
# _framework density 22.113824999999999
#
# number of rings (size 3 to 8) (size 9 to 14) (size 15 to 20)
#    0.000    1.000    5.000    2.625    1.750    1.000 
#    0.000    0.625    8.250   10.500    0.000    0.000 
#    0.000    0.000    0.000    0.000    0.000    0.000 
#
# Total GULP energy -89511.917971 kJ/mol
# GULP energy per Si atom -5594.494873 kJ/mol
# Density = 2.206349 g / cm^3
# Si number density = 22.113825 Si / 1000 Ang^3
#
#
#
# Elastic Constant Matrix: (Units=GPa)
#
#
# Indices 1 2 3 4 5 6 
#
# 1 110.8387 6.4577 37.6073 -3.3253 -10.5974 0.7847
# 2 6.4577 102.4935 32.4049 8.9264 -15.8104 -0.7586
# 3 37.6073 32.4049 123.6438 -11.7193 -13.8974 5.3878
# 4 -3.3253 8.9264 -11.7193 29.3372 7.0460 -5.1485
# 5 -10.5974 -15.8104 -13.8974 7.0460 52.7599 -5.6705
# 6 0.7847 -0.7586 5.3878 -5.1485 -5.6705 20.7023
#
#
#
# Elastic Compliance Matrix: (Units=1/GPa)
#
#
# Indices 1 2 3 4 5 6 
#
# 1 0.010191 0.000660 -0.003183 -0.000560 0.001562 0.000755
# 2 0.000660 0.011872 -0.003479 -0.005639 0.003624 0.000906
# 3 -0.003183 -0.003479 0.010500 0.004550 0.000313 -0.001522
# 4 -0.000560 -0.005639 0.004550 0.040060 -0.005183 0.007174
# 5 0.001562 0.003624 0.000313 -0.005183 0.021625 0.004627
# 6 0.000755 0.000906 -0.001522 0.007174 0.004627 0.051756
#
#
# Mechanical properties :
#
#
# Convention : Reuss Voigt Hill
#
# Bulk Modulus (GPa) = 48.64016 54.43509 51.53763
# Shear Modulus (GPa) = 30.32865 37.92696 34.12780
#
# Velocity S-wave (km/s) = 3.70737 4.14584 3.93272
# Velocity P-wave (km/s) = 6.35368 6.89831 6.63159
#
# Compressibility (1/GPa) = 0.02055914
#
# Stress axis : x y z
#
# Youngs Moduli (GPa) = 98.12727 84.23331 95.23574
#
# Poissons Ratio (x) = -0.05555 0.30312
# Poissons Ratio (y) = -0.06472 0.33128
# Poissons Ratio (z) = 0.31232 0.29301
#
# Static dielectric constant tensor:
#      x y z
#    x 1.905240 0.027320 -0.030680 
#    y 0.027320 1.809300 0.007880 
#    z -0.030680 0.007880 1.818000 
# 
# From -- ./inp_files/589893.got.cif
#   From: 2010.05.17/outbox.cif.g08.bks.cpg/sg2_295_cif.got.tgz:589893.got - 2010.06.03 11:33:40.
