data_PCOD9040019
_publ_section_title
;
Structure prediction by ZEFSAII (Michael W. Deem and Ramdas Pophale) SiO2 
 PCOD9040019
Probable space group: P -1
;
_chemical_formula_sum "Si O2"
_cell_formula_units_Z 16
_cell_length_a 5.870367
_cell_length_b 23.140701
_cell_length_c 17.875393
_cell_angle_alpha 21.812801
_cell_angle_beta 116.963008
_cell_angle_gamma 105.202237
_cell_volume 705.828810
_symmetry_space_group_name_H-M "P -1"
_symmetry_group_IT_number 2
_symmetry_cell_setting 'triclinic'
loop_
_space_group_symop_operation_xyz
x,y,z
-x,-y,-z
loop_
_atom_site_type_symbol
_atom_site_label
_atom_site_fract_x
_atom_site_fract_y
_atom_site_fract_z
Si Si1 0.838390 0.843380 0.820080
Si Si2 0.018955 0.809545 0.734207
Si Si3 0.801949 0.019425 0.226432
Si Si4 0.330365 0.628131 0.750136
Si Si5 0.408941 0.702111 0.270993
Si Si6 0.601756 0.856036 0.497209
Si Si7 0.033648 0.626627 0.416609
Si Si8 0.687744 0.556198 0.174273
O O1 0.804441 0.817646 0.758791
O O2 0.119943 0.870695 0.833859
O O3 0.602056 0.012910 0.625432
O O4 0.846104 0.676117 0.061386
O O5 0.915335 0.777117 0.678225
O O6 0.346195 0.671376 0.968123
O O7 0.000000 0.000000 0.500000
O O8 0.550825 0.985527 0.264189
O O9 0.752671 0.138315 0.004013
O O10 0.058568 0.818713 0.500254
O O11 0.545635 0.693868 0.667103
O O12 0.212703 0.552206 0.758110
O O13 0.500000 0.500000 0.000000
O O14 0.500000 0.500000 0.500000
O O15 0.718733 0.705475 0.317541
O O16 0.177098 0.730583 0.268182
O O17 0.000000 0.500000 0.500000
O O18 0.256919 0.537594 0.625225
#
# Coordination Sequence:
#
# PCOD9040019 Si02
#       8
#     2   2   2   2   2   2   2   2
#     4  11  22  37  67  98 142 171 242 300 370 421
#     4  12  23  36  63 104 135 175 238 296 369 427
#     4  11  24  43  72 102 138 192 239 299 367 433
#     4  11  27  47  68 101 151 199 243 281 364 450
#     4  10  23  42  74 106 141 179 244 310 378 432
#     4  11  24  42  67  98 143 188 237 300 362 445
#     4  10  24  43  71 107 140 180 238 313 378 429
#     4  12  26  42  69 104 143 187 243 302 364 439
#
# _framework density 22.668385000000001
#
# number of rings (size 3 to 8) (size 9 to 14) (size 15 to 20)
#    0.000    1.000    2.500    3.375   14.000    3.000 
#    0.000    1.250    0.000    0.000    0.000    0.000 
#    0.000    0.000    0.000    0.000    0.000    0.000 
#
# Total GULP energy -89134.505911 kJ/mol
# GULP energy per Si atom -5570.906619 kJ/mol
# Density = 2.261679 g / cm^3
# Si number density = 22.668385 Si / 1000 Ang^3
#
#
#
# Elastic Constant Matrix: (Units=GPa)
#
#
# Indices 1 2 3 4 5 6 
#
# 1 109.0099 5.7081 40.1015 9.5258 -27.6736 -6.5871
# 2 5.7081 67.7717 36.8427 5.4751 -7.7424 -0.6936
# 3 40.1015 36.8427 113.9862 17.3925 -29.5181 -14.5893
# 4 9.5258 5.4751 17.3925 36.5958 -10.7801 -9.8862
# 5 -27.6736 -7.7424 -29.5181 -10.7801 43.1286 4.4716
# 6 -6.5871 -0.6936 -14.5893 -9.8862 4.4716 31.9783
#
#
#
# Elastic Compliance Matrix: (Units=1/GPa)
#
#
# Indices 1 2 3 4 5 6 
#
# 1 0.011664 0.001317 -0.003037 -0.000076 0.005598 0.000239
# 2 0.001317 0.018265 -0.006679 -0.000694 -0.000357 -0.002544
# 3 -0.003037 -0.006679 0.014359 -0.002197 0.005684 0.004306
# 4 -0.000076 -0.000694 -0.002197 0.032342 0.005558 0.008189
# 5 0.005598 -0.000357 0.005684 0.005558 0.031891 0.000998
# 6 0.000239 -0.002544 0.004306 0.008189 0.000998 0.035622
#
#
# Mechanical properties :
#
#
# Convention : Reuss Voigt Hill
#
# Bulk Modulus (GPa) = 36.37900 50.67471 43.52686
# Shear Modulus (GPa) = 29.39375 36.21491 32.80433
#
# Velocity S-wave (km/s) = 3.60486 4.00133 3.80826
# Velocity P-wave (km/s) = 5.78012 6.61444 6.21131
#
# Compressibility (1/GPa) = 0.02748839
#
# Stress axis : x y z
#
# Youngs Moduli (GPa) = 85.73323 54.75053 69.64454
#
# Poissons Ratio (x) = -0.07210 0.21153
# Poissons Ratio (y) = -0.11290 0.46516
# Poissons Ratio (z) = 0.26039 0.36568
#
# Static dielectric constant tensor:
#      x y z
#    x 2.051110 0.010810 0.031240 
#    y 0.010810 1.800980 0.090870 
#    z 0.031240 0.090870 1.822730 
# 
# From -- ./inp_files/39949.got.cif
#   From: 2010.05.17/outbox.cif.g08.bks.cpg/sg2_20_cif.got.tgz:39949.got - 2010.06.03 11:33:40.
