data_PCOD9040517
_publ_section_title
;
Structure prediction by ZEFSAII (Michael W. Deem and Ramdas Pophale) SiO2 
 PCOD9040517
Probable space group: P -1
;
_chemical_formula_sum "Si O2"
_cell_formula_units_Z 14
_cell_length_a 11.486710
_cell_length_b 7.814990
_cell_length_c 9.170136
_cell_angle_alpha 116.847988
_cell_angle_beta 54.978427
_cell_angle_gamma 89.338963
_cell_volume 558.664778
_symmetry_space_group_name_H-M "P -1"
_symmetry_group_IT_number 2
_symmetry_cell_setting 'triclinic'
loop_
_space_group_symop_operation_xyz
x,y,z
-x,-y,-z
loop_
_atom_site_type_symbol
_atom_site_label
_atom_site_fract_x
_atom_site_fract_y
_atom_site_fract_z
Si Si1 0.400878 0.070049 0.362865
Si Si2 0.269245 0.137028 0.806038
Si Si3 0.964459 0.315048 0.537287
Si Si4 0.983205 0.493233 0.179868
Si Si5 0.352962 0.681226 0.110495
Si Si6 0.159069 0.788303 0.679141
Si Si7 0.465494 0.440333 0.340639
O O1 0.574756 0.956220 0.253196
O O2 0.356205 0.900537 0.244126
O O3 0.309169 0.153356 0.612618
O O4 0.403143 0.255722 0.330857
O O5 0.175717 0.985165 0.813507
O O6 0.156652 0.344939 0.039195
O O7 0.061195 0.301305 0.610600
O O8 0.801565 0.336252 0.729666
O O9 0.964438 0.164468 0.345101
O O10 0.000000 0.500000 0.500000
O O11 0.878960 0.365080 0.244066
O O12 0.000000 0.500000 0.000000
O O13 0.500000 0.500000 0.000000
O O14 0.384947 0.642625 0.899767
O O15 0.333145 0.645137 0.450518
O O16 0.500000 0.500000 0.500000
#
# Coordination Sequence:
#
# PCOD9040517 Si02
#       7
#     2   2   2   2   2   2   2
#     4  11  24  40  67 105 138 172 224 286 335 403
#     4  11  22  41  67  98 134 176 225 275 344 402
#     4  10  23  43  67  92 132 177 225 269 334 406
#     4  11  25  41  67  94 130 178 228 279 338 401
#     4  12  23  43  70  99 136 183 222 275 346 403
#     4  11  22  45  64  96 134 180 224 273 337 406
#     4  12  25  41  69 105 140 170 229 287 333 399
#
# _framework density 25.059750999999999
#
# number of rings (size 3 to 8) (size 9 to 14) (size 15 to 20)
#    0.000    0.857    4.286    2.571    6.000    0.000 
#    0.000    0.714    3.143    0.000    0.000    0.000 
#    0.000    0.000    0.000    0.000    0.000    0.000 
#
# Total GULP energy -78261.916270 kJ/mol
# GULP energy per Si atom -5590.136876 kJ/mol
# Density = 2.500271 g / cm^3
# Si number density = 25.059751 Si / 1000 Ang^3
#
#
#
# Elastic Constant Matrix: (Units=GPa)
#
#
# Indices 1 2 3 4 5 6 
#
# 1 82.4424 25.2644 27.4179 1.8571 25.8414 29.4062
# 2 25.2644 79.2822 31.9871 7.9367 12.0192 31.5560
# 3 27.4179 31.9871 129.4395 -10.0363 12.9393 13.7994
# 4 1.8571 7.9367 -10.0363 48.8075 1.8469 -0.5390
# 5 25.8414 12.0192 12.9393 1.8469 51.5913 6.1102
# 6 29.4062 31.5560 13.7994 -0.5390 6.1102 45.6012
#
#
#
# Elastic Compliance Matrix: (Units=1/GPa)
#
#
# Indices 1 2 3 4 5 6 
#
# 1 0.019109 0.000481 -0.002311 -0.001107 -0.007770 -0.010929
# 2 0.000481 0.019712 -0.003720 -0.004042 -0.002267 -0.012569
# 3 -0.002311 -0.003720 0.009247 0.002630 -0.000552 0.001371
# 4 -0.001107 -0.004042 0.002630 0.021773 -0.000300 0.003012
# 5 -0.007770 -0.002267 -0.000552 -0.000300 0.023527 0.003591
# 6 -0.010929 -0.012569 0.001371 0.003012 0.003591 0.036814
#
#
# Mechanical properties :
#
#
# Convention : Reuss Voigt Hill
#
# Bulk Modulus (GPa) = 27.04901 51.16699 39.10800
# Shear Modulus (GPa) = 32.55111 42.96631 37.75871
#
# Velocity S-wave (km/s) = 3.60799 4.14521 3.88590
# Velocity P-wave (km/s) = 5.30792 6.58579 5.98108
#
# Compressibility (1/GPa) = 0.03696992
#
# Stress axis : x y z
#
# Youngs Moduli (GPa) = 52.33077 50.73134 108.13991
#
# Poissons Ratio (x) = -0.02443 0.24988
# Poissons Ratio (y) = -0.02520 0.40227
# Poissons Ratio (z) = 0.12092 0.18871
#
# Static dielectric constant tensor:
#      x y z
#    x 2.044760 -0.073090 0.029830 
#    y -0.073090 1.984440 0.005860 
#    z 0.029830 0.005860 2.082890 
# 
# From -- ./inp_files/175534.got.cif
#   From: 2010.05.17/outbox.cif.g08.bks.cpg/sg2_88_cif.got.tgz:175534.got - 2010.06.03 11:33:40.
