data_PCOD9040774
_publ_section_title
;
Structure prediction by ZEFSAII (Michael W. Deem and Ramdas Pophale) SiO2 
 PCOD9040774
Probable space group: P -1
;
_chemical_formula_sum "Si O2"
_cell_formula_units_Z 12
_cell_length_a 20.309448
_cell_length_b 10.216289
_cell_length_c 5.304098
_cell_angle_alpha 52.452479
_cell_angle_beta 58.401700
_cell_angle_gamma 33.000150
_cell_volume 475.018699
_symmetry_space_group_name_H-M "P -1"
_symmetry_group_IT_number 2
_symmetry_cell_setting 'triclinic'
loop_
_space_group_symop_operation_xyz
x,y,z
-x,-y,-z
loop_
_atom_site_type_symbol
_atom_site_label
_atom_site_fract_x
_atom_site_fract_y
_atom_site_fract_z
Si Si1 0.882209 0.463394 0.311787
Si Si2 0.697087 0.857218 0.858131
Si Si3 0.696138 0.557824 0.920135
Si Si4 0.499130 0.616948 0.112139
Si Si5 0.905145 0.025746 0.262065
Si Si6 0.874720 0.769469 0.308509
O O1 0.791122 0.496787 0.616638
O O2 0.019118 0.182815 0.419473
O O3 0.874380 0.667771 0.171833
O O4 0.822852 0.566036 0.038937
O O5 0.632954 0.815354 0.885532
O O6 0.748926 0.915358 0.511486
O O7 0.618016 0.071551 0.980790
O O8 0.776936 0.316901 0.235718
O O9 0.607994 0.571689 0.950649
O O10 0.500000 0.500000 0.500000
O O11 0.500000 0.500000 0.000000
O O12 0.879715 0.949814 0.163956
O O13 0.000000 0.000000 0.000000
O O14 0.000000 0.500000 0.500000
#
# Coordination Sequence:
#
# PCOD9040774 Si02
#       6
#     2   2   2   2   2   2
#     4   9  21  38  67 100 135 186 232 295 356 428
#     4  11  24  42  70 101 139 187 243 296 360 427
#     4  10  23  43  68  98 145 185 236 295 355 428
#     4  12  30  49  75 106 142 192 247 302 359 424
#     4   9  18  37  62  96 138 181 227 289 353 432
#     4   9  19  38  62  93 140 177 231 287 353 421
#
# _framework density 25.262163000000001
#
# number of rings (size 3 to 8) (size 9 to 14) (size 15 to 20)
#    0.000    2.000    0.000    2.500    9.333    4.000 
#    0.000    0.000    0.000    0.000    0.000    0.000 
#    0.000    0.000    0.000    0.000    0.000    0.000 
#
# Total GULP energy -66970.322504 kJ/mol
# GULP energy per Si atom -5580.860209 kJ/mol
# Density = 2.520467 g / cm^3
# Si number density = 25.262163 Si / 1000 Ang^3
#
#
#
# Elastic Constant Matrix: (Units=GPa)
#
#
# Indices 1 2 3 4 5 6 
#
# 1 216.2280 65.7055 52.3518 5.5232 -41.7503 36.1571
# 2 65.7055 119.6952 23.4743 10.6148 -17.6313 8.6022
# 3 52.3518 23.4743 72.8387 5.6629 -17.1297 5.2037
# 4 5.5232 10.6148 5.6629 29.3209 2.1747 -1.7539
# 5 -41.7503 -17.6313 -17.1297 2.1747 40.1965 -6.5974
# 6 36.1571 8.6022 5.2037 -1.7539 -6.5974 55.1336
#
#
#
# Elastic Compliance Matrix: (Units=1/GPa)
#
#
# Indices 1 2 3 4 5 6 
#
# 1 0.007831 -0.002596 -0.003307 -0.000496 0.004982 -0.003838
# 2 -0.002596 0.010477 -0.000865 -0.003251 0.001748 0.000255
# 3 -0.003307 -0.000865 0.017442 -0.002662 0.003934 0.001044
# 4 -0.000496 -0.003251 -0.002662 0.036343 -0.004767 0.001669
# 5 0.004982 0.001748 0.003934 -0.004767 0.032730 -0.000147
# 6 -0.003838 0.000255 0.001044 0.001669 -0.000147 0.020552
#
#
# Mechanical properties :
#
#
# Convention : Reuss Voigt Hill
#
# Bulk Modulus (GPa) = 45.01803 76.86946 60.94375
# Shear Modulus (GPa) = 34.17266 42.74555 38.45911
#
# Velocity S-wave (km/s) = 3.68193 4.11795 3.90603
# Velocity P-wave (km/s) = 5.99454 7.28730 6.67230
#
# Compressibility (1/GPa) = 0.02221332
#
# Stress axis : x y z
#
# Youngs Moduli (GPa) = 127.70015 95.44852 57.33218
#
# Poissons Ratio (x) = 0.24782 0.18961
# Poissons Ratio (y) = 0.33156 0.04958
# Poissons Ratio (z) = 0.42232 0.08254
#
# Static dielectric constant tensor:
#      x y z
#    x 2.038050 0.019990 0.019900 
#    y 0.019990 2.054500 -0.068140 
#    z 0.019900 -0.068140 2.119280 
# 
# From -- ./inp_files/103617.got.cif
#   From: 2010.05.17/outbox.cif.g08.bks.cpg/sg2_52_cif.got.tgz:103617.got - 2010.06.03 11:33:40.
