data_PCOD9040916
_publ_section_title
;
Structure prediction by ZEFSAII (Michael W. Deem and Ramdas Pophale) SiO2 
 PCOD9040916
Probable space group: P -1
;
_chemical_formula_sum "Si O2"
_cell_formula_units_Z 16
_cell_length_a 23.948050
_cell_length_b 9.770733
_cell_length_c 8.034689
_cell_angle_alpha 146.196790
_cell_angle_beta 45.044519
_cell_angle_gamma 144.454979
_cell_volume 605.351676
_symmetry_space_group_name_H-M "P -1"
_symmetry_group_IT_number 2
_symmetry_cell_setting 'triclinic'
loop_
_space_group_symop_operation_xyz
x,y,z
-x,-y,-z
loop_
_atom_site_type_symbol
_atom_site_label
_atom_site_fract_x
_atom_site_fract_y
_atom_site_fract_z
Si Si1 0.260011 0.233659 0.715445
Si Si2 0.632964 0.713278 0.958981
Si Si3 0.813785 0.302898 0.870803
Si Si4 0.900018 0.677813 0.763484
Si Si5 0.617198 0.178807 0.253311
Si Si6 0.010379 0.182633 0.823402
Si Si7 0.817090 0.157589 0.205295
Si Si8 0.544743 0.382314 0.159277
O O1 0.359843 0.537739 0.863734
O O2 0.245675 0.052605 0.395670
O O3 0.247834 0.013934 0.668014
O O4 0.168868 0.238627 0.937250
O O5 0.610694 0.433897 0.610361
O O6 0.578249 0.567583 0.101709
O O7 0.609388 0.939071 0.160707
O O8 0.747323 0.942272 0.990073
O O9 0.887930 0.455114 0.708888
O O10 0.725608 0.338087 0.111014
O O11 0.890433 0.488907 0.042641
O O12 0.847813 0.491113 0.514902
O O13 0.999418 0.971819 0.788810
O O14 0.532273 0.960038 0.081723
O O15 0.000000 0.000000 0.500000
O O16 0.918517 0.197113 0.036620
O O17 0.500000 0.500000 0.500000
#
# Coordination Sequence:
#
# PCOD9040916 Si02
#       8
#     2   2   2   2   2   2   2   2
#     4   9  21  43  68  99 136 179 236 301 350 430
#     4  11  27  48  75 105 153 191 241 297 373 428
#     4  11  24  42  69 101 140 185 243 293 364 425
#     4  10  23  43  69  97 137 189 239 298 361 425
#     4  12  27  49  72 110 148 196 237 306 364 438
#     4  11  24  42  65 103 139 185 241 298 364 433
#     4   9  22  42  69  97 134 190 233 294 354 430
#     4  11  23  48  75 109 141 191 247 297 364 436
#
# _framework density 26.430917000000001
#
# number of rings (size 3 to 8) (size 9 to 14) (size 15 to 20)
#    0.000    1.500    1.250    1.875    8.750    6.000 
#    4.500    3.125    0.000    0.000    0.000    0.000 
#    0.000    0.000    0.000    0.000    0.000    0.000 
#
# Total GULP energy -89467.089524 kJ/mol
# GULP energy per Si atom -5591.693095 kJ/mol
# Density = 2.637076 g / cm^3
# Si number density = 26.430917 Si / 1000 Ang^3
#
#
#
# Elastic Constant Matrix: (Units=GPa)
#
#
# Indices 1 2 3 4 5 6 
#
# 1 89.5737 59.2889 41.9732 20.5896 24.6525 22.6742
# 2 59.2889 181.6532 46.6292 18.5937 23.0638 4.4137
# 3 41.9732 46.6292 165.2933 16.8808 31.8241 4.8685
# 4 20.5896 18.5937 16.8808 53.0524 7.2611 12.3346
# 5 24.6525 23.0638 31.8241 7.2611 43.6912 12.3435
# 6 22.6742 4.4137 4.8685 12.3346 12.3435 69.0032
#
#
#
# Elastic Compliance Matrix: (Units=1/GPa)
#
#
# Indices 1 2 3 4 5 6 
#
# 1 0.018067 -0.004350 -0.001993 -0.003253 -0.004751 -0.004087
# 2 -0.004350 0.007297 -0.000691 -0.000809 -0.001144 0.001361
# 3 -0.001993 -0.000691 0.007640 -0.001097 -0.004206 0.001109
# 4 -0.003253 -0.000809 -0.001097 0.021326 0.000270 -0.002662
# 5 -0.004751 -0.001144 -0.004206 0.000270 0.030185 -0.003517
# 6 -0.004087 0.001361 0.001109 -0.002662 -0.003517 0.016775
#
#
# Mechanical properties :
#
#
# Convention : Reuss Voigt Hill
#
# Bulk Modulus (GPa) = 52.81016 81.36698 67.08857
# Shear Modulus (GPa) = 41.09453 52.39129 46.74291
#
# Velocity S-wave (km/s) = 3.94736 4.45702 4.20991
# Velocity P-wave (km/s) = 6.38744 7.57220 7.00491
#
# Compressibility (1/GPa) = 0.01893575
#
# Stress axis : x y z
#
# Youngs Moduli (GPa) = 55.35034 137.04076 130.88539
#
# Poissons Ratio (x) = 0.59607 0.26092
# Poissons Ratio (y) = 0.24075 0.09046
# Poissons Ratio (z) = 0.11034 0.09471
#
# Static dielectric constant tensor:
#      x y z
#    x 2.280810 -0.111120 0.032740 
#    y -0.111120 2.174150 0.033640 
#    z 0.032740 0.033640 2.029070 
# 
# From -- ./inp_files/357118.got.cif
#   From: 2010.05.17/outbox.cif.g08.bks.cpg/sg2_179_cif.got.tgz:357118.got - 2010.06.03 11:33:40.
