data_PCOD9040003
_publ_section_title
;
Structure prediction by ZEFSAII (Michael W. Deem and Ramdas Pophale) SiO2 
 PCOD9040003
Probable space group: P -1
;
_chemical_formula_sum "Si O2"
_cell_formula_units_Z 16
_cell_length_a 8.606936
_cell_length_b 15.198089
_cell_length_c 8.622218
_cell_angle_alpha 68.751309
_cell_angle_beta 47.937166
_cell_angle_gamma 64.957834
_cell_volume 753.395929
_symmetry_space_group_name_H-M "P -1"
_symmetry_group_IT_number 2
_symmetry_cell_setting 'triclinic'
loop_
_space_group_symop_operation_xyz
x,y,z
-x,-y,-z
loop_
_atom_site_type_symbol
_atom_site_label
_atom_site_fract_x
_atom_site_fract_y
_atom_site_fract_z
Si Si1 0.328119 0.761896 0.989269
Si Si2 0.334903 0.532542 0.728690
Si Si3 0.041881 0.619223 0.252664
Si Si4 0.117748 0.361816 0.005697
Si Si5 0.783300 0.039080 0.220477
Si Si6 0.439872 0.154314 0.965978
Si Si7 0.648813 0.586400 0.733304
Si Si8 0.604532 0.012447 0.672164
O O1 0.130526 0.713068 0.164613
O O2 0.289480 0.843567 0.828616
O O3 0.373837 0.816207 0.077779
O O4 0.536190 0.672679 0.869415
O O5 0.500000 0.500000 0.500000
O O6 0.259189 0.438108 0.897027
O O7 0.461349 0.577446 0.744111
O O8 0.111860 0.607020 0.772648
O O9 0.237108 0.521541 0.209954
O O10 0.956001 0.621349 0.134484
O O11 0.844252 0.616023 0.497332
O O12 0.251621 0.251993 0.006483
O O13 0.782615 0.013914 0.419889
O O14 0.604950 0.995223 0.282115
O O15 0.000000 0.000000 0.000000
O O16 0.351812 0.078532 0.179523
O O17 0.534858 0.105699 0.771745
#
# Coordination Sequence:
#
# PCOD9040003 Si02
#       8
#     2   2   2   2   2   2   2   2
#     4  11  24  41  65  98 130 177 215 274 330 392
#     4  11  23  40  61  93 132 176 221 275 330 380
#     4  11  24  40  65  93 129 175 225 269 323 391
#     4  11  24  38  67  95 130 175 222 273 324 398
#     4  10  23  42  74 100 130 169 222 274 334 403
#     4  10  23  44  70  98 138 173 219 278 337 396
#     4  11  24  41  62  93 133 176 219 274 328 389
#     4   9  22  47  70  97 134 172 212 280 341 393
#
# _framework density 21.237172999999999
#
# number of rings (size 3 to 8) (size 9 to 14) (size 15 to 20)
#    0.000    1.500    2.500    1.125    7.000    2.000 
#    0.000    9.375    0.000    0.000    0.000    0.000 
#    0.000    0.000    0.000    0.000    0.000    0.000 
#
# Total GULP energy -89459.152047 kJ/mol
# GULP energy per Si atom -5591.197003 kJ/mol
# Density = 2.118884 g / cm^3
# Si number density = 21.237173 Si / 1000 Ang^3
#
#
#
# Elastic Constant Matrix: (Units=GPa)
#
#
# Indices 1 2 3 4 5 6 
#
# 1 49.8348 41.6021 34.9820 -3.8279 -1.7519 9.4130
# 2 41.6021 115.9332 39.6417 6.5566 2.7472 18.3006
# 3 34.9820 39.6417 126.2681 15.4032 -0.1193 17.8411
# 4 -3.8279 6.5566 15.4032 21.5779 0.3167 -7.2109
# 5 -1.7519 2.7472 -0.1193 0.3167 29.1461 -4.0752
# 6 9.4130 18.3006 17.8411 -7.2109 -4.0752 27.7212
#
#
#
# Elastic Compliance Matrix: (Units=1/GPa)
#
#
# Indices 1 2 3 4 5 6 
#
# 1 0.038002 -0.012677 -0.010163 0.020445 0.004328 0.007961
# 2 -0.012677 0.014921 0.001607 -0.011223 -0.003439 -0.010005
# 3 -0.010163 0.001607 0.013651 -0.015600 -0.002041 -0.010754
# 4 0.020445 -0.011223 -0.015600 0.074720 0.005715 0.030783
# 5 0.004328 -0.003439 -0.002041 0.005715 0.036069 0.008903
# 6 0.007961 -0.010005 -0.010754 0.030783 0.008903 0.056212
#
#
# Mechanical properties :
#
#
# Convention : Reuss Voigt Hill
#
# Bulk Modulus (GPa) = 41.47989 58.27643 49.87816
# Shear Modulus (GPa) = 17.60082 27.40973 22.50528
#
# Velocity S-wave (km/s) = 2.88197 3.59646 3.25885
# Velocity P-wave (km/s) = 5.53610 6.68927 6.13982
#
# Compressibility (1/GPa) = 0.02410807
#
# Stress axis : x y z
#
# Youngs Moduli (GPa) = 26.31409 67.02068 73.25342
#
# Poissons Ratio (x) = 0.84964 0.74449
# Poissons Ratio (y) = 0.33359 -0.11774
# Poissons Ratio (z) = 0.26743 -0.10772
#
# Static dielectric constant tensor:
#      x y z
#    x 1.776040 -0.008610 0.007980 
#    y -0.008610 1.755810 0.002160 
#    z 0.007980 0.002160 1.787440 
# 
# From -- ./inp_files/206161.got.cif
#   From: 2010.05.17/outbox.cif.g08.bks.cpg/sg2_104_cif.got.tgz:206161.got - 2010.06.03 11:33:40.
