data_PCOD9040797
_publ_section_title
;
Structure prediction by ZEFSAII (Michael W. Deem and Ramdas Pophale) SiO2 
 PCOD9040797
Probable space group: P -1
;
_chemical_formula_sum "Si O2"
_cell_formula_units_Z 16
_cell_length_a 8.757517
_cell_length_b 9.393129
_cell_length_c 24.849825
_cell_angle_alpha 152.257875
_cell_angle_beta 57.008568
_cell_angle_gamma 122.576329
_cell_volume 789.706264
_symmetry_space_group_name_H-M "P -1"
_symmetry_group_IT_number 2
_symmetry_cell_setting 'triclinic'
loop_
_space_group_symop_operation_xyz
x,y,z
-x,-y,-z
loop_
_atom_site_type_symbol
_atom_site_label
_atom_site_fract_x
_atom_site_fract_y
_atom_site_fract_z
Si Si1 0.622040 0.107540 0.813800
Si Si2 0.057689 0.192709 0.913052
Si Si3 0.951595 0.489371 0.442901
Si Si4 0.308321 0.136303 0.750873
Si Si5 0.399203 0.779517 0.898638
Si Si6 0.734648 0.787363 0.013626
Si Si7 0.768969 0.757812 0.760566
Si Si8 0.618612 0.804361 0.603646
O O1 0.442543 0.156741 0.898082
O O2 0.760876 0.012794 0.800359
O O3 0.593020 0.846248 0.686572
O O4 0.699016 0.435334 0.882106
O O5 0.240603 0.147206 0.829053
O O6 0.104292 0.194738 0.967439
O O7 0.899474 0.915354 0.835125
O O8 0.000000 0.500000 0.000000
O O9 0.829039 0.754571 0.539656
O O10 0.000000 0.500000 0.500000
O O11 0.130071 0.497637 0.373621
O O12 0.823640 0.157201 0.346384
O O13 0.293256 0.464450 0.837504
O O14 0.519946 0.076010 0.688026
O O15 0.563223 0.685791 0.798135
O O16 0.270118 0.970294 0.952150
O O17 0.500000 0.000000 0.000000
O O18 0.500000 0.500000 0.500000
#
# Coordination Sequence:
#
# PCOD9040797 Si02
#       8
#     2   2   2   2   2   2   2   2
#     4  10  17  33  56  89 112 154 202 240 286 360
#     4  11  19  35  59  89 115 153 204 251 292 349
#     4  10  20  37  63  90 111 151 213 259 294 337
#     4  10  22  38  59  87 121 158 198 249 300 363
#     4  11  23  41  58  87 129 165 192 237 312 377
#     4  10  21  33  61  86 121 158 200 240 300 367
#     4  10  21  35  59  86 123 151 199 253 295 349
#     4  10  19  34  59  85 113 152 203 248 289 353
#
# _framework density 20.260698999999999
#
# number of rings (size 3 to 8) (size 9 to 14) (size 15 to 20)
#    0.000    1.750    3.750    1.500    1.750    0.000 
#    0.000    5.000    0.000    0.000    0.000    0.000 
#    0.000    0.000    0.000    0.000    0.000    0.000 
#
# Total GULP energy -89231.638122 kJ/mol
# GULP energy per Si atom -5576.977383 kJ/mol
# Density = 2.021458 g / cm^3
# Si number density = 20.260699 Si / 1000 Ang^3
#
#
#
# Elastic Constant Matrix: (Units=GPa)
#
#
# Indices 1 2 3 4 5 6 
#
# 1 109.5564 25.1960 37.2988 -5.3470 -7.6711 -26.5774
# 2 25.1960 68.0850 18.3379 3.3161 -2.6375 -8.2851
# 3 37.2988 18.3379 84.8017 -15.3855 2.1261 -4.6705
# 4 -5.3470 3.3161 -15.3855 28.5182 -0.0977 -12.0134
# 5 -7.6711 -2.6375 2.1261 -0.0977 44.8011 -10.8021
# 6 -26.5774 -8.2851 -4.6705 -12.0134 -10.8021 30.8626
#
#
#
# Elastic Compliance Matrix: (Units=1/GPa)
#
#
# Indices 1 2 3 4 5 6 
#
# 1 0.017007 -0.002934 -0.004226 0.009543 0.007693 0.019625
# 2 -0.002934 0.016857 -0.003110 -0.004119 0.000667 0.000158
# 3 -0.004226 -0.003110 0.015935 0.008463 -0.001472 0.000716
# 4 0.009543 -0.004119 0.008463 0.056000 0.009165 0.033399
# 5 0.007693 0.000667 -0.001472 0.009165 0.028630 0.020169
# 6 0.019625 0.000158 0.000716 0.033399 0.020169 0.069513
#
#
# Mechanical properties :
#
#
# Convention : Reuss Voigt Hill
#
# Bulk Modulus (GPa) = 34.17852 47.12317 40.65085
# Shear Modulus (GPa) = 21.34605 32.94374 27.14489
#
# Velocity S-wave (km/s) = 3.24939 4.03673 3.66427
# Velocity P-wave (km/s) = 5.56633 6.71088 6.16522
#
# Compressibility (1/GPa) = 0.02925814
#
# Stress axis : x y z
#
# Youngs Moduli (GPa) = 58.80060 59.32390 62.75346
#
# Poissons Ratio (x) = 0.17405 0.26521
# Poissons Ratio (y) = 0.17252 0.19517
# Poissons Ratio (z) = 0.24850 0.18450
#
# Static dielectric constant tensor:
#      x y z
#    x 1.769540 0.007820 -0.035010 
#    y 0.007820 1.714490 -0.020140 
#    z -0.035010 -0.020140 1.730830 
# 
# From -- ./inp_files/179936.got.cif
#   From: 2010.05.17/outbox.cif.g08.bks.cpg/sg2_90_cif.got.tgz:179936.got - 2010.06.03 11:33:40.
