data_PCOD9040946
_publ_section_title
;
Structure prediction by ZEFSAII (Michael W. Deem and Ramdas Pophale) SiO2 
 PCOD9040946
Probable space group: P -1
;
_chemical_formula_sum "Si O2"
_cell_formula_units_Z 13
_cell_length_a 8.915085
_cell_length_b 11.503358
_cell_length_c 8.717440
_cell_angle_alpha 129.540349
_cell_angle_beta 127.715341
_cell_angle_gamma 73.550528
_cell_volume 537.043940
_symmetry_space_group_name_H-M "P -1"
_symmetry_group_IT_number 2
_symmetry_cell_setting 'triclinic'
loop_
_space_group_symop_operation_xyz
x,y,z
-x,-y,-z
loop_
_atom_site_type_symbol
_atom_site_label
_atom_site_fract_x
_atom_site_fract_y
_atom_site_fract_z
Si Si1 0.036864 0.567307 0.833992
Si Si2 0.693198 0.529373 0.822991
Si Si3 0.222729 0.980430 0.867009
Si Si4 0.971645 0.714454 0.625234
Si Si5 0.572812 0.843195 0.105733
Si Si6 0.600302 0.752355 0.578767
Si Si7 0.500000 0.000000 0.500000
O O1 0.982364 0.413779 0.569236
O O2 0.859289 0.581435 0.845686
O O3 0.078452 0.700652 0.843860
O O4 0.208329 0.541638 0.030060
O O5 0.538492 0.387106 0.548011
O O6 0.606443 0.673053 0.949891
O O7 0.250889 0.037324 0.759313
O O8 0.272621 0.132938 0.127354
O O9 0.027473 0.878411 0.717521
O O10 0.384638 0.877839 0.925086
O O11 0.748639 0.684124 0.505771
O O12 0.546970 0.879505 0.295698
O O13 0.490072 0.865931 0.512772
#
# Coordination Sequence:
#
# PCOD9040946 Si02
#       7
#     2   2   2   2   2   2   1
#     4  10  26  43  67 104 141 176 231 285 339 397
#     4  11  25  46  70 102 138 185 225 283 340 412
#     4  10  24  43  68 103 138 179 226 289 334 412
#     4  11  24  44  68 102 138 183 227 284 335 409
#     4  10  23  43  69  99 136 181 229 277 348 399
#     4  11  25  43  72 101 138 183 229 272 351 401
#     4  10  24  42  64 106 130 174 228 282 336 400
#
# _framework density 24.206582999999998
#
# number of rings (size 3 to 8) (size 9 to 14) (size 15 to 20)
#    0.000    1.538    0.000    2.308   15.077    2.462 
#    2.769    1.538    0.000    0.000    0.000    0.000 
#    0.000    0.000    0.000    0.000    0.000    0.000 
#
# Total GULP energy -72539.306405 kJ/mol
# GULP energy per Si atom -5579.946647 kJ/mol
# Density = 2.415149 g / cm^3
# Si number density = 24.206583 Si / 1000 Ang^3
#
#
#
# Elastic Constant Matrix: (Units=GPa)
#
#
# Indices 1 2 3 4 5 6 
#
# 1 57.2619 10.0276 36.0868 18.5825 -21.6173 -8.0106
# 2 10.0276 96.3600 22.8326 16.6728 0.8002 -4.5824
# 3 36.0868 22.8326 63.0791 14.7652 -25.4865 4.4859
# 4 18.5825 16.6728 14.7652 27.9769 -1.4400 -9.7860
# 5 -21.6173 0.8002 -25.4865 -1.4400 45.7211 9.0526
# 6 -8.0106 -4.5824 4.4859 -9.7860 9.0526 53.8078
#
#
#
# Elastic Compliance Matrix: (Units=1/GPa)
#
#
# Indices 1 2 3 4 5 6 
#
# 1 0.033875 0.002494 -0.013902 -0.015442 0.007265 0.002384
# 2 0.002494 0.012583 -0.005842 -0.005742 -0.002746 0.001348
# 3 -0.013902 -0.005842 0.034095 -0.007769 0.014111 -0.009197
# 4 -0.015442 -0.005742 -0.007769 0.056452 -0.011754 0.010104
# 5 0.007265 -0.002746 0.014111 -0.011754 0.034488 -0.008269
# 6 0.002384 0.001348 -0.009197 0.010104 -0.008269 0.023050
#
#
# Mechanical properties :
#
#
# Convention : Reuss Voigt Hill
#
# Bulk Modulus (GPa) = 21.71457 39.39945 30.55701
# Shear Modulus (GPa) = 20.45873 35.35142 27.90508
#
# Velocity S-wave (km/s) = 2.91034 3.82567 3.39896
# Velocity P-wave (km/s) = 4.50371 5.98548 5.29667
#
# Compressibility (1/GPa) = 0.04605203
#
# Stress axis : x y z
#
# Youngs Moduli (GPa) = 29.52010 79.47257 29.32968
#
# Poissons Ratio (x) = -0.19818 0.40774
# Poissons Ratio (y) = -0.07361 0.17136
# Poissons Ratio (z) = 0.41039 0.46432
#
# Static dielectric constant tensor:
#      x y z
#    x 1.937210 -0.006870 0.044060 
#    y -0.006870 1.932440 -0.057060 
#    z 0.044060 -0.057060 1.920690 
# 
# From -- ./inp_files/153433.got.cif
#   From: 2010.05.17/outbox.cif.g08.bks.cpg/sg2_77_cif.got.tgz:153433.got - 2010.06.03 11:33:40.
