data_PCOD9040897
_publ_section_title
;
Structure prediction by ZEFSAII (Michael W. Deem and Ramdas Pophale) SiO2 
 PCOD9040897
Probable space group: P -1
;
_chemical_formula_sum "Si O2"
_cell_formula_units_Z 14
_cell_length_a 11.795120
_cell_length_b 15.222428
_cell_length_c 5.787854
_cell_angle_alpha 101.797412
_cell_angle_beta 102.203151
_cell_angle_gamma 133.628458
_cell_volume 638.764263
_symmetry_space_group_name_H-M "P -1"
_symmetry_group_IT_number 2
_symmetry_cell_setting 'triclinic'
loop_
_space_group_symop_operation_xyz
x,y,z
-x,-y,-z
loop_
_atom_site_type_symbol
_atom_site_label
_atom_site_fract_x
_atom_site_fract_y
_atom_site_fract_z
Si Si1 0.698708 0.162861 0.715530
Si Si2 0.620960 0.162136 0.181791
Si Si3 0.016655 0.236965 0.807076
Si Si4 0.825606 0.787457 0.761015
Si Si5 0.877099 0.000630 0.329184
Si Si6 0.339032 0.459155 0.780386
Si Si7 0.548667 0.748273 0.823020
O O1 0.742287 0.218091 0.496181
O O2 0.868318 0.199721 0.873196
O O3 0.500000 0.000000 0.500000
O O4 0.687048 0.217049 0.972586
O O5 0.521317 0.194608 0.233993
O O6 0.500000 0.000000 0.000000
O O7 0.894355 0.106740 0.510352
O O8 0.138963 0.236418 0.991002
O O9 0.171259 0.386944 0.832791
O O10 0.745070 0.663094 0.496541
O O11 0.024006 0.929794 0.835226
O O12 0.681994 0.782012 0.711937
O O13 0.678359 0.845470 0.148003
O O14 0.000000 0.000000 0.500000
O O15 0.410744 0.588971 0.748566
O O16 0.500000 0.500000 0.000000
#
# Coordination Sequence:
#
# PCOD9040897 Si02
#       7
#     2   2   2   2   2   2   2
#     4  10  23  43  69  95 134 185 237 288 346 408
#     4  10  24  43  66 100 134 184 236 291 345 409
#     4  11  24  42  70  96 141 182 226 296 353 421
#     4  11  24  40  67 103 139 180 228 287 365 426
#     4  11  22  37  60 104 137 169 227 289 360 423
#     4  11  24  45  65 104 144 183 226 279 367 436
#     4  12  23  42  69 102 138 182 232 293 351 428
#
# _framework density 21.917318000000002
#
# number of rings (size 3 to 8) (size 9 to 14) (size 15 to 20)
#    0.000    1.143    2.857    3.429    8.000    2.286 
#    0.000    1.429    0.000    0.000    0.000    0.000 
#    0.000    0.000    0.000    0.000    0.000    0.000 
#
# Total GULP energy -77974.862855 kJ/mol
# GULP energy per Si atom -5569.633061 kJ/mol
# Density = 2.186743 g / cm^3
# Si number density = 21.917318 Si / 1000 Ang^3
#
#
#
# Elastic Constant Matrix: (Units=GPa)
#
#
# Indices 1 2 3 4 5 6 
#
# 1 117.3010 17.1701 -4.9767 6.0018 -8.0432 -5.2643
# 2 17.1701 70.6781 8.6647 14.0885 -4.5820 -0.5287
# 3 -4.9767 8.6647 68.8861 -6.7473 -8.9383 3.2264
# 4 6.0018 14.0885 -6.7473 28.2753 3.3078 2.6524
# 5 -8.0432 -4.5820 -8.9383 3.3078 27.7087 -4.9309
# 6 -5.2643 -0.5287 3.2264 2.6524 -4.9309 30.8867
#
#
#
# Elastic Compliance Matrix: (Units=1/GPa)
#
#
# Indices 1 2 3 4 5 6 
#
# 1 0.009231 -0.001886 0.001099 -0.001330 0.003247 0.002059
# 2 -0.001886 0.016983 -0.002895 -0.009207 0.002692 0.001492
# 3 0.001099 -0.002895 0.016024 0.004657 0.004229 -0.001261
# 4 -0.001330 -0.009207 0.004657 0.042629 -0.006486 -0.005567
# 5 0.003247 0.002692 0.004229 -0.006486 0.040905 0.007245
# 6 0.002059 0.001492 -0.001261 -0.005567 0.007245 0.034519
#
#
# Mechanical properties :
#
#
# Convention : Reuss Voigt Hill
#
# Bulk Modulus (GPa) = 28.67523 33.17570 30.92547
# Shear Modulus (GPa) = 27.88940 33.10797 30.49869
#
# Velocity S-wave (km/s) = 3.57106 3.89084 3.73437
# Velocity P-wave (km/s) = 5.48772 5.94596 5.72143
#
# Compressibility (1/GPa) = 0.03487330
#
# Stress axis : x y z
#
# Youngs Moduli (GPa) = 108.33174 58.88360 62.40597
#
# Poissons Ratio (x) = 0.11106 -0.06857
# Poissons Ratio (y) = 0.20432 0.18066
# Poissons Ratio (z) = -0.11903 0.17046
#
# Static dielectric constant tensor:
#      x y z
#    x 1.445590 -0.489000 0.138920 
#    y -0.489000 1.399880 0.074590 
#    z 0.138920 0.074590 1.819620 
# 
# From -- ./inp_files/78173.got.cif
#   From: 2010.05.17/outbox.cif.g08.bks.cpg/sg2_40_cif.got.tgz:78173.got - 2010.06.03 11:33:40.
