data_PCOD9040749
_publ_section_title
;
Structure prediction by ZEFSAII (Michael W. Deem and Ramdas Pophale) SiO2 
 PCOD9040749
Probable space group: P -1
;
_chemical_formula_sum "Si O2"
_cell_formula_units_Z 14
_cell_length_a 11.108662
_cell_length_b 9.191902
_cell_length_c 11.219534
_cell_angle_alpha 113.897332
_cell_angle_beta 41.987203
_cell_angle_gamma 124.725989
_cell_volume 629.528376
_symmetry_space_group_name_H-M "P -1"
_symmetry_group_IT_number 2
_symmetry_cell_setting 'triclinic'
loop_
_space_group_symop_operation_xyz
x,y,z
-x,-y,-z
loop_
_atom_site_type_symbol
_atom_site_label
_atom_site_fract_x
_atom_site_fract_y
_atom_site_fract_z
Si Si1 0.303930 0.927670 0.418004
Si Si2 0.417970 0.317764 0.425261
Si Si3 0.183736 0.687952 0.914824
Si Si4 0.285213 0.351737 0.143842
Si Si5 0.628704 0.973390 0.001783
Si Si6 0.913491 0.308095 0.279342
Si Si7 0.922350 0.662172 0.477220
O O1 0.493064 0.931054 0.207682
O O2 0.239080 0.811304 0.546380
O O3 0.118634 0.833766 0.430710
O O4 0.344566 0.129012 0.482983
O O5 0.500000 0.500000 0.500000
O O6 0.611612 0.328113 0.214589
O O7 0.234738 0.303650 0.475451
O O8 0.179863 0.742240 0.798619
O O9 0.182325 0.839255 0.051359
O O10 0.000000 0.500000 0.000000
O O11 0.191023 0.418809 0.341740
O O12 0.121464 0.294781 0.140449
O O13 0.500000 0.500000 0.000000
O O14 0.308230 0.181574 0.117064
O O15 0.500000 0.000000 0.000000
O O16 0.966597 0.513556 0.330965
#
# Coordination Sequence:
#
# PCOD9040749 Si02
#       7
#     2   2   2   2   2   2   2
#     4  10  23  43  68  98 132 172 224 281 325 394
#     4  11  23  42  66  97 127 176 221 270 332 393
#     4  11  27  45  66  98 139 176 218 282 337 396
#     4  11  23  40  67 101 131 175 220 273 333 394
#     4  11  25  44  70 100 135 179 222 269 333 400
#     4  11  24  44  68  99 135 174 224 278 340 384
#     4  11  22  42  68  98 130 173 225 274 327 397
#
# _framework density 22.238872000000001
#
# number of rings (size 3 to 8) (size 9 to 14) (size 15 to 20)
#    0.000    1.143    1.429    5.571    6.000    6.286 
#    2.571    0.000    0.000    0.000    0.000    0.000 
#    0.000    0.000    0.000    0.000    0.000    0.000 
#
# Total GULP energy -78319.328526 kJ/mol
# GULP energy per Si atom -5594.237752 kJ/mol
# Density = 2.218825 g / cm^3
# Si number density = 22.238872 Si / 1000 Ang^3
#
#
#
# Elastic Constant Matrix: (Units=GPa)
#
#
# Indices 1 2 3 4 5 6 
#
# 1 119.6762 29.4214 11.0599 7.3208 -3.5012 -0.6125
# 2 29.4214 139.1650 12.8467 5.0399 3.7246 12.9623
# 3 11.0599 12.8467 38.2400 -6.2627 -4.7361 3.0778
# 4 7.3208 5.0399 -6.2627 41.9360 3.2052 -2.4011
# 5 -3.5012 3.7246 -4.7361 3.2052 33.3298 6.1306
# 6 -0.6125 12.9623 3.0778 -2.4011 6.1306 35.3764
#
#
#
# Elastic Compliance Matrix: (Units=1/GPa)
#
#
# Indices 1 2 3 4 5 6 
#
# 1 0.009133 -0.001747 -0.002293 -0.001751 0.000863 0.000729
# 2 -0.001747 0.008080 -0.002269 -0.001100 -0.000801 -0.002729
# 3 -0.002293 -0.002269 0.029002 0.004570 0.004086 -0.002129
# 4 -0.001751 -0.001100 0.004570 0.025255 -0.002222 0.002074
# 5 0.000863 -0.000801 0.004086 -0.002222 0.032035 -0.005749
# 6 0.000729 -0.002729 -0.002129 0.002074 -0.005749 0.030603
#
#
# Mechanical properties :
#
#
# Convention : Reuss Voigt Hill
#
# Bulk Modulus (GPa) = 29.76442 44.85969 37.31205
# Shear Modulus (GPa) = 31.66060 38.37865 35.01963
#
# Velocity S-wave (km/s) = 3.77724 4.15872 3.97256
# Velocity P-wave (km/s) = 5.69529 6.57841 6.15272
#
# Compressibility (1/GPa) = 0.03359716
#
# Stress axis : x y z
#
# Youngs Moduli (GPa) = 109.48871 123.76299 34.48038
#
# Poissons Ratio (x) = 0.21619 0.07908
# Poissons Ratio (y) = 0.19126 0.07823
# Poissons Ratio (z) = 0.25110 0.28081
#
# Static dielectric constant tensor:
#      x y z
#    x 1.813550 -0.000830 0.013450 
#    y -0.000830 1.823570 -0.014510 
#    z 0.013450 -0.014510 1.829490 
# 
# From -- ./inp_files/154188.got.cif
#   From: 2010.05.17/outbox.cif.g08.bks.cpg/sg2_78_cif.got.tgz:154188.got - 2010.06.03 11:33:40.
