data_PCOD9040391
_publ_section_title
;
Structure prediction by ZEFSAII (Michael W. Deem and Ramdas Pophale) SiO2 
 PCOD9040391
Probable space group: P -1
;
_chemical_formula_sum "Si O2"
_cell_formula_units_Z 16
_cell_length_a 10.698664
_cell_length_b 11.360127
_cell_length_c 14.085689
_cell_angle_alpha 96.315026
_cell_angle_beta 142.998476
_cell_angle_gamma 60.326566
_cell_volume 750.144724
_symmetry_space_group_name_H-M "P -1"
_symmetry_group_IT_number 2
_symmetry_cell_setting 'triclinic'
loop_
_space_group_symop_operation_xyz
x,y,z
-x,-y,-z
loop_
_atom_site_type_symbol
_atom_site_label
_atom_site_fract_x
_atom_site_fract_y
_atom_site_fract_z
Si Si1 0.676960 0.086182 0.826773
Si Si2 0.944596 0.818392 0.109267
Si Si3 0.016157 0.253213 0.570998
Si Si4 0.776908 0.419366 0.097744
Si Si5 0.420648 0.611718 0.221603
Si Si6 0.989261 0.966871 0.324540
Si Si7 0.678110 0.730008 0.072496
Si Si8 0.768746 0.874601 0.520942
O O1 0.519756 0.272931 0.755641
O O2 0.543657 0.060013 0.659516
O O3 0.707680 0.985721 0.924612
O O4 0.000000 0.000000 0.000000
O O5 0.053570 0.858485 0.264141
O O6 0.799051 0.761773 0.062851
O O7 0.198826 0.691668 0.180642
O O8 0.708192 0.432597 0.404215
O O9 0.998501 0.124497 0.585578
O O10 0.214423 0.246950 0.764782
O O11 0.116428 0.216942 0.519794
O O12 0.802793 0.550588 0.126147
O O13 0.038280 0.252931 0.290918
O O14 0.500000 0.500000 0.000000
O O15 0.719788 0.392243 0.956214
O O16 0.195867 0.998559 0.452119
O O17 0.664014 0.138348 0.130038
#
# Coordination Sequence:
#
# PCOD9040391 Si02
#       8
#     2   2   2   2   2   2   2   2
#     4  10  23  43  66  94 128 173 218 263 327 394
#     4  10  23  44  67  89 136 179 208 275 326 390
#     4  11  23  38  67 100 128 175 218 268 331 384
#     4  12  24  41  65  99 136 168 217 283 316 384
#     4  11  24  44  63  95 134 172 221 269 329 390
#     4  11  22  40  65 100 132 165 225 269 324 391
#     4  11  23  41  66  99 131 172 223 267 327 388
#     4  12  23  40  70  95 130 174 216 278 326 379
#
# _framework density 21.329218000000001
#
# number of rings (size 3 to 8) (size 9 to 14) (size 15 to 20)
#    0.000    1.000    2.500    4.875    1.750    4.500 
#    0.000   13.750    0.000    0.000    0.000    0.000 
#    0.000    0.000    0.000    0.000    0.000    0.000 
#
# Total GULP energy -89527.376953 kJ/mol
# GULP energy per Si atom -5595.461060 kJ/mol
# Density = 2.128067 g / cm^3
# Si number density = 21.329218 Si / 1000 Ang^3
#
#
#
# Elastic Constant Matrix: (Units=GPa)
#
#
# Indices 1 2 3 4 5 6 
#
# 1 74.4495 30.7382 19.8860 8.6208 -1.0784 0.1385
# 2 30.7382 97.9716 19.6172 11.2799 7.8197 30.8917
# 3 19.8860 19.6172 105.2506 -4.2938 6.8127 17.6520
# 4 8.6208 11.2799 -4.2938 35.3749 12.2146 6.8500
# 5 -1.0784 7.8197 6.8127 12.2146 28.5223 -1.3614
# 6 0.1385 30.8917 17.6520 6.8500 -1.3614 51.2464
#
#
#
# Elastic Compliance Matrix: (Units=1/GPa)
#
#
# Indices 1 2 3 4 5 6 
#
# 1 0.018011 -0.006658 -0.003881 -0.006155 0.006370 0.006293
# 2 -0.006658 0.015677 0.000322 0.000358 -0.005244 -0.009730
# 3 -0.003881 0.000322 0.011569 0.005083 -0.005414 -0.004992
# 4 -0.006155 0.000358 0.005083 0.038003 -0.018178 -0.007513
# 5 0.006370 -0.005244 -0.005414 -0.018178 0.046230 0.008667
# 6 0.006293 -0.009730 -0.004992 -0.007513 0.008667 0.028316
#
#
# Mechanical properties :
#
#
# Convention : Reuss Voigt Hill
#
# Bulk Modulus (GPa) = 40.28476 46.46162 43.37319
# Shear Modulus (GPa) = 26.80755 36.85740 31.83248
#
# Velocity S-wave (km/s) = 3.54905 4.16146 3.86740
# Velocity P-wave (km/s) = 5.97683 6.70229 6.34993
#
# Compressibility (1/GPa) = 0.02482328
#
# Stress axis : x y z
#
# Youngs Moduli (GPa) = 55.52260 63.78820 86.43489
#
# Poissons Ratio (x) = 0.42469 0.33545
# Poissons Ratio (y) = 0.36966 -0.02782
# Poissons Ratio (z) = 0.21548 -0.02053
#
# Static dielectric constant tensor:
#      x y z
#    x 1.806440 0.004460 0.024700 
#    y 0.004460 1.759120 0.005090 
#    z 0.024700 0.005090 1.794700 
# 
# From -- ./inp_files/519773.got.cif
#   From: 2010.05.17/outbox.cif.g08.bks.cpg/sg2_260_cif.got.tgz:519773.got - 2010.06.03 11:33:40.
