data_PCOD9040875
_publ_section_title
;
Structure prediction by ZEFSAII (Michael W. Deem and Ramdas Pophale) SiO2 
 PCOD9040875
Probable space group: P -1
;
_chemical_formula_sum "Si O2"
_cell_formula_units_Z 10
_cell_length_a 8.226750
_cell_length_b 12.473251
_cell_length_c 9.845200
_cell_angle_alpha 47.250746
_cell_angle_beta 93.706590
_cell_angle_gamma 131.671187
_cell_volume 393.069132
_symmetry_space_group_name_H-M "P -1"
_symmetry_group_IT_number 2
_symmetry_cell_setting 'triclinic'
loop_
_space_group_symop_operation_xyz
x,y,z
-x,-y,-z
loop_
_atom_site_type_symbol
_atom_site_label
_atom_site_fract_x
_atom_site_fract_y
_atom_site_fract_z
Si Si1 0.355416 0.314000 0.279422
Si Si2 0.141150 0.254706 0.729931
Si Si3 0.309497 0.959394 0.622688
Si Si4 0.801792 0.230924 0.911709
Si Si5 0.873212 0.622720 0.644298
O O1 0.402341 0.472867 0.259045
O O2 0.470133 0.239767 0.385393
O O3 0.500000 0.500000 0.000000
O O4 0.000000 0.000000 0.500000
O O5 0.500000 0.500000 0.500000
O O6 0.971026 0.171641 0.648974
O O7 0.049639 0.318210 0.771391
O O8 0.000000 0.000000 0.000000
O O9 0.002815 0.719563 0.721125
O O10 0.500000 0.000000 0.500000
O O11 0.261076 0.877239 0.846113
O O12 0.865131 0.451363 0.742844
O O13 0.500000 0.000000 0.000000
#
# Coordination Sequence:
#
# PCOD9040875 Si02
#       5
#     2   2   2   2   2
#     4  10  23  43  69 105 144 185 240 308 372 439
#     4  12  28  49  75 111 155 204 255 317 389 462
#     4  11  24  45  76 113 150 199 258 321 385 461
#     4  12  26  49  76 113 157 206 258 322 392 465
#     4  11  25  46  75 108 148 200 256 314 379 459
#
# _framework density 25.440819000000001
#
# number of rings (size 3 to 8) (size 9 to 14) (size 15 to 20)
#    0.000    0.800    0.000    6.000    0.000   12.800 
#    0.000    0.000    0.000    0.000    0.000    0.000 
#    0.000    0.000    0.000    0.000    0.000    0.000 
#
# Total GULP energy -55784.843818 kJ/mol
# GULP energy per Si atom -5578.484382 kJ/mol
# Density = 2.538291 g / cm^3
# Si number density = 25.440819 Si / 1000 Ang^3
#
#
#
# Elastic Constant Matrix: (Units=GPa)
#
#
# Indices 1 2 3 4 5 6 
#
# 1 222.4324 72.2685 91.3245 1.0721 5.5863 -65.9649
# 2 72.2685 177.2617 79.3469 36.8259 6.2093 0.1760
# 3 91.3245 79.3469 210.9143 36.3464 31.2325 -10.1058
# 4 1.0721 36.8259 36.3464 67.4642 0.7428 3.6437
# 5 5.5863 6.2093 31.2325 0.7428 65.0256 -1.6951
# 6 -65.9649 0.1760 -10.1058 3.6437 -1.6951 62.1581
#
#
#
# Elastic Compliance Matrix: (Units=1/GPa)
#
#
# Indices 1 2 3 4 5 6 
#
# 1 0.009602 -0.003110 -0.003180 0.002729 0.001218 0.009555
# 2 -0.003110 0.008235 -0.001306 -0.003563 0.000062 -0.003326
# 3 -0.003180 -0.001306 0.007533 -0.003149 -0.003238 -0.002050
# 4 0.002729 -0.003563 -0.003149 0.018332 0.001444 0.001359
# 5 0.001218 0.000062 -0.003238 0.001444 0.016836 0.001140
# 6 0.009555 -0.003326 -0.002050 0.001359 0.001140 0.025856
#
#
# Mechanical properties :
#
#
# Convention : Reuss Voigt Hill
#
# Bulk Modulus (GPa) = 98.25149 121.83201 110.04175
# Shear Modulus (GPa) = 47.62827 63.44083 55.53455
#
# Velocity S-wave (km/s) = 4.33149 4.99908 4.67721
# Velocity P-wave (km/s) = 7.98243 9.01739 8.51565
#
# Compressibility (1/GPa) = 0.01017796
#
# Stress axis : x y z
#
# Youngs Moduli (GPa) = 104.14681 121.42761 132.74056
#
# Poissons Ratio (x) = 0.37766 0.42215
# Poissons Ratio (y) = 0.32391 0.17336
# Poissons Ratio (z) = 0.33121 0.15858
#
# Static dielectric constant tensor:
#      x y z
#    x 2.463290 0.158570 -0.015750 
#    y 0.158570 2.065490 -0.013840 
#    z -0.015750 -0.013840 1.908030 
# 
# From -- ./inp_files/57358.got.cif
#   From: 2010.05.17/outbox.cif.g08.bks.cpg/sg2_29_cif.got.tgz:57358.got - 2010.06.03 11:33:40.
