data_PCOD9040770
_publ_section_title
;
Structure prediction by ZEFSAII (Michael W. Deem and Ramdas Pophale) SiO2 
 PCOD9040770
Probable space group: P -1
;
_chemical_formula_sum "Si O2"
_cell_formula_units_Z 16
_cell_length_a 8.653199
_cell_length_b 10.759169
_cell_length_c 14.529686
_cell_angle_alpha 39.895739
_cell_angle_beta 127.321544
_cell_angle_gamma 105.653229
_cell_volume 637.378300
_symmetry_space_group_name_H-M "P -1"
_symmetry_group_IT_number 2
_symmetry_cell_setting 'triclinic'
loop_
_space_group_symop_operation_xyz
x,y,z
-x,-y,-z
loop_
_atom_site_type_symbol
_atom_site_label
_atom_site_fract_x
_atom_site_fract_y
_atom_site_fract_z
Si Si1 0.275183 0.688176 0.831439
Si Si2 0.340975 0.652747 0.071709
Si Si3 0.011155 0.415028 0.924602
Si Si4 0.193605 0.710738 0.584188
Si Si5 0.388080 0.727018 0.372499
Si Si6 0.339676 0.978952 0.027587
Si Si7 0.983266 0.397667 0.708705
Si Si8 0.340578 0.990336 0.369479
O O1 0.308374 0.775669 0.892436
O O2 0.212099 0.786916 0.652128
O O3 0.500000 0.500000 0.000000
O O4 0.100836 0.595647 0.845121
O O5 0.180629 0.537507 0.100819
O O6 0.579783 0.477155 0.254041
O O7 0.271114 0.817049 0.036816
O O8 0.205878 0.204256 0.146478
O O9 0.948658 0.394470 0.807558
O O10 0.013910 0.612163 0.571040
O O11 0.175844 0.904495 0.404676
O O12 0.500000 0.500000 0.500000
O O13 0.387288 0.876713 0.203218
O O14 0.465305 0.816914 0.436613
O O15 0.174629 0.695951 0.341235
O O16 0.500000 0.000000 0.000000
O O17 0.199607 0.215930 0.864535
O O18 0.500000 0.000000 0.500000
#
# Coordination Sequence:
#
# PCOD9040770 Si02
#       8
#     2   2   2   2   2   2   2   2
#     4   9  20  37  64  95 132 179 225 275 336 408
#     4  11  20  39  67 102 131 173 236 276 341 413
#     4  11  22  41  72  97 132 181 229 288 338 415
#     4  10  23  43  68  98 141 183 227 287 347 413
#     4  12  27  47  71 105 143 185 230 291 353 417
#     4  12  23  41  71 102 134 174 232 286 337 414
#     4  11  23  47  71 100 138 183 237 285 346 414
#     4  12  26  45  69 100 145 184 227 283 359 407
#
# _framework density 25.102833
#
# number of rings (size 3 to 8) (size 9 to 14) (size 15 to 20)
#    0.000    1.000    3.750    3.750    0.000    1.500 
#    4.500    0.625    0.000    0.000    0.000    0.000 
#    0.000    0.000    0.000    0.000    0.000    0.000 
#
# Total GULP energy -89347.524224 kJ/mol
# GULP energy per Si atom -5584.220264 kJ/mol
# Density = 2.504570 g / cm^3
# Si number density = 25.102833 Si / 1000 Ang^3
#
#
#
# Elastic Constant Matrix: (Units=GPa)
#
#
# Indices 1 2 3 4 5 6 
#
# 1 116.6014 21.1919 -1.6488 2.8893 -14.8395 5.1594
# 2 21.1919 128.8173 24.6410 29.5960 -14.9217 -22.5595
# 3 -1.6488 24.6410 38.1891 -1.4651 -10.5151 4.1630
# 4 2.8893 29.5960 -1.4651 33.5294 -3.5658 -6.6725
# 5 -14.8395 -14.9217 -10.5151 -3.5658 31.7882 0.8585
# 6 5.1594 -22.5595 4.1630 -6.6725 0.8585 47.8276
#
#
#
# Elastic Compliance Matrix: (Units=1/GPa)
#
#
# Indices 1 2 3 4 5 6 
#
# 1 0.009780 -0.002562 0.003739 0.001609 0.004846 -0.002451
# 2 -0.002562 0.013759 -0.009917 -0.011088 0.000574 0.006072
# 3 0.003739 -0.009917 0.036800 0.009746 0.010548 -0.007114
# 4 0.001609 -0.011088 0.009746 0.040106 0.003289 -0.000716
# 5 0.004846 0.000574 0.010548 0.003289 0.037886 -0.001391
# 6 -0.002451 0.006072 -0.007114 -0.000716 -0.001391 0.024581
#
#
# Mechanical properties :
#
#
# Convention : Reuss Voigt Hill
#
# Bulk Modulus (GPa) = 23.33322 41.33066 32.33194
# Shear Modulus (GPa) = 25.68332 38.59064 32.13698
#
# Velocity S-wave (km/s) = 3.20210 3.92510 3.58189
# Velocity P-wave (km/s) = 4.79442 6.08623 5.47853
#
# Compressibility (1/GPa) = 0.04285735
#
# Stress axis : x y z
#
# Youngs Moduli (GPa) = 102.24894 72.68062 27.17415
#
# Poissons Ratio (x) = 0.18619 -0.10159
# Poissons Ratio (y) = 0.26193 0.26950
# Poissons Ratio (z) = -0.38226 0.72081
#
# Static dielectric constant tensor:
#      x y z
#    x 1.977870 0.241080 -0.008140 
#    y 0.241080 2.453930 0.065840 
#    z -0.008140 0.065840 1.951700 
# 
# From -- ./inp_files/499920.got.cif
#   From: 2010.05.17/outbox.cif.g08.bks.cpg/sg2_250_cif.got.tgz:499920.got - 2010.06.03 11:33:40.
