data_PCOD9040561
_publ_section_title
;
Structure prediction by ZEFSAII (Michael W. Deem and Ramdas Pophale) SiO2 
 PCOD9040561
Probable space group: P -1
;
_chemical_formula_sum "Si O2"
_cell_formula_units_Z 14
_cell_length_a 8.300157
_cell_length_b 12.464651
_cell_length_c 9.318276
_cell_angle_alpha 112.038475
_cell_angle_beta 45.377997
_cell_angle_gamma 120.289089
_cell_volume 592.159889
_symmetry_space_group_name_H-M "P -1"
_symmetry_group_IT_number 2
_symmetry_cell_setting 'triclinic'
loop_
_space_group_symop_operation_xyz
x,y,z
-x,-y,-z
loop_
_atom_site_type_symbol
_atom_site_label
_atom_site_fract_x
_atom_site_fract_y
_atom_site_fract_z
Si Si1 0.440569 0.623077 0.121687
Si Si2 0.062122 0.942600 0.599597
Si Si3 0.898100 0.167601 0.901625
Si Si4 0.403937 0.145001 0.312770
Si Si5 0.966474 0.771364 0.825009
Si Si6 0.972919 0.578523 0.196794
Si Si7 0.311183 0.633966 0.538575
O O1 0.209344 0.615698 0.169236
O O2 0.409928 0.634502 0.317570
O O3 0.500000 0.500000 0.000000
O O4 0.679515 0.733057 0.970591
O O5 0.963734 0.052328 0.752507
O O6 0.299690 0.011372 0.391370
O O7 0.834050 0.845511 0.608781
O O8 0.108468 0.876630 0.676779
O O9 0.040497 0.295485 0.794490
O O10 0.613756 0.149108 0.072161
O O11 0.970049 0.185282 0.031600
O O12 0.522848 0.251668 0.409715
O O13 0.057516 0.657250 0.689740
O O14 0.755384 0.491037 0.388971
O O15 0.000000 0.500000 0.000000
#
# Coordination Sequence:
#
# PCOD9040561 Si02
#       7
#     2   2   2   2   2   2   2
#     4  12  25  45  71 106 137 179 232 281 347 410
#     4  11  24  42  67 103 133 181 237 280 333 407
#     4  11  23  44  67 100 140 181 224 286 342 401
#     4  10  23  43  67  96 138 181 228 278 343 406
#     4  11  24  42  69  99 140 178 231 282 340 411
#     4  12  23  46  72 100 143 179 226 285 345 414
#     4  11  25  46  70 101 141 181 225 282 354 404
#
# _framework density 23.642264999999998
#
# number of rings (size 3 to 8) (size 9 to 14) (size 15 to 20)
#    0.000    0.857    4.286    3.000    0.000    5.714 
#    2.571    2.143    0.000    0.000    0.000    0.000 
#    0.000    0.000    0.000    0.000    0.000    0.000 
#
# Total GULP energy -78386.444070 kJ/mol
# GULP energy per Si atom -5599.031719 kJ/mol
# Density = 2.358845 g / cm^3
# Si number density = 23.642265 Si / 1000 Ang^3
#
#
#
# Elastic Constant Matrix: (Units=GPa)
#
#
# Indices 1 2 3 4 5 6 
#
# 1 78.6937 29.5170 1.9648 -13.7665 8.1061 -5.8803
# 2 29.5170 71.2192 34.8303 -15.0783 15.6782 -2.5378
# 3 1.9648 34.8303 105.2947 -8.9562 13.5393 -8.1241
# 4 -13.7665 -15.0783 -8.9562 56.2953 -3.5229 7.9913
# 5 8.1061 15.6782 13.5393 -3.5229 42.4718 -16.0145
# 6 -5.8803 -2.5378 -8.1241 7.9913 -16.0145 25.7710
#
#
#
# Elastic Compliance Matrix: (Units=1/GPa)
#
#
# Indices 1 2 3 4 5 6 
#
# 1 0.015966 -0.007401 0.002529 0.001873 0.000280 0.003305
# 2 -0.007401 0.022446 -0.006602 0.003721 -0.007161 -0.007163
# 3 0.002529 -0.006602 0.011986 0.000258 -0.000624 0.003237
# 4 0.001873 0.003721 0.000258 0.020092 -0.002829 -0.007113
# 5 0.000280 -0.007161 -0.000624 -0.002829 0.034105 0.021233
# 6 0.003305 -0.007163 0.003237 -0.007113 0.021233 0.055272
#
#
# Mechanical properties :
#
#
# Convention : Reuss Voigt Hill
#
# Bulk Modulus (GPa) = 36.43194 43.09241 39.76218
# Shear Modulus (GPa) = 26.04603 37.50064 31.77334
#
# Velocity S-wave (km/s) = 3.32275 3.98700 3.66993
# Velocity P-wave (km/s) = 5.49217 6.28182 5.90022
#
# Compressibility (1/GPa) = 0.02744844
#
# Stress axis : x y z
#
# Youngs Moduli (GPa) = 62.63238 44.55043 83.43095
#
# Poissons Ratio (x) = 0.32973 -0.21096
# Poissons Ratio (y) = 0.46356 0.55084
# Poissons Ratio (z) = -0.15837 0.29414
#
# Static dielectric constant tensor:
#      x y z
#    x 1.916270 0.029700 -0.026290 
#    y 0.029700 1.882730 -0.006420 
#    z -0.026290 -0.006420 1.919760 
# 
# From -- ./inp_files/188257.got.cif
#   From: 2010.05.17/outbox.cif.g08.bks.cpg/sg2_95_cif.got.tgz:188257.got - 2010.06.03 11:33:40.
