data_PCOD9040586
_publ_section_title
;
Structure prediction by ZEFSAII (Michael W. Deem and Ramdas Pophale) SiO2 
 PCOD9040586
Probable space group: P -1
;
_chemical_formula_sum "Si O2"
_cell_formula_units_Z 16
_cell_length_a 11.433131
_cell_length_b 20.932688
_cell_length_c 11.491509
_cell_angle_alpha 151.396316
_cell_angle_beta 34.550653
_cell_angle_gamma 138.584766
_cell_volume 743.069751
_symmetry_space_group_name_H-M "P -1"
_symmetry_group_IT_number 2
_symmetry_cell_setting 'triclinic'
loop_
_space_group_symop_operation_xyz
x,y,z
-x,-y,-z
loop_
_atom_site_type_symbol
_atom_site_label
_atom_site_fract_x
_atom_site_fract_y
_atom_site_fract_z
Si Si1 0.560605 0.007819 0.175555
Si Si2 0.419142 0.126786 0.708448
Si Si3 0.984016 0.149651 0.015619
Si Si4 0.470952 0.277733 0.130248
Si Si5 0.800166 0.421179 0.597049
Si Si6 0.817129 0.882972 0.442705
Si Si7 0.628028 0.602559 0.229954
Si Si8 0.234929 0.474638 0.751411
O O1 0.519248 0.117794 0.485524
O O2 0.794350 0.034095 0.981646
O O3 0.387321 0.039036 0.276368
O O4 0.516873 0.860142 0.030471
O O5 0.500000 0.000000 0.500000
O O6 0.481293 0.248804 0.938116
O O7 0.170221 0.111516 0.882752
O O8 0.881231 0.281808 0.346422
O O9 0.103155 0.176300 0.838838
O O10 0.265092 0.344003 0.440837
O O11 0.651740 0.394248 0.194538
O O12 0.607751 0.393706 0.619319
O O13 0.000000 0.500000 0.500000
O O14 0.725846 0.505883 0.901786
O O15 0.751305 0.751913 0.363775
O O16 0.000000 0.000000 0.500000
O O17 0.655624 0.549425 0.252717
O O18 0.000000 0.500000 0.000000
#
# Coordination Sequence:
#
# PCOD9040586 Si02
#       8
#     2   2   2   2   2   2   2   2
#     4  10  23  43  67  98 132 169 225 278 334 405
#     4   9  22  41  66  94 132 166 221 279 326 394
#     4  11  23  40  69 101 130 173 223 273 354 394
#     4  10  25  45  63  95 127 176 226 267 328 398
#     4  11  24  43  71 100 133 173 226 285 340 395
#     4  11  25  42  65 102 137 173 219 279 338 410
#     4  11  26  44  68 102 135 175 228 283 334 399
#     4  11  28  44  65  93 135 180 225 268 332 403
#
# _framework density 21.532298000000001
#
# number of rings (size 3 to 8) (size 9 to 14) (size 15 to 20)
#    0.000    1.500    2.500    0.000    8.750    6.500 
#    0.000    0.000    0.000    0.000    0.000    0.000 
#    0.000    0.000    0.000    0.000    0.000    0.000 
#
# Total GULP energy -89294.308713 kJ/mol
# GULP energy per Si atom -5580.894295 kJ/mol
# Density = 2.148329 g / cm^3
# Si number density = 21.532298 Si / 1000 Ang^3
#
#
#
# Elastic Constant Matrix: (Units=GPa)
#
#
# Indices 1 2 3 4 5 6 
#
# 1 53.4061 19.5005 32.9851 7.8244 -16.3330 -0.6163
# 2 19.5005 133.3967 36.4235 12.0250 -19.6228 -4.6038
# 3 32.9851 36.4235 136.6210 6.6187 -17.3234 2.0517
# 4 7.8244 12.0250 6.6187 36.6143 3.5836 1.4655
# 5 -16.3330 -19.6228 -17.3234 3.5836 40.5533 -3.9220
# 6 -0.6163 -4.6038 2.0517 1.4655 -3.9220 18.4271
#
#
#
# Elastic Compliance Matrix: (Units=1/GPa)
#
#
# Indices 1 2 3 4 5 6 
#
# 1 0.025300 -0.000533 -0.004647 -0.005390 0.008764 0.003524
# 2 -0.000533 0.009026 -0.001667 -0.003087 0.004055 0.003532
# 3 -0.004647 -0.001667 0.009049 -0.000146 0.001071 -0.001340
# 4 -0.005390 -0.003087 -0.000146 0.030370 -0.006877 -0.004814
# 5 0.008764 0.004055 0.001071 -0.006877 0.032043 0.008554
# 6 0.003524 0.003532 -0.001340 -0.004814 0.008554 0.057621
#
#
# Mechanical properties :
#
#
# Convention : Reuss Voigt Hill
#
# Bulk Modulus (GPa) = 33.69114 55.69354 44.69234
# Shear Modulus (GPa) = 26.73864 34.75325 30.74594
#
# Velocity S-wave (km/s) = 3.52773 4.02183 3.78285
# Velocity P-wave (km/s) = 5.68102 6.89116 6.31514
#
# Compressibility (1/GPa) = 0.02968139
#
# Stress axis : x y z
#
# Youngs Moduli (GPa) = 39.52635 110.78807 110.51200
#
# Poissons Ratio (x) = 0.05904 0.51351
# Poissons Ratio (y) = 0.02107 0.18423
# Poissons Ratio (z) = 0.18367 0.18469
#
# Static dielectric constant tensor:
#      x y z
#    x 1.799720 -0.015420 0.061520 
#    y -0.015420 1.792900 0.029860 
#    z 0.061520 0.029860 1.790810 
# 
# From -- ./inp_files/427942.got.cif
#   From: 2010.05.17/outbox.cif.g08.bks.cpg/sg2_214_cif.got.tgz:427942.got - 2010.06.03 11:33:40.
