data_PCOD9040982
_publ_section_title
;
Structure prediction by ZEFSAII (Michael W. Deem and Ramdas Pophale) SiO2 
 PCOD9040982
Probable space group: P -1
;
_chemical_formula_sum "Si O2"
_cell_formula_units_Z 12
_cell_length_a 11.975637
_cell_length_b 5.116914
_cell_length_c 11.348908
_cell_angle_alpha 113.918100
_cell_angle_beta 127.188396
_cell_angle_gamma 87.156610
_cell_volume 487.867750
_symmetry_space_group_name_H-M "P -1"
_symmetry_group_IT_number 2
_symmetry_cell_setting 'triclinic'
loop_
_space_group_symop_operation_xyz
x,y,z
-x,-y,-z
loop_
_atom_site_type_symbol
_atom_site_label
_atom_site_fract_x
_atom_site_fract_y
_atom_site_fract_z
Si Si1 0.723029 0.656968 0.262708
Si Si2 0.968437 0.405255 0.326876
Si Si3 0.772194 0.891215 0.987561
Si Si4 0.767717 0.180899 0.551390
Si Si5 0.553405 0.101892 0.206987
Si Si6 0.164040 0.702728 0.121005
O O1 0.841183 0.562782 0.242552
O O2 0.636113 0.374581 0.229303
O O3 0.803079 0.905475 0.454929
O O4 0.892340 0.063842 0.188961
O O5 0.613783 0.820068 0.162111
O O6 0.109872 0.532393 0.362242
O O7 0.616582 0.951813 0.919378
O O8 0.752876 0.541303 0.908134
O O9 0.827244 0.048735 0.926350
O O10 0.613367 0.177304 0.392833
O O11 0.772009 0.157814 0.688622
O O12 0.000000 0.500000 0.500000
O O13 0.000000 0.500000 0.000000
#
# Coordination Sequence:
#
# PCOD9040982 Si02
#       6
#     2   2   2   2   2   2
#     4  10  23  43  70 101 139 181 229 277 344 402
#     4  12  24  45  75 102 138 184 233 287 338 412
#     4  12  29  45  71 107 136 183 232 278 354 400
#     4  10  25  43  74  99 142 178 236 272 351 394
#     4  10  24  45  67 105 139 180 226 280 345 411
#     4  12  27  46  73 102 143 177 229 293 331 417
#
# _framework density 24.596827999999999
#
# number of rings (size 3 to 8) (size 9 to 14) (size 15 to 20)
#    1.000    0.000    3.333    2.000    4.667    5.333 
#    0.000    0.000    0.000    0.000    0.000    0.000 
#    0.000    0.000    0.000    0.000    0.000    0.000 
#
# Total GULP energy -67231.014750 kJ/mol
# GULP energy per Si atom -5602.584562 kJ/mol
# Density = 2.454084 g / cm^3
# Si number density = 24.596828 Si / 1000 Ang^3
#
#
#
# Elastic Constant Matrix: (Units=GPa)
#
#
# Indices 1 2 3 4 5 6 
#
# 1 38.4546 -3.9878 21.6699 -5.3966 11.0382 -7.5199
# 2 -3.9878 99.5766 8.3412 -10.7973 -2.3617 1.1977
# 3 21.6699 8.3412 142.2511 1.8197 -15.4137 16.3020
# 4 -5.3966 -10.7973 1.8197 38.7128 3.2015 -5.0414
# 5 11.0382 -2.3617 -15.4137 3.2015 38.8234 -1.1745
# 6 -7.5199 1.1977 16.3020 -5.0414 -1.1745 43.9542
#
#
#
# Elastic Compliance Matrix: (Units=1/GPa)
#
#
# Indices 1 2 3 4 5 6 
#
# 1 0.039120 0.002853 -0.009092 0.009305 -0.015004 0.010654
# 2 0.002853 0.010628 -0.001333 0.003645 -0.000962 0.001085
# 3 -0.009092 -0.001333 0.009861 -0.003344 0.006532 -0.005386
# 4 0.009305 0.003645 -0.003344 0.029576 -0.006010 0.005965
# 5 -0.015004 -0.000962 0.006532 -0.006010 0.032909 -0.004773
# 6 0.010654 0.001085 -0.005386 0.005965 -0.004773 0.027098
#
#
# Mechanical properties :
#
#
# Convention : Reuss Voigt Hill
#
# Bulk Modulus (GPa) = 22.48985 36.92541 29.70763
# Shear Modulus (GPa) = 27.90825 41.24869 34.57847
#
# Velocity S-wave (km/s) = 3.37208 4.09955 3.75348
# Velocity P-wave (km/s) = 4.93198 6.11991 5.55778
#
# Compressibility (1/GPa) = 0.04446451
#
# Stress axis : x y z
#
# Youngs Moduli (GPa) = 25.56220 94.09225 101.41158
#
# Poissons Ratio (x) = -0.26847 0.92207
# Poissons Ratio (y) = -0.07294 0.13519
# Poissons Ratio (z) = 0.23242 0.12543
#
# Static dielectric constant tensor:
#      x y z
#    x 1.944070 -0.053340 -0.006580 
#    y -0.053340 1.942190 -0.019580 
#    z -0.006580 -0.019580 1.995230 
# 
# From -- ./inp_files/372596.got.cif
#   From: 2010.05.17/outbox.cif.g08.bks.cpg/sg2_187_cif.got.tgz:372596.got - 2010.06.03 11:33:40.
