data_PCOD9040807
_publ_section_title
;
Structure prediction by ZEFSAII (Michael W. Deem and Ramdas Pophale) SiO2 
 PCOD9040807
Probable space group: P -1
;
_chemical_formula_sum "Si O2"
_cell_formula_units_Z 16
_cell_length_a 12.170753
_cell_length_b 14.123886
_cell_length_c 8.359590
_cell_angle_alpha 41.341252
_cell_angle_beta 92.520074
_cell_angle_gamma 110.527537
_cell_volume 831.194472
_symmetry_space_group_name_H-M "P -1"
_symmetry_group_IT_number 2
_symmetry_cell_setting 'triclinic'
loop_
_space_group_symop_operation_xyz
x,y,z
-x,-y,-z
loop_
_atom_site_type_symbol
_atom_site_label
_atom_site_fract_x
_atom_site_fract_y
_atom_site_fract_z
Si Si1 0.544432 0.967186 0.770801
Si Si2 0.372598 0.468189 0.698173
Si Si3 0.846753 0.464222 0.362116
Si Si4 0.610144 0.775403 0.238615
Si Si5 0.324800 0.053654 0.669110
Si Si6 0.144324 0.684797 0.107495
Si Si7 0.272680 0.688801 0.781458
Si Si8 0.502940 0.687825 0.892306
O O1 0.438112 0.010327 0.766060
O O2 0.637159 0.114953 0.475774
O O3 0.484296 0.793490 0.897607
O O4 0.623364 0.936602 0.949234
O O5 0.238824 0.447628 0.757399
O O6 0.462776 0.655948 0.416406
O O7 0.354884 0.338817 0.721716
O O8 0.456361 0.436291 0.874365
O O9 0.819687 0.364996 0.655301
O O10 0.807642 0.362766 0.321542
O O11 0.994225 0.588471 0.212345
O O12 0.685536 0.840196 0.323369
O O13 0.379172 0.176847 0.368692
O O14 0.203405 0.880788 0.857832
O O15 0.197379 0.643579 0.000654
O O16 0.373007 0.620310 0.874419
#
# Coordination Sequence:
#
# PCOD9040807 Si02
#       8
#     2   2   2   2   2   2   2   2
#     4  10  17  33  56  89 114 141 181 250 290 331
#     4  10  22  40  52  87 126 148 190 230 289 357
#     4  11  25  40  59  85 117 159 192 238 283 343
#     4  10  21  31  59  84 114 154 183 237 298 340
#     4  11  18  34  57  86 113 146 195 239 290 333
#     4  11  23  41  62  85 115 149 203 244 278 336
#     4  11  20  38  65  87 116 147 191 244 297 333
#     4  10  20  34  59  87 120 146 180 243 293 345
#
# _framework density 19.249407999999999
#
# number of rings (size 3 to 8) (size 9 to 14) (size 15 to 20)
#    0.000    1.500    2.500    4.500    3.500    2.000 
#    0.000    1.250    0.000    0.000    0.000    0.000 
#    0.000    0.000    0.000    0.000    0.000    0.000 
#
# Total GULP energy -89225.126831 kJ/mol
# GULP energy per Si atom -5576.570427 kJ/mol
# Density = 1.920560 g / cm^3
# Si number density = 19.249408 Si / 1000 Ang^3
#
#
#
# Elastic Constant Matrix: (Units=GPa)
#
#
# Indices 1 2 3 4 5 6 
#
# 1 79.5129 23.9706 42.0200 1.3982 -5.6431 9.3569
# 2 23.9706 86.0338 27.7055 13.8327 -2.8521 6.5503
# 3 42.0200 27.7055 99.1660 15.2742 -9.9786 4.6573
# 4 1.3982 13.8327 15.2742 25.4244 2.5187 0.7052
# 5 -5.6431 -2.8521 -9.9786 2.5187 23.7885 -0.6269
# 6 9.3569 6.5503 4.6573 0.7052 -0.6269 25.0647
#
#
#
# Elastic Compliance Matrix: (Units=1/GPa)
#
#
# Indices 1 2 3 4 5 6 
#
# 1 0.017803 -0.003103 -0.007242 0.005174 0.000144 -0.004632
# 2 -0.003103 0.014224 -0.001416 -0.006763 0.001037 -0.002080
# 3 -0.007242 -0.001416 0.015407 -0.008649 0.005506 0.000592
# 4 0.005174 -0.006763 -0.008649 0.048757 -0.008378 -0.000138
# 5 0.000144 0.001037 0.005506 -0.008378 0.045393 0.000023
# 6 -0.004632 -0.002080 0.000592 -0.000138 0.000023 0.042064
#
#
# Mechanical properties :
#
#
# Convention : Reuss Voigt Hill
#
# Bulk Modulus (GPa) = 41.81757 50.23386 46.02572
# Shear Modulus (GPa) = 23.24074 26.25661 24.74868
#
# Velocity S-wave (km/s) = 3.47846 3.69727 3.58954
# Velocity P-wave (km/s) = 6.15664 6.66179 6.41419
#
# Compressibility (1/GPa) = 0.02391339
#
# Stress axis : x y z
#
# Youngs Moduli (GPa) = 56.16917 70.30529 64.90647
#
# Poissons Ratio (x) = 0.21814 0.47005
# Poissons Ratio (y) = 0.17428 0.09188
# Poissons Ratio (z) = 0.40678 0.09952
#
# Static dielectric constant tensor:
#      x y z
#    x 1.650900 -0.002710 0.006320 
#    y -0.002710 1.755490 0.067900 
#    z 0.006320 0.067900 1.691330 
# 
# From -- ./inp_files/260297.got.cif
#   From: 2010.05.17/outbox.cif.g08.bks.cpg/sg2_131_cif.got.tgz:260297.got - 2010.06.03 11:33:40.
