data_PCOD9040527
_publ_section_title
;
Structure prediction by ZEFSAII (Michael W. Deem and Ramdas Pophale) SiO2 
 PCOD9040527
Probable space group: P -1
;
_chemical_formula_sum "Si O2"
_cell_formula_units_Z 16
_cell_length_a 12.726797
_cell_length_b 9.422120
_cell_length_c 12.333658
_cell_angle_alpha 111.979084
_cell_angle_beta 35.997707
_cell_angle_gamma 87.730691
_cell_volume 627.176859
_symmetry_space_group_name_H-M "P -1"
_symmetry_group_IT_number 2
_symmetry_cell_setting 'triclinic'
loop_
_space_group_symop_operation_xyz
x,y,z
-x,-y,-z
loop_
_atom_site_type_symbol
_atom_site_label
_atom_site_fract_x
_atom_site_fract_y
_atom_site_fract_z
Si Si1 0.382354 0.724447 0.140219
Si Si2 0.258502 0.421142 0.794534
Si Si3 0.982508 0.507074 0.244593
Si Si4 0.256826 0.217932 0.113588
Si Si5 0.613975 0.899181 0.555222
Si Si6 0.804408 0.103266 0.418663
Si Si7 0.602863 0.489666 0.561260
Si Si8 0.741528 0.112673 0.926426
O O1 0.261307 0.838100 0.383969
O O2 0.224601 0.812526 0.191452
O O3 0.500000 0.500000 0.000000
O O4 0.578241 0.746062 0.960939
O O5 0.419179 0.220795 0.534720
O O6 0.381845 0.519213 0.704809
O O7 0.000000 0.500000 0.000000
O O8 0.218232 0.416679 0.956465
O O9 0.817832 0.739967 0.423364
O O10 0.829512 0.447077 0.308532
O O11 0.049149 0.420138 0.286021
O O12 0.222710 0.088531 0.180620
O O13 0.394812 0.064777 0.854487
O O14 0.704900 0.993901 0.438803
O O15 0.707982 0.297840 0.490785
O O16 0.076532 0.951448 0.149764
O O17 0.496116 0.690533 0.773632
#
# Coordination Sequence:
#
# PCOD9040527 Si02
#       8
#     2   2   2   2   2   2   2   2
#     4  11  24  42  69  98 130 175 222 280 335 397
#     4  10  23  43  69 100 136 178 224 277 337 390
#     4  11  23  44  68  99 134 180 223 275 332 399
#     4  11  24  43  66  94 135 174 222 271 339 397
#     4  10  23  43  67  93 133 177 219 278 338 389
#     4  11  24  43  68  98 130 181 221 275 339 399
#     4  12  24  44  70  99 141 173 230 275 328 403
#     4  12  23  44  64  97 136 174 221 276 333 397
#
# _framework density 25.511144999999999
#
# number of rings (size 3 to 8) (size 9 to 14) (size 15 to 20)
#    0.000    1.000    3.750    3.750    1.750    4.000 
#    2.250    2.500    0.000    0.000    0.000    0.000 
#    0.000    0.000    0.000    0.000    0.000    0.000 
#
# Total GULP energy -89357.177981 kJ/mol
# GULP energy per Si atom -5584.823624 kJ/mol
# Density = 2.545308 g / cm^3
# Si number density = 25.511145 Si / 1000 Ang^3
#
#
#
# Elastic Constant Matrix: (Units=GPa)
#
#
# Indices 1 2 3 4 5 6 
#
# 1 45.6329 8.7693 9.0945 5.6088 -19.0801 5.0365
# 2 8.7693 151.1970 23.9621 3.2825 -19.8864 -1.9465
# 3 9.0945 23.9621 70.3198 2.5459 -10.9107 -0.8377
# 4 5.6088 3.2825 2.5459 52.9058 -1.5382 -17.9079
# 5 -19.0801 -19.8864 -10.9107 -1.5382 35.0165 10.7997
# 6 5.0365 -1.9465 -0.8377 -17.9079 10.7997 47.4865
#
#
#
# Elastic Compliance Matrix: (Units=1/GPa)
#
#
# Indices 1 2 3 4 5 6 
#
# 1 0.032743 0.001070 -0.001221 -0.006484 0.021081 -0.010690
# 2 0.001070 0.007460 -0.001965 -0.000740 0.004531 -0.001152
# 3 -0.001221 -0.001965 0.015566 -0.000623 0.003242 -0.000649
# 4 -0.006484 -0.000740 -0.000623 0.023149 -0.006477 0.010849
# 5 0.021081 0.004531 0.003242 -0.006477 0.048084 -0.015371
# 6 -0.010690 -0.001152 -0.000649 0.010849 -0.015371 0.029721
#
#
# Mechanical properties :
#
#
# Convention : Reuss Voigt Hill
#
# Bulk Modulus (GPa) = 19.40298 38.97792 29.19045
# Shear Modulus (GPa) = 28.06891 42.10335 35.08613
#
# Velocity S-wave (km/s) = 3.32062 4.06691 3.71256
# Velocity P-wave (km/s) = 4.72485 6.11269 5.46302
#
# Compressibility (1/GPa) = 0.05153848
#
# Stress axis : x y z
#
# Youngs Moduli (GPa) = 30.54097 134.04306 64.24289
#
# Poissons Ratio (x) = -0.14347 0.07845
# Poissons Ratio (y) = -0.03269 0.12621
# Poissons Ratio (z) = 0.03729 0.26333
#
# Static dielectric constant tensor:
#      x y z
#    x 2.143890 -0.061910 -0.036960 
#    y -0.061910 2.041100 -0.051130 
#    z -0.036960 -0.051130 2.048850 
# 
# From -- ./inp_files/343323.got.cif
#   From: 2010.05.17/outbox.cif.g08.bks.cpg/sg2_172_cif.got.tgz:343323.got - 2010.06.03 11:33:40.
