data_PCOD9040301
_publ_section_title
;
Structure prediction by ZEFSAII (Michael W. Deem and Ramdas Pophale) SiO2 
 PCOD9040301
Probable space group: P -1
;
_chemical_formula_sum "Si O2"
_cell_formula_units_Z 14
_cell_length_a 12.797524
_cell_length_b 21.989273
_cell_length_c 22.316916
_cell_angle_alpha 162.622545
_cell_angle_beta 18.756142
_cell_angle_gamma 153.526522
_cell_volume 600.716295
_symmetry_space_group_name_H-M "P -1"
_symmetry_group_IT_number 2
_symmetry_cell_setting 'triclinic'
loop_
_space_group_symop_operation_xyz
x,y,z
-x,-y,-z
loop_
_atom_site_type_symbol
_atom_site_label
_atom_site_fract_x
_atom_site_fract_y
_atom_site_fract_z
Si Si1 0.428259 0.269218 0.308559
Si Si2 0.763803 0.461254 0.998004
Si Si3 0.008079 0.979694 0.745878
Si Si4 0.478490 0.340284 0.806369
Si Si5 0.553316 0.862374 0.078712
Si Si6 0.540294 0.369755 0.206701
Si Si7 0.262234 0.692265 0.581479
O O1 0.500000 0.500000 0.500000
O O2 0.500658 0.272883 0.201549
O O3 0.089461 0.161004 0.390486
O O4 0.678364 0.120861 0.071165
O O5 0.659179 0.534609 0.058008
O O6 0.510560 0.578933 0.292601
O O7 0.711859 0.225137 0.815737
O O8 0.123343 0.522217 0.873500
O O9 0.243871 0.160050 0.777557
O O10 0.185225 0.802050 0.523796
O O11 0.500000 0.500000 0.000000
O O12 0.590896 0.098755 0.285300
O O13 0.461609 0.797943 0.001557
O O14 0.906195 0.749952 0.801254
O O15 0.263848 0.546239 0.501461
#
# Coordination Sequence:
#
# PCOD9040301 Si02
#       7
#     2   2   2   2   2   2   2
#     4  11  24  45  66  97 136 173 215 272 326 384
#     4  11  23  41  65  94 130 164 213 268 316 385
#     4  10  24  42  64  94 130 174 222 258 318 394
#     4  11  24  45  66  97 136 173 215 272 326 384
#     4  10  23  43  65  96 125 166 212 261 328 388
#     4  11  23  41  65  94 130 164 213 268 316 385
#     4  10  23  43  65  96 125 166 212 261 328 388
#
# _framework density 23.305513000000001
#
# number of rings (size 3 to 8) (size 9 to 14) (size 15 to 20)
#    0.000    1.429    1.429    4.286    4.000    6.857 
#    5.143    0.000    0.000    0.000    0.000    0.000 
#    0.000    0.000    0.000    0.000    0.000    0.000 
#
# Total GULP energy -78146.982494 kJ/mol
# GULP energy per Si atom -5581.927321 kJ/mol
# Density = 2.325247 g / cm^3
# Si number density = 23.305513 Si / 1000 Ang^3
#
#
#
# Elastic Constant Matrix: (Units=GPa)
#
#
# Indices 1 2 3 4 5 6 
#
# 1 120.5624 51.9595 19.2976 17.2474 1.4679 10.0753
# 2 51.9595 156.6977 27.2720 31.8759 11.3315 27.3008
# 3 19.2976 27.2720 55.9745 27.3762 -8.4009 5.1949
# 4 17.2474 31.8759 27.3762 37.4915 5.4431 -1.5642
# 5 1.4679 11.3315 -8.4009 5.4431 15.3233 -0.2762
# 6 10.0753 27.3008 5.1949 -1.5642 -0.2762 45.7821
#
#
#
# Elastic Compliance Matrix: (Units=1/GPa)
#
#
# Indices 1 2 3 4 5 6 
#
# 1 0.009916 -0.002774 -0.001099 -0.001571 0.001049 -0.000450
# 2 -0.002774 0.010105 -0.001878 -0.005229 -0.006477 -0.005420
# 3 -0.001099 -0.001878 0.041318 -0.033466 0.035958 -0.004253
# 4 -0.001571 -0.005229 -0.033466 0.061910 -0.036157 0.009159
# 5 0.001049 -0.006477 0.035958 -0.036157 0.102487 -0.001066
# 6 -0.000450 -0.005420 -0.004253 0.009159 -0.001066 0.025963
#
#
# Mechanical properties :
#
#
# Convention : Reuss Voigt Hill
#
# Bulk Modulus (GPa) = 20.06587 58.92142 39.49364
# Shear Modulus (GPa) = 17.86897 35.36640 26.61769
#
# Velocity S-wave (km/s) = 2.77199 3.89975 3.38319
# Velocity P-wave (km/s) = 4.34440 6.75385 5.67839
#
# Compressibility (1/GPa) = 0.04983586
#
# Stress axis : x y z
#
# Youngs Moduli (GPa) = 100.84970 98.96073 24.20224
#
# Poissons Ratio (x) = 0.27456 0.02660
# Poissons Ratio (y) = 0.27980 0.04546
# Poissons Ratio (z) = 0.11082 0.18588
#
# Static dielectric constant tensor:
#      x y z
#    x 1.866930 0.045320 -0.005870 
#    y 0.045320 1.970880 -0.049960 
#    z -0.005870 -0.049960 1.937380 
# 
# From -- ./inp_files/596251.got.cif
#   From: 2010.05.17/outbox.cif.g08.bks.cpg/sg2_299_cif.got.tgz:596251.got - 2010.06.03 11:33:40.
