data_PCOD9040483
_publ_section_title
;
Structure prediction by ZEFSAII (Michael W. Deem and Ramdas Pophale) SiO2 
 PCOD9040483
Probable space group: P -1
;
_chemical_formula_sum "Si O2"
_cell_formula_units_Z 15
_cell_length_a 7.938678
_cell_length_b 8.671333
_cell_length_c 14.741380
_cell_angle_alpha 34.949652
_cell_angle_beta 95.258716
_cell_angle_gamma 91.129141
_cell_volume 576.138652
_symmetry_space_group_name_H-M "P -1"
_symmetry_group_IT_number 2
_symmetry_cell_setting 'triclinic'
loop_
_space_group_symop_operation_xyz
x,y,z
-x,-y,-z
loop_
_atom_site_type_symbol
_atom_site_label
_atom_site_fract_x
_atom_site_fract_y
_atom_site_fract_z
Si Si1 0.502396 0.949675 0.284575
Si Si2 0.753481 0.585061 0.712911
Si Si3 0.047073 0.937638 0.819764
Si Si4 0.261161 0.400712 0.084258
Si Si5 0.869912 0.559151 0.206263
Si Si6 0.168648 0.984989 0.626583
Si Si7 0.597147 0.485239 0.378035
Si Si8 0.000000 0.000000 0.000000
O O1 0.581966 0.767123 0.295353
O O2 0.386256 0.749778 0.430737
O O3 0.412012 0.239978 0.114570
O O4 0.638784 0.006572 0.339247
O O5 0.709798 0.654120 0.780533
O O6 0.582986 0.527740 0.679026
O O7 0.923364 0.363422 0.827277
O O8 0.843869 0.824700 0.553110
O O9 0.060117 0.111748 0.644990
O O10 0.896038 0.753819 0.882212
O O11 0.213162 0.719453 0.925502
O O12 0.037977 0.063243 0.856657
O O13 0.867910 0.319545 0.249745
O O14 0.756099 0.464676 0.327517
O O15 0.813162 0.864737 0.030434
#
# Coordination Sequence:
#
# PCOD9040483 Si02
#       8
#     2   2   2   2   2   2   2   1
#     4  10  23  43  67 102 153 184 230 301 349 424
#     4  11  23  44  75 111 138 185 242 293 355 428
#     4  11  24  42  65 100 140 184 237 290 342 433
#     4  11  22  42  69  97 143 188 234 284 353 417
#     4  12  23  43  74  99 143 191 230 298 354 416
#     4  11  23  44  71 108 139 184 245 286 355 430
#     4  10  24  44  67 112 147 180 239 297 357 416
#     4  12  26  46  66 100 146 188 240 296 356 424
#
# _framework density 26.035399000000002
#
# number of rings (size 3 to 8) (size 9 to 14) (size 15 to 20)
#    0.000    1.067    2.667    3.600    3.733    2.667 
#    0.000    4.667    0.000    0.000    0.000    0.000 
#    0.000    0.000    0.000    0.000    0.000    0.000 
#
# Total GULP energy -83663.047465 kJ/mol
# GULP energy per Si atom -5577.536498 kJ/mol
# Density = 2.597614 g / cm^3
# Si number density = 26.035399 Si / 1000 Ang^3
#
#
#
# Elastic Constant Matrix: (Units=GPa)
#
#
# Indices 1 2 3 4 5 6 
#
# 1 82.5746 27.2832 -3.5530 -0.1959 -2.3426 -1.6222
# 2 27.2832 160.0365 31.3679 7.5209 2.2727 -4.8363
# 3 -3.5530 31.3679 68.2611 3.9203 -27.5297 4.5721
# 4 -0.1959 7.5209 3.9203 43.2257 -7.3678 -12.3649
# 5 -2.3426 2.2727 -27.5297 -7.3678 39.8147 2.4674
# 6 -1.6222 -4.8363 4.5721 -12.3649 2.4674 47.6481
#
#
#
# Elastic Compliance Matrix: (Units=1/GPa)
#
#
# Indices 1 2 3 4 5 6 
#
# 1 0.013370 -0.003058 0.003491 0.000834 0.003539 -0.000157
# 2 -0.003058 0.008107 -0.005931 -0.001413 -0.005078 0.001184
# 3 0.003491 -0.005931 0.025132 0.000852 0.018303 -0.003621
# 4 0.000834 -0.001413 0.000852 0.025978 0.005137 0.006279
# 5 0.003539 -0.005078 0.018303 0.005137 0.039398 -0.002858
# 6 -0.000157 0.001184 -0.003621 0.006279 -0.002858 0.023227
#
#
# Mechanical properties :
#
#
# Convention : Reuss Voigt Hill
#
# Bulk Modulus (GPa) = 28.07892 46.78538 37.43215
# Shear Modulus (GPa) = 31.62992 43.18929 37.40960
#
# Velocity S-wave (km/s) = 3.48930 4.07734 3.79473
# Velocity P-wave (km/s) = 5.20018 6.33839 5.79729
#
# Compressibility (1/GPa) = 0.03561390
#
# Stress axis : x y z
#
# Youngs Moduli (GPa) = 74.79382 123.35615 39.78999
#
# Poissons Ratio (x) = 0.37720 -0.13891
# Poissons Ratio (y) = 0.22871 0.23598
# Poissons Ratio (z) = -0.26110 0.73157
#
# Static dielectric constant tensor:
#      x y z
#    x 2.142300 0.041260 0.059050 
#    y 0.041260 1.985650 -0.006560 
#    z 0.059050 -0.006560 2.188660 
# 
# From -- ./inp_files/488886.got.cif
#   From: 2010.05.17/outbox.cif.g08.bks.cpg/sg2_245_cif.got.tgz:488886.got - 2010.06.03 11:33:40.
