data_PCOD9040340
_publ_section_title
;
Structure prediction by ZEFSAII (Michael W. Deem and Ramdas Pophale) SiO2 
 PCOD9040340
Probable space group: P -1
;
_chemical_formula_sum "Si O2"
_cell_formula_units_Z 16
_cell_length_a 11.311997
_cell_length_b 12.407866
_cell_length_c 14.575208
_cell_angle_alpha 30.499514
_cell_angle_beta 121.081841
_cell_angle_gamma 99.269059
_cell_volume 673.591599
_symmetry_space_group_name_H-M "P -1"
_symmetry_group_IT_number 2
_symmetry_cell_setting 'triclinic'
loop_
_space_group_symop_operation_xyz
x,y,z
-x,-y,-z
loop_
_atom_site_type_symbol
_atom_site_label
_atom_site_fract_x
_atom_site_fract_y
_atom_site_fract_z
Si Si1 0.163653 0.324980 0.121573
Si Si2 0.611828 0.120064 0.725754
Si Si3 0.677639 0.540152 0.488810
Si Si4 0.161439 0.251489 0.685427
Si Si5 0.619016 0.566425 0.761419
Si Si6 0.271804 0.738517 0.566751
Si Si7 0.108294 0.851710 0.979761
Si Si8 0.105776 0.498120 0.762535
O O1 0.305733 0.363749 0.178933
O O2 0.247198 0.004869 0.396800
O O3 0.093429 0.444164 0.903085
O O4 0.000000 0.500000 0.000000
O O5 0.637347 0.348901 0.572693
O O6 0.473555 0.218976 0.679792
O O7 0.510463 0.172762 0.550762
O O8 0.785877 0.797536 0.029537
O O9 0.704125 0.688720 0.313696
O O10 0.850335 0.327717 0.782219
O O11 0.000000 0.500000 0.500000
O O12 0.083370 0.283589 0.528038
O O13 0.209558 0.974325 0.947204
O O14 0.480697 0.522066 0.774044
O O15 0.789541 0.333236 0.935102
O O16 0.218707 0.603117 0.714051
O O17 0.105028 0.896907 0.308931
#
# Coordination Sequence:
#
# PCOD9040340 Si02
#       8
#     2   2   2   2   2   2   2   2
#     4  12  25  48  71  99 138 180 229 286 341 408
#     4  10  23  43  66 100 135 179 230 278 338 404
#     4  10  23  43  68  96 138 183 224 280 338 400
#     4  11  25  41  69 103 135 178 225 278 341 410
#     4  11  24  44  71  97 137 180 224 286 342 398
#     4  11  24  44  70 100 137 173 226 285 337 409
#     4  10  23  45  65 105 135 181 228 275 346 401
#     4  11  26  43  68 105 132 180 231 275 347 407
#
# _framework density 23.753266
#
# number of rings (size 3 to 8) (size 9 to 14) (size 15 to 20)
#    0.000    1.250    2.500    1.875    7.000    2.000 
#    0.000    2.500    0.000    0.000    0.000    0.000 
#    0.000    0.000    0.000    0.000    0.000    0.000 
#
# Total GULP energy -89478.341874 kJ/mol
# GULP energy per Si atom -5592.396367 kJ/mol
# Density = 2.369920 g / cm^3
# Si number density = 23.753266 Si / 1000 Ang^3
#
#
#
# Elastic Constant Matrix: (Units=GPa)
#
#
# Indices 1 2 3 4 5 6 
#
# 1 128.3987 6.2272 23.2798 -4.7386 -12.2479 -5.4563
# 2 6.2272 82.7085 22.4049 9.5373 -4.2898 -4.9516
# 3 23.2798 22.4049 68.2891 3.6439 -6.3087 -2.3678
# 4 -4.7386 9.5373 3.6439 32.8293 6.1302 4.3093
# 5 -12.2479 -4.2898 -6.3087 6.1302 37.9416 -2.6810
# 6 -5.4563 -4.9516 -2.3678 4.3093 -2.6810 36.0275
#
#
#
# Elastic Compliance Matrix: (Units=1/GPa)
#
#
# Indices 1 2 3 4 5 6 
#
# 1 0.008585 0.000193 -0.002788 0.000911 0.002268 0.001203
# 2 0.000193 0.013917 -0.004164 -0.004188 0.001783 0.002302
# 3 -0.002788 -0.004164 0.017218 -0.001492 0.001765 0.000447
# 4 0.000911 -0.004188 -0.001492 0.033803 -0.006245 -0.005044
# 5 0.002268 0.001783 0.001765 -0.006245 0.028847 0.003598
# 6 0.001203 0.002302 0.000447 -0.005044 0.003598 0.029156
#
#
# Mechanical properties :
#
#
# Convention : Reuss Voigt Hill
#
# Bulk Modulus (GPa) = 38.16162 42.58004 40.37083
# Shear Modulus (GPa) = 32.51460 36.52531 34.51996
#
# Velocity S-wave (km/s) = 3.70381 3.92560 3.81632
# Velocity P-wave (km/s) = 5.86444 6.20581 6.03753
#
# Compressibility (1/GPa) = 0.02620434
#
# Stress axis : x y z
#
# Youngs Moduli (GPa) = 116.47753 71.85287 58.07795
#
# Poissons Ratio (x) = -0.01389 0.16190
# Poissons Ratio (y) = -0.02252 0.24184
# Poissons Ratio (z) = 0.32469 0.29920
#
# Static dielectric constant tensor:
#      x y z
#    x 1.942530 0.035100 0.023730 
#    y 0.035100 1.931740 0.030920 
#    z 0.023730 0.030920 1.883910 
# 
# From -- ./inp_files/470214.got.cif
#   From: 2010.05.17/outbox.cif.g08.bks.cpg/sg2_236_cif.got.tgz:470214.got - 2010.06.03 11:33:40.
