data_PCOD9040299
_publ_section_title
;
Structure prediction by ZEFSAII (Michael W. Deem and Ramdas Pophale) SiO2 
 PCOD9040299
Probable space group: P -1
;
_chemical_formula_sum "Si O2"
_cell_formula_units_Z 16
_cell_length_a 8.052798
_cell_length_b 8.772400
_cell_length_c 15.552219
_cell_angle_alpha 72.169631
_cell_angle_beta 107.815747
_cell_angle_gamma 144.124699
_cell_volume 609.603010
_symmetry_space_group_name_H-M "P -1"
_symmetry_group_IT_number 2
_symmetry_cell_setting 'triclinic'
loop_
_space_group_symop_operation_xyz
x,y,z
-x,-y,-z
loop_
_atom_site_type_symbol
_atom_site_label
_atom_site_fract_x
_atom_site_fract_y
_atom_site_fract_z
Si Si1 0.536206 0.205098 0.575764
Si Si2 0.245076 0.743625 0.728679
Si Si3 0.749832 0.048518 0.021421
Si Si4 0.895544 0.985830 0.577269
Si Si5 0.362671 0.479976 0.119302
Si Si6 0.263062 0.035484 0.150875
Si Si7 0.956859 0.667165 0.332039
Si Si8 0.703945 0.527924 0.700127
O O1 0.402125 0.145371 0.473083
O O2 0.822151 0.308205 0.602866
O O3 0.574728 0.387525 0.611366
O O4 0.319590 0.939875 0.642296
O O5 0.461815 0.880903 0.815735
O O6 0.284147 0.612236 0.701564
O O7 0.928878 0.546043 0.744434
O O8 0.583271 0.759001 0.059977
O O9 0.880416 0.121787 0.933396
O O10 0.026911 0.280942 0.085152
O O11 0.500000 0.000000 0.000000
O O12 0.852938 0.805983 0.663201
O O13 0.095386 0.256924 0.609651
O O14 0.000000 0.000000 0.500000
O O15 0.357046 0.289060 0.124381
O O16 0.453919 0.569658 0.218315
O O17 0.092039 0.864292 0.239844
#
# Coordination Sequence:
#
# PCOD9040299 Si02
#       8
#     2   2   2   2   2   2   2   2
#     4  10  23  43  65  95 139 189 235 295 357 431
#     4  10  23  43  70  97 142 187 238 289 362 432
#     4  12  29  48  77 112 146 188 240 300 358 439
#     4  12  23  43  67 101 138 181 245 299 359 426
#     4  12  28  47  77 108 149 188 243 295 367 431
#     4  11  25  46  71 104 143 189 234 295 361 431
#     4  10  24  43  69  98 141 189 235 292 364 427
#     4  11  24  44  68 102 140 190 234 305 362 432
#
# _framework density 26.246592
#
# number of rings (size 3 to 8) (size 9 to 14) (size 15 to 20)
#    0.000    1.000    2.500    2.625   10.500    1.500 
#    4.500    0.000    0.000    0.000    0.000    0.000 
#    0.000    0.000    0.000    0.000    0.000    0.000 
#
# Total GULP energy -89584.665251 kJ/mol
# GULP energy per Si atom -5599.041578 kJ/mol
# Density = 2.618685 g / cm^3
# Si number density = 26.246592 Si / 1000 Ang^3
#
#
#
# Elastic Constant Matrix: (Units=GPa)
#
#
# Indices 1 2 3 4 5 6 
#
# 1 89.2274 5.7651 34.9753 -0.4273 -1.7624 -10.1501
# 2 5.7651 85.2071 0.3430 8.4014 8.8357 -12.2019
# 3 34.9753 0.3430 77.1824 18.3967 3.2205 -3.5331
# 4 -0.4273 8.4014 18.3967 38.0753 -6.7354 -1.3437
# 5 -1.7624 8.8357 3.2205 -6.7354 36.8382 11.4905
# 6 -10.1501 -12.2019 -3.5331 -1.3437 11.4905 41.2788
#
#
#
# Elastic Compliance Matrix: (Units=1/GPa)
#
#
# Indices 1 2 3 4 5 6 
#
# 1 0.014606 -0.001281 -0.007674 0.004555 0.001825 0.002196
# 2 -0.001281 0.013737 0.002226 -0.005020 -0.006182 0.005493
# 3 -0.007674 0.002226 0.019253 -0.010712 -0.004999 0.001461
# 4 0.004555 -0.005020 -0.010712 0.034177 0.009483 -0.002808
# 5 0.001825 -0.006182 -0.004999 0.009483 0.034335 -0.011056
# 6 0.002196 0.005493 0.001461 -0.002808 -0.011056 0.029501
#
#
# Mechanical properties :
#
#
# Convention : Reuss Voigt Hill
#
# Bulk Modulus (GPa) = 29.29493 37.08707 33.19100
# Shear Modulus (GPa) = 29.33478 37.27401 33.30440
#
# Velocity S-wave (km/s) = 3.34677 3.77257 3.56603
# Velocity P-wave (km/s) = 5.11079 5.75650 5.44323
#
# Compressibility (1/GPa) = 0.03413559
#
# Stress axis : x y z
#
# Youngs Moduli (GPa) = 68.46537 72.79830 51.94056
#
# Poissons Ratio (x) = 0.09327 0.39861
# Poissons Ratio (y) = 0.08771 -0.11560
# Poissons Ratio (z) = 0.52542 -0.16202
#
# Static dielectric constant tensor:
#      x y z
#    x 2.124610 0.055050 0.041750 
#    y 0.055050 2.021110 0.021840 
#    z 0.041750 0.021840 1.993680 
# 
# From -- ./inp_files/53569.got.cif
#   From: 2010.05.17/outbox.cif.g08.bks.cpg/sg2_27_cif.got.tgz:53569.got - 2010.06.03 11:33:40.
