data_PCOD9040455
_publ_section_title
;
Structure prediction by ZEFSAII (Michael W. Deem and Ramdas Pophale) SiO2 
 PCOD9040455
Probable space group: P -1
;
_chemical_formula_sum "Si O2"
_cell_formula_units_Z 14
_cell_length_a 11.882153
_cell_length_b 8.302149
_cell_length_c 7.324760
_cell_angle_alpha 125.750627
_cell_angle_beta 86.609876
_cell_angle_gamma 107.527932
_cell_volume 552.777712
_symmetry_space_group_name_H-M "P -1"
_symmetry_group_IT_number 2
_symmetry_cell_setting 'triclinic'
loop_
_space_group_symop_operation_xyz
x,y,z
-x,-y,-z
loop_
_atom_site_type_symbol
_atom_site_label
_atom_site_fract_x
_atom_site_fract_y
_atom_site_fract_z
Si Si1 0.674834 0.344757 0.964187
Si Si2 0.498080 0.939044 0.744786
Si Si3 0.866711 0.001882 0.337846
Si Si4 0.694164 0.756084 0.475062
Si Si5 0.915786 0.601775 0.965863
Si Si6 0.095210 0.332140 0.404113
Si Si7 0.242739 0.798226 0.780659
O O1 0.659503 0.541249 0.212156
O O2 0.727875 0.215958 0.019842
O O3 0.779557 0.443890 0.877410
O O4 0.553676 0.167510 0.793508
O O5 0.579282 0.797820 0.595948
O O6 0.358588 0.815904 0.657866
O O7 0.500000 0.000000 0.000000
O O8 0.768151 0.953486 0.472582
O O9 0.800046 0.014982 0.163068
O O10 0.912369 0.805481 0.209006
O O11 0.982649 0.206161 0.454698
O O12 0.791136 0.738659 0.602447
O O13 0.943211 0.686256 0.814598
O O14 0.000000 0.500000 0.000000
O O15 0.143710 0.577127 0.605421
#
# Coordination Sequence:
#
# PCOD9040455 Si02
#       7
#     2   2   2   2   2   2   2
#     4   9  22  44  65 101 138 182 225 285 338 404
#     4  10  23  43  75  97 140 184 231 285 341 401
#     4  11  24  43  65 102 139 181 224 286 348 409
#     4  10  24  44  69 104 138 180 236 276 348 409
#     4  11  25  42  67 102 139 178 230 283 345 414
#     4  11  24  41  71 100 137 183 224 288 342 410
#     4  10  23  43  67 100 138 176 235 274 342 409
#
# _framework density 25.326636000000001
#
# number of rings (size 3 to 8) (size 9 to 14) (size 15 to 20)
#    0.000    1.714    0.000    2.143    8.000    8.000 
#    0.000    1.429    0.000    0.000    0.000    0.000 
#    0.000    0.000    0.000    0.000    0.000    0.000 
#
# Total GULP energy -78317.987723 kJ/mol
# GULP energy per Si atom -5594.141980 kJ/mol
# Density = 2.526899 g / cm^3
# Si number density = 25.326636 Si / 1000 Ang^3
#
#
#
# Elastic Constant Matrix: (Units=GPa)
#
#
# Indices 1 2 3 4 5 6 
#
# 1 107.2246 52.2252 17.8932 15.6078 -28.1289 9.6120
# 2 52.2252 140.4254 14.5438 5.9407 -7.9748 9.6291
# 3 17.8932 14.5438 45.2794 2.3326 -10.8928 -4.4789
# 4 15.6078 5.9407 2.3326 41.7206 -0.1995 6.0766
# 5 -28.1289 -7.9748 -10.8928 -0.1995 32.0891 6.6852
# 6 9.6120 9.6291 -4.4789 6.0766 6.6852 55.6220
#
#
#
# Elastic Compliance Matrix: (Units=1/GPa)
#
#
# Indices 1 2 3 4 5 6 
#
# 1 0.016396 -0.004731 -0.001852 -0.004824 0.013210 -0.003224
# 2 -0.004731 0.008936 -0.001666 0.000675 -0.002351 -0.000655
# 3 -0.001852 -0.001666 0.025040 -0.000729 0.006046 0.001978
# 4 -0.004824 0.000675 -0.000729 0.025951 -0.003788 -0.001722
# 5 0.013210 -0.002351 0.006046 -0.003788 0.045531 -0.006447
# 6 -0.003224 -0.000655 0.001978 -0.001722 -0.006447 0.019771
#
#
# Mechanical properties :
#
#
# Convention : Reuss Voigt Hill
#
# Bulk Modulus (GPa) = 29.52110 51.36153 40.44132
# Shear Modulus (GPa) = 29.51354 39.77081 34.64217
#
# Velocity S-wave (km/s) = 3.41738 3.96702 3.70241
# Velocity P-wave (km/s) = 5.22042 6.42703 5.85489
#
# Compressibility (1/GPa) = 0.03387407
#
# Stress axis : x y z
#
# Youngs Moduli (GPa) = 60.99012 111.90746 39.93648
#
# Poissons Ratio (x) = 0.52939 0.07398
# Poissons Ratio (y) = 0.28852 0.06653
# Poissons Ratio (z) = 0.11298 0.18643
#
# Static dielectric constant tensor:
#      x y z
#    x 2.067030 0.006360 0.078060 
#    y 0.006360 2.019060 -0.042920 
#    z 0.078060 -0.042920 2.117880 
# 
# From -- ./inp_files/241375.got.cif
#   From: 2010.05.17/outbox.cif.g08.bks.cpg/sg2_121_cif.got.tgz:241375.got - 2010.06.03 11:33:40.
