data_PCOD9040128
_publ_section_title
;
Structure prediction by ZEFSAII (Michael W. Deem and Ramdas Pophale) SiO2 
 PCOD9040128
Probable space group: P -1
;
_chemical_formula_sum "Si O2"
_cell_formula_units_Z 16
_cell_length_a 17.110945
_cell_length_b 8.547908
_cell_length_c 21.254291
_cell_angle_alpha 39.808940
_cell_angle_beta 160.106888
_cell_angle_gamma 140.958027
_cell_volume 655.822384
_symmetry_space_group_name_H-M "P -1"
_symmetry_group_IT_number 2
_symmetry_cell_setting 'triclinic'
loop_
_space_group_symop_operation_xyz
x,y,z
-x,-y,-z
loop_
_atom_site_type_symbol
_atom_site_label
_atom_site_fract_x
_atom_site_fract_y
_atom_site_fract_z
Si Si1 0.229673 0.770309 0.760091
Si Si2 0.673687 0.199855 0.938777
Si Si3 0.872226 0.231495 0.459395
Si Si4 0.361692 0.026549 0.196911
Si Si5 0.419272 0.532469 0.338407
Si Si6 0.974111 0.728309 0.711893
Si Si7 0.625196 0.027542 0.519336
Si Si8 0.854743 0.775289 0.129815
O O1 0.110862 0.789424 0.596572
O O2 0.070091 0.726400 0.714731
O O3 0.305197 0.505795 0.895385
O O4 0.436769 0.025062 0.844613
O O5 0.616778 0.390276 0.784755
O O6 0.854570 0.339445 0.085487
O O7 0.775451 0.991144 0.042432
O O8 0.000000 0.500000 0.500000
O O9 0.594998 0.154361 0.292040
O O10 0.979489 0.020788 0.637883
O O11 0.316251 0.729174 0.240044
O O12 0.447400 0.078687 0.316365
O O13 0.157514 0.139079 0.978611
O O14 0.313827 0.241925 0.363561
O O15 0.699086 0.584559 0.548136
O O16 0.500000 0.000000 0.500000
O O17 0.877557 0.226298 0.649292
#
# Coordination Sequence:
#
# PCOD9040128 Si02
#       8
#     2   2   2   2   2   2   2   2
#     4  12  22  41  63  98 140 165 207 267 313 387
#     4  11  23  41  65  98 128 171 217 251 323 387
#     4  11  22  39  66  93 129 179 212 252 313 386
#     4  10  23  43  63  94 121 168 217 257 318 378
#     4  10  23  44  66  90 129 165 221 264 305 389
#     4  11  23  39  63  97 134 169 208 260 325 367
#     4  12  26  44  66  94 123 165 217 274 329 370
#     4  11  24  42  67  93 130 170 215 263 315 387
#
# _framework density 24.396850000000001
#
# number of rings (size 3 to 8) (size 9 to 14) (size 15 to 20)
#    0.000    1.000    3.750    5.250    1.750    4.500 
#    0.000    0.000    0.000    0.000    0.000    0.000 
#    0.000    0.000    0.000    0.000    0.000    0.000 
#
# Total GULP energy -89617.756795 kJ/mol
# GULP energy per Si atom -5601.109800 kJ/mol
# Density = 2.434132 g / cm^3
# Si number density = 24.396850 Si / 1000 Ang^3
#
#
#
# Elastic Constant Matrix: (Units=GPa)
#
#
# Indices 1 2 3 4 5 6 
#
# 1 76.9471 6.3565 29.9168 8.7616 -31.6963 3.1593
# 2 6.3565 83.3159 20.0155 6.6135 -5.1408 7.4231
# 3 29.9168 20.0155 94.3189 2.9403 -49.3779 -0.5267
# 4 8.7616 6.6135 2.9403 23.1930 -0.1765 -8.3158
# 5 -31.6963 -5.1408 -49.3779 -0.1765 49.3047 -0.0370
# 6 3.1593 7.4231 -0.5267 -8.3158 -0.0370 24.6607
#
#
#
# Elastic Compliance Matrix: (Units=1/GPa)
#
#
# Indices 1 2 3 4 5 6 
#
# 1 0.019482 0.000349 0.001195 -0.009581 0.013719 -0.005786
# 2 0.000349 0.013865 -0.004301 -0.005810 -0.002663 -0.006273
# 3 0.001195 -0.004301 0.023878 -0.001664 0.024228 0.001127
# 4 -0.009581 -0.005810 -0.001664 0.056411 -0.008213 0.021951
# 5 0.013719 -0.002663 0.024228 -0.008213 0.053056 -0.003128
# 6 -0.005786 -0.006273 0.001127 0.021951 -0.003128 0.050601
#
#
# Mechanical properties :
#
#
# Convention : Reuss Voigt Hill
#
# Bulk Modulus (GPa) = 19.33823 40.79548 30.06686
# Shear Modulus (GPa) = 20.82945 32.65121 26.74033
#
# Velocity S-wave (km/s) = 2.92512 3.66230 3.31427
# Velocity P-wave (km/s) = 4.39911 5.88567 5.19583
#
# Compressibility (1/GPa) = 0.05171103
#
# Stress axis : x y z
#
# Youngs Moduli (GPa) = 51.32919 72.12468 41.87933
#
# Poissons Ratio (x) = -0.02517 -0.05004
# Poissons Ratio (y) = -0.01792 0.18012
# Poissons Ratio (z) = -0.06133 0.31020
#
# Static dielectric constant tensor:
#      x y z
#    x 1.961970 -0.032790 0.010800 
#    y -0.032790 1.922400 -0.014230 
#    z 0.010800 -0.014230 1.970320 
# 
# From -- ./inp_files/308165.got.cif
#   From: 2010.05.17/outbox.cif.g08.bks.cpg/sg2_155_cif.got.tgz:308165.got - 2010.06.03 11:33:40.
