data_PCOD9040715
_publ_section_title
;
Structure prediction by ZEFSAII (Michael W. Deem and Ramdas Pophale) SiO2 
 PCOD9040715
Probable space group: P -1
;
_chemical_formula_sum "Si O2"
_cell_formula_units_Z 16
_cell_length_a 6.521209
_cell_length_b 16.690844
_cell_length_c 19.503271
_cell_angle_alpha 159.390858
_cell_angle_beta 82.617621
_cell_angle_gamma 98.622969
_cell_volume 738.340380
_symmetry_space_group_name_H-M "P -1"
_symmetry_group_IT_number 2
_symmetry_cell_setting 'triclinic'
loop_
_space_group_symop_operation_xyz
x,y,z
-x,-y,-z
loop_
_atom_site_type_symbol
_atom_site_label
_atom_site_fract_x
_atom_site_fract_y
_atom_site_fract_z
Si Si1 0.959955 0.231994 0.279858
Si Si2 0.217483 0.854092 0.917424
Si Si3 0.718752 0.098191 0.310788
Si Si4 0.469027 0.814496 0.003495
Si Si5 0.114947 0.480802 0.820363
Si Si6 0.406390 0.242001 0.709296
Si Si7 0.751111 0.664068 0.058516
Si Si8 0.149297 0.478416 0.265002
O O1 0.774433 0.181788 0.192641
O O2 0.908509 0.124721 0.270119
O O3 0.000000 0.500000 0.500000
O O4 0.144992 0.103714 0.136646
O O5 0.409044 0.823837 0.933984
O O6 0.029955 0.672397 0.806638
O O7 0.737207 0.326246 0.536734
O O8 0.723688 0.884361 0.189463
O O9 0.519745 0.049488 0.230996
O O10 0.280271 0.674148 0.937610
O O11 0.676139 0.682911 0.894780
O O12 0.247224 0.288674 0.692562
O O13 0.960020 0.417436 0.712940
O O14 0.976774 0.582267 0.966969
O O15 0.289141 0.262185 0.802986
O O16 0.500000 0.000000 0.500000
O O17 0.585962 0.452581 0.874691
#
# Coordination Sequence:
#
# PCOD9040715 Si02
#       8
#     2   2   2   2   2   2   2   2
#     4  11  22  43  69 100 137 178 234 282 345 408
#     4  10  23  43  68  94 137 184 222 290 344 400
#     4  12  23  43  70  97 138 181 228 287 338 409
#     4  11  23  45  68 101 138 179 238 284 336 408
#     4  11  22  47  72  99 142 184 228 281 347 410
#     4  11  26  48  71 106 141 175 229 288 345 409
#     4  11  25  47  71 102 138 181 231 284 342 415
#     4  11  23  43  68 101 135 183 231 282 342 405
#
# _framework density 21.67022
#
# number of rings (size 3 to 8) (size 9 to 14) (size 15 to 20)
#    0.000    1.000    5.000    1.125    3.500    2.000 
#    9.000    1.250    0.000    0.000    0.000    0.000 
#    0.000    0.000    0.000    0.000    0.000    0.000 
#
# Total GULP energy -89453.984217 kJ/mol
# GULP energy per Si atom -5590.874014 kJ/mol
# Density = 2.162090 g / cm^3
# Si number density = 21.670220 Si / 1000 Ang^3
#
#
#
# Elastic Constant Matrix: (Units=GPa)
#
#
# Indices 1 2 3 4 5 6 
#
# 1 76.9749 28.7333 20.7031 -3.0002 9.7721 -15.9569
# 2 28.7333 105.2044 36.1273 -2.0611 1.8449 -11.9674
# 3 20.7031 36.1273 133.3059 -5.2065 17.0536 -8.8975
# 4 -3.0002 -2.0611 -5.2065 31.7812 -5.7094 2.0169
# 5 9.7721 1.8449 17.0536 -5.7094 25.5202 0.5200
# 6 -15.9569 -11.9674 -8.8975 2.0169 0.5200 44.7034
#
#
#
# Elastic Compliance Matrix: (Units=1/GPa)
#
#
# Indices 1 2 3 4 5 6 
#
# 1 0.016186 -0.003611 -0.000487 -0.000120 -0.005736 0.004786
# 2 -0.003611 0.011550 -0.002791 0.000316 0.002459 0.001205
# 3 -0.000487 -0.002791 0.009133 0.000186 -0.005693 0.000955
# 4 -0.000120 0.000316 0.000186 0.032909 0.007292 -0.001491
# 5 -0.005736 0.002459 -0.005693 0.007292 0.046708 -0.003395
# 6 0.004786 0.001205 0.000955 -0.001491 -0.003395 0.024697
#
#
# Mechanical properties :
#
#
# Convention : Reuss Voigt Hill
#
# Bulk Modulus (GPa) = 43.30654 54.06808 48.68731
# Shear Modulus (GPa) = 30.73942 35.72905 33.23423
#
# Velocity S-wave (km/s) = 3.77040 4.06490 3.92042
# Velocity P-wave (km/s) = 6.24358 6.85826 6.55813
#
# Compressibility (1/GPa) = 0.02309120
#
# Stress axis : x y z
#
# Youngs Moduli (GPa) = 61.78317 86.57915 109.49540
#
# Poissons Ratio (x) = 0.31262 0.05328
# Poissons Ratio (y) = 0.22309 0.30563
# Poissons Ratio (z) = 0.03006 0.24166
#
# Static dielectric constant tensor:
#      x y z
#    x 1.806230 -0.000610 0.021650 
#    y -0.000610 1.836800 -0.004980 
#    z 0.021650 -0.004980 1.772190 
# 
# From -- ./inp_files/107789.got.cif
#   From: 2010.05.17/outbox.cif.g08.bks.cpg/sg2_54_cif.got.tgz:107789.got - 2010.06.03 11:33:40.
