data_PCOD9040577
_publ_section_title
;
Structure prediction by ZEFSAII (Michael W. Deem and Ramdas Pophale) SiO2 
 PCOD9040577
Probable space group: P -1
;
_chemical_formula_sum "Si O2"
_cell_formula_units_Z 14
_cell_length_a 12.068485
_cell_length_b 5.680827
_cell_length_c 11.298511
_cell_angle_alpha 117.827645
_cell_angle_beta 55.542489
_cell_angle_gamma 101.650466
_cell_volume 562.785287
_symmetry_space_group_name_H-M "P -1"
_symmetry_group_IT_number 2
_symmetry_cell_setting 'triclinic'
loop_
_space_group_symop_operation_xyz
x,y,z
-x,-y,-z
loop_
_atom_site_type_symbol
_atom_site_label
_atom_site_fract_x
_atom_site_fract_y
_atom_site_fract_z
Si Si1 0.467812 0.587957 0.905765
Si Si2 0.860750 0.056710 0.282726
Si Si3 0.076689 0.433143 0.210434
Si Si4 0.768247 0.538657 0.105566
Si Si5 0.286274 0.126997 0.189885
Si Si6 0.659690 0.448852 0.394083
Si Si7 0.151277 0.136131 0.511446
O O1 0.372851 0.867428 0.025527
O O2 0.500000 0.500000 0.000000
O O3 0.378667 0.379986 0.846187
O O4 0.608190 0.661291 0.783748
O O5 0.849411 0.768982 0.166889
O O6 0.889467 0.055354 0.404756
O O7 0.714399 0.209001 0.388110
O O8 0.974249 0.212531 0.187553
O O9 0.189872 0.282466 0.189165
O O10 0.977764 0.657140 0.386104
O O11 0.140072 0.556751 0.084051
O O12 0.723644 0.376428 0.208519
O O13 0.210138 0.030657 0.328157
O O14 0.500000 0.500000 0.500000
O O15 0.733104 0.701790 0.457670
#
# Coordination Sequence:
#
# PCOD9040577 Si02
#       7
#     2   2   2   2   2   2   2
#     4  11  25  44  67 100 130 176 221 274 329 387
#     4  10  25  42  67  97 132 177 218 272 332 387
#     4  11  24  43  67 102 133 174 221 270 336 390
#     4  11  24  42  69  96 135 168 222 274 325 396
#     4  11  25  44  69  97 137 173 225 271 331 393
#     4  10  23  43  67  97 132 174 221 275 329 390
#     4  10  24  44  66  98 133 178 220 272 328 395
#
# _framework density 24.876273999999999
#
# number of rings (size 3 to 8) (size 9 to 14) (size 15 to 20)
#    0.000    1.429    1.429    1.714    4.000   12.571 
#    0.000    0.000    0.000    0.000    0.000    0.000 
#    0.000    0.000    0.000    0.000    0.000    0.000 
#
# Total GULP energy -78318.400054 kJ/mol
# GULP energy per Si atom -5594.171432 kJ/mol
# Density = 2.481965 g / cm^3
# Si number density = 24.876274 Si / 1000 Ang^3
#
#
#
# Elastic Constant Matrix: (Units=GPa)
#
#
# Indices 1 2 3 4 5 6 
#
# 1 153.1595 26.3517 45.7071 -2.5307 -17.0059 -7.2952
# 2 26.3517 44.2535 23.4859 -18.5119 -6.4414 -10.3410
# 3 45.7071 23.4859 108.0337 -14.2590 -1.3849 -3.8054
# 4 -2.5307 -18.5119 -14.2590 25.6966 -2.5905 -9.9036
# 5 -17.0059 -6.4414 -1.3849 -2.5905 45.3422 -2.9641
# 6 -7.2952 -10.3410 -3.8054 -9.9036 -2.9641 56.3449
#
#
#
# Elastic Compliance Matrix: (Units=1/GPa)
#
#
# Indices 1 2 3 4 5 6 
#
# 1 0.008463 -0.005345 -0.003061 -0.004838 0.001990 -0.000837
# 2 -0.005345 0.048539 -0.002372 0.039916 0.008112 0.015499
# 3 -0.003061 -0.002372 0.011701 0.004686 -0.000812 0.000739
# 4 -0.004838 0.039916 0.004686 0.079055 0.009917 0.021433
# 5 0.001990 0.008112 -0.000812 0.009917 0.024805 0.004740
# 6 -0.000837 0.015499 0.000739 0.021433 0.004740 0.024550
#
#
# Mechanical properties :
#
#
# Convention : Reuss Voigt Hill
#
# Bulk Modulus (GPa) = 21.21061 55.17070 38.19066
# Shear Modulus (GPa) = 21.33233 39.47019 30.40126
#
# Velocity S-wave (km/s) = 2.93155 3.98761 3.49965
# Velocity P-wave (km/s) = 4.47254 6.58996 5.63166
#
# Compressibility (1/GPa) = 0.04714621
#
# Stress axis : x y z
#
# Youngs Moduli (GPa) = 118.15458 20.60220 85.45987
#
# Poissons Ratio (x) = 0.11011 0.26162
# Poissons Ratio (y) = 0.63151 0.20275
# Poissons Ratio (z) = 0.36171 0.04888
#
# Static dielectric constant tensor:
#      x y z
#    x 1.998350 0.031660 0.024430 
#    y 0.031660 2.028610 0.010820 
#    z 0.024430 0.010820 1.944980 
# 
# From -- ./inp_files/69667.got.cif
#   From: 2010.05.17/outbox.cif.g08.bks.cpg/sg2_35_cif.got.tgz:69667.got - 2010.06.03 11:33:40.
