data_PCOD9040130
_publ_section_title
;
Structure prediction by ZEFSAII (Michael W. Deem and Ramdas Pophale) SiO2 
 PCOD9040130
Probable space group: P -1
;
_chemical_formula_sum "Si O2"
_cell_formula_units_Z 16
_cell_length_a 14.315719
_cell_length_b 7.771589
_cell_length_c 9.727635
_cell_angle_alpha 49.434665
_cell_angle_beta 65.026675
_cell_angle_gamma 67.449713
_cell_volume 735.901055
_symmetry_space_group_name_H-M "P -1"
_symmetry_group_IT_number 2
_symmetry_cell_setting 'triclinic'
loop_
_space_group_symop_operation_xyz
x,y,z
-x,-y,-z
loop_
_atom_site_type_symbol
_atom_site_label
_atom_site_fract_x
_atom_site_fract_y
_atom_site_fract_z
Si Si1 0.251676 0.812395 0.215788
Si Si2 0.858589 0.412764 0.204610
Si Si3 0.604477 0.998392 0.745549
Si Si4 0.543316 0.776898 0.496314
Si Si5 0.460746 0.643628 0.081710
Si Si6 0.099061 0.218035 0.199609
Si Si7 0.800144 0.935539 0.498399
Si Si8 0.214703 0.338256 0.604244
O O1 0.340656 0.764173 0.070277
O O2 0.214239 0.575999 0.399091
O O3 0.323026 0.890744 0.253099
O O4 0.152558 0.010127 0.177523
O O5 0.836117 0.584617 0.258414
O O6 0.976930 0.283243 0.214049
O O7 0.789404 0.211249 0.354938
O O8 0.849803 0.563022 0.994160
O O9 0.687647 0.873910 0.646483
O O10 0.524868 0.186204 0.617550
O O11 0.538748 0.827501 0.950478
O O12 0.534176 0.541797 0.703226
O O13 0.664787 0.768828 0.392068
O O14 0.500000 0.000000 0.500000
O O15 0.500000 0.500000 0.000000
O O16 0.123250 0.152274 0.377255
O O17 0.832327 0.827004 0.387026
#
# Coordination Sequence:
#
# PCOD9040130 Si02
#       8
#     2   2   2   2   2   2   2   2
#     4  10  23  43  63  94 128 175 216 262 326 391
#     4  11  24  47  69  99 127 173 220 276 331 392
#     4  11  21  40  60  91 129 169 215 254 320 380
#     4  11  22  39  60  90 131 173 210 262 313 378
#     4  11  22  36  59  90 128 166 212 259 310 379
#     4  10  24  46  70  94 135 166 221 277 331 389
#     4  11  23  45  67  99 135 170 218 272 327 394
#     4  11  23  42  69  97 132 174 223 265 329 391
#
# _framework density 21.742056000000002
#
# number of rings (size 3 to 8) (size 9 to 14) (size 15 to 20)
#    0.000    1.250    5.000    1.500    1.750    4.500 
#    2.250    1.250    0.000    0.000    0.000    0.000 
#    0.000    0.000    0.000    0.000    0.000    0.000 
#
# Total GULP energy -89381.466061 kJ/mol
# GULP energy per Si atom -5586.341629 kJ/mol
# Density = 2.169257 g / cm^3
# Si number density = 21.742056 Si / 1000 Ang^3
#
#
#
# Elastic Constant Matrix: (Units=GPa)
#
#
# Indices 1 2 3 4 5 6 
#
# 1 11.4171 22.2178 -2.7422 -0.8429 3.3257 -9.6922
# 2 22.2178 145.4003 10.0262 10.2784 2.9730 -12.5342
# 3 -2.7422 10.0262 93.0932 -10.3312 -4.3509 5.1283
# 4 -0.8429 10.2784 -10.3312 23.4784 -5.0125 0.9016
# 5 3.3257 2.9730 -4.3509 -5.0125 22.8772 -0.6051
# 6 -9.6922 -12.5342 5.1283 0.9016 -0.6051 43.8256
#
#
#
# Elastic Compliance Matrix: (Units=1/GPa)
#
#
# Indices 1 2 3 4 5 6 
#
# 1 0.166084 -0.024145 0.006871 0.015125 -0.015632 0.028494
# 2 -0.024145 0.011070 -0.002555 -0.006758 0.000059 -0.001735
# 3 0.006871 -0.002555 0.012245 0.007483 0.003282 -0.000753
# 4 0.015125 -0.006758 0.007483 0.051846 0.011452 -0.000372
# 5 -0.015632 0.000059 0.003282 0.011452 0.049020 -0.003383
# 6 0.028494 -0.001735 -0.000753 -0.000372 -0.003383 0.028672
#
#
# Mechanical properties :
#
#
# Convention : Reuss Voigt Hill
#
# Bulk Modulus (GPa) = 6.67825 34.32378 20.50102
# Shear Modulus (GPa) = 12.23961 32.73017 22.48489
#
# Velocity S-wave (km/s) = 2.37522 3.88414 3.21933
# Velocity P-wave (km/s) = 3.25584 5.99470 4.82374
#
# Compressibility (1/GPa) = 0.14973985
#
# Stress axis : x y z
#
# Youngs Moduli (GPa) = 6.02105 90.33213 81.66739
#
# Poissons Ratio (x) = 2.18110 -0.56114
# Poissons Ratio (y) = 0.14538 0.20868
# Poissons Ratio (z) = -0.04137 0.23082
#
# Static dielectric constant tensor:
#      x y z
#    x 1.789320 0.006270 -0.014350 
#    y 0.006270 1.882330 0.038830 
#    z -0.014350 0.038830 1.831090 
# 
# From -- ./inp_files/446612.got.cif
#   From: 2010.05.17/outbox.cif.g08.bks.cpg/sg2_224_cif.got.tgz:446612.got - 2010.06.03 11:33:40.
