data_PCOD9040164
_publ_section_title
;
Structure prediction by ZEFSAII (Michael W. Deem and Ramdas Pophale) SiO2 
 PCOD9040164
Probable space group: P -1
;
_chemical_formula_sum "Si O2"
_cell_formula_units_Z 15
_cell_length_a 7.132859
_cell_length_b 15.560263
_cell_length_c 17.690321
_cell_angle_alpha 27.663810
_cell_angle_beta 54.507623
_cell_angle_gamma 45.406492
_cell_volume 644.081848
_symmetry_space_group_name_H-M "P -1"
_symmetry_group_IT_number 2
_symmetry_cell_setting 'triclinic'
loop_
_space_group_symop_operation_xyz
x,y,z
-x,-y,-z
loop_
_atom_site_type_symbol
_atom_site_label
_atom_site_fract_x
_atom_site_fract_y
_atom_site_fract_z
Si Si1 0.355120 0.014973 0.335035
Si Si2 0.253524 0.786473 0.402791
Si Si3 0.557346 0.282763 0.757921
Si Si4 0.853197 0.426962 0.150768
Si Si5 0.065048 0.370843 0.880690
Si Si6 0.000000 0.000000 0.000000
Si Si7 0.702853 0.817563 0.538433
Si Si8 0.669966 0.254492 0.028326
O O1 0.320231 0.929298 0.330391
O O2 0.530555 0.828851 0.497334
O O3 0.522685 0.136550 0.189802
O O4 0.062993 0.179889 0.306930
O O5 0.425200 0.540924 0.583642
O O6 0.335501 0.791642 0.293556
O O7 0.946188 0.853721 0.429399
O O8 0.310757 0.245462 0.864373
O O9 0.782141 0.171185 0.855089
O O10 0.823499 0.563715 0.125274
O O11 0.567367 0.506475 0.120694
O O12 0.000000 0.500000 0.000000
O O13 0.856301 0.590008 0.719147
O O14 0.892678 0.259186 0.024942
O O15 0.188380 0.857126 0.995899
O O16 0.500000 0.000000 0.500000
#
# Coordination Sequence:
#
# PCOD9040164 Si02
#       8
#     2   2   2   2   2   1   2   2
#     4  11  25  44  74 104 141 187 234 283 360 428
#     4  10  25  48  74 100 150 182 237 292 359 420
#     4  10  24  49  71 106 139 194 232 299 351 419
#     4  10  23  43  64 102 143 183 226 284 357 413
#     4  11  24  46  70 100 147 177 236 296 344 418
#     4  12  24  42  72 102 142 174 252 276 348 422
#     4  11  24  43  71 109 134 182 239 284 354 421
#     4  11  27  42  69 106 138 187 229 291 354 415
#
# _framework density 23.288967
#
# number of rings (size 3 to 8) (size 9 to 14) (size 15 to 20)
#    0.000    1.333    2.667    0.800    5.600    7.467 
#    0.000    2.667    0.000    0.000    0.000    0.000 
#    0.000    0.000    0.000    0.000    0.000    0.000 
#
# Total GULP energy -83685.272268 kJ/mol
# GULP energy per Si atom -5579.018151 kJ/mol
# Density = 2.323596 g / cm^3
# Si number density = 23.288967 Si / 1000 Ang^3
#
#
#
# Elastic Constant Matrix: (Units=GPa)
#
#
# Indices 1 2 3 4 5 6 
#
# 1 101.3383 33.4355 33.6972 -9.5303 14.1069 -17.8474
# 2 33.4355 136.2457 18.8343 -6.7343 6.2208 -21.6749
# 3 33.6972 18.8343 63.2039 -18.8731 15.4979 -27.6560
# 4 -9.5303 -6.7343 -18.8731 25.6678 -9.8362 3.4268
# 5 14.1069 6.2208 15.4979 -9.8362 49.9920 -2.5810
# 6 -17.8474 -21.6749 -27.6560 3.4268 -2.5810 35.9508
#
#
#
# Elastic Compliance Matrix: (Units=1/GPa)
#
#
# Indices 1 2 3 4 5 6 
#
# 1 0.012758 -0.002214 -0.005718 -0.000763 -0.001674 0.000553
# 2 -0.002214 0.008575 0.001341 0.001649 -0.000279 0.004926
# 3 -0.005718 0.001341 0.035527 0.019529 -0.004531 0.023113
# 4 -0.000763 0.001649 0.019529 0.053987 0.005139 0.010862
# 5 -0.001674 -0.000279 -0.004531 0.005139 0.022754 -0.003341
# 6 0.000553 0.004926 0.023113 0.010862 -0.003341 0.047565
#
#
# Mechanical properties :
#
#
# Convention : Reuss Voigt Hill
#
# Bulk Modulus (GPa) = 22.89417 52.52465 37.70941
# Shear Modulus (GPa) = 23.93406 36.64351 30.28879
#
# Velocity S-wave (km/s) = 3.20925 3.97095 3.61025
# Velocity P-wave (km/s) = 4.85636 6.60507 5.79703
#
# Compressibility (1/GPa) = 0.04367925
#
# Stress axis : x y z
#
# Youngs Moduli (GPa) = 78.38030 116.61191 28.14783
#
# Poissons Ratio (x) = 0.25816 0.16095
# Poissons Ratio (y) = 0.17352 -0.03775
# Poissons Ratio (z) = 0.44817 -0.15640
#
# Static dielectric constant tensor:
#      x y z
#    x 1.953930 0.072290 -0.090530 
#    y 0.072290 1.913840 -0.087180 
#    z -0.090530 -0.087180 2.014010 
# 
# From -- ./inp_files/94577.got.cif
#   From: 2010.05.17/outbox.cif.g08.bks.cpg/sg2_48_cif.got.tgz:94577.got - 2010.06.03 11:33:40.
