data_PCOD9040883
_publ_section_title
;
Structure prediction by ZEFSAII (Michael W. Deem and Ramdas Pophale) SiO2 
 PCOD9040883
Probable space group: P -1
;
_chemical_formula_sum "Si O2"
_cell_formula_units_Z 12
_cell_length_a 5.443542
_cell_length_b 7.889452
_cell_length_c 15.027269
_cell_angle_alpha 78.992667
_cell_angle_beta 76.887727
_cell_angle_gamma 117.987376
_cell_volume 520.795148
_symmetry_space_group_name_H-M "P -1"
_symmetry_group_IT_number 2
_symmetry_cell_setting 'triclinic'
loop_
_space_group_symop_operation_xyz
x,y,z
-x,-y,-z
loop_
_atom_site_type_symbol
_atom_site_label
_atom_site_fract_x
_atom_site_fract_y
_atom_site_fract_z
Si Si1 0.853031 0.607375 0.448118
Si Si2 0.285968 0.256140 0.267265
Si Si3 0.741993 0.984776 0.235492
Si Si4 0.181087 0.600722 0.251170
Si Si5 0.362210 0.003252 0.418427
Si Si6 0.871935 0.420775 0.115161
O O1 0.500000 0.500000 0.500000
O O2 0.000000 0.500000 0.500000
O O3 0.965078 0.621995 0.335596
O O4 0.013758 0.832560 0.455301
O O5 0.144570 0.383465 0.296152
O O6 0.552462 0.389941 0.163596
O O7 0.054502 0.053186 0.250437
O O8 0.409851 0.205421 0.348801
O O9 0.814058 0.194273 0.160470
O O10 0.528251 0.783530 0.215941
O O11 0.528143 0.940908 0.341054
O O12 0.081514 0.575115 0.159765
O O13 0.500000 0.000000 0.500000
O O14 0.000000 0.500000 0.000000
#
# Coordination Sequence:
#
# PCOD9040883 Si02
#       6
#     2   2   2   2   2   2
#     4  11  28  44  68 102 140 187 239 283 350 417
#     4  10  23  43  69  91 139 178 230 287 345 411
#     4   9  22  43  62  97 132 176 228 279 349 414
#     4  10  24  44  68  98 137 178 232 284 345 412
#     4  10  24  42  63  95 138 182 233 285 346 411
#     4  10  23  43  69  99 134 174 225 291 355 415
#
# _framework density 23.041687
#
# number of rings (size 3 to 8) (size 9 to 14) (size 15 to 20)
#    0.000    2.000    0.000    0.000   14.000    6.667 
#    0.000    3.333    0.000    0.000    0.000    0.000 
#    0.000    0.000    0.000    0.000    0.000    0.000 
#
# Total GULP energy -67081.564095 kJ/mol
# GULP energy per Si atom -5590.130341 kJ/mol
# Density = 2.298924 g / cm^3
# Si number density = 23.041687 Si / 1000 Ang^3
#
#
#
# Elastic Constant Matrix: (Units=GPa)
#
#
# Indices 1 2 3 4 5 6 
#
# 1 112.9184 46.5814 53.1682 8.9317 -6.5388 32.2407
# 2 46.5814 139.6382 57.5017 8.9832 1.7188 43.3070
# 3 53.1682 57.5017 173.4106 19.3081 -0.7290 21.4535
# 4 8.9317 8.9832 19.3081 30.3947 4.9007 0.0023
# 5 -6.5388 1.7188 -0.7290 4.9007 25.1251 1.5312
# 6 32.2407 43.3070 21.4535 0.0023 1.5312 47.8985
#
#
#
# Elastic Compliance Matrix: (Units=1/GPa)
#
#
# Indices 1 2 3 4 5 6 
#
# 1 0.012809 -0.001082 -0.002436 -0.002581 0.004248 -0.006688
# 2 -0.001082 0.011092 -0.002144 -0.001550 -0.000292 -0.008331
# 3 -0.002436 -0.002144 0.007601 -0.003546 0.000415 0.000161
# 4 -0.002581 -0.001550 -0.003546 0.037712 -0.008329 0.004992
# 5 0.004248 -0.000292 0.000415 -0.008329 0.042816 -0.004149
# 6 -0.006688 -0.008331 0.000161 0.004992 -0.004149 0.032972
#
#
# Mechanical properties :
#
#
# Convention : Reuss Voigt Hill
#
# Bulk Modulus (GPa) = 49.55734 82.27445 65.91589
# Shear Modulus (GPa) = 30.66480 38.59806 34.63143
#
# Velocity S-wave (km/s) = 3.65203 4.09729 3.88105
# Velocity P-wave (km/s) = 6.27196 7.62679 6.98231
#
# Compressibility (1/GPa) = 0.02017865
#
# Stress axis : x y z
#
# Youngs Moduli (GPa) = 78.07016 90.15186 131.55731
#
# Poissons Ratio (x) = 0.09752 0.32045
# Poissons Ratio (y) = 0.08445 0.28211
# Poissons Ratio (z) = 0.19017 0.19332
#
# Static dielectric constant tensor:
#      x y z
#    x 1.946940 0.018930 0.004610 
#    y 0.018930 1.964390 -0.029090 
#    z 0.004610 -0.029090 1.809810 
# 
# From -- ./inp_files/136885.got.cif
#   From: 2010.05.17/outbox.cif.g08.bks.cpg/sg2_69_cif.got.tgz:136885.got - 2010.06.03 11:33:40.
