data_PCOD9040073
_publ_section_title
;
Structure prediction by ZEFSAII (Michael W. Deem and Ramdas Pophale) SiO2 
 PCOD9040073
Probable space group: P -1
;
_chemical_formula_sum "Si O2"
_cell_formula_units_Z 14
_cell_length_a 11.795454
_cell_length_b 12.460663
_cell_length_c 12.373642
_cell_angle_alpha 85.543628
_cell_angle_beta 128.583814
_cell_angle_gamma 50.323797
_cell_volume 669.507213
_symmetry_space_group_name_H-M "P -1"
_symmetry_group_IT_number 2
_symmetry_cell_setting 'triclinic'
loop_
_space_group_symop_operation_xyz
x,y,z
-x,-y,-z
loop_
_atom_site_type_symbol
_atom_site_label
_atom_site_fract_x
_atom_site_fract_y
_atom_site_fract_z
Si Si1 0.995928 0.300308 0.862174
Si Si2 0.357281 0.826401 0.480611
Si Si3 0.297476 0.300744 0.117087
Si Si4 0.597179 0.609939 0.013486
Si Si5 0.915729 0.165038 0.002115
Si Si6 0.726108 0.378103 0.292517
Si Si7 0.934298 0.900413 0.279010
O O1 0.685819 0.574047 0.649404
O O2 0.037552 0.209715 0.783577
O O3 0.278415 0.195035 0.063111
O O4 0.947049 0.244770 0.932851
O O5 0.422999 0.850830 0.626236
O O6 0.180961 0.832170 0.405612
O O7 0.152561 0.018872 0.254132
O O8 0.252945 0.421286 0.990810
O O9 0.000000 0.500000 0.000000
O O10 0.373269 0.668809 0.819255
O O11 0.790576 0.418261 0.230874
O O12 0.392051 0.829106 0.939039
O O13 0.575467 0.387465 0.835519
O O14 0.000000 0.000000 0.000000
O O15 0.995868 0.185833 0.552644
#
# Coordination Sequence:
#
# PCOD9040073 Si02
#       7
#     2   2   2   2   2   2   2
#     4  11  23  40  61  90 130 162 193 250 305 353
#     4  11  21  38  65  91 121 158 205 249 295 358
#     4  10  23  43  61  84 125 164 196 245 307 367
#     4  11  23  39  61  90 125 153 207 250 299 358
#     4  12  21  36  63  97 122 152 206 254 296 352
#     4  11  22  36  62  95 121 154 200 259 302 341
#     4  12  21  38  64  95 118 160 204 250 302 349
#
# _framework density 20.910903999999999
#
# number of rings (size 3 to 8) (size 9 to 14) (size 15 to 20)
#    0.000    0.857    5.714    2.571    0.000    1.143 
#    0.000    3.571    0.000    0.000    0.000    0.000 
#    0.000    0.000    0.000    0.000    0.000    0.000 
#
# Total GULP energy -78298.326059 kJ/mol
# GULP energy per Si atom -5592.737576 kJ/mol
# Density = 2.086331 g / cm^3
# Si number density = 20.910904 Si / 1000 Ang^3
#
#
#
# Elastic Constant Matrix: (Units=GPa)
#
#
# Indices 1 2 3 4 5 6 
#
# 1 95.3689 2.0649 14.8854 13.7695 -23.5634 7.0449
# 2 2.0649 58.6019 6.6501 7.9702 8.8316 -7.5836
# 3 14.8854 6.6501 53.6345 17.9371 -20.2324 12.3958
# 4 13.7695 7.9702 17.9371 37.5389 0.3855 -2.4352
# 5 -23.5634 8.8316 -20.2324 0.3855 35.0583 2.4698
# 6 7.0449 -7.5836 12.3958 -2.4352 2.4698 22.1798
#
#
#
# Elastic Compliance Matrix: (Units=1/GPa)
#
#
# Indices 1 2 3 4 5 6 
#
# 1 0.017170 -0.005981 0.012562 -0.012441 0.021723 -0.018304
# 2 -0.005981 0.024621 -0.017414 0.007023 -0.021989 0.023270
# 3 0.012562 -0.017414 0.060487 -0.033799 0.051859 -0.053235
# 4 -0.012441 0.007023 -0.033799 0.048413 -0.032577 0.034185
# 5 0.021723 -0.021989 0.051859 -0.032577 0.082910 -0.056210
# 6 -0.018304 0.023270 -0.053235 0.034185 -0.056210 0.098620
#
#
# Mechanical properties :
#
#
# Convention : Reuss Voigt Hill
#
# Bulk Modulus (GPa) = 12.40523 28.31177 20.35850
# Shear Modulus (GPa) = 13.13166 31.22240 22.17703
#
# Velocity S-wave (km/s) = 2.50867 3.86828 3.26014
# Velocity P-wave (km/s) = 3.78637 5.78965 4.89166
#
# Compressibility (1/GPa) = 0.08061118
#
# Stress axis : x y z
#
# Youngs Moduli (GPa) = 58.24140 40.61532 16.53246
#
# Poissons Ratio (x) = 0.24291 -0.20767
# Poissons Ratio (y) = 0.34833 0.28790
# Poissons Ratio (z) = -0.73160 0.70729
#
# Static dielectric constant tensor:
#      x y z
#    x 1.750880 -0.016550 0.014840 
#    y -0.016550 1.768460 0.007520 
#    z 0.014840 0.007520 1.748780 
# 
# From -- ./inp_files/424542.got.cif
#   From: 2010.05.17/outbox.cif.g08.bks.cpg/sg2_213_cif.got.tgz:424542.got - 2010.06.03 11:33:40.
