data_PCOD9040906
_publ_section_title
;
Structure prediction by ZEFSAII (Michael W. Deem and Ramdas Pophale) SiO2 
 PCOD9040906
Probable space group: P -1
;
_chemical_formula_sum "Si O2"
_cell_formula_units_Z 12
_cell_length_a 10.970790
_cell_length_b 5.637578
_cell_length_c 9.438981
_cell_angle_alpha 103.435454
_cell_angle_beta 113.783988
_cell_angle_gamma 67.464734
_cell_volume 491.324462
_symmetry_space_group_name_H-M "P -1"
_symmetry_group_IT_number 2
_symmetry_cell_setting 'triclinic'
loop_
_space_group_symop_operation_xyz
x,y,z
-x,-y,-z
loop_
_atom_site_type_symbol
_atom_site_label
_atom_site_fract_x
_atom_site_fract_y
_atom_site_fract_z
Si Si1 0.364772 0.532101 0.216649
Si Si2 0.267554 0.778296 0.930002
Si Si3 0.177358 0.028352 0.370259
Si Si4 0.096384 0.660499 0.620829
Si Si5 0.332832 0.825329 0.659020
Si Si6 0.134305 0.279403 0.090610
O O1 0.513879 0.367791 0.326311
O O2 0.273018 0.346703 0.124806
O O3 0.270544 0.764921 0.302183
O O4 0.379507 0.649347 0.085599
O O5 0.189057 0.590360 0.798388
O O6 0.323967 0.883895 0.831223
O O7 0.150640 0.007374 0.987566
O O8 0.142771 0.238533 0.257773
O O9 0.021389 0.063067 0.360633
O O10 0.275786 0.055009 0.551744
O O11 0.213393 0.685953 0.570531
O O12 0.000000 0.500000 0.500000
O O13 0.000000 0.500000 0.000000
#
# Coordination Sequence:
#
# PCOD9040906 Si02
#       6
#     2   2   2   2   2   2
#     4  11  23  45  69  99 138 176 216 278 336 393
#     4   9  23  44  68  98 132 169 230 270 327 401
#     4  11  24  43  67  99 135 172 228 273 327 403
#     4  10  23  43  69  96 132 178 222 276 333 388
#     4  10  24  44  68  96 141 171 223 281 327 394
#     4  11  24  41  70 100 135 179 221 270 339 398
#
# _framework density 24.423780000000001
#
# number of rings (size 3 to 8) (size 9 to 14) (size 15 to 20)
#    1.000    0.667    0.000    3.500    2.333    6.667 
#    6.000    0.000    0.000    0.000    0.000    0.000 
#    0.000    0.000    0.000    0.000    0.000    0.000 
#
# Total GULP energy -66961.650809 kJ/mol
# GULP energy per Si atom -5580.137567 kJ/mol
# Density = 2.436819 g / cm^3
# Si number density = 24.423780 Si / 1000 Ang^3
#
#
#
# Elastic Constant Matrix: (Units=GPa)
#
#
# Indices 1 2 3 4 5 6 
#
# 1 94.5560 32.6923 29.9160 -11.6738 5.5725 -30.0473
# 2 32.6923 56.7710 40.4513 -23.8632 9.5816 -17.8212
# 3 29.9160 40.4513 145.6899 -32.2900 -16.5403 -9.1431
# 4 -11.6738 -23.8632 -32.2900 49.4060 -7.9067 6.3996
# 5 5.5725 9.5816 -16.5403 -7.9067 38.4496 -9.6642
# 6 -30.0473 -17.8212 -9.1431 6.3996 -9.6642 33.2563
#
#
#
# Elastic Compliance Matrix: (Units=1/GPa)
#
#
# Indices 1 2 3 4 5 6 
#
# 1 0.016532 -0.005438 -0.001144 -0.000836 0.001379 0.012270
# 2 -0.005438 0.031877 -0.006221 0.008111 -0.006394 0.007040
# 3 -0.001144 -0.006221 0.010732 0.004937 0.007285 -0.000249
# 4 -0.000836 0.008111 0.004937 0.028020 0.006337 0.001398
# 5 0.001379 -0.006394 0.007285 0.006337 0.033969 0.008474
# 6 0.012270 0.007040 -0.000249 0.001398 0.008474 0.047053
#
#
# Mechanical properties :
#
#
# Convention : Reuss Voigt Hill
#
# Bulk Modulus (GPa) = 29.81825 55.90401 42.86113
# Shear Modulus (GPa) = 24.39424 37.15287 30.77356
#
# Velocity S-wave (km/s) = 3.16379 3.90446 3.55348
# Velocity P-wave (km/s) = 5.05780 6.57763 5.86714
#
# Compressibility (1/GPa) = 0.03353651
#
# Stress axis : x y z
#
# Youngs Moduli (GPa) = 60.48739 31.37063 93.18309
#
# Poissons Ratio (x) = 0.17059 0.10656
# Poissons Ratio (y) = 0.32893 0.57965
# Poissons Ratio (z) = 0.06917 0.19514
#
# Static dielectric constant tensor:
#      x y z
#    x 1.937100 0.034280 -0.078700 
#    y 0.034280 1.983020 -0.011120 
#    z -0.078700 -0.011120 2.036100 
# 
# From -- ./inp_files/72500.got.cif
#   From: 2010.05.17/outbox.cif.g08.bks.cpg/sg2_37_cif.got.tgz:72500.got - 2010.06.03 11:33:40.
