data_PCOD9040942
_publ_section_title
;
Structure prediction by ZEFSAII (Michael W. Deem and Ramdas Pophale) SiO2 
 PCOD9040942
Probable space group: P -1
;
_chemical_formula_sum "Si O2"
_cell_formula_units_Z 16
_cell_length_a 22.238649
_cell_length_b 5.606554
_cell_length_c 13.458062
_cell_angle_alpha 82.535879
_cell_angle_beta 149.459074
_cell_angle_gamma 113.755940
_cell_volume 690.231073
_symmetry_space_group_name_H-M "P -1"
_symmetry_group_IT_number 2
_symmetry_cell_setting 'triclinic'
loop_
_space_group_symop_operation_xyz
x,y,z
-x,-y,-z
loop_
_atom_site_type_symbol
_atom_site_label
_atom_site_fract_x
_atom_site_fract_y
_atom_site_fract_z
Si Si1 0.729881 0.463706 0.536837
Si Si2 0.585140 0.779272 0.676743
Si Si3 0.806881 0.699356 0.051140
Si Si4 0.881391 0.707110 0.531476
Si Si5 0.357110 0.177181 0.836851
Si Si6 0.417082 0.174832 0.714980
Si Si7 0.726271 0.340955 0.142175
Si Si8 0.718554 0.358225 0.735666
O O1 0.835152 0.576810 0.584496
O O2 0.648121 0.632001 0.406786
O O3 0.801062 0.524744 0.744042
O O4 0.637496 0.104896 0.418242
O O5 0.500000 0.500000 0.500000
O O6 0.451627 0.780899 0.524634
O O7 0.701990 0.066108 0.764312
O O8 0.674471 0.725786 0.882560
O O9 0.799330 0.479571 0.133624
O O10 0.778164 0.565141 0.906536
O O11 0.953490 0.018934 0.250184
O O12 0.783345 0.826368 0.366650
O O13 0.838031 0.497286 0.384777
O O14 0.360813 0.020467 0.751278
O O15 0.351080 0.005546 0.933492
O O16 0.500000 0.500000 0.000000
O O17 0.590838 0.365050 0.957997
#
# Coordination Sequence:
#
# PCOD9040942 Si02
#       8
#     2   2   2   2   2   2   2   2
#     4  11  25  42  74 102 136 180 234 294 348 402
#     4   9  21  43  65  95 134 168 227 287 339 415
#     4  11  26  42  65  97 138 184 223 279 348 418
#     4  11  25  44  62  96 140 182 230 277 344 415
#     4  11  22  43  66  98 139 174 237 288 338 406
#     4  11  23  40  70 107 135 175 230 296 351 397
#     4  12  23  40  67  96 139 181 229 279 346 414
#     4  10  23  43  69  99 129 174 233 287 345 407
#
# _framework density 23.180644999999998
#
# number of rings (size 3 to 8) (size 9 to 14) (size 15 to 20)
#    0.000    1.250    2.500    3.000    8.750    3.000 
#    0.000    0.625    0.000    0.000    0.000    0.000 
#    0.000    0.000    0.000    0.000    0.000    0.000 
#
# Total GULP energy -89254.410229 kJ/mol
# GULP energy per Si atom -5578.400639 kJ/mol
# Density = 2.312788 g / cm^3
# Si number density = 23.180645 Si / 1000 Ang^3
#
#
#
# Elastic Constant Matrix: (Units=GPa)
#
#
# Indices 1 2 3 4 5 6 
#
# 1 74.4356 32.1331 36.3098 2.2881 -33.0371 22.6324
# 2 32.1331 115.7368 41.8714 8.3405 -20.2924 25.8060
# 3 36.3098 41.8714 103.1676 16.7626 -7.2209 15.2753
# 4 2.2881 8.3405 16.7626 25.3172 3.7496 -10.2515
# 5 -33.0371 -20.2924 -7.2209 3.7496 29.4889 -10.3264
# 6 22.6324 25.8060 15.2753 -10.2515 -10.3264 39.8119
#
#
#
# Elastic Compliance Matrix: (Units=1/GPa)
#
#
# Indices 1 2 3 4 5 6 
#
# 1 0.037578 0.002842 -0.008241 -0.009677 0.038911 -0.012442
# 2 0.002842 0.013012 -0.003260 -0.007091 0.009372 -0.008194
# 3 -0.008241 -0.003260 0.015214 -0.008405 -0.007813 -0.003230
# 4 -0.009677 -0.007091 -0.008405 0.060729 -0.016894 0.024578
# 5 0.038911 0.009372 -0.007813 -0.016894 0.081218 -0.008481
# 6 -0.012442 -0.008194 -0.003230 0.024578 -0.008481 0.042871
#
#
# Mechanical properties :
#
#
# Convention : Reuss Voigt Hill
#
# Bulk Modulus (GPa) = 20.62468 57.10763 38.86615
# Shear Modulus (GPa) = 17.59944 31.12534 24.36239
#
# Velocity S-wave (km/s) = 2.75840 3.66830 3.24540
# Velocity P-wave (km/s) = 4.36597 6.52927 5.55396
#
# Compressibility (1/GPa) = 0.04848561
#
# Stress axis : x y z
#
# Youngs Moduli (GPa) = 26.61150 76.85268 65.73104
#
# Poissons Ratio (x) = -0.21843 0.54170
# Poissons Ratio (y) = -0.07564 0.21427
# Poissons Ratio (z) = 0.21931 0.25053
#
# Static dielectric constant tensor:
#      x y z
#    x 1.972740 0.038160 -0.039150 
#    y 0.038160 1.985420 0.034340 
#    z -0.039150 0.034340 1.903660 
# 
# From -- ./inp_files/543575.got.cif
#   From: 2010.05.17/outbox.cif.g08.bks.cpg/sg2_272_cif.got.tgz:543575.got - 2010.06.03 11:33:40.
