data_PCOD9040424
_publ_section_title
;
Structure prediction by ZEFSAII (Michael W. Deem and Ramdas Pophale) SiO2 
 PCOD9040424
Probable space group: P -1
;
_chemical_formula_sum "Si O2"
_cell_formula_units_Z 16
_cell_length_a 10.936648
_cell_length_b 9.972786
_cell_length_c 9.183029
_cell_angle_alpha 118.809653
_cell_angle_beta 135.748619
_cell_angle_gamma 63.655588
_cell_volume 604.391438
_symmetry_space_group_name_H-M "P -1"
_symmetry_group_IT_number 2
_symmetry_cell_setting 'triclinic'
loop_
_space_group_symop_operation_xyz
x,y,z
-x,-y,-z
loop_
_atom_site_type_symbol
_atom_site_label
_atom_site_fract_x
_atom_site_fract_y
_atom_site_fract_z
Si Si1 0.466456 0.945840 0.715856
Si Si2 0.329463 0.356799 0.289435
Si Si3 0.540268 0.445157 0.256265
Si Si4 0.202909 0.059725 0.789684
Si Si5 0.386901 0.264113 0.677837
Si Si6 0.955340 0.711891 0.813007
Si Si7 0.166636 0.774201 0.779135
Si Si8 0.097117 0.363257 0.706072
O O1 0.505538 0.776391 0.590765
O O2 0.282728 0.983713 0.665345
O O3 0.483920 0.090958 0.703506
O O4 0.621671 0.929611 0.960276
O O5 0.379151 0.403228 0.193717
O O6 0.332164 0.503306 0.476748
O O7 0.152192 0.280509 0.122713
O O8 0.507036 0.603288 0.218063
O O9 0.644626 0.306747 0.172122
O O10 0.113837 0.937975 0.740835
O O11 0.091300 0.223326 0.738419
O O12 0.220428 0.253848 0.422809
O O13 0.288595 0.329854 0.776174
O O14 0.105145 0.795545 0.906758
O O15 0.051482 0.535813 0.809441
O O16 0.044887 0.655622 0.550928
#
# Coordination Sequence:
#
# PCOD9040424 Si02
#       8
#     2   2   2   2   2   2   2   2
#     4  10  21  38  52  76 116 146 181 213 267 326
#     4  10  20  34  54  82 114 140 170 226 274 316
#     4  10  18  32  57  85 110 132 181 225 267 315
#     4  10  22  35  55  79 106 152 183 216 259 321
#     4   9  17  33  56  79 108 141 176 222 264 319
#     4  10  19  33  58  85 109 135 173 229 279 310
#     4  11  17  35  57  85 107 133 187 223 264 317
#     4  10  17  33  56  82 109 135 181 226 268 311
#
# _framework density 26.472905999999998
#
# number of rings (size 3 to 8) (size 9 to 14) (size 15 to 20)
#    0.000    2.000    5.000    1.125    0.000    2.000 
#    0.000    4.375    0.000    0.000    0.000    0.000 
#    0.000    0.000    0.000    0.000    0.000    0.000 
#
# Total GULP energy -89362.219218 kJ/mol
# GULP energy per Si atom -5585.138701 kJ/mol
# Density = 2.641265 g / cm^3
# Si number density = 26.472906 Si / 1000 Ang^3
#
#
#
# Elastic Constant Matrix: (Units=GPa)
#
#
# Indices 1 2 3 4 5 6 
#
# 1 185.7290 32.5847 4.9465 4.4766 -8.3508 33.4229
# 2 32.5847 129.8436 -12.5245 -11.4830 -3.4057 28.5820
# 3 4.9465 -12.5245 53.6601 -11.6095 3.9823 -8.9229
# 4 4.4766 -11.4830 -11.6095 27.5226 -2.1319 3.3779
# 5 -8.3508 -3.4057 3.9823 -2.1319 29.0366 3.4132
# 6 33.4229 28.5820 -8.9229 3.3779 3.4132 53.3512
#
#
#
# Elastic Compliance Matrix: (Units=1/GPa)
#
#
# Indices 1 2 3 4 5 6 
#
# 1 0.006465 -0.001054 -0.002024 -0.001689 0.002344 -0.003867
# 2 -0.001054 0.009840 0.002851 0.006159 0.001455 -0.004618
# 3 -0.002024 0.002851 0.022456 0.010394 -0.002920 0.003026
# 4 -0.001689 0.006159 0.010394 0.044177 0.002461 -0.003458
# 5 0.002344 0.001455 -0.002920 0.002461 0.036480 -0.005226
# 6 -0.003867 -0.004618 0.003026 -0.003458 -0.005226 0.024699
#
#
# Mechanical properties :
#
#
# Convention : Reuss Voigt Hill
#
# Bulk Modulus (GPa) = 26.10596 46.58289 36.34443
# Shear Modulus (GPa) = 31.77775 44.93048 38.35411
#
# Velocity S-wave (km/s) = 3.46842 4.12421 3.81045
# Velocity P-wave (km/s) = 5.09143 6.34929 5.75483
#
# Compressibility (1/GPa) = 0.03830543
#
# Stress axis : x y z
#
# Youngs Moduli (GPa) = 154.67757 101.62125 44.53087
#
# Poissons Ratio (x) = 0.10715 0.09015
# Poissons Ratio (y) = 0.16310 -0.12695
# Poissons Ratio (z) = 0.31314 -0.28969
#
# Static dielectric constant tensor:
#      x y z
#    x 2.170420 -0.005730 -0.018260 
#    y -0.005730 2.032840 0.041150 
#    z -0.018260 0.041150 2.183940 
# 
# From -- ./inp_files/254284.got.cif
#   From: 2010.05.17/outbox.cif.g08.bks.cpg/sg2_128_cif.got.tgz:254284.got - 2010.06.03 11:33:40.
