data_PCOD9040755
_publ_section_title
;
Structure prediction by ZEFSAII (Michael W. Deem and Ramdas Pophale) SiO2 
 PCOD9040755
Probable space group: P -1
;
_chemical_formula_sum "Si O2"
_cell_formula_units_Z 16
_cell_length_a 9.158733
_cell_length_b 10.898059
_cell_length_c 11.535951
_cell_angle_alpha 62.240543
_cell_angle_beta 51.927708
_cell_angle_gamma 86.039805
_cell_volume 761.778978
_symmetry_space_group_name_H-M "P -1"
_symmetry_group_IT_number 2
_symmetry_cell_setting 'triclinic'
loop_
_space_group_symop_operation_xyz
x,y,z
-x,-y,-z
loop_
_atom_site_type_symbol
_atom_site_label
_atom_site_fract_x
_atom_site_fract_y
_atom_site_fract_z
Si Si1 0.003441 0.304101 0.842815
Si Si2 0.982401 0.837331 0.610483
Si Si3 0.289651 0.968546 0.017310
Si Si4 0.860392 0.770768 0.941993
Si Si5 0.664114 0.188885 0.701358
Si Si6 0.813178 0.468395 0.018098
Si Si7 0.413765 0.378642 0.194926
Si Si8 0.205833 0.489003 0.454947
O O1 0.865631 0.150338 0.930198
O O2 0.156614 0.378533 0.635687
O O3 0.902215 0.428574 0.872163
O O4 0.078257 0.262040 0.946129
O O5 0.015477 0.821032 0.738639
O O6 0.760686 0.746830 0.724652
O O7 0.143144 0.797401 0.472658
O O8 0.000000 0.000000 0.500000
O O9 0.325325 0.867840 0.147912
O O10 0.227771 0.097268 0.054858
O O11 0.473888 0.060461 0.809375
O O12 0.747171 0.610294 0.017671
O O13 0.657099 0.352344 0.641258
O O14 0.601850 0.343571 0.174019
O O15 0.000000 0.500000 0.000000
O O16 0.308345 0.433652 0.325688
O O17 0.500000 0.500000 0.000000
O O18 0.000000 0.500000 0.500000
#
# Coordination Sequence:
#
# PCOD9040755 Si02
#       8
#     2   2   2   2   2   2   2   2
#     4  11  24  44  71  93 136 186 224 279 344 412
#     4  12  24  40  65  98 134 166 227 281 327 400
#     4  11  23  41  67  97 135 178 224 276 352 406
#     4  11  23  44  67  96 137 179 221 279 347 406
#     4  11  24  40  67 101 134 170 223 293 337 395
#     4  10  23  43  68  98 134 181 224 277 341 407
#     4  12  24  40  73  98 129 180 230 280 337 402
#     4  12  22  42  68 103 135 169 239 287 331 406
#
# _framework density 21.003468000000002
#
# number of rings (size 3 to 8) (size 9 to 14) (size 15 to 20)
#    0.000    0.750    5.000    2.625    1.750    0.000 
#    0.000    8.750    0.000    0.000    0.000    0.000 
#    0.000    0.000    0.000    0.000    0.000    0.000 
#
# Total GULP energy -89100.287463 kJ/mol
# GULP energy per Si atom -5568.767966 kJ/mol
# Density = 2.095566 g / cm^3
# Si number density = 21.003468 Si / 1000 Ang^3
#
#
#
# Elastic Constant Matrix: (Units=GPa)
#
#
# Indices 1 2 3 4 5 6 
#
# 1 80.3955 30.2904 63.5500 -2.7867 5.4754 15.8997
# 2 30.2904 105.5506 40.5719 -12.5855 -5.0744 18.6269
# 3 63.5500 40.5719 154.2386 -9.9607 1.8126 19.8428
# 4 -2.7867 -12.5855 -9.9607 46.5860 0.8846 -4.0644
# 5 5.4754 -5.0744 1.8126 0.8846 30.4725 1.6868
# 6 15.8997 18.6269 19.8428 -4.0644 1.6868 19.6141
#
#
#
# Elastic Compliance Matrix: (Units=1/GPa)
#
#
# Indices 1 2 3 4 5 6 
#
# 1 0.020370 -0.002196 -0.006911 -0.001444 -0.003160 -0.007462
# 2 -0.002196 0.012488 -0.001153 0.002179 0.002962 -0.008716
# 3 -0.006911 -0.001153 0.010134 0.001136 0.000601 -0.003371
# 4 -0.001444 0.002179 0.001136 0.022444 -0.000242 0.002623
# 5 -0.003160 0.002962 0.000601 -0.000242 0.034061 -0.003839
# 6 -0.007462 -0.008716 -0.003371 0.002623 -0.003839 0.069595
#
#
# Mechanical properties :
#
#
# Convention : Reuss Voigt Hill
#
# Bulk Modulus (GPa) = 44.50029 67.66769 56.08399
# Shear Modulus (GPa) = 25.36731 33.05269 29.21000
#
# Velocity S-wave (km/s) = 3.47907 3.97126 3.73329
# Velocity P-wave (km/s) = 6.11323 7.30173 6.73375
#
# Compressibility (1/GPa) = 0.02247176
#
# Stress axis : x y z
#
# Youngs Moduli (GPa) = 49.09144 80.07771 98.67396
#
# Poissons Ratio (x) = 0.17587 0.68197
# Poissons Ratio (y) = 0.10782 0.11375
# Poissons Ratio (z) = 0.33929 0.09231
#
# Static dielectric constant tensor:
#      x y z
#    x 1.915760 -0.042770 -0.113100 
#    y -0.042770 1.803650 0.022510 
#    z -0.113100 0.022510 1.945130 
# 
# From -- ./inp_files/243532.got.cif
#   From: 2010.05.17/outbox.cif.g08.bks.cpg/sg2_122_cif.got.tgz:243532.got - 2010.06.03 11:33:40.
