data_PCOD9040050
_publ_section_title
;
Structure prediction by ZEFSAII (Michael W. Deem and Ramdas Pophale) SiO2 
 PCOD9040050
Probable space group: P -1
;
_chemical_formula_sum "Si O2"
_cell_formula_units_Z 15
_cell_length_a 7.786413
_cell_length_b 12.206244
_cell_length_c 11.491711
_cell_angle_alpha 131.780674
_cell_angle_beta 131.205606
_cell_angle_gamma 47.185550
_cell_volume 553.494637
_symmetry_space_group_name_H-M "P -1"
_symmetry_group_IT_number 2
_symmetry_cell_setting 'triclinic'
loop_
_space_group_symop_operation_xyz
x,y,z
-x,-y,-z
loop_
_atom_site_type_symbol
_atom_site_label
_atom_site_fract_x
_atom_site_fract_y
_atom_site_fract_z
Si Si1 0.524492 0.591500 0.192486
Si Si2 0.990935 0.164053 0.871267
Si Si3 0.915142 0.250979 0.532611
Si Si4 0.855443 0.776187 0.794211
Si Si5 0.245796 0.461566 0.159301
Si Si6 0.761571 0.199288 0.189310
Si Si7 0.000000 0.500000 0.500000
Si Si8 0.301257 0.009006 0.679755
O O1 0.410538 0.526370 0.199104
O O2 0.797428 0.558465 0.336637
O O3 0.308653 0.774518 0.217291
O O4 0.500000 0.500000 0.000000
O O5 0.118821 0.986836 0.856768
O O6 0.119434 0.138194 0.785036
O O7 0.068697 0.271510 0.071680
O O8 0.828382 0.421800 0.679402
O O9 0.860142 0.284277 0.394148
O O10 0.761880 0.147473 0.438176
O O11 0.198538 0.115497 0.592527
O O12 0.597988 0.941741 0.786595
O O13 0.103979 0.786087 0.857500
O O14 0.809671 0.652201 0.602150
O O15 0.463490 0.277417 0.130092
O O16 0.000000 0.500000 0.000000
#
# Coordination Sequence:
#
# PCOD9040050 Si02
#       8
#     2   2   2   2   2   2   1   2
#     4  12  25  51  73 110 145 197 246 300 366 438
#     4  11  24  48  74 102 146 190 245 301 356 443
#     4  10  23  46  68 101 143 186 244 296 354 450
#     4  12  25  43  73 106 148 184 243 303 365 437
#     4  12  26  47  71 104 151 189 241 300 372 440
#     4  11  26  46  68 107 143 189 236 306 368 426
#     4  12  26  44  76 108 150 190 242 298 370 438
#     4  10  23  42  76 103 135 192 245 296 360 430
#
# _framework density 27.100534
#
# number of rings (size 3 to 8) (size 9 to 14) (size 15 to 20)
#    0.000    0.800    4.000    2.000    5.600    3.733 
#    2.400    0.000    0.000    0.000    0.000    0.000 
#    0.000    0.000    0.000    0.000    0.000    0.000 
#
# Total GULP energy -83760.097617 kJ/mol
# GULP energy per Si atom -5584.006508 kJ/mol
# Density = 2.703885 g / cm^3
# Si number density = 27.100534 Si / 1000 Ang^3
#
#
#
# Elastic Constant Matrix: (Units=GPa)
#
#
# Indices 1 2 3 4 5 6 
#
# 1 92.3696 26.2392 29.3606 -15.9675 -0.9915 -37.7430
# 2 26.2392 184.6010 44.5877 -21.7224 3.4477 -57.9540
# 3 29.3606 44.5877 168.5531 -5.1635 -19.6932 -36.5640
# 4 -15.9675 -21.7224 -5.1635 62.4689 -5.0285 8.7943
# 5 -0.9915 3.4477 -19.6932 -5.0285 47.6375 -1.7227
# 6 -37.7430 -57.9540 -36.5640 8.7943 -1.7227 47.2910
#
#
#
# Elastic Compliance Matrix: (Units=1/GPa)
#
#
# Indices 1 2 3 4 5 6 
#
# 1 0.017684 0.003421 0.000119 0.003304 0.001163 0.017826
# 2 0.003421 0.009622 0.000003 0.002244 0.000123 0.014111
# 3 0.000119 0.000003 0.007635 0.000075 0.003387 0.006111
# 4 0.003304 0.002244 0.000075 0.017470 0.001863 0.002263
# 5 0.001163 0.000123 0.003387 0.001863 0.022755 0.004181
# 6 0.017826 0.014111 0.006111 0.002263 0.004181 0.057122
#
#
# Mechanical properties :
#
#
# Convention : Reuss Voigt Hill
#
# Bulk Modulus (GPa) = 23.79465 71.76651 47.78058
# Shear Modulus (GPa) = 35.91652 54.50191 45.20922
#
# Velocity S-wave (km/s) = 3.64443 4.48940 4.08880
# Velocity P-wave (km/s) = 5.14862 7.30835 6.32140
#
# Compressibility (1/GPa) = 0.04202626
#
# Stress axis : x y z
#
# Youngs Moduli (GPa) = 56.54890 103.92865 130.97334
#
# Poissons Ratio (x) = -0.35554 -0.01553
# Poissons Ratio (y) = -0.19345 -0.00040
# Poissons Ratio (z) = -0.00671 -0.00032
#
# Static dielectric constant tensor:
#      x y z
#    x 2.605880 -0.397140 0.451730 
#    y -0.397140 2.403860 -0.332320 
#    z 0.451730 -0.332320 2.576150 
# 
# From -- ./inp_files/399667.got.cif
#   From: 2010.05.17/outbox.cif.g08.bks.cpg/sg2_200_cif.got.tgz:399667.got - 2010.06.03 11:33:40.
