data_PCOD9040681
_publ_section_title
;
Structure prediction by ZEFSAII (Michael W. Deem and Ramdas Pophale) SiO2 
 PCOD9040681
Probable space group: P -1
;
_chemical_formula_sum "Si O2"
_cell_formula_units_Z 15
_cell_length_a 8.117817
_cell_length_b 9.340255
_cell_length_c 15.635415
_cell_angle_alpha 50.261370
_cell_angle_beta 49.350066
_cell_angle_gamma 44.455091
_cell_volume 595.081688
_symmetry_space_group_name_H-M "P -1"
_symmetry_group_IT_number 2
_symmetry_cell_setting 'triclinic'
loop_
_space_group_symop_operation_xyz
x,y,z
-x,-y,-z
loop_
_atom_site_type_symbol
_atom_site_label
_atom_site_fract_x
_atom_site_fract_y
_atom_site_fract_z
Si Si1 0.781363 0.556445 0.621884
Si Si2 0.660273 0.994626 0.563535
Si Si3 0.276713 0.075139 0.873510
Si Si4 0.050180 0.785537 0.651108
Si Si5 0.324937 0.493056 0.821545
Si Si6 0.500000 0.000000 0.000000
Si Si7 0.722604 0.307912 0.052271
Si Si8 0.237806 0.388218 0.639600
O O1 0.634019 0.812205 0.594057
O O2 0.583007 0.478624 0.704969
O O3 0.000000 0.500000 0.500000
O O4 0.954616 0.445494 0.689962
O O5 0.781290 0.903167 0.651353
O O6 0.862734 0.041275 0.431416
O O7 0.417522 0.229605 0.566683
O O8 0.332549 0.246804 0.746394
O O9 0.303729 0.904467 0.857176
O O10 0.445512 0.937419 0.947877
O O11 0.989362 0.214247 0.950431
O O12 0.101288 0.649203 0.772032
O O13 0.216678 0.613223 0.585196
O O14 0.268457 0.614243 0.885470
O O15 0.373451 0.254829 0.911761
O O16 0.500000 0.500000 0.000000
#
# Coordination Sequence:
#
# PCOD9040681 Si02
#       8
#     2   2   2   2   2   1   2   2
#     4  11  26  45  71 105 141 181 238 290 348 423
#     4  10  23  45  71 101 139 184 233 287 360 419
#     4  11  25  44  69 101 135 187 236 286 347 411
#     4  10  23  43  68 106 136 181 234 293 351 414
#     4  12  25  48  72 104 144 188 233 292 351 416
#     4  12  26  48  68 108 142 188 240 286 352 410
#     4  11  24  45  69  96 138 184 239 286 341 413
#     4  11  22  43  69  98 140 183 226 289 352 419
#
# _framework density 25.206624999999999
#
# number of rings (size 3 to 8) (size 9 to 14) (size 15 to 20)
#    0.000    1.067    2.667    2.800    1.867    8.000 
#    0.000    0.000    0.000    0.000    0.000    0.000 
#    0.000    0.000    0.000    0.000    0.000    0.000 
#
# Total GULP energy -83687.255495 kJ/mol
# GULP energy per Si atom -5579.150366 kJ/mol
# Density = 2.514925 g / cm^3
# Si number density = 25.206625 Si / 1000 Ang^3
#
#
#
# Elastic Constant Matrix: (Units=GPa)
#
#
# Indices 1 2 3 4 5 6 
#
# 1 79.3641 33.5272 27.9157 -16.0331 18.9766 -2.1237
# 2 33.5272 137.8742 40.1081 -11.2114 -1.5865 7.6703
# 3 27.9157 40.1081 88.6244 -18.7299 22.5337 -10.0555
# 4 -16.0331 -11.2114 -18.7299 44.0606 -3.2476 2.5020
# 5 18.9766 -1.5865 22.5337 -3.2476 55.6433 -5.4659
# 6 -2.1237 7.6703 -10.0555 2.5020 -5.4659 39.4288
#
#
#
# Elastic Compliance Matrix: (Units=1/GPa)
#
#
# Indices 1 2 3 4 5 6 
#
# 1 0.016548 -0.003288 -0.001600 0.004138 -0.004829 0.000191
# 2 -0.003288 0.009480 -0.004349 -0.000267 0.002871 -0.002716
# 3 -0.001600 -0.004349 0.016641 0.004746 -0.005656 0.003919
# 4 0.004138 -0.000267 0.004746 0.026038 -0.001863 -0.000425
# 5 -0.004829 0.002871 -0.005656 -0.001863 0.021971 0.000903
# 6 0.000191 -0.002716 0.003919 -0.000425 0.000903 0.027052
#
#
# Mechanical properties :
#
#
# Convention : Reuss Voigt Hill
#
# Bulk Modulus (GPa) = 41.33216 56.55162 48.94189
# Shear Modulus (GPa) = 34.65721 41.44733 38.05227
#
# Velocity S-wave (km/s) = 3.71202 4.05940 3.88959
# Velocity P-wave (km/s) = 5.89958 6.66750 6.29526
#
# Compressibility (1/GPa) = 0.02419424
#
# Stress axis : x y z
#
# Youngs Moduli (GPa) = 60.43105 105.48405 60.09077
#
# Poissons Ratio (x) = 0.34684 0.09617
# Poissons Ratio (y) = 0.19870 0.26134
# Poissons Ratio (z) = 0.09671 0.45876
#
# Static dielectric constant tensor:
#      x y z
#    x 1.990530 -0.012380 -0.009270 
#    y -0.012380 1.973500 0.061700 
#    z -0.009270 0.061700 2.023910 
# 
# From -- ./inp_files/491983.got.cif
#   From: 2010.05.17/outbox.cif.g08.bks.cpg/sg2_246_cif.got.tgz:491983.got - 2010.06.03 11:33:40.
