data_PCOD9040474
_publ_section_title
;
Structure prediction by ZEFSAII (Michael W. Deem and Ramdas Pophale) SiO2 
 PCOD9040474
Probable space group: P -1
;
_chemical_formula_sum "Si O2"
_cell_formula_units_Z 10
_cell_length_a 13.765468
_cell_length_b 11.300941
_cell_length_c 8.183134
_cell_angle_alpha 39.148701
_cell_angle_beta 51.874645
_cell_angle_gamma 34.223353
_cell_volume 450.987657
_symmetry_space_group_name_H-M "P -1"
_symmetry_group_IT_number 2
_symmetry_cell_setting 'triclinic'
loop_
_space_group_symop_operation_xyz
x,y,z
-x,-y,-z
loop_
_atom_site_type_symbol
_atom_site_label
_atom_site_fract_x
_atom_site_fract_y
_atom_site_fract_z
Si Si1 0.245990 0.962585 0.104110
Si Si2 0.124333 0.473059 0.523548
Si Si3 0.367465 0.528886 0.217486
Si Si4 0.039180 0.676330 0.735404
Si Si5 0.557921 0.722726 0.249593
O O1 0.242735 0.817889 0.117194
O O2 0.430677 0.753650 0.225097
O O3 0.099181 0.077468 0.268385
O O4 0.223113 0.196944 0.807337
O O5 0.257637 0.479555 0.300555
O O6 0.027554 0.692743 0.532763
O O7 0.000000 0.500000 0.500000
O O8 0.459588 0.330527 0.489267
O O9 0.500000 0.500000 0.000000
O O10 0.237946 0.509035 0.752380
O O11 0.000000 0.500000 0.000000
O O12 0.500000 0.000000 0.000000
#
# Coordination Sequence:
#
# PCOD9040474 Si02
#       5
#     2   2   2   2   2
#     4  11  23  44  71  99 137 180 235 294 338 410
#     4  10  23  43  67 101 142 182 230 279 356 416
#     4  11  26  44  67 108 140 181 232 288 357 410
#     4   9  19  38  68 100 126 174 236 276 336 405
#     4  11  20  43  72  99 134 181 234 281 343 416
#
# _framework density 22.173555
#
# number of rings (size 3 to 8) (size 9 to 14) (size 15 to 20)
#    0.000    1.600    6.000    0.600    0.000    9.600 
#    0.000    2.000    0.000    0.000    0.000    0.000 
#    0.000    0.000    0.000    0.000    0.000    0.000 
#
# Total GULP energy -55853.328632 kJ/mol
# GULP energy per Si atom -5585.332863 kJ/mol
# Density = 2.212309 g / cm^3
# Si number density = 22.173555 Si / 1000 Ang^3
#
#
#
# Elastic Constant Matrix: (Units=GPa)
#
#
# Indices 1 2 3 4 5 6 
#
# 1 160.8867 75.8570 38.5456 15.4393 -14.4034 -35.3910
# 2 75.8570 137.8948 54.1940 14.1068 -12.6649 -7.0408
# 3 38.5456 54.1940 117.9480 23.1115 -31.8133 -9.8075
# 4 15.4393 14.1068 23.1115 36.5630 -6.4599 -15.0518
# 5 -14.4034 -12.6649 -31.8133 -6.4599 33.8240 -3.3806
# 6 -35.3910 -7.0408 -9.8075 -15.0518 -3.3806 37.4374
#
#
#
# Elastic Compliance Matrix: (Units=1/GPa)
#
#
# Indices 1 2 3 4 5 6 
#
# 1 0.011520 -0.005837 0.000732 0.002531 0.005038 0.011457
# 2 -0.005837 0.011850 -0.004442 -0.002178 -0.003204 -0.005618
# 3 0.000732 -0.004442 0.014594 -0.004532 0.011802 0.002924
# 4 0.002531 -0.002178 -0.004532 0.037558 0.004805 0.016330
# 5 0.005038 -0.003204 0.011802 0.004805 0.043842 0.013143
# 6 0.011457 -0.005618 0.002924 0.016330 0.013143 0.045004
#
#
# Mechanical properties :
#
#
# Convention : Reuss Voigt Hill
#
# Bulk Modulus (GPa) = 52.98572 83.76921 68.37746
# Shear Modulus (GPa) = 26.35026 38.10707 32.22866
#
# Velocity S-wave (km/s) = 3.45101 4.15008 3.81658
# Velocity P-wave (km/s) = 6.31087 7.79904 7.09409
#
# Compressibility (1/GPa) = 0.01887301
#
# Stress axis : x y z
#
# Youngs Moduli (GPa) = 86.80235 84.38774 68.52025
#
# Poissons Ratio (x) = 0.49253 -0.05018
# Poissons Ratio (y) = 0.50662 0.30435
# Poissons Ratio (z) = -0.06357 0.37483
#
# Static dielectric constant tensor:
#      x y z
#    x 1.841830 0.012190 -0.021940 
#    y 0.012190 1.822750 0.003730 
#    z -0.021940 0.003730 1.852310 
# 
# From -- ./inp_files/232035.got.cif
#   From: 2010.05.17/outbox.cif.g08.bks.cpg/sg2_117_cif.got.tgz:232035.got - 2010.06.03 11:33:40.
