data_PCOD9040920
_publ_section_title
;
Structure prediction by ZEFSAII (Michael W. Deem and Ramdas Pophale) SiO2 
 PCOD9040920
Probable space group: P -1
;
_chemical_formula_sum "Si O2"
_cell_formula_units_Z 16
_cell_length_a 9.362313
_cell_length_b 5.597649
_cell_length_c 23.144733
_cell_angle_alpha 136.506749
_cell_angle_beta 52.638333
_cell_angle_gamma 111.171151
_cell_volume 656.572011
_symmetry_space_group_name_H-M "P -1"
_symmetry_group_IT_number 2
_symmetry_cell_setting 'triclinic'
loop_
_space_group_symop_operation_xyz
x,y,z
-x,-y,-z
loop_
_atom_site_type_symbol
_atom_site_label
_atom_site_fract_x
_atom_site_fract_y
_atom_site_fract_z
Si Si1 0.793230 0.421371 0.842267
Si Si2 0.880082 0.615455 0.976031
Si Si3 0.756315 0.384523 0.155709
Si Si4 0.199565 0.775001 0.411338
Si Si5 0.072667 0.347366 0.270754
Si Si6 0.483535 0.599214 0.679269
Si Si7 0.582211 0.583349 0.129266
Si Si8 0.654482 0.629868 0.447806
O O1 0.793837 0.647343 0.939462
O O2 0.905341 0.570290 0.788325
O O3 0.595051 0.424928 0.865773
O O4 0.864166 0.033913 0.783286
O O5 0.085902 0.434645 0.881950
O O6 0.751827 0.448865 0.022110
O O7 0.867020 0.003568 0.074474
O O8 0.643680 0.542686 0.265195
O O9 0.604199 0.346457 0.138946
O O10 0.192982 0.608841 0.320240
O O11 0.299152 0.448419 0.368137
O O12 0.312886 0.043537 0.462293
O O13 0.000000 0.000000 0.500000
O O14 0.860051 0.434730 0.354886
O O15 0.431991 0.401500 0.600148
O O16 0.425413 0.020895 0.773044
O O17 0.500000 0.500000 0.500000
#
# Coordination Sequence:
#
# PCOD9040920 Si02
#       8
#     2   2   2   2   2   2   2   2
#     4  12  26  45  76 104 149 193 247 297 360 448
#     4  10  24  42  67 106 140 194 239 299 354 432
#     4  10  23  43  69  97 148 185 241 298 367 425
#     4  10  23  47  70 102 143 187 239 306 368 438
#     4  11  27  49  73 109 147 196 242 305 376 430
#     4  11  23  43  68 105 136 188 242 298 369 429
#     4  11  24  41  70 101 145 187 239 300 352 440
#     4  11  27  44  75 106 139 188 245 311 366 448
#
# _framework density 24.368995999999999
#
# number of rings (size 3 to 8) (size 9 to 14) (size 15 to 20)
#    0.000    1.250    1.250    2.625    8.750    3.500 
#    0.000    4.375    0.000    0.000    0.000    0.000 
#    0.000    0.000    0.000    0.000    0.000    0.000 
#
# Total GULP energy -89068.926624 kJ/mol
# GULP energy per Si atom -5566.807914 kJ/mol
# Density = 2.431353 g / cm^3
# Si number density = 24.368996 Si / 1000 Ang^3
#
#
#
# Elastic Constant Matrix: (Units=GPa)
#
#
# Indices 1 2 3 4 5 6 
#
# 1 138.8061 36.5326 51.8760 -15.5653 23.7168 -6.4327
# 2 36.5326 79.5547 61.9120 -24.9853 -6.6435 -10.8649
# 3 51.8760 61.9120 140.5894 -24.5288 10.3656 -1.5288
# 4 -15.5653 -24.9853 -24.5288 44.9466 -3.5802 6.1079
# 5 23.7168 -6.6435 10.3656 -3.5802 53.5700 -3.5178
# 6 -6.4327 -10.8649 -1.5288 6.1079 -3.5178 21.3197
#
#
#
# Elastic Compliance Matrix: (Units=1/GPa)
#
#
# Indices 1 2 3 4 5 6 
#
# 1 0.009460 -0.003284 -0.001704 0.000140 -0.004235 0.000320
# 2 -0.003284 0.025639 -0.009264 0.007225 0.007605 0.010596
# 3 -0.001704 -0.009264 0.012232 0.001410 -0.003012 -0.005259
# 4 0.000140 0.007225 0.001410 0.027769 0.002170 -0.003772
# 5 -0.004235 0.007605 -0.003012 0.002170 0.022573 0.005485
# 6 0.000320 0.010596 -0.005259 -0.003772 0.005485 0.054010
#
#
# Mechanical properties :
#
#
# Convention : Reuss Voigt Hill
#
# Bulk Modulus (GPa) = 53.11574 73.28793 63.20184
# Shear Modulus (GPa) = 26.81521 37.87589 32.34555
#
# Velocity S-wave (km/s) = 3.32080 3.94669 3.64720
# Velocity P-wave (km/s) = 6.04544 7.13499 6.61269
#
# Compressibility (1/GPa) = 0.01882681
#
# Stress axis : x y z
#
# Youngs Moduli (GPa) = 105.71245 39.00368 81.75091
#
# Poissons Ratio (x) = 0.12808 0.13933
# Poissons Ratio (y) = 0.34714 0.75732
# Poissons Ratio (z) = 0.18017 0.36132
#
# Static dielectric constant tensor:
#      x y z
#    x 1.961230 -0.009770 -0.049730 
#    y -0.009770 2.092920 0.062190 
#    z -0.049730 0.062190 2.008620 
# 
# From -- ./inp_files/585913.got.cif
#   From: 2010.05.17/outbox.cif.g08.bks.cpg/sg2_293_cif.got.tgz:585913.got - 2010.06.03 11:33:40.
