data_PCOD9040101
_publ_section_title
;
Structure prediction by ZEFSAII (Michael W. Deem and Ramdas Pophale) SiO2 
 PCOD9040101
Probable space group: P -1
;
_chemical_formula_sum "Si O2"
_cell_formula_units_Z 16
_cell_length_a 24.825248
_cell_length_b 8.614442
_cell_length_c 9.130829
_cell_angle_alpha 31.266798
_cell_angle_beta 47.737545
_cell_angle_gamma 48.809037
_cell_volume 732.020721
_symmetry_space_group_name_H-M "P -1"
_symmetry_group_IT_number 2
_symmetry_cell_setting 'triclinic'
loop_
_space_group_symop_operation_xyz
x,y,z
-x,-y,-z
loop_
_atom_site_type_symbol
_atom_site_label
_atom_site_fract_x
_atom_site_fract_y
_atom_site_fract_z
Si Si1 0.051881 0.629696 0.590503
Si Si2 0.338753 0.270872 0.336874
Si Si3 0.556646 0.196107 0.685812
Si Si4 0.195177 0.637318 0.855548
Si Si5 0.054979 0.802352 0.768714
Si Si6 0.193180 0.291835 0.425392
Si Si7 0.657807 0.461277 0.512001
Si Si8 0.349827 0.904999 0.894734
O O1 0.076568 0.772341 0.580911
O O2 0.122150 0.426049 0.546288
O O3 0.006973 0.885163 0.357889
O O4 0.990326 0.450408 0.899991
O O5 0.265738 0.391998 0.275533
O O6 0.379269 0.559081 0.053682
O O7 0.393442 0.995965 0.376659
O O8 0.311316 0.112960 0.660266
O O9 0.500000 0.500000 0.500000
O O10 0.610384 0.286225 0.637667
O O11 0.500000 0.000000 0.000000
O O12 0.125945 0.756952 0.778751
O O13 0.268002 0.501311 0.737181
O O14 0.209759 0.926551 0.685860
O O15 0.179291 0.402018 0.195016
O O16 0.682164 0.231709 0.791194
O O17 0.612585 0.814951 0.342004
#
# Coordination Sequence:
#
# PCOD9040101 Si02
#       8
#     2   2   2   2   2   2   2   2
#     4  10  23  43  62  93 134 177 225 271 334 407
#     4  11  24  47  66 107 135 176 234 271 343 406
#     4  12  26  46  76 100 140 186 218 272 346 414
#     4  12  25  41  68  99 136 177 220 290 330 400
#     4  10  23  43  62  93 134 177 225 271 334 407
#     4  12  25  41  68  99 136 177 220 290 330 400
#     4  11  24  47  66 107 135 176 234 271 343 406
#     4  10  24  42  72  96 138 178 216 294 322 398
#
# _framework density 21.857303999999999
#
# number of rings (size 3 to 8) (size 9 to 14) (size 15 to 20)
#    0.000    1.000    1.250    4.500    5.250    3.000 
#    4.500   12.500    0.000    0.000    0.000    0.000 
#    0.000    0.000    0.000    0.000    0.000    0.000 
#
# Total GULP energy -89171.507963 kJ/mol
# GULP energy per Si atom -5573.219248 kJ/mol
# Density = 2.180756 g / cm^3
# Si number density = 21.857304 Si / 1000 Ang^3
#
#
#
# Elastic Constant Matrix: (Units=GPa)
#
#
# Indices 1 2 3 4 5 6 
#
# 1 -35.9057 120.9724 57.5117 21.7709 24.7449 -45.7220
# 2 120.9724 50.2866 35.8384 -19.0320 -8.6917 10.7970
# 3 57.5117 35.8384 135.1730 -22.5854 8.2059 -20.1105
# 4 21.7709 -19.0320 -22.5854 40.1959 3.4780 -3.5405
# 5 24.7449 -8.6917 8.2059 3.4780 33.9724 -6.2592
# 6 -45.7220 10.7970 -20.1105 -3.5405 -6.2592 38.2048
#
#
#
# Elastic Compliance Matrix: (Units=1/GPa)
#
#
# Indices 1 2 3 4 5 6 
#
# 1 -0.001369 0.006285 -0.001318 0.002490 0.002015 -0.003548
# 2 0.006285 0.005764 -0.004061 -0.002557 -0.001250 0.003314
# 3 -0.001318 -0.004061 0.010924 0.005609 -0.002285 0.005466
# 4 0.002490 -0.002557 0.005609 0.026636 -0.005020 0.008301
# 5 0.002015 -0.001250 -0.002285 -0.005020 0.029816 0.005982
# 6 -0.003548 0.003314 0.005466 0.008301 0.005982 0.025619
#
#
# Mechanical properties :
#
#
# Convention : Reuss Voigt Hill
#
# Bulk Modulus (GPa) = 58.36756 64.24430 61.30593
# Shear Modulus (GPa) = 49.36410 18.15673 33.76041
#
# Velocity S-wave (km/s) = 4.75749 2.88530 3.93438
# Velocity P-wave (km/s) = 7.54587 6.36839 6.98200
#
# Compressibility (1/GPa) = 0.01713281
#
# Stress axis : x y z
#
# Youngs Moduli (GPa) = -730.40251 173.47883 91.53851
#
# Poissons Ratio (x) = -1.09038 0.12065
# Poissons Ratio (y) = 4.59087 0.37172
# Poissons Ratio (z) = -0.96268 0.70446
#
# Static dielectric constant tensor:
#      x y z
#    x 1.894060 -0.028630 -0.064730 
#    y -0.028630 1.916800 0.002210 
#    z -0.064730 0.002210 1.716460 
# 
# From -- ./inp_files/351945.got.cif
#   From: 2010.05.17/outbox.cif.g08.bks.cpg/sg2_176_cif.got.tgz:351945.got - 2010.06.03 11:33:40.
