data_PCOD9040593
_publ_section_title
;
Structure prediction by ZEFSAII (Michael W. Deem and Ramdas Pophale) SiO2 
 PCOD9040593
Probable space group: P -1
;
_chemical_formula_sum "Si O2"
_cell_formula_units_Z 14
_cell_length_a 8.482053
_cell_length_b 5.872901
_cell_length_c 20.374323
_cell_angle_alpha 98.285438
_cell_angle_beta 135.896741
_cell_angle_gamma 104.462444
_cell_volume 600.034524
_symmetry_space_group_name_H-M "P -1"
_symmetry_group_IT_number 2
_symmetry_cell_setting 'triclinic'
loop_
_space_group_symop_operation_xyz
x,y,z
-x,-y,-z
loop_
_atom_site_type_symbol
_atom_site_label
_atom_site_fract_x
_atom_site_fract_y
_atom_site_fract_z
Si Si1 0.923849 0.191021 0.443615
Si Si2 0.945757 0.908857 0.203070
Si Si3 0.191422 0.386578 0.393840
Si Si4 0.689387 0.234279 0.771708
Si Si5 0.248634 0.957038 0.079040
Si Si6 0.231771 0.544307 0.788793
Si Si7 0.876606 0.231159 0.103245
O O1 0.000000 0.500000 0.500000
O O2 0.056874 0.237363 0.414385
O O3 0.611546 0.990403 0.336012
O O4 0.000000 0.000000 0.500000
O O5 0.152686 0.830372 0.237481
O O6 0.755017 0.709228 0.193180
O O7 0.103640 0.189981 0.297819
O O8 0.826854 0.948912 0.102874
O O9 0.500000 0.500000 0.500000
O O10 0.043453 0.549469 0.336339
O O11 0.769045 0.199732 0.867132
O O12 0.811518 0.550248 0.806522
O O13 0.523310 0.241228 0.171143
O O14 0.250264 0.805125 0.007010
O O15 0.000000 0.000000 0.000000
O O16 0.231717 0.675758 0.864800
#
# Coordination Sequence:
#
# PCOD9040593 Si02
#       7
#     2   2   2   2   2   2   2
#     4  12  30  48  77 111 148 191 245 310 378 440
#     4  10  23  44  70  97 140 185 239 294 361 445
#     4  11  25  45  70 101 138 187 237 301 371 435
#     4  11  24  46  69 104 145 185 243 304 361 441
#     4  12  23  43  68 100 142 188 240 299 368 428
#     4  10  24  44  67  98 139 185 239 294 362 445
#     4  10  23  43  67  98 137 189 233 292 360 434
#
# _framework density 23.331992
#
# number of rings (size 3 to 8) (size 9 to 14) (size 15 to 20)
#    0.000    1.143    2.857    1.714   10.000    2.286 
#    5.143    0.000    0.000    0.000    0.000    0.000 
#    0.000    0.000    0.000    0.000    0.000    0.000 
#
# Total GULP energy -78091.120415 kJ/mol
# GULP energy per Si atom -5577.937172 kJ/mol
# Density = 2.327889 g / cm^3
# Si number density = 23.331992 Si / 1000 Ang^3
#
#
#
# Elastic Constant Matrix: (Units=GPa)
#
#
# Indices 1 2 3 4 5 6 
#
# 1 79.6045 25.5366 25.6418 -9.8147 3.7888 27.4839
# 2 25.5366 138.1405 49.9273 -17.4454 8.4945 37.6934
# 3 25.6418 49.9273 103.1279 -10.3737 12.6493 9.5323
# 4 -9.8147 -17.4454 -10.3737 35.9043 15.7043 -0.5293
# 5 3.7888 8.4945 12.6493 15.7043 43.3789 2.6185
# 6 27.4839 37.6934 9.5323 -0.5293 2.6185 40.9699
#
#
#
# Elastic Compliance Matrix: (Units=1/GPa)
#
#
# Indices 1 2 3 4 5 6 
#
# 1 0.018517 0.002557 -0.003664 0.006109 -0.002435 -0.013687
# 2 0.002557 0.012797 -0.004655 0.006741 -0.003080 -0.012122
# 3 -0.003664 -0.004655 0.013163 0.002189 -0.003637 0.003938
# 4 0.006109 0.006741 0.002189 0.040563 -0.016620 -0.009223
# 5 -0.002435 -0.003080 -0.003637 -0.016620 0.030757 0.003133
# 6 -0.013687 -0.012122 0.003938 -0.009223 0.003133 0.043507
#
#
# Mechanical properties :
#
#
# Convention : Reuss Voigt Hill
#
# Bulk Modulus (GPa) = 30.34526 58.12049 44.23287
# Shear Modulus (GPa) = 27.50111 38.70176 33.10143
#
# Velocity S-wave (km/s) = 3.43693 4.07718 3.77067
# Velocity P-wave (km/s) = 5.36508 6.86505 6.16088
#
# Compressibility (1/GPa) = 0.03295407
#
# Stress axis : x y z
#
# Youngs Moduli (GPa) = 54.00587 78.14336 75.96784
#
# Poissons Ratio (x) = -0.19982 0.27832
# Poissons Ratio (y) = -0.13810 0.35362
# Poissons Ratio (z) = 0.19786 0.36375
#
# Static dielectric constant tensor:
#      x y z
#    x 1.911640 -0.132830 0.063090 
#    y -0.132830 2.123520 -0.032220 
#    z 0.063090 -0.032220 2.029040 
# 
# From -- ./inp_files/27538.got.cif
#   From: 2010.05.17/outbox.cif.g08.bks.cpg/sg2_14_cif.got.tgz:27538.got - 2010.06.03 11:33:40.
