data_PCOD9040057
_publ_section_title
;
Structure prediction by ZEFSAII (Michael W. Deem and Ramdas Pophale) SiO2 
 PCOD9040057
Probable space group: P -1
;
_chemical_formula_sum "Si O2"
_cell_formula_units_Z 16
_cell_length_a 13.526724
_cell_length_b 14.360852
_cell_length_c 14.156262
_cell_angle_alpha 142.530558
_cell_angle_beta 30.573099
_cell_angle_gamma 151.041462
_cell_volume 668.075893
_symmetry_space_group_name_H-M "P -1"
_symmetry_group_IT_number 2
_symmetry_cell_setting 'triclinic'
loop_
_space_group_symop_operation_xyz
x,y,z
-x,-y,-z
loop_
_atom_site_type_symbol
_atom_site_label
_atom_site_fract_x
_atom_site_fract_y
_atom_site_fract_z
Si Si1 0.028672 0.334119 0.356030
Si Si2 0.789054 0.663796 0.981453
Si Si3 0.671549 0.059677 0.284896
Si Si4 0.134036 0.183372 0.311432
Si Si5 0.607540 0.267414 0.892829
Si Si6 0.390828 0.229812 0.629838
Si Si7 0.679549 0.693999 0.447758
Si Si8 0.876550 0.122373 0.659168
O O1 0.225442 0.363892 0.141698
O O2 0.105062 0.325074 0.389721
O O3 0.000000 0.500000 0.500000
O O4 0.773157 0.126553 0.362741
O O5 0.768113 0.491662 0.912264
O O6 0.073128 0.857053 0.911521
O O7 0.611564 0.692727 0.204165
O O8 0.581313 0.184202 0.431073
O O9 0.476813 0.847956 0.230973
O O10 0.096295 0.192700 0.460047
O O11 0.373933 0.214173 0.101857
O O12 0.884570 0.970988 0.319047
O O13 0.740270 0.202779 0.794038
O O14 0.412785 0.354320 0.623460
O O15 0.500000 0.500000 0.500000
O O16 0.966419 0.780567 0.296181
O O17 0.699038 0.886049 0.613251
#
# Coordination Sequence:
#
# PCOD9040057 Si02
#       8
#     2   2   2   2   2   2   2   2
#     4  10  24  44  66 106 140 182 232 281 326 410
#     4  10  26  42  65 103 138 175 236 269 334 407
#     4  10  24  45  66  97 142 179 226 278 335 402
#     4  11  23  43  69  97 142 180 229 273 351 390
#     4  12  23  42  73  95 139 189 214 290 335 403
#     4  11  23  46  71  98 133 185 220 288 344 408
#     4  10  23  42  76  95 132 177 230 280 349 405
#     4  10  24  46  64 104 133 177 227 280 343 414
#
# _framework density 23.949376000000001
#
# number of rings (size 3 to 8) (size 9 to 14) (size 15 to 20)
#    0.750    0.750    3.750    0.750    5.250    3.000 
#    2.250    7.500    0.000    0.000    0.000    0.000 
#    0.000    0.000    0.000    0.000    0.000    0.000 
#
# Total GULP energy -89458.823717 kJ/mol
# GULP energy per Si atom -5591.176482 kJ/mol
# Density = 2.389487 g / cm^3
# Si number density = 23.949376 Si / 1000 Ang^3
#
#
#
# Elastic Constant Matrix: (Units=GPa)
#
#
# Indices 1 2 3 4 5 6 
#
# 1 104.5623 1.1773 13.5612 3.8882 -1.7710 -6.4829
# 2 1.1773 60.9352 -12.7700 0.4214 -2.3980 -11.7326
# 3 13.5612 -12.7700 76.9535 1.3741 8.3803 -6.9373
# 4 3.8882 0.4214 1.3741 30.9371 -4.1008 -0.3702
# 5 -1.7710 -2.3980 8.3803 -4.1008 26.0198 0.2062
# 6 -6.4829 -11.7326 -6.9373 -0.3702 0.2062 48.0697
#
#
#
# Elastic Compliance Matrix: (Units=1/GPa)
#
#
# Indices 1 2 3 4 5 6 
#
# 1 0.009919 -0.000334 -0.001812 -0.001009 0.001061 0.000982
# 2 -0.000334 0.018098 0.003455 -0.000239 0.000456 0.004867
# 3 -0.001812 0.003455 0.014666 -0.001063 -0.004718 0.002728
# 4 -0.001009 -0.000239 -0.001063 0.033227 0.005489 -0.000116
# 5 0.001061 0.000456 -0.004718 0.005489 0.040936 -0.000560
# 6 0.000982 0.004867 0.002728 -0.000116 -0.000560 0.022519
#
#
# Mechanical properties :
#
#
# Convention : Reuss Voigt Hill
#
# Bulk Modulus (GPa) = 22.07373 27.37643 24.72508
# Shear Modulus (GPa) = 32.92796 37.03749 34.98273
#
# Velocity S-wave (km/s) = 3.71199 3.93681 3.82605
# Velocity P-wave (km/s) = 5.25439 5.66749 5.46484
#
# Compressibility (1/GPa) = 0.04530273
#
# Stress axis : x y z
#
# Youngs Moduli (GPa) = 100.81778 55.25401 68.18349
#
# Poissons Ratio (x) = 0.01843 0.12357
# Poissons Ratio (y) = 0.03363 -0.23561
# Poissons Ratio (z) = 0.18271 -0.19093
#
# Static dielectric constant tensor:
#      x y z
#    x 1.946470 0.035940 0.025020 
#    y 0.035940 1.978730 -0.026800 
#    z 0.025020 -0.026800 1.886640 
# 
# From -- ./inp_files/533814.got.cif
#   From: 2010.05.17/outbox.cif.g08.bks.cpg/sg2_267_cif.got.tgz:533814.got - 2010.06.03 11:33:40.
