data_PCOD9040591
_publ_section_title
;
Structure prediction by ZEFSAII (Michael W. Deem and Ramdas Pophale) SiO2 
 PCOD9040591
Probable space group: P -1
;
_chemical_formula_sum "Si O2"
_cell_formula_units_Z 16
_cell_length_a 5.090090
_cell_length_b 10.043312
_cell_length_c 19.352423
_cell_angle_alpha 130.493343
_cell_angle_beta 71.149388
_cell_angle_gamma 116.686061
_cell_volume 671.498636
_symmetry_space_group_name_H-M "P -1"
_symmetry_group_IT_number 2
_symmetry_cell_setting 'triclinic'
loop_
_space_group_symop_operation_xyz
x,y,z
-x,-y,-z
loop_
_atom_site_type_symbol
_atom_site_label
_atom_site_fract_x
_atom_site_fract_y
_atom_site_fract_z
Si Si1 0.209874 0.271316 0.039786
Si Si2 0.732770 0.633241 0.268050
Si Si3 0.748006 0.315251 0.487210
Si Si4 0.558946 0.237570 0.128510
Si Si5 0.887393 0.100226 0.875437
Si Si6 0.320029 0.054496 0.711456
Si Si7 0.763890 0.338965 0.865855
Si Si8 0.082779 0.221126 0.554845
O O1 0.407549 0.209854 0.056666
O O2 0.345743 0.488939 0.081361
O O3 0.897027 0.248319 0.096466
O O4 0.117622 0.159629 0.938777
O O5 0.512842 0.425461 0.225175
O O6 0.922728 0.689493 0.339781
O O7 0.917495 0.603922 0.177048
O O8 0.638691 0.806355 0.310621
O O9 0.700576 0.146040 0.380639
O O10 0.418706 0.315304 0.530553
O O11 0.000000 0.500000 0.500000
O O12 0.868051 0.259335 0.529815
O O13 0.385636 0.069492 0.134754
O O14 0.797113 0.276965 0.919408
O O15 0.033638 0.043906 0.776824
O O16 0.576450 0.160213 0.777958
O O17 0.000000 0.000000 0.500000
#
# Coordination Sequence:
#
# PCOD9040591 Si02
#       8
#     2   2   2   2   2   2   2   2
#     4  11  24  45  67  96 137 178 228 273 329 400
#     4  10  23  43  69  99 131 178 230 272 332 403
#     4  12  29  47  70 106 144 176 226 294 350 405
#     4  11  25  43  68  98 136 174 226 282 327 397
#     4  11  26  40  67 100 132 183 219 279 340 398
#     4  11  24  44  68  94 142 173 225 276 342 404
#     4  10  23  43  67  98 137 179 223 279 327 407
#     4  12  25  46  78 100 134 185 233 279 341 420
#
# _framework density 23.827302
#
# number of rings (size 3 to 8) (size 9 to 14) (size 15 to 20)
#    0.000    1.000    2.500    2.625    8.750    1.500 
#    0.000    0.000    0.000    0.000    0.000    0.000 
#    0.000    0.000    0.000    0.000    0.000    0.000 
#
# Total GULP energy -89584.541930 kJ/mol
# GULP energy per Si atom -5599.033871 kJ/mol
# Density = 2.377307 g / cm^3
# Si number density = 23.827302 Si / 1000 Ang^3
#
#
#
# Elastic Constant Matrix: (Units=GPa)
#
#
# Indices 1 2 3 4 5 6 
#
# 1 76.7890 6.8060 -5.0933 -7.2022 9.3817 11.2519
# 2 6.8060 125.2674 32.6421 10.7317 1.3009 7.3061
# 3 -5.0933 32.6421 75.6963 5.4827 8.1170 10.9251
# 4 -7.2022 10.7317 5.4827 39.3199 -1.5901 6.0944
# 5 9.3817 1.3009 8.1170 -1.5901 33.2417 -0.8547
# 6 11.2519 7.3061 10.9251 6.0944 -0.8547 26.8943
#
#
#
# Elastic Compliance Matrix: (Units=1/GPa)
#
#
# Indices 1 2 3 4 5 6 
#
# 1 0.015600 -0.001462 0.003171 0.003919 -0.005150 -0.008469
# 2 -0.001462 0.009293 -0.004086 -0.002240 0.000947 0.000285
# 3 0.003171 -0.004086 0.016747 0.000281 -0.004997 -0.007242
# 4 0.003919 -0.002240 0.000281 0.027881 0.000055 -0.007462
# 5 -0.005150 0.000947 -0.004997 0.000055 0.032850 0.004959
# 6 -0.008469 0.000285 -0.007242 -0.007462 0.004959 0.045439
#
#
# Mechanical properties :
#
#
# Convention : Reuss Voigt Hill
#
# Bulk Modulus (GPa) = 27.11094 38.49582 32.80338
# Shear Modulus (GPa) = 30.32897 36.11768 33.22333
#
# Velocity S-wave (km/s) = 3.57160 3.89757 3.73814
# Velocity P-wave (km/s) = 5.33022 6.03705 5.69461
#
# Compressibility (1/GPa) = 0.03688548
#
# Stress axis : x y z
#
# Youngs Moduli (GPa) = 64.10069 107.61312 59.71323
#
# Poissons Ratio (x) = 0.15735 -0.18935
# Poissons Ratio (y) = 0.09373 0.24399
# Poissons Ratio (z) = -0.20326 0.43970
#
# Static dielectric constant tensor:
#      x y z
#    x 1.948450 0.027930 -0.049120 
#    y 0.027930 1.937110 0.006840 
#    z -0.049120 0.006840 1.887800 
# 
# From -- ./inp_files/53077.got.cif
#   From: 2010.05.17/outbox.cif.g08.bks.cpg/sg2_27_cif.got.tgz:53077.got - 2010.06.03 11:33:40.
