data_PCOD9040654
_publ_section_title
;
Structure prediction by ZEFSAII (Michael W. Deem and Ramdas Pophale) SiO2 
 PCOD9040654
Probable space group: P -1
;
_chemical_formula_sum "Si O2"
_cell_formula_units_Z 16
_cell_length_a 17.675658
_cell_length_b 11.443574
_cell_length_c 18.174500
_cell_angle_alpha 29.545964
_cell_angle_beta 149.823776
_cell_angle_gamma 148.210333
_cell_volume 837.113979
_symmetry_space_group_name_H-M "P -1"
_symmetry_group_IT_number 2
_symmetry_cell_setting 'triclinic'
loop_
_space_group_symop_operation_xyz
x,y,z
-x,-y,-z
loop_
_atom_site_type_symbol
_atom_site_label
_atom_site_fract_x
_atom_site_fract_y
_atom_site_fract_z
Si Si1 0.284699 0.899342 0.672715
Si Si2 0.959227 0.801533 0.363335
Si Si3 0.571213 0.484446 0.988454
Si Si4 0.159227 0.808368 0.394740
Si Si5 0.332407 0.086858 0.893161
Si Si6 0.474315 0.190233 0.540938
Si Si7 0.532287 0.751424 0.238418
Si Si8 0.356883 0.992939 0.325663
O O1 0.120897 0.887211 0.502838
O O2 0.439555 0.078554 0.654639
O O3 0.324517 0.032770 0.712331
O O4 0.281762 0.612413 0.827464
O O5 0.865059 0.490603 0.460860
O O6 0.849468 0.946771 0.221144
O O7 0.014795 0.840159 0.303215
O O8 0.437195 0.255151 0.956001
O O9 0.609748 0.737883 0.833490
O O10 0.500000 0.500000 0.000000
O O11 0.195766 0.902067 0.290411
O O12 0.319989 0.983260 0.480495
O O13 0.398673 0.247806 0.785712
O O14 0.381165 0.842430 0.058604
O O15 0.478320 0.473552 0.381830
O O16 0.632770 0.187964 0.633194
O O17 0.500000 0.000000 0.500000
#
# Coordination Sequence:
#
# PCOD9040654 Si02
#       8
#     2   2   2   2   2   2   2   2
#     4  10  22  36  56  87 119 157 188 247 293 345
#     4  10  20  37  59  83 121 158 197 230 306 360
#     4  11  21  36  61  91 119 147 198 253 295 337
#     4   9  19  31  56  85 113 152 192 234 288 359
#     4  10  21  37  59  84 111 163 197 243 288 347
#     4  10  17  33  56  85 115 150 193 245 291 340
#     4  10  21  37  59  85 114 149 215 244 276 341
#     4  10  18  32  58  87 115 149 191 239 293 343
#
# _framework density 19.113288000000001
#
# number of rings (size 3 to 8) (size 9 to 14) (size 15 to 20)
#    0.000    2.000    1.250    4.125    3.500    0.500 
#    0.000    3.125    0.000    1.500    0.000    0.000 
#    0.000    0.000    0.000    0.000    0.000    0.000 
#
# Total GULP energy -89182.291596 kJ/mol
# GULP energy per Si atom -5573.893225 kJ/mol
# Density = 1.906979 g / cm^3
# Si number density = 19.113288 Si / 1000 Ang^3
#
#
#
# Elastic Constant Matrix: (Units=GPa)
#
#
# Indices 1 2 3 4 5 6 
#
# 1 136.4806 28.4035 48.4705 -7.7234 4.5493 6.7235
# 2 28.4035 30.7241 25.8406 23.5205 -21.9921 5.9433
# 3 48.4705 25.8406 87.2286 -37.9658 19.0562 11.7784
# 4 -7.7234 23.5205 -37.9658 -47.5344 59.3766 -25.9987
# 5 4.5493 -21.9921 19.0562 59.3766 -1.7461 12.0165
# 6 6.7235 5.9433 11.7784 -25.9987 12.0165 21.5081
#
#
#
# Elastic Compliance Matrix: (Units=1/GPa)
#
#
# Indices 1 2 3 4 5 6 
#
# 1 0.009872 -0.004966 -0.004328 -0.001145 -0.000604 -0.000390
# 2 -0.004966 0.028413 -0.001997 0.009913 -0.001827 0.007798
# 3 -0.004328 -0.001997 0.014151 -0.002744 0.002465 -0.010539
# 4 -0.001145 0.009913 -0.002744 0.005524 0.014440 -0.002269
# 5 -0.000604 -0.001827 0.002465 0.014440 0.016982 0.007311
# 6 -0.000390 0.007798 -0.010539 -0.002269 0.007311 0.043406
#
#
# Mechanical properties :
#
#
# Convention : Reuss Voigt Hill
#
# Bulk Modulus (GPa) = 33.49671 51.09584 42.29627
# Shear Modulus (GPa) = 33.13841 4.56009 18.84925
#
# Velocity S-wave (km/s) = 4.16840 1.54629 3.14377
# Velocity P-wave (km/s) = 6.38207 5.47533 5.94601
#
# Compressibility (1/GPa) = 0.02985368
#
# Stress axis : x y z
#
# Youngs Moduli (GPa) = 101.29266 35.19512 70.66635
#
# Poissons Ratio (x) = 0.17479 0.30587
# Poissons Ratio (y) = 0.50305 0.14109
# Poissons Ratio (z) = 0.43844 0.07027
#
# Static dielectric constant tensor:
#      x y z
#    x 1.751480 0.008430 -0.002210 
#    y 0.008430 1.657660 0.018450 
#    z -0.002210 0.018450 1.726190 
# 
# From -- ./inp_files/273082.got.cif
#   From: 2010.05.17/outbox.cif.g08.bks.cpg/sg2_137_cif.got.tgz:273082.got - 2010.06.03 11:33:40.
