data_PCOD9040303
_publ_section_title
;
Structure prediction by ZEFSAII (Michael W. Deem and Ramdas Pophale) SiO2 
 PCOD9040303
Probable space group: P -1
;
_chemical_formula_sum "Si O2"
_cell_formula_units_Z 14
_cell_length_a 14.236402
_cell_length_b 9.615369
_cell_length_c 8.236950
_cell_angle_alpha 113.924531
_cell_angle_beta 99.437201
_cell_angle_gamma 135.636336
_cell_volume 507.365869
_symmetry_space_group_name_H-M "P -1"
_symmetry_group_IT_number 2
_symmetry_cell_setting 'triclinic'
loop_
_space_group_symop_operation_xyz
x,y,z
-x,-y,-z
loop_
_atom_site_type_symbol
_atom_site_label
_atom_site_fract_x
_atom_site_fract_y
_atom_site_fract_z
Si Si1 0.105886 0.299001 0.554781
Si Si2 0.444329 0.578895 0.740636
Si Si3 0.267053 0.598723 0.095015
Si Si4 0.118141 0.678898 0.298919
Si Si5 0.256711 0.244505 0.020874
Si Si6 0.355017 0.897368 0.736427
Si Si7 0.773723 0.020274 0.838331
O O1 0.217264 0.579401 0.614777
O O2 0.221763 0.302705 0.553548
O O3 0.144712 0.394052 0.799101
O O4 0.894011 0.997317 0.280427
O O5 0.543979 0.572232 0.851292
O O6 0.533980 0.850805 0.981103
O O7 0.547895 0.723878 0.663760
O O8 0.187302 0.620016 0.197571
O O9 0.477460 0.934007 0.250794
O O10 0.283396 0.461401 0.128579
O O11 0.225974 0.835428 0.570040
O O12 0.177172 0.892915 0.294008
O O13 0.896164 0.329676 0.095684
O O14 0.174494 0.055730 0.075512
#
# Coordination Sequence:
#
# PCOD9040303 Si02
#       7
#     2   2   2   2   2   2   2
#     4  11  21  41  67  95 124 168 210 262 319 367
#     4   9  21  40  64  92 131 153 219 260 309 372
#     4  11  24  39  65  96 131 163 212 260 319 381
#     4  11  21  39  65  91 129 172 212 254 315 380
#     4  10  23  43  65  96 128 167 205 266 324 364
#     4  11  21  38  66  95 123 169 213 260 312 369
#     4   9  21  41  61  94 125 166 214 260 308 372
#
# _framework density 27.593499000000001
#
# number of rings (size 3 to 8) (size 9 to 14) (size 15 to 20)
#    0.857    0.857    1.429    4.286    0.000    7.429 
#    0.000    3.571    0.000    0.000    0.000    0.000 
#    0.000    0.000    0.000    0.000    0.000    0.000 
#
# Total GULP energy -78408.046481 kJ/mol
# GULP energy per Si atom -5600.574749 kJ/mol
# Density = 2.753069 g / cm^3
# Si number density = 27.593499 Si / 1000 Ang^3
#
#
#
# Elastic Constant Matrix: (Units=GPa)
#
#
# Indices 1 2 3 4 5 6 
#
# 1 163.9454 60.5364 19.7450 10.5317 16.7635 -5.5747
# 2 60.5364 142.1242 19.1880 -25.1644 2.8463 -29.6948
# 3 19.7450 19.1880 122.8255 -1.6625 19.9548 -2.8262
# 4 10.5317 -25.1644 -1.6625 33.6093 -13.0152 17.6858
# 5 16.7635 2.8463 19.9548 -13.0152 34.7202 3.3236
# 6 -5.5747 -29.6948 -2.8262 17.6858 3.3236 47.8913
#
#
#
# Elastic Compliance Matrix: (Units=1/GPa)
#
#
# Indices 1 2 3 4 5 6 
#
# 1 0.010169 -0.005914 0.000828 -0.013135 -0.010123 0.003118
# 2 -0.005914 0.012314 -0.002041 0.013302 0.007874 0.001368
# 3 0.000828 -0.002041 0.009593 -0.005426 -0.007967 0.001954
# 4 -0.013135 0.013302 -0.005426 0.068978 0.036294 -0.021593
# 5 -0.010123 0.007874 -0.007967 0.036294 0.052550 -0.013816
# 6 0.003118 0.001368 0.001954 -0.021593 -0.013816 0.031140
#
#
# Mechanical properties :
#
#
# Convention : Reuss Voigt Hill
#
# Bulk Modulus (GPa) = 56.11240 69.75932 62.93586
# Shear Modulus (GPa) = 24.39746 45.20587 34.80166
#
# Velocity S-wave (km/s) = 2.97673 4.05196 3.55523
# Velocity P-wave (km/s) = 5.67398 6.87220 6.30163
#
# Compressibility (1/GPa) = 0.01782137
#
# Stress axis : x y z
#
# Youngs Moduli (GPa) = 98.34204 81.20788 104.24004
#
# Poissons Ratio (x) = 0.48029 -0.08629
# Poissons Ratio (y) = 0.58163 0.21273
# Poissons Ratio (z) = -0.08141 0.16573
#
# Static dielectric constant tensor:
#      x y z
#    x 2.196060 0.039990 0.044350 
#    y 0.039990 2.098520 -0.004280 
#    z 0.044350 -0.004280 2.162190 
# 
# From -- ./inp_files/332183.got.cif
#   From: 2010.05.17/outbox.cif.g08.bks.cpg/sg2_167_cif.got.tgz:332183.got - 2010.06.03 11:33:40.
