data_PCOD9040667
_publ_section_title
;
Structure prediction by ZEFSAII (Michael W. Deem and Ramdas Pophale) SiO2 
 PCOD9040667
Probable space group: P -1
;
_chemical_formula_sum "Si O2"
_cell_formula_units_Z 14
_cell_length_a 12.358913
_cell_length_b 17.674116
_cell_length_c 9.010910
_cell_angle_alpha 111.813663
_cell_angle_beta 73.273856
_cell_angle_gamma 157.957602
_cell_volume 676.669716
_symmetry_space_group_name_H-M "P -1"
_symmetry_group_IT_number 2
_symmetry_cell_setting 'triclinic'
loop_
_space_group_symop_operation_xyz
x,y,z
-x,-y,-z
loop_
_atom_site_type_symbol
_atom_site_label
_atom_site_fract_x
_atom_site_fract_y
_atom_site_fract_z
Si Si1 0.622146 0.077159 0.341711
Si Si2 0.858966 0.144762 0.784588
Si Si3 0.827626 0.465883 0.486953
Si Si4 0.328167 0.583035 0.815656
Si Si5 0.729416 0.996980 0.057401
Si Si6 0.893727 0.860804 0.823651
Si Si7 0.155628 0.023130 0.519138
O O1 0.578523 0.962840 0.195863
O O2 0.964617 0.323246 0.387575
O O3 0.500000 0.000000 0.500000
O O4 0.450150 0.030933 0.284944
O O5 0.955575 0.131792 0.636357
O O6 0.075787 0.365721 0.841695
O O7 0.805254 0.080892 0.926289
O O8 0.793278 0.457217 0.316886
O O9 0.000000 0.500000 0.500000
O O10 0.502247 0.254371 0.524059
O O11 0.577226 0.679421 0.761474
O O12 0.502800 0.771132 0.966725
O O13 0.037968 0.174710 0.136830
O O14 0.088412 0.979434 0.687457
O O15 0.000000 0.000000 0.000000
O O16 0.000000 0.000000 0.500000
#
# Coordination Sequence:
#
# PCOD9040667 Si02
#       7
#     2   2   2   2   2   2   2
#     4  12  25  44  68 102 141 190 240 294 358 428
#     4  12  25  44  73 104 143 189 244 295 360 428
#     4  12  24  44  73 106 144 186 241 294 364 427
#     4  11  24  46  72 101 143 190 239 296 360 426
#     4  11  25  46  67 102 147 185 241 306 351 426
#     4  10  23  43  68 103 144 186 239 294 357 423
#     4  12  23  44  76 105 144 192 237 301 360 425
#
# _framework density 20.689561000000001
#
# number of rings (size 3 to 8) (size 9 to 14) (size 15 to 20)
#    0.000    0.571    5.714    2.143    0.000    5.143 
#    0.000    0.000    0.000    0.000    0.000    0.000 
#    0.000    0.000    0.000    0.000    0.000    0.000 
#
# Total GULP energy -78174.127631 kJ/mol
# GULP energy per Si atom -5583.866259 kJ/mol
# Density = 2.064247 g / cm^3
# Si number density = 20.689561 Si / 1000 Ang^3
#
#
#
# Elastic Constant Matrix: (Units=GPa)
#
#
# Indices 1 2 3 4 5 6 
#
# 1 151.5990 35.6777 72.9452 6.9471 12.2469 18.3106
# 2 35.6777 125.4125 40.9923 4.1208 -2.8927 -11.7349
# 3 72.9452 40.9923 136.3679 -15.3538 1.6263 -13.0367
# 4 6.9471 4.1208 -15.3538 26.9680 -1.7954 1.5579
# 5 12.2469 -2.8927 1.6263 -1.7954 46.5590 3.1638
# 6 18.3106 -11.7349 -13.0367 1.5579 3.1638 36.2179
#
#
#
# Elastic Compliance Matrix: (Units=1/GPa)
#
#
# Indices 1 2 3 4 5 6 
#
# 1 0.012322 -0.001664 -0.007704 -0.006968 -0.002732 -0.009004
# 2 -0.001664 0.009466 -0.001906 -0.002238 0.000785 0.003250
# 3 -0.007704 -0.001906 0.013854 0.009802 0.001277 0.007731
# 4 -0.006968 -0.002238 0.009802 0.044745 0.002794 0.004157
# 5 -0.002732 0.000785 0.001277 0.002794 0.022307 0.000027
# 6 -0.009004 0.003250 0.007731 0.004157 0.000027 0.035817
#
#
# Mechanical properties :
#
#
# Convention : Reuss Voigt Hill
#
# Bulk Modulus (GPa) = 76.36605 79.17886 77.77245
# Shear Modulus (GPa) = 30.22532 39.53325 34.87928
#
# Velocity S-wave (km/s) = 3.82632 4.37599 4.11035
# Velocity P-wave (km/s) = 7.51741 7.99284 7.75877
#
# Compressibility (1/GPa) = 0.01309482
#
# Stress axis : x y z
#
# Youngs Moduli (GPa) = 81.15314 105.64324 72.17880
#
# Poissons Ratio (x) = 0.17578 0.55606
# Poissons Ratio (y) = 0.13503 0.13758
# Poissons Ratio (z) = 0.62520 0.20136
#
# Static dielectric constant tensor:
#      x y z
#    x 1.772090 0.012640 0.038300 
#    y 0.012640 1.749110 0.003820 
#    z 0.038300 0.003820 1.599250 
# 
# From -- ./inp_files/279610.got.cif
#   From: 2010.05.17/outbox.cif.g08.bks.cpg/sg2_140_cif.got.tgz:279610.got - 2010.06.03 11:33:40.
