data_PCOD9040535
_publ_section_title
;
Structure prediction by ZEFSAII (Michael W. Deem and Ramdas Pophale) SiO2 
 PCOD9040535
Probable space group: P -1
;
_chemical_formula_sum "Si O2"
_cell_formula_units_Z 16
_cell_length_a 8.584253
_cell_length_b 15.167562
_cell_length_c 15.336898
_cell_angle_alpha 141.651261
_cell_angle_beta 62.445699
_cell_angle_gamma 88.938997
_cell_volume 791.706029
_symmetry_space_group_name_H-M "P -1"
_symmetry_group_IT_number 2
_symmetry_cell_setting 'triclinic'
loop_
_space_group_symop_operation_xyz
x,y,z
-x,-y,-z
loop_
_atom_site_type_symbol
_atom_site_label
_atom_site_fract_x
_atom_site_fract_y
_atom_site_fract_z
Si Si1 0.002922 0.285341 0.390942
Si Si2 0.577702 0.412617 0.703295
Si Si3 0.858597 0.090479 0.015491
Si Si4 0.710332 0.603229 0.559105
Si Si5 0.163811 0.599466 0.816106
Si Si6 0.189514 0.703886 0.176552
Si Si7 0.157995 0.403111 0.972810
Si Si8 0.300875 0.887674 0.430535
O O1 0.801256 0.385836 0.596945
O O2 0.869069 0.425368 0.449512
O O3 0.215935 0.273779 0.352623
O O4 0.093146 0.077936 0.183110
O O5 0.411987 0.477133 0.712066
O O6 0.677549 0.209974 0.560643
O O7 0.395848 0.577761 0.951238
O O8 0.572274 0.262916 0.244493
O O9 0.931406 0.191091 0.022448
O O10 0.000000 0.000000 0.000000
O O11 0.778279 0.513424 0.375863
O O12 0.977575 0.615900 0.936489
O O13 0.248961 0.795532 0.299394
O O14 0.180141 0.556938 0.112574
O O15 0.928061 0.880244 0.336677
O O16 0.433241 0.197478 0.723707
O O17 0.000000 0.500000 0.000000
#
# Coordination Sequence:
#
# PCOD9040535 Si02
#       8
#     2   2   2   2   2   2   2   2
#     4  11  25  43  72  97 131 175 221 281 331 398
#     4  11  22  41  67  96 130 178 218 268 335 399
#     4  12  24  47  68  98 136 177 224 276 334 403
#     4  11  25  46  66  99 135 171 223 281 336 390
#     4  12  24  43  67  98 136 179 221 269 340 395
#     4  10  23  44  65  95 133 174 217 270 330 397
#     4  11  22  42  62  98 133 171 215 274 323 396
#     4  10  23  43  67  94 135 172 218 275 329 390
#
# _framework density 20.209520000000001
#
# number of rings (size 3 to 8) (size 9 to 14) (size 15 to 20)
#    0.000    1.000    5.000    3.000    5.250    0.500 
#    4.500    0.000    0.000    0.000    0.000    0.000 
#    0.000    0.000    0.000    0.000    0.000    0.000 
#
# Total GULP energy -89506.283087 kJ/mol
# GULP energy per Si atom -5594.142693 kJ/mol
# Density = 2.016352 g / cm^3
# Si number density = 20.209520 Si / 1000 Ang^3
#
#
#
# Elastic Constant Matrix: (Units=GPa)
#
#
# Indices 1 2 3 4 5 6 
#
# 1 69.1892 35.2871 27.9719 -5.4606 2.0832 2.5479
# 2 35.2871 136.5864 55.8722 -8.3981 -1.1790 12.6797
# 3 27.9719 55.8722 85.0933 1.9285 3.2338 9.9764
# 4 -5.4606 -8.3981 1.9285 33.8146 4.7884 -15.3886
# 5 2.0832 -1.1790 3.2338 4.7884 40.9731 5.1026
# 6 2.5479 12.6797 9.9764 -15.3886 5.1026 32.3931
#
#
#
# Elastic Compliance Matrix: (Units=1/GPa)
#
#
# Indices 1 2 3 4 5 6 
#
# 1 0.017974 -0.002896 -0.004430 0.004158 -0.001545 0.003302
# 2 -0.002896 0.010790 -0.006039 0.001775 0.000906 -0.001435
# 3 -0.004430 -0.006039 0.017956 -0.005769 0.000001 -0.005558
# 4 0.004158 0.001775 -0.005769 0.042004 -0.007337 0.021865
# 5 -0.001545 0.000906 0.000001 -0.007337 0.026348 -0.007869
# 6 0.003302 -0.001435 -0.005558 0.021865 -0.007869 0.044511
#
#
# Mechanical properties :
#
#
# Convention : Reuss Voigt Hill
#
# Bulk Modulus (GPa) = 50.02465 58.79238 54.40851
# Shear Modulus (GPa) = 25.91000 32.88534 29.39767
#
# Velocity S-wave (km/s) = 3.58448 4.03826 3.81812
# Velocity P-wave (km/s) = 6.47596 7.13428 6.81308
#
# Compressibility (1/GPa) = 0.01999014
#
# Stress axis : x y z
#
# Youngs Moduli (GPa) = 55.63632 92.67723 55.69273
#
# Poissons Ratio (x) = 0.26838 0.24670
# Poissons Ratio (y) = 0.16111 0.33634
# Poissons Ratio (z) = 0.24645 0.55970
#
# Static dielectric constant tensor:
#      x y z
#    x 1.728060 0.001400 0.010610 
#    y 0.001400 1.692100 0.012380 
#    z 0.010610 0.012380 1.703640 
# 
# From -- ./inp_files/504369.got.cif
#   From: 2010.05.17/outbox.cif.g08.bks.cpg/sg2_253_cif.got.tgz:504369.got - 2010.06.03 11:33:40.
