data_PCOD9040248
_publ_section_title
;
Structure prediction by ZEFSAII (Michael W. Deem and Ramdas Pophale) SiO2 
 PCOD9040248
Probable space group: P -1
;
_chemical_formula_sum "Si O2"
_cell_formula_units_Z 16
_cell_length_a 5.331632
_cell_length_b 8.587644
_cell_length_c 17.033785
_cell_angle_alpha 82.247817
_cell_angle_beta 54.896873
_cell_angle_gamma 95.025905
_cell_volume 618.965352
_symmetry_space_group_name_H-M "P -1"
_symmetry_group_IT_number 2
_symmetry_cell_setting 'triclinic'
loop_
_space_group_symop_operation_xyz
x,y,z
-x,-y,-z
loop_
_atom_site_type_symbol
_atom_site_label
_atom_site_fract_x
_atom_site_fract_y
_atom_site_fract_z
Si Si1 0.563156 0.966731 0.197550
Si Si2 0.675627 0.001731 0.349192
Si Si3 0.047325 0.285193 0.647378
Si Si4 0.791152 0.820471 0.539913
Si Si5 0.906826 0.701147 0.130674
Si Si6 0.604361 0.663015 0.018837
Si Si7 0.705430 0.788655 0.832498
Si Si8 0.306074 0.445020 0.288292
O O1 0.263783 0.821802 0.250993
O O2 0.848156 0.877601 0.145436
O O3 0.533370 0.022089 0.288249
O O4 0.573503 0.114921 0.128092
O O5 0.531718 0.119645 0.423613
O O6 0.030133 0.091058 0.270123
O O7 0.679940 0.812607 0.371055
O O8 0.985638 0.462589 0.662822
O O9 0.068285 0.263050 0.551528
O O10 0.745094 0.695788 0.628312
O O11 0.000000 0.000000 0.500000
O O12 0.811090 0.663775 0.059003
O O13 0.639388 0.570494 0.233380
O O14 0.260899 0.701922 0.091319
O O15 0.500000 0.500000 0.000000
O O16 0.788416 0.770775 0.908638
O O17 0.660583 0.629985 0.798709
#
# Coordination Sequence:
#
# PCOD9040248 Si02
#       8
#     2   2   2   2   2   2   2   2
#     4  10  23  45  69  98 144 183 234 290 356 420
#     4  11  23  43  71  96 141 188 234 288 359 422
#     4  10  23  43  65 103 135 183 235 294 346 427
#     4  12  22  43  70  99 140 180 236 290 355 432
#     4  11  28  46  73 106 143 191 235 302 358 422
#     4  12  27  46  74 106 147 182 245 296 357 432
#     4  11  25  43  71 100 137 189 236 291 360 424
#     4  11  24  45  70 101 144 183 233 292 364 421
#
# _framework density 25.849588000000001
#
# number of rings (size 3 to 8) (size 9 to 14) (size 15 to 20)
#    0.000    1.000    3.750    1.875    8.750    1.000 
#    2.250    1.250    0.000    0.000    0.000    0.000 
#    0.000    0.000    0.000    0.000    0.000    0.000 
#
# Total GULP energy -89357.225100 kJ/mol
# GULP energy per Si atom -5584.826569 kJ/mol
# Density = 2.579075 g / cm^3
# Si number density = 25.849588 Si / 1000 Ang^3
#
#
#
# Elastic Constant Matrix: (Units=GPa)
#
#
# Indices 1 2 3 4 5 6 
#
# 1 69.5376 13.0591 27.7486 -7.5391 10.5964 -10.4337
# 2 13.0591 146.2815 43.2782 5.9444 3.8384 -22.3579
# 3 27.7486 43.2782 96.4108 5.8687 10.8337 -6.0734
# 4 -7.5391 5.9444 5.8687 34.5132 -3.0738 1.1592
# 5 10.5964 3.8384 10.8337 -3.0738 44.4551 6.4327
# 6 -10.4337 -22.3579 -6.0734 1.1592 6.4327 36.4144
#
#
#
# Elastic Compliance Matrix: (Units=1/GPa)
#
#
# Indices 1 2 3 4 5 6 
#
# 1 0.018040 0.000580 -0.004976 0.004192 -0.003600 0.005198
# 2 0.000580 0.008685 -0.003593 -0.001001 -0.000816 0.005076
# 3 -0.004976 -0.003593 0.013757 -0.002949 -0.001929 -0.000903
# 4 0.004192 -0.001001 -0.002949 0.030795 0.002118 -0.001260
# 5 -0.003600 -0.000816 -0.001929 0.002118 0.024956 -0.006330
# 6 0.005198 0.005076 -0.000903 -0.001260 -0.006330 0.033075
#
#
# Mechanical properties :
#
#
# Convention : Reuss Voigt Hill
#
# Bulk Modulus (GPa) = 40.80914 53.37797 47.09355
# Shear Modulus (GPa) = 32.58290 38.28614 35.43452
#
# Velocity S-wave (km/s) = 3.55418 3.85270 3.70644
# Velocity P-wave (km/s) = 5.71527 6.36281 6.04771
#
# Compressibility (1/GPa) = 0.02450432
#
# Stress axis : x y z
#
# Youngs Moduli (GPa) = 55.43149 115.13658 72.69067
#
# Poissons Ratio (x) = -0.06680 0.36170
# Poissons Ratio (y) = -0.03216 0.26120
# Poissons Ratio (z) = 0.27582 0.41373
#
# Static dielectric constant tensor:
#      x y z
#    x 2.222020 -0.053850 -0.107940 
#    y -0.053850 2.127810 0.050150 
#    z -0.107940 0.050150 2.194120 
# 
# From -- ./inp_files/90552.got.cif
#   From: 2010.05.17/outbox.cif.g08.bks.cpg/sg2_46_cif.got.tgz:90552.got - 2010.06.03 11:33:40.
