data_PCOD9040252
_publ_section_title
;
Structure prediction by ZEFSAII (Michael W. Deem and Ramdas Pophale) SiO2 
 PCOD9040252
Probable space group: P -1
;
_chemical_formula_sum "Si O2"
_cell_formula_units_Z 16
_cell_length_a 8.649304
_cell_length_b 14.630193
_cell_length_c 10.973696
_cell_angle_alpha 31.447117
_cell_angle_beta 98.723739
_cell_angle_gamma 90.144465
_cell_volume 694.068107
_symmetry_space_group_name_H-M "P -1"
_symmetry_group_IT_number 2
_symmetry_cell_setting 'triclinic'
loop_
_space_group_symop_operation_xyz
x,y,z
-x,-y,-z
loop_
_atom_site_type_symbol
_atom_site_label
_atom_site_fract_x
_atom_site_fract_y
_atom_site_fract_z
Si Si1 0.456637 0.036044 0.096072
Si Si2 0.462846 0.427621 0.708620
Si Si3 0.183028 0.948532 0.529379
Si Si4 0.079817 0.189081 0.914052
Si Si5 0.095538 0.535637 0.620973
Si Si6 0.624278 0.459588 0.946329
Si Si7 0.709911 0.812855 0.550633
Si Si8 0.014329 0.874326 0.372627
O O1 0.512555 0.211828 0.947893
O O2 0.264508 0.086907 0.029133
O O3 0.500000 0.000000 0.000000
O O4 0.546956 0.881510 0.375148
O O5 0.500000 0.500000 0.500000
O O6 0.271492 0.490111 0.634815
O O7 0.542241 0.486024 0.772564
O O8 0.146447 0.943206 0.389135
O O9 0.282368 0.085410 0.436576
O O10 0.275339 0.746745 0.804673
O O11 0.000000 0.000000 0.500000
O O12 0.054348 0.340849 0.847189
O O13 0.026448 0.324836 0.639588
O O14 0.976842 0.040059 0.084121
O O15 0.093962 0.666608 0.585219
O O16 0.734837 0.600677 0.811958
O O17 0.500000 0.500000 0.000000
O O18 0.850495 0.865260 0.429598
#
# Coordination Sequence:
#
# PCOD9040252 Si02
#       8
#     2   2   2   2   2   2   2   2
#     4  11  23  42  68 105 142 187 235 296 363 431
#     4  11  25  42  72 109 146 187 241 301 365 433
#     4  10  25  46  69 102 139 187 242 298 362 429
#     4  10  24  41  68  98 141 181 235 295 367 428
#     4  10  23  43  65 105 142 187 237 298 363 441
#     4  12  27  48  74 106 150 197 242 302 370 440
#     4  11  26  45  71 102 143 187 246 297 361 436
#     4  11  24  42  72  99 137 189 239 298 367 428
#
# _framework density 23.052492000000001
#
# number of rings (size 3 to 8) (size 9 to 14) (size 15 to 20)
#    0.000    1.250    1.250    2.625    7.000    9.500 
#    0.000    0.000    0.000    0.000    0.000    0.000 
#    0.000    0.000    0.000    0.000    0.000    0.000 
#
# Total GULP energy -89379.784668 kJ/mol
# GULP energy per Si atom -5586.236542 kJ/mol
# Density = 2.300002 g / cm^3
# Si number density = 23.052492 Si / 1000 Ang^3
#
#
#
# Elastic Constant Matrix: (Units=GPa)
#
#
# Indices 1 2 3 4 5 6 
#
# 1 71.1212 27.5863 34.5813 -11.3240 1.3675 -1.6094
# 2 27.5863 142.6319 33.6683 -19.2694 2.1079 8.8086
# 3 34.5813 33.6683 66.7849 -17.2484 -2.2566 5.0012
# 4 -11.3240 -19.2694 -17.2484 45.9472 8.3090 -1.1324
# 5 1.3675 2.1079 -2.2566 8.3090 40.0392 -5.4860
# 6 -1.6094 8.8086 5.0012 -1.1324 -5.4860 30.6043
#
#
#
# Elastic Compliance Matrix: (Units=1/GPa)
#
#
# Indices 1 2 3 4 5 6 
#
# 1 0.019408 -0.001616 -0.009257 0.000861 -0.000885 0.002872
# 2 -0.001616 0.008428 -0.002694 0.002310 -0.001324 -0.002223
# 3 -0.009257 -0.002694 0.022655 0.004966 0.000268 -0.003182
# 4 0.000861 0.002310 0.004966 0.025753 -0.005414 -0.001449
# 5 -0.000885 -0.001324 0.000268 -0.005414 0.026887 0.004910
# 6 0.002872 -0.002223 -0.003182 -0.001449 0.004910 0.034812
#
#
# Mechanical properties :
#
#
# Convention : Reuss Voigt Hill
#
# Bulk Modulus (GPa) = 42.81495 52.46776 47.64136
# Shear Modulus (GPa) = 28.92471 35.63160 32.27815
#
# Velocity S-wave (km/s) = 3.54606 3.93577 3.74599
# Velocity P-wave (km/s) = 5.94804 6.59267 6.27863
#
# Compressibility (1/GPa) = 0.02335633
#
# Stress axis : x y z
#
# Youngs Moduli (GPa) = 51.52623 118.64584 44.14088
#
# Poissons Ratio (x) = 0.19179 0.40861
# Poissons Ratio (y) = 0.08329 0.11891
# Poissons Ratio (z) = 0.47698 0.31961
#
# Static dielectric constant tensor:
#      x y z
#    x 1.813910 0.017280 -0.040800 
#    y 0.017280 2.051990 0.055520 
#    z -0.040800 0.055520 2.015950 
# 
# From -- ./inp_files/398255.got.cif
#   From: 2010.05.17/outbox.cif.g08.bks.cpg/sg2_200_cif.got.tgz:398255.got - 2010.06.03 11:33:40.
