data_PCOD9040863
_publ_section_title
;
Structure prediction by ZEFSAII (Michael W. Deem and Ramdas Pophale) SiO2 
 PCOD9040863
Probable space group: P -1
;
_chemical_formula_sum "Si O2"
_cell_formula_units_Z 16
_cell_length_a 9.641961
_cell_length_b 16.272909
_cell_length_c 5.266512
_cell_angle_alpha 103.484015
_cell_angle_beta 71.547442
_cell_angle_gamma 73.259904
_cell_volume 701.148859
_symmetry_space_group_name_H-M "P -1"
_symmetry_group_IT_number 2
_symmetry_cell_setting 'triclinic'
loop_
_space_group_symop_operation_xyz
x,y,z
-x,-y,-z
loop_
_atom_site_type_symbol
_atom_site_label
_atom_site_fract_x
_atom_site_fract_y
_atom_site_fract_z
Si Si1 0.187803 0.272321 0.257668
Si Si2 0.221101 0.041184 0.546107
Si Si3 0.316571 0.852789 0.556163
Si Si4 0.966823 0.865003 0.783619
Si Si5 0.158816 0.452562 0.702610
Si Si6 0.416744 0.476629 0.287387
Si Si7 0.542337 0.903082 0.769212
Si Si8 0.395548 0.330428 0.869265
O O1 0.139676 0.366841 0.508890
O O2 0.337404 0.188073 0.230762
O O3 0.056712 0.230663 0.267982
O O4 0.258875 0.292861 0.973371
O O5 0.355391 0.083317 0.516122
O O6 0.116047 0.083444 0.389295
O O7 0.296386 0.931180 0.415852
O O8 0.117536 0.074077 0.881902
O O9 0.148480 0.848420 0.679173
O O10 0.385088 0.890445 0.776625
O O11 0.448450 0.752756 0.362921
O O12 0.225875 0.509561 0.504736
O O13 0.308403 0.409830 0.776329
O O14 0.000000 0.500000 0.000000
O O15 0.500000 0.500000 0.500000
O O16 0.500000 0.500000 0.000000
O O17 0.441019 0.372448 0.125654
O O18 0.500000 0.000000 0.000000
#
# Coordination Sequence:
#
# PCOD9040863 Si02
#       8
#     2   2   2   2   2   2   2   2
#     4  10  23  43  69 103 147 187 246 299 359 444
#     4  11  24  45  66 101 144 196 237 288 357 432
#     4  12  23  42  71 104 143 189 244 303 353 429
#     4  11  26  44  67 102 147 189 239 297 360 419
#     4  11  25  48  78 106 144 197 246 304 373 449
#     4  11  24  49  76 110 149 181 239 308 375 444
#     4  11  22  41  72 104 142 196 242 293 357 430
#     4  11  24  45  74 107 142 190 244 299 365 442
#
# _framework density 22.819690999999999
#
# number of rings (size 3 to 8) (size 9 to 14) (size 15 to 20)
#    0.000    1.000    2.500    4.125    1.750    5.000 
#    2.250    0.000    0.000    0.000    0.000    0.000 
#    0.000    0.000    0.000    0.000    0.000    0.000 
#
# Total GULP energy -89302.454397 kJ/mol
# GULP energy per Si atom -5581.403400 kJ/mol
# Density = 2.276775 g / cm^3
# Si number density = 22.819691 Si / 1000 Ang^3
#
#
#
# Elastic Constant Matrix: (Units=GPa)
#
#
# Indices 1 2 3 4 5 6 
#
# 1 128.0511 47.6182 24.4573 2.7910 62.8088 38.8557
# 2 47.6182 79.4436 43.1820 -6.1767 -9.9950 13.3833
# 3 24.4573 43.1820 113.1852 2.7085 45.5440 1.7501
# 4 2.7910 -6.1767 2.7085 40.0903 -0.8618 -6.1189
# 5 62.8088 -9.9950 45.5440 -0.8618 -59.7565 -33.3723
# 6 38.8557 13.3833 1.7501 -6.1189 -33.3723 18.2501
#
#
#
# Elastic Compliance Matrix: (Units=1/GPa)
#
#
# Indices 1 2 3 4 5 6 
#
# 1 0.006669 -0.001048 -0.003387 -0.000638 0.005962 -0.002417
# 2 -0.001048 0.018677 -0.006114 0.001313 -0.001522 -0.013220
# 3 -0.003387 -0.006114 0.011647 0.000190 0.000194 0.010997
# 4 -0.000638 0.001313 0.000190 0.025636 -0.003031 0.003430
# 5 0.005962 -0.001522 0.000194 -0.003031 -0.001473 -0.015307
# 6 -0.002417 -0.013220 0.010997 0.003430 -0.015307 0.041739
#
#
# Mechanical properties :
#
#
# Convention : Reuss Voigt Hill
#
# Bulk Modulus (GPa) = 62.91939 61.24388 62.08164
# Shear Modulus (GPa) = 38.67224 13.41161 26.04193
#
# Velocity S-wave (km/s) = 4.12112 2.42693 3.38184
# Velocity P-wave (km/s) = 7.09064 5.89489 6.52023
#
# Compressibility (1/GPa) = 0.01589335
#
# Stress axis : x y z
#
# Youngs Moduli (GPa) = 149.94576 53.54221 85.86070
#
# Poissons Ratio (x) = 0.05614 0.29085
# Poissons Ratio (y) = 0.15722 0.52493
# Poissons Ratio (z) = 0.50794 0.32734
#
# Static dielectric constant tensor:
#      x y z
#    x 1.860050 0.014390 -0.007070 
#    y 0.014390 1.959580 -0.068540 
#    z -0.007070 -0.068540 1.938590 
# 
# From -- ./inp_files/48574.got.cif
#   From: 2010.05.17/outbox.cif.g08.bks.cpg/sg2_25_cif.got.tgz:48574.got - 2010.06.03 11:33:40.
