data_PCOD9040519
_publ_section_title
;
Structure prediction by ZEFSAII (Michael W. Deem and Ramdas Pophale) SiO2 
 PCOD9040519
Probable space group: P -1
;
_chemical_formula_sum "Si O2"
_cell_formula_units_Z 12
_cell_length_a 12.383453
_cell_length_b 19.485215
_cell_length_c 9.733738
_cell_angle_alpha 28.921728
_cell_angle_beta 35.588300
_cell_angle_gamma 27.962185
_cell_volume 524.190541
_symmetry_space_group_name_H-M "P -1"
_symmetry_group_IT_number 2
_symmetry_cell_setting 'triclinic'
loop_
_space_group_symop_operation_xyz
x,y,z
-x,-y,-z
loop_
_atom_site_type_symbol
_atom_site_label
_atom_site_fract_x
_atom_site_fract_y
_atom_site_fract_z
Si Si1 0.193865 0.231807 0.862756
Si Si2 0.399236 0.990832 0.834641
Si Si3 0.055098 0.710471 0.390729
Si Si4 0.704680 0.510699 0.729828
Si Si5 0.110264 0.198649 0.316108
Si Si6 0.663677 0.283792 0.708610
O O1 0.338308 0.302357 0.540374
O O2 0.932249 0.370182 0.831762
O O3 0.313743 0.045688 0.984901
O O4 0.165153 0.240686 0.039642
O O5 0.633688 0.973223 0.601551
O O6 0.458239 0.803569 0.055363
O O7 0.179869 0.142011 0.705531
O O8 0.216701 0.549164 0.403806
O O9 0.208047 0.773829 0.174310
O O10 0.985297 0.674420 0.672407
O O11 0.500000 0.500000 0.000000
O O12 0.890310 0.196131 0.528021
O O13 0.500000 0.500000 0.500000
#
# Coordination Sequence:
#
# PCOD9040519 Si02
#       6
#     2   2   2   2   2   2
#     4  10  24  41  63 102 125 175 220 266 325 395
#     4  11  22  44  64  93 139 173 219 265 325 395
#     4   9  23  43  65  98 127 176 217 269 323 387
#     4  10  23  43  67  92 138 170 215 266 333 388
#     4  10  24  40  67  95 132 170 218 275 325 379
#     4  10  25  40  64 100 129 170 223 270 324 385
#
# _framework density 22.892439
#
# number of rings (size 3 to 8) (size 9 to 14) (size 15 to 20)
#    1.000    1.000    0.000    1.500    4.667    6.000 
#    6.000    0.000    0.000    0.000    0.000    0.000 
#    0.000    0.000    0.000    0.000    0.000    0.000 
#
# Total GULP energy -66854.513493 kJ/mol
# GULP energy per Si atom -5571.209458 kJ/mol
# Density = 2.284033 g / cm^3
# Si number density = 22.892439 Si / 1000 Ang^3
#
#
#
# Elastic Constant Matrix: (Units=GPa)
#
#
# Indices 1 2 3 4 5 6 
#
# 1 108.5122 51.0423 48.1888 15.2382 5.7585 8.5641
# 2 51.0423 86.2899 20.2960 12.3129 -8.2162 12.1568
# 3 48.1888 20.2960 50.4130 18.1629 -10.6695 3.3166
# 4 15.2382 12.3129 18.1629 26.9989 5.8321 -6.1237
# 5 5.7585 -8.2162 -10.6695 5.8321 36.7716 13.9033
# 6 8.5641 12.1568 3.3166 -6.1237 13.9033 37.5017
#
#
#
# Elastic Compliance Matrix: (Units=1/GPa)
#
#
# Indices 1 2 3 4 5 6 
#
# 1 0.037172 -0.022905 -0.050056 0.037508 -0.040705 0.024579
# 2 -0.022905 0.029678 0.031767 -0.035375 0.034836 -0.025891
# 3 -0.050056 0.031767 0.106131 -0.086400 0.078958 -0.051634
# 4 0.037508 -0.035375 -0.086400 0.121287 -0.080899 0.060340
# 5 -0.040705 0.034836 0.078958 -0.080899 0.099420 -0.059049
# 6 0.024579 -0.025891 -0.051634 0.060340 -0.059049 0.065756
#
#
# Mechanical properties :
#
#
# Convention : Reuss Voigt Hill
#
# Bulk Modulus (GPa) = 11.03834 53.80769 32.42301
# Shear Modulus (GPa) = 8.74081 28.63364 18.68722
#
# Velocity S-wave (km/s) = 1.95614 3.54049 2.86021
# Velocity P-wave (km/s) = 3.15187 6.34579 5.01015
#
# Compressibility (1/GPa) = 0.09059332
#
# Stress axis : x y z
#
# Youngs Moduli (GPa) = 26.90192 33.69499 9.42236
#
# Poissons Ratio (x) = 0.77179 0.47165
# Poissons Ratio (y) = 0.61619 -0.29932
# Poissons Ratio (z) = 1.34660 -1.07040
#
# Static dielectric constant tensor:
#      x y z
#    x 1.912660 -0.022410 -0.006290 
#    y -0.022410 1.857260 -0.015480 
#    z -0.006290 -0.015480 1.869710 
# 
# From -- ./inp_files/228703.got.cif
#   From: 2010.05.17/outbox.cif.g08.bks.cpg/sg2_115_cif.got.tgz:228703.got - 2010.06.03 11:33:40.
