data_PCOD9040185
_publ_section_title
;
Structure prediction by ZEFSAII (Michael W. Deem and Ramdas Pophale) SiO2 
 PCOD9040185
Probable space group: P -1
;
_chemical_formula_sum "Si O2"
_cell_formula_units_Z 14
_cell_length_a 14.786662
_cell_length_b 11.992637
_cell_length_c 6.615691
_cell_angle_alpha 134.840384
_cell_angle_beta 114.115633
_cell_angle_gamma 49.218591
_cell_volume 626.931452
_symmetry_space_group_name_H-M "P -1"
_symmetry_group_IT_number 2
_symmetry_cell_setting 'triclinic'
loop_
_space_group_symop_operation_xyz
x,y,z
-x,-y,-z
loop_
_atom_site_type_symbol
_atom_site_label
_atom_site_fract_x
_atom_site_fract_y
_atom_site_fract_z
Si Si1 0.695922 0.586717 0.465995
Si Si2 0.489139 0.694267 0.704265
Si Si3 0.612418 0.811437 0.276129
Si Si4 0.100351 0.805918 0.734189
Si Si5 0.063861 0.332561 0.510285
Si Si6 0.198115 0.264640 0.921170
Si Si7 0.205991 0.002260 0.894935
O O1 0.562306 0.672031 0.538124
O O2 0.688795 0.674904 0.356270
O O3 0.779344 0.357094 0.245858
O O4 0.759638 0.648535 0.761558
O O5 0.500000 0.500000 0.500000
O O6 0.350046 0.868608 0.825570
O O7 0.565979 0.711049 0.968587
O O8 0.681394 0.869975 0.269475
O O9 0.500000 0.000000 0.500000
O O10 0.152162 0.874649 0.696492
O O11 0.027354 0.709458 0.523715
O O12 0.000000 0.000000 0.000000
O O13 0.112059 0.388426 0.816133
O O14 0.000000 0.500000 0.500000
O O15 0.162033 0.138914 0.229000
O O16 0.156164 0.147295 0.847676
#
# Coordination Sequence:
#
# PCOD9040185 Si02
#       7
#     2   2   2   2   2   2   2
#     4  11  23  44  69  96 135 174 228 274 333 404
#     4  11  23  42  67 101 138 176 219 275 341 398
#     4  11  23  41  68 100 135 180 227 276 335 404
#     4  10  23  43  64  92 134 175 219 274 332 403
#     4  11  24  44  69  97 131 176 227 278 336 393
#     4  11  23  40  69  97 128 174 227 279 328 393
#     4  11  23  43  65  96 139 172 221 273 337 404
#
# _framework density 22.33099
#
# number of rings (size 3 to 8) (size 9 to 14) (size 15 to 20)
#    0.000    1.143    1.429    5.143    0.000    5.714 
#    5.143    4.286    0.000    0.000    0.000    0.000 
#    0.000    0.000    0.000    0.000    0.000    0.000 
#
# Total GULP energy -78119.891599 kJ/mol
# GULP energy per Si atom -5579.992257 kJ/mol
# Density = 2.228016 g / cm^3
# Si number density = 22.330990 Si / 1000 Ang^3
#
#
#
# Elastic Constant Matrix: (Units=GPa)
#
#
# Indices 1 2 3 4 5 6 
#
# 1 154.0627 41.4325 30.5860 -3.4609 -14.6982 18.3952
# 2 41.4325 124.0436 33.1206 -1.4077 -12.8016 9.6871
# 3 30.5860 33.1206 52.8052 -2.8546 -15.4446 1.3268
# 4 -3.4609 -1.4077 -2.8546 39.9774 -8.9524 -9.1138
# 5 -14.6982 -12.8016 -15.4446 -8.9524 40.7692 10.7681
# 6 18.3952 9.6871 1.3268 -9.1138 10.7681 44.8374
#
#
#
# Elastic Compliance Matrix: (Units=1/GPa)
#
#
# Indices 1 2 3 4 5 6 
#
# 1 0.008103 -0.001382 -0.003068 0.000156 0.002271 -0.003449
# 2 -0.001382 0.010171 -0.005219 -0.000293 0.001132 -0.001807
# 3 -0.003068 -0.005219 0.026469 0.003297 0.007908 0.000374
# 4 0.000156 -0.000293 0.003297 0.027557 0.006205 0.004013
# 5 0.002271 0.001132 0.007908 0.006205 0.032138 -0.007867
# 6 -0.003449 -0.001807 0.000374 0.004013 -0.007867 0.026802
#
#
# Mechanical properties :
#
#
# Convention : Reuss Voigt Hill
#
# Bulk Modulus (GPa) = 39.35840 60.13221 49.74531
# Shear Modulus (GPa) = 31.43711 40.16828 35.80270
#
# Velocity S-wave (km/s) = 3.75611 4.24579 4.00843
# Velocity P-wave (km/s) = 6.03941 7.14295 6.61424
#
# Compressibility (1/GPa) = 0.02540754
#
# Stress axis : x y z
#
# Youngs Moduli (GPa) = 123.40353 98.31530 37.77950
#
# Poissons Ratio (x) = 0.13589 0.11589
# Poissons Ratio (y) = 0.17057 0.19715
# Poissons Ratio (z) = 0.37855 0.51306
#
# Static dielectric constant tensor:
#      x y z
#    x 1.932690 -0.031370 -0.017520 
#    y -0.031370 1.828990 0.015230 
#    z -0.017520 0.015230 1.807870 
# 
# From -- ./inp_files/38700.got.cif
#   From: 2010.05.17/outbox.cif.g08.bks.cpg/sg2_20_cif.got.tgz:38700.got - 2010.06.03 11:33:40.
