data_PCOD9040959
_publ_section_title
;
Structure prediction by ZEFSAII (Michael W. Deem and Ramdas Pophale) SiO2 
 PCOD9040959
Probable space group: P -1
;
_chemical_formula_sum "Si O2"
_cell_formula_units_Z 14
_cell_length_a 7.098035
_cell_length_b 9.935867
_cell_length_c 12.051722
_cell_angle_alpha 128.140306
_cell_angle_beta 110.042596
_cell_angle_gamma 98.908139
_cell_volume 545.292249
_symmetry_space_group_name_H-M "P -1"
_symmetry_group_IT_number 2
_symmetry_cell_setting 'triclinic'
loop_
_space_group_symop_operation_xyz
x,y,z
-x,-y,-z
loop_
_atom_site_type_symbol
_atom_site_label
_atom_site_fract_x
_atom_site_fract_y
_atom_site_fract_z
Si Si1 0.652992 0.835015 0.760644
Si Si2 0.944246 0.436746 0.194806
Si Si3 0.849372 0.109034 0.155525
Si Si4 0.559191 0.511161 0.732688
Si Si5 0.544522 0.759764 0.065112
Si Si6 0.927297 0.807997 0.316528
Si Si7 0.363954 0.067327 0.424439
O O1 0.514367 0.616945 0.672744
O O2 0.546359 0.884868 0.659112
O O3 0.896289 0.863856 0.777886
O O4 0.724248 0.978495 0.954041
O O5 0.876442 0.319680 0.238312
O O6 0.970178 0.650617 0.309275
O O7 0.177699 0.446047 0.205651
O O8 0.723581 0.312598 0.007057
O O9 0.698619 0.982290 0.163218
O O10 0.398361 0.277120 0.579878
O O11 0.545969 0.623660 0.895154
O O12 0.673261 0.731353 0.179661
O O13 0.000000 0.000000 0.500000
O O14 0.102721 0.888953 0.288730
O O15 0.500000 0.000000 0.500000
#
# Coordination Sequence:
#
# PCOD9040959 Si02
#       7
#     2   2   2   2   2   2   2
#     4   9  19  38  68  98 133 167 217 281 329 384
#     4  11  23  42  67 100 131 169 228 264 328 400
#     4   9  19  39  69 100 124 168 225 276 327 389
#     4  10  23  43  70 100 127 172 224 273 333 393
#     4  11  23  45  71  93 134 176 215 282 330 389
#     4  12  27  45  61  94 140 178 218 273 334 391
#     4  12  23  41  65  96 137 176 217 267 331 396
#
# _framework density 25.674309000000001
#
# number of rings (size 3 to 8) (size 9 to 14) (size 15 to 20)
#    0.000    1.429    2.857    3.000    0.000    2.857 
#    0.000    0.714    0.000    0.000    0.000    0.000 
#    0.000    0.000    0.000    0.000    0.000    0.000 
#
# Total GULP energy -78453.832129 kJ/mol
# GULP energy per Si atom -5603.845152 kJ/mol
# Density = 2.561587 g / cm^3
# Si number density = 25.674309 Si / 1000 Ang^3
#
#
#
# Elastic Constant Matrix: (Units=GPa)
#
#
# Indices 1 2 3 4 5 6 
#
# 1 88.7510 29.7519 8.7616 3.4024 8.3329 -0.0931
# 2 29.7519 222.5992 43.9169 24.9187 -14.5538 -11.2295
# 3 8.7616 43.9169 63.9882 7.6352 -10.0548 2.6936
# 4 3.4024 24.9187 7.6352 57.6961 0.1534 5.0569
# 5 8.3329 -14.5538 -10.0548 0.1534 43.2940 0.2597
# 6 -0.0931 -11.2295 2.6936 5.0569 0.2597 28.6755
#
#
#
# Elastic Compliance Matrix: (Units=1/GPa)
#
#
# Indices 1 2 3 4 5 6 
#
# 1 0.012221 -0.001689 -0.001011 0.000198 -0.003152 -0.000533
# 2 -0.001689 0.005900 -0.003439 -0.002261 0.001500 0.003013
# 3 -0.001011 -0.003439 0.018879 -0.000697 0.003443 -0.003032
# 4 0.000198 -0.002261 -0.000697 0.018753 -0.001002 -0.004118
# 5 -0.003152 0.001500 0.003443 -0.001002 0.025011 0.000204
# 6 -0.000533 0.003013 -0.003032 -0.004118 0.000204 0.037060
#
#
# Mechanical properties :
#
#
# Convention : Reuss Voigt Hill
#
# Bulk Modulus (GPa) = 40.45030 60.02213 50.23621
# Shear Modulus (GPa) = 36.14211 45.46033 40.80122
#
# Velocity S-wave (km/s) = 3.75602 4.21248 3.99078
# Velocity P-wave (km/s) = 5.88215 6.86214 6.39096
#
# Compressibility (1/GPa) = 0.02472170
#
# Stress axis : x y z
#
# Youngs Moduli (GPa) = 81.82397 169.49359 52.96998
#
# Poissons Ratio (x) = 0.28632 0.05353
# Poissons Ratio (y) = 0.13822 0.18218
# Poissons Ratio (z) = 0.08268 0.58295
#
# Static dielectric constant tensor:
#      x y z
#    x 2.069670 -0.013460 0.020470 
#    y -0.013460 2.043910 0.046540 
#    z 0.020470 0.046540 2.009220 
# 
# From -- ./inp_files/495653.got.cif
#   From: 2010.05.17/outbox.cif.g08.bks.cpg/sg2_248_cif.got.tgz:495653.got - 2010.06.03 11:33:40.
