data_PCOD9040096
_publ_section_title
;
Structure prediction by ZEFSAII (Michael W. Deem and Ramdas Pophale) SiO2 
 PCOD9040096
Probable space group: P -1
;
_chemical_formula_sum "Si O2"
_cell_formula_units_Z 12
_cell_length_a 8.239130
_cell_length_b 7.858714
_cell_length_c 10.715397
_cell_angle_alpha 60.653088
_cell_angle_beta 62.569912
_cell_angle_gamma 55.471929
_cell_volume 481.815126
_symmetry_space_group_name_H-M "P -1"
_symmetry_group_IT_number 2
_symmetry_cell_setting 'triclinic'
loop_
_space_group_symop_operation_xyz
x,y,z
-x,-y,-z
loop_
_atom_site_type_symbol
_atom_site_label
_atom_site_fract_x
_atom_site_fract_y
_atom_site_fract_z
Si Si1 0.212018 0.806062 0.450535
Si Si2 0.725377 0.250761 0.090766
Si Si3 0.500669 0.976181 0.209424
Si Si4 0.863754 0.570922 0.288306
Si Si5 0.943917 0.160023 0.775400
Si Si6 0.203184 0.363694 0.056112
O O1 0.386899 0.883946 0.376787
O O2 0.238382 0.583736 0.583715
O O3 0.193506 0.778275 0.318890
O O4 0.000000 0.000000 0.500000
O O5 0.562201 0.155438 0.181704
O O6 0.824321 0.210032 0.931405
O O7 0.665650 0.499330 0.053508
O O8 0.903110 0.096147 0.177495
O O9 0.710784 0.762987 0.181448
O O10 0.345610 0.108640 0.106676
O O11 0.915524 0.711346 0.322047
O O12 0.085795 0.414392 0.213073
O O13 0.000000 0.500000 0.000000
#
# Coordination Sequence:
#
# PCOD9040096 Si02
#       6
#     2   2   2   2   2   2
#     4  12  23  40  65  93 130 170 212 258 314 374
#     4   9  20  39  64  96 124 163 213 260 320 364
#     4  11  23  41  63  92 131 162 214 262 309 381
#     4  10  23  43  62  91 127 168 212 255 318 374
#     4   9  20  40  68  90 125 169 208 260 317 376
#     4  11  22  39  67  95 128 164 206 268 314 373
#
# _framework density 24.905816999999999
#
# number of rings (size 3 to 8) (size 9 to 14) (size 15 to 20)
#    0.000    1.667    1.667    3.500    0.000    2.667 
#    0.000    3.333    0.000    0.000    0.000    0.000 
#    0.000    0.000    0.000    0.000    0.000    0.000 
#
# Total GULP energy -67038.848137 kJ/mol
# GULP energy per Si atom -5586.570678 kJ/mol
# Density = 2.484913 g / cm^3
# Si number density = 24.905817 Si / 1000 Ang^3
#
#
#
# Elastic Constant Matrix: (Units=GPa)
#
#
# Indices 1 2 3 4 5 6 
#
# 1 95.9477 18.3601 47.3624 -25.9461 -34.6849 -2.9595
# 2 18.3601 117.8089 33.8238 -35.6665 -10.5641 -22.1302
# 3 47.3624 33.8238 84.7902 -44.0775 -29.9082 12.7944
# 4 -25.9461 -35.6665 -44.0775 48.7099 4.2857 -7.5113
# 5 -34.6849 -10.5641 -29.9082 4.2857 60.4906 -11.8640
# 6 -2.9595 -22.1302 12.7944 -7.5113 -11.8640 36.1162
#
#
#
# Elastic Compliance Matrix: (Units=1/GPa)
#
#
# Indices 1 2 3 4 5 6 
#
# 1 0.019058 0.004655 -0.005756 0.009249 0.010563 0.011847
# 2 0.004655 0.016486 -0.001107 0.015456 0.007129 0.016431
# 3 -0.005756 -0.001107 0.031512 0.023123 0.009595 -0.004353
# 4 0.009249 0.015456 0.023123 0.059189 0.019299 0.020686
# 5 0.010563 0.007129 0.009595 0.019299 0.030309 0.015805
# 6 0.011847 0.016431 -0.004353 0.020686 0.015805 0.049764
#
#
# Mechanical properties :
#
#
# Convention : Reuss Voigt Hill
#
# Bulk Modulus (GPa) = 15.96442 55.29328 35.62885
# Shear Modulus (GPa) = 21.58757 42.33004 31.95880
#
# Velocity S-wave (km/s) = 2.94729 4.12710 3.58605
# Velocity P-wave (km/s) = 4.24333 6.70520 5.61095
#
# Compressibility (1/GPa) = 0.06263930
#
# Stress axis : x y z
#
# Youngs Moduli (GPa) = 52.47157 60.65856 31.73350
#
# Poissons Ratio (x) = -0.28238 0.18267
# Poissons Ratio (y) = -0.24426 0.03513
# Poissons Ratio (z) = 0.30205 0.06716
#
# Static dielectric constant tensor:
#      x y z
#    x 2.065100 0.012940 0.032230 
#    y 0.012940 1.953630 0.039920 
#    z 0.032230 0.039920 2.005140 
# 
# From -- ./inp_files/150135.got.cif
#   From: 2010.05.17/outbox.cif.g08.bks.cpg/sg2_76_cif.got.tgz:150135.got - 2010.06.03 11:33:40.
