data_PCOD9040791
_publ_section_title
;
Structure prediction by ZEFSAII (Michael W. Deem and Ramdas Pophale) SiO2 
 PCOD9040791
Probable space group: P -1
;
_chemical_formula_sum "Si O2"
_cell_formula_units_Z 14
_cell_length_a 8.308920
_cell_length_b 11.222082
_cell_length_c 9.638336
_cell_angle_alpha 129.740961
_cell_angle_beta 108.290711
_cell_angle_gamma 82.556510
_cell_volume 653.024300
_symmetry_space_group_name_H-M "P -1"
_symmetry_group_IT_number 2
_symmetry_cell_setting 'triclinic'
loop_
_space_group_symop_operation_xyz
x,y,z
-x,-y,-z
loop_
_atom_site_type_symbol
_atom_site_label
_atom_site_fract_x
_atom_site_fract_y
_atom_site_fract_z
Si Si1 0.822451 0.022167 0.543566
Si Si2 0.598816 0.699895 0.261863
Si Si3 0.461207 0.484897 0.313248
Si Si4 0.244843 0.774433 0.080373
Si Si5 0.598951 0.164355 0.111218
Si Si6 0.211568 0.721031 0.476534
Si Si7 0.901887 0.545751 0.145843
O O1 0.853651 0.123604 0.765546
O O2 0.728787 0.131560 0.493847
O O3 0.702143 0.868434 0.433822
O O4 0.000000 0.000000 0.500000
O O5 0.576448 0.594476 0.317221
O O6 0.416557 0.729105 0.170243
O O7 0.718330 0.610704 0.123442
O O8 0.500000 0.500000 0.500000
O O9 0.478952 0.304027 0.152633
O O10 0.287465 0.566683 0.324438
O O11 0.298000 0.859876 0.017953
O O12 0.134370 0.613644 0.898896
O O13 0.723809 0.232311 0.318774
O O14 0.500000 0.000000 0.000000
O O15 0.987244 0.324678 0.637725
O O16 0.000000 0.500000 0.000000
#
# Coordination Sequence:
#
# PCOD9040791 Si02
#       7
#     2   2   2   2   2   2   2
#     4  12  24  44  70 104 141 178 230 295 349 401
#     4  12  23  42  73 101 136 183 236 285 342 415
#     4  10  23  43  69 100 134 185 230 279 349 413
#     4  12  25  42  72 103 133 185 242 283 342 417
#     4  11  26  46  70 104 140 180 236 289 346 416
#     4  11  24  47  67 101 149 182 222 292 352 405
#     4  12  23  42  68 102 141 175 232 285 346 409
#
# _framework density 21.438711000000001
#
# number of rings (size 3 to 8) (size 9 to 14) (size 15 to 20)
#    0.000    0.571    5.714    1.714    6.000    0.571 
#    2.571    0.714    0.000    0.000    0.000    0.000 
#    0.000    0.000    0.000    0.000    0.000    0.000 
#
# Total GULP energy -78158.849894 kJ/mol
# GULP energy per Si atom -5582.774992 kJ/mol
# Density = 2.138992 g / cm^3
# Si number density = 21.438711 Si / 1000 Ang^3
#
#
#
# Elastic Constant Matrix: (Units=GPa)
#
#
# Indices 1 2 3 4 5 6 
#
# 1 82.1677 36.1600 42.6759 -1.7330 -5.5469 10.4388
# 2 36.1600 152.6383 45.0510 1.9424 6.1961 30.7541
# 3 42.6759 45.0510 117.3814 -7.2262 -11.6671 4.5690
# 4 -1.7330 1.9424 -7.2262 44.9590 8.5020 -0.6978
# 5 -5.5469 6.1961 -11.6671 8.5020 39.9737 7.6315
# 6 10.4388 30.7541 4.5690 -0.6978 7.6315 36.0634
#
#
#
# Elastic Compliance Matrix: (Units=1/GPa)
#
#
# Indices 1 2 3 4 5 6 
#
# 1 0.015962 -0.001853 -0.004840 -0.000451 0.001720 -0.002800
# 2 -0.001853 0.009221 -0.002754 -0.000825 -0.001021 -0.006778
# 3 -0.004840 -0.002754 0.011600 0.001349 0.002515 0.001773
# 4 -0.000451 -0.000825 0.001349 0.023445 -0.004941 0.002162
# 5 0.001720 -0.001021 0.002515 -0.004941 0.028352 -0.006041
# 6 -0.002800 -0.006778 0.001773 0.002162 -0.006041 0.035415
#
#
# Mechanical properties :
#
#
# Convention : Reuss Voigt Hill
#
# Bulk Modulus (GPa) = 55.89918 66.66236 61.28077
# Shear Modulus (GPa) = 33.59091 39.41924 36.50508
#
# Velocity S-wave (km/s) = 3.96262 4.29265 4.13093
# Velocity P-wave (km/s) = 6.86054 7.46532 7.16931
#
# Compressibility (1/GPa) = 0.01788935
#
# Stress axis : x y z
#
# Youngs Moduli (GPa) = 62.65048 108.45181 86.20901
#
# Poissons Ratio (x) = 0.20094 0.41724
# Poissons Ratio (y) = 0.11608 0.23739
# Poissons Ratio (z) = 0.30322 0.29864
#
# Static dielectric constant tensor:
#      x y z
#    x 1.830270 -0.020140 -0.018280 
#    y -0.020140 1.813430 0.025950 
#    z -0.018280 0.025950 1.794390 
# 
# From -- ./inp_files/151950.got.cif
#   From: 2010.05.17/outbox.cif.g08.bks.cpg/sg2_76_cif.got.tgz:151950.got - 2010.06.03 11:33:40.
