data_PCOD9040033
_publ_section_title
;
Structure prediction by ZEFSAII (Michael W. Deem and Ramdas Pophale) SiO2 
 PCOD9040033
Probable space group: P -1
;
_chemical_formula_sum "Si O2"
_cell_formula_units_Z 16
_cell_length_a 8.698739
_cell_length_b 12.932080
_cell_length_c 21.400875
_cell_angle_alpha 145.930478
_cell_angle_beta 39.507560
_cell_angle_gamma 116.014086
_cell_volume 709.291293
_symmetry_space_group_name_H-M "P -1"
_symmetry_group_IT_number 2
_symmetry_cell_setting 'triclinic'
loop_
_space_group_symop_operation_xyz
x,y,z
-x,-y,-z
loop_
_atom_site_type_symbol
_atom_site_label
_atom_site_fract_x
_atom_site_fract_y
_atom_site_fract_z
Si Si1 0.032149 0.922950 0.211204
Si Si2 0.367234 0.219217 0.110884
Si Si3 0.659696 0.040300 0.260532
Si Si4 0.301582 0.621078 0.378537
Si Si5 0.935593 0.902502 0.530052
Si Si6 0.879325 0.447726 0.180452
Si Si7 0.127582 0.767341 0.806344
Si Si8 0.179992 0.677244 0.161602
O O1 0.068875 0.732919 0.152215
O O2 0.820234 0.982691 0.248149
O O3 0.358536 0.821260 0.034073
O O4 0.892201 0.165188 0.409395
O O5 0.248426 0.425509 0.299029
O O6 0.123351 0.241893 0.153581
O O7 0.500000 0.000000 0.000000
O O8 0.323282 0.128116 0.414848
O O9 0.686918 0.213965 0.297181
O O10 0.837535 0.798559 0.048557
O O11 0.633123 0.519114 0.241618
O O12 0.221069 0.696389 0.369246
O O13 0.835682 0.099621 0.708564
O O14 0.000000 0.000000 0.500000
O O15 0.752170 0.420350 0.271474
O O16 0.973849 0.620581 0.234276
O O17 0.000000 0.000000 0.000000
O O18 0.500000 0.500000 0.000000
#
# Coordination Sequence:
#
# PCOD9040033 Si02
#       8
#     2   2   2   2   2   2   2   2
#     4  11  26  44  71 103 150 185 240 300 358 428
#     4  12  23  48  72 105 144 191 239 293 364 428
#     4  11  23  48  69 107 140 194 239 293 365 424
#     4  11  28  46  69 111 139 191 239 299 358 427
#     4  11  28  45  69 103 149 184 245 300 355 431
#     4  11  23  45  74 103 143 189 245 293 361 429
#     4  10  23  42  75 101 141 186 239 291 353 433
#     4  11  24  43  70 103 136 191 239 295 360 421
#
# _framework density 22.557727
#
# number of rings (size 3 to 8) (size 9 to 14) (size 15 to 20)
#    0.000    1.000    3.750    1.500   12.250    2.000 
#    2.250    1.250    0.000    0.000    0.000    0.000 
#    0.000    0.000    0.000    0.000    0.000    0.000 
#
# Total GULP energy -89306.269610 kJ/mol
# GULP energy per Si atom -5581.641851 kJ/mol
# Density = 2.250638 g / cm^3
# Si number density = 22.557727 Si / 1000 Ang^3
#
#
#
# Elastic Constant Matrix: (Units=GPa)
#
#
# Indices 1 2 3 4 5 6 
#
# 1 144.4818 73.4313 24.5085 -8.0103 -31.9378 9.5309
# 2 73.4313 174.5433 29.6073 1.8319 -30.6480 -16.4691
# 3 24.5085 29.6073 48.7157 10.1149 -5.8255 -1.8916
# 4 -8.0103 1.8319 10.1149 34.5885 5.5036 -1.6627
# 5 -31.9378 -30.6480 -5.8255 5.5036 46.0970 5.6359
# 6 9.5309 -16.4691 -1.8916 -1.6627 5.6359 42.5214
#
#
#
# Elastic Compliance Matrix: (Units=1/GPa)
#
#
# Indices 1 2 3 4 5 6 
#
# 1 0.010862 -0.003573 -0.003439 0.002706 0.004945 -0.004521
# 2 -0.003573 0.008483 -0.002784 -0.000679 0.002452 0.003611
# 3 -0.003439 -0.002784 0.025643 -0.008108 -0.000089 0.000528
# 4 0.002706 -0.000679 -0.008108 0.032534 -0.003548 0.000512
# 5 0.004945 0.002452 -0.000089 -0.003548 0.027647 -0.003966
# 6 -0.004521 0.003611 0.000528 0.000512 -0.003966 0.026499
#
#
# Mechanical properties :
#
#
# Convention : Reuss Voigt Hill
#
# Bulk Modulus (GPa) = 39.37617 69.20388 54.29002
# Shear Modulus (GPa) = 31.30386 40.65430 35.97908
#
# Velocity S-wave (km/s) = 3.72926 4.24988 3.99805
# Velocity P-wave (km/s) = 6.00306 7.40453 6.74032
#
# Compressibility (1/GPa) = 0.02539607
#
# Stress axis : x y z
#
# Youngs Moduli (GPa) = 92.06384 117.88213 38.99775
#
# Poissons Ratio (x) = 0.42120 0.13412
# Poissons Ratio (y) = 0.32895 0.10855
# Poissons Ratio (z) = 0.31663 0.32813
#
# Static dielectric constant tensor:
#      x y z
#    x 1.969200 -0.057390 0.060730 
#    y -0.057390 1.735290 -0.025890 
#    z 0.060730 -0.025890 1.873800 
# 
# From -- ./inp_files/589601.got.cif
#   From: 2010.05.17/outbox.cif.g08.bks.cpg/sg2_295_cif.got.tgz:589601.got - 2010.06.03 11:33:40.
