data_PCOD9040362
_publ_section_title
;
Structure prediction by ZEFSAII (Michael W. Deem and Ramdas Pophale) SiO2 
 PCOD9040362
Probable space group: P -1
;
_chemical_formula_sum "Si O2"
_cell_formula_units_Z 16
_cell_length_a 7.783328
_cell_length_b 12.781684
_cell_length_c 9.501409
_cell_angle_alpha 134.698174
_cell_angle_beta 83.355730
_cell_angle_gamma 97.279053
_cell_volume 666.007379
_symmetry_space_group_name_H-M "P -1"
_symmetry_group_IT_number 2
_symmetry_cell_setting 'triclinic'
loop_
_space_group_symop_operation_xyz
x,y,z
-x,-y,-z
loop_
_atom_site_type_symbol
_atom_site_label
_atom_site_fract_x
_atom_site_fract_y
_atom_site_fract_z
Si Si1 0.418679 0.128763 0.543642
Si Si2 0.994145 0.687771 0.857551
Si Si3 0.107158 0.873862 0.793646
Si Si4 0.045997 0.356877 0.634794
Si Si5 0.544741 0.632165 0.423336
Si Si6 0.953917 0.833870 0.291511
Si Si7 0.392215 0.316555 0.209846
Si Si8 0.521411 0.980286 0.144279
O O1 0.527935 0.270982 0.605031
O O2 0.254544 0.177016 0.688143
O O3 0.500000 0.000000 0.500000
O O4 0.379691 0.051121 0.321408
O O5 0.813936 0.707466 0.811453
O O6 0.140246 0.751141 0.794769
O O7 0.992236 0.516231 0.738661
O O8 0.006645 0.792208 0.091154
O O9 0.007167 0.777100 0.592653
O O10 0.283709 0.948156 0.781949
O O11 0.000000 0.000000 0.000000
O O12 0.253888 0.378589 0.641304
O O13 0.981248 0.291633 0.728958
O O14 0.446030 0.475483 0.295653
O O15 0.550038 0.691811 0.640279
O O16 0.000000 0.000000 0.500000
O O17 0.478499 0.192735 0.994618
O O18 0.500000 0.000000 0.000000
#
# Coordination Sequence:
#
# PCOD9040362 Si02
#       8
#     2   2   2   2   2   2   2   2
#     4  11  26  46  68  98 140 182 237 279 353 423
#     4  12  25  43  71 105 137 184 239 286 357 421
#     4  12  25  43  73 103 143 179 238 298 344 417
#     4  11  25  44  69 105 138 185 234 287 357 422
#     4  10  23  43  66 102 143 182 221 296 354 413
#     4  11  27  47  70  97 145 188 232 294 351 424
#     4  11  23  41  69 102 143 176 232 290 353 416
#     4  12  26  43  70 105 137 183 238 289 351 415
#
# _framework density 24.023759999999999
#
# number of rings (size 3 to 8) (size 9 to 14) (size 15 to 20)
#    0.000    0.750    3.750    2.250    8.750    0.000 
#    0.000    5.625    0.000    0.000    0.000    0.000 
#    0.000    0.000    0.000    0.000    0.000    0.000 
#
# Total GULP energy -89452.731831 kJ/mol
# GULP energy per Si atom -5590.795739 kJ/mol
# Density = 2.396908 g / cm^3
# Si number density = 24.023760 Si / 1000 Ang^3
#
#
#
# Elastic Constant Matrix: (Units=GPa)
#
#
# Indices 1 2 3 4 5 6 
#
# 1 44.0162 5.4802 10.0200 2.7494 5.9401 0.4907
# 2 5.4802 169.8954 22.6382 8.7811 18.2244 -5.0776
# 3 10.0200 22.6382 72.0484 7.1821 12.1706 6.9530
# 4 2.7494 8.7811 7.1821 47.4217 2.7486 -0.8440
# 5 5.9401 18.2244 12.1706 2.7486 28.2590 8.1592
# 6 0.4907 -5.0776 6.9530 -0.8440 8.1592 30.2075
#
#
#
# Elastic Compliance Matrix: (Units=1/GPa)
#
#
# Indices 1 2 3 4 5 6 
#
# 1 0.023926 0.000127 -0.002707 -0.000728 -0.004276 0.001390
# 2 0.000127 0.006672 -0.001563 -0.000707 -0.004348 0.002634
# 3 -0.002707 -0.001563 0.015918 -0.001764 -0.004308 -0.002768
# 4 -0.000728 -0.000707 -0.001764 0.021611 -0.001078 0.001194
# 5 -0.004276 -0.004348 -0.004308 -0.001078 0.044428 -0.011700
# 6 0.001390 0.002634 -0.002768 0.001194 -0.011700 0.037355
#
#
# Mechanical properties :
#
#
# Convention : Reuss Voigt Hill
#
# Bulk Modulus (GPa) = 26.15759 40.24851 33.20305
# Shear Modulus (GPa) = 29.24999 37.69908 33.47453
#
# Velocity S-wave (km/s) = 3.49312 3.96566 3.73687
# Velocity P-wave (km/s) = 5.21354 6.14481 5.69823
#
# Compressibility (1/GPa) = 0.03822983
#
# Stress axis : x y z
#
# Youngs Moduli (GPa) = 41.79498 149.88399 62.82274
#
# Poissons Ratio (x) = -0.01900 0.17004
# Poissons Ratio (y) = -0.00530 0.09821
# Poissons Ratio (z) = 0.11312 0.23430
#
# Static dielectric constant tensor:
#      x y z
#    x 1.960700 -0.036400 -0.001240 
#    y -0.036400 1.988490 0.014810 
#    z -0.001240 0.014810 1.908640 
# 
# From -- ./inp_files/158713.got.cif
#   From: 2010.05.17/outbox.cif.g08.bks.cpg/sg2_80_cif.got.tgz:158713.got - 2010.06.03 11:33:40.
