data_PCOD9040180
_publ_section_title
;
Structure prediction by ZEFSAII (Michael W. Deem and Ramdas Pophale) SiO2 
 PCOD9040180
Probable space group: P -1
;
_chemical_formula_sum "Si O2"
_cell_formula_units_Z 14
_cell_length_a 18.231065
_cell_length_b 7.709097
_cell_length_c 15.611021
_cell_angle_alpha 46.247239
_cell_angle_beta 20.728925
_cell_angle_gamma 55.530405
_cell_volume 532.187258
_symmetry_space_group_name_H-M "P -1"
_symmetry_group_IT_number 2
_symmetry_cell_setting 'triclinic'
loop_
_space_group_symop_operation_xyz
x,y,z
-x,-y,-z
loop_
_atom_site_type_symbol
_atom_site_label
_atom_site_fract_x
_atom_site_fract_y
_atom_site_fract_z
Si Si1 0.821746 0.276612 0.936655
Si Si2 0.636889 0.091771 0.691044
Si Si3 0.953287 0.556858 0.934512
Si Si4 0.256863 0.281665 0.196050
Si Si5 0.679420 0.721054 0.616368
Si Si6 0.809230 0.020439 0.867102
Si Si7 0.242280 0.975758 0.739663
O O1 0.784454 0.549040 0.894879
O O2 0.746193 0.178737 0.957455
O O3 0.082129 0.316102 0.636311
O O4 0.706328 0.056670 0.206040
O O5 0.696918 0.983830 0.751095
O O6 0.688255 0.922531 0.613889
O O7 0.810647 0.368026 0.395280
O O8 0.390596 0.077396 0.946816
O O9 0.862863 0.788048 0.934144
O O10 0.000000 0.500000 0.000000
O O11 0.786002 0.302842 0.169259
O O12 0.023649 0.206815 0.524600
O O13 0.480394 0.464014 0.932704
O O14 0.645966 0.828380 0.522770
O O15 0.000000 0.000000 0.000000
#
# Coordination Sequence:
#
# PCOD9040180 Si02
#       7
#     2   2   2   2   2   2   2
#     4  11  21  37  62  95 127 164 203 258 311 366
#     4  11  22  37  63  97 124 160 210 259 310 357
#     4  11  21  43  65  89 128 164 208 259 308 371
#     4  11  22  36  65  96 129 159 215 260 302 362
#     4  11  20  37  61  95 127 159 205 261 306 362
#     4  11  23  38  65  99 122 163 211 261 308 363
#     4  10  23  43  64  92 127 163 207 256 317 376
#
# _framework density 26.306532000000001
#
# number of rings (size 3 to 8) (size 9 to 14) (size 15 to 20)
#    0.000    1.143    5.714    2.571    0.000    1.143 
#    0.000    5.714    0.000   15.429    0.000    0.000 
#    0.000    0.000    0.000    0.000    0.000    0.000 
#
# Total GULP energy -78283.539208 kJ/mol
# GULP energy per Si atom -5591.681372 kJ/mol
# Density = 2.624666 g / cm^3
# Si number density = 26.306532 Si / 1000 Ang^3
#
#
#
# Elastic Constant Matrix: (Units=GPa)
#
#
# Indices 1 2 3 4 5 6 
#
# 1 112.1006 28.5865 31.9500 6.9955 14.8072 -46.2715
# 2 28.5865 83.2602 37.1295 1.1634 15.0990 -23.6139
# 3 31.9500 37.1295 153.9494 -9.1415 11.8696 -12.7402
# 4 6.9955 1.1634 -9.1415 41.4172 -9.4640 3.7740
# 5 14.8072 15.0990 11.8696 -9.4640 50.8824 -4.1099
# 6 -46.2715 -23.6139 -12.7402 3.7740 -4.1099 47.4501
#
#
#
# Elastic Compliance Matrix: (Units=1/GPa)
#
#
# Indices 1 2 3 4 5 6 
#
# 1 0.017240 0.000760 -0.002397 -0.005996 -0.004455 0.016637
# 2 0.000760 0.016230 -0.003279 -0.002978 -0.004195 0.007811
# 3 -0.002397 -0.003279 0.007745 0.002429 0.000148 -0.002070
# 4 -0.005996 -0.002978 0.002429 0.028046 0.006605 -0.008336
# 5 -0.004455 -0.004195 0.000148 0.006605 0.022991 -0.004926
# 6 0.016637 0.007811 -0.002070 -0.008336 -0.004926 0.040867
#
#
# Mechanical properties :
#
#
# Convention : Reuss Voigt Hill
#
# Bulk Modulus (GPa) = 31.86421 60.51581 46.19001
# Shear Modulus (GPa) = 32.59218 44.72622 38.65920
#
# Velocity S-wave (km/s) = 3.52367 4.12781 3.83765
# Velocity P-wave (km/s) = 5.35668 6.76554 6.10191
#
# Compressibility (1/GPa) = 0.03138317
#
# Stress axis : x y z
#
# Youngs Moduli (GPa) = 58.00493 61.61582 129.10862
#
# Poissons Ratio (x) = -0.04683 0.30947
# Poissons Ratio (y) = -0.04409 0.42334
# Poissons Ratio (z) = 0.13904 0.20204
#
# Static dielectric constant tensor:
#      x y z
#    x 2.140530 0.017740 0.046650 
#    y 0.017740 2.145770 0.006700 
#    z 0.046650 0.006700 2.186840 
# 
# From -- ./inp_files/272946.got.cif
#   From: 2010.05.17/outbox.cif.g08.bks.cpg/sg2_137_cif.got.tgz:272946.got - 2010.06.03 11:33:40.
