data_PCOD9040045
_publ_section_title
;
Structure prediction by ZEFSAII (Michael W. Deem and Ramdas Pophale) SiO2 
 PCOD9040045
Probable space group: P -1
;
_chemical_formula_sum "Si O2"
_cell_formula_units_Z 14
_cell_length_a 9.021898
_cell_length_b 13.560177
_cell_length_c 7.457304
_cell_angle_alpha 56.570351
_cell_angle_beta 50.444137
_cell_angle_gamma 59.405004
_cell_volume 569.028365
_symmetry_space_group_name_H-M "P -1"
_symmetry_group_IT_number 2
_symmetry_cell_setting 'triclinic'
loop_
_space_group_symop_operation_xyz
x,y,z
-x,-y,-z
loop_
_atom_site_type_symbol
_atom_site_label
_atom_site_fract_x
_atom_site_fract_y
_atom_site_fract_z
Si Si1 0.891392 0.358707 0.166362
Si Si2 0.844152 0.092728 0.398872
Si Si3 0.489115 0.458222 0.844755
Si Si4 0.730575 0.947609 0.332694
Si Si5 0.618665 0.825409 0.225320
Si Si6 0.157902 0.446479 0.586442
Si Si7 0.745197 0.743842 0.809567
O O1 0.884308 0.225916 0.234005
O O2 0.674102 0.444904 0.238830
O O3 0.020806 0.420548 0.875400
O O4 0.031591 0.333824 0.254466
O O5 0.616923 0.118446 0.623920
O O6 0.841776 0.038012 0.254671
O O7 0.000000 0.000000 0.500000
O O8 0.700538 0.461618 0.600340
O O9 0.412519 0.335873 0.025054
O O10 0.500000 0.500000 0.000000
O O11 0.734962 0.910802 0.158289
O O12 0.500000 0.000000 0.500000
O O13 0.772262 0.828246 0.542230
O O14 0.688092 0.690314 0.400918
O O15 0.673952 0.811145 0.986818
O O16 0.000000 0.500000 0.500000
#
# Coordination Sequence:
#
# PCOD9040045 Si02
#       7
#     2   2   2   2   2   2   2
#     4  11  24  44  71 106 146 189 244 297 369 434
#     4  11  22  46  71 101 140 191 243 301 362 425
#     4  12  24  45  75 102 148 195 235 304 369 436
#     4  10  23  42  75  96 139 193 237 297 365 420
#     4  10  24  46  69 102 145 186 242 297 359 435
#     4  11  23  42  68 107 144 183 240 293 357 441
#     4  11  25  46  70 110 141 189 247 298 366 441
#
# _framework density 24.603342999999999
#
# number of rings (size 3 to 8) (size 9 to 14) (size 15 to 20)
#    0.000    1.143    4.286    1.286    2.000    4.571 
#    5.143    2.857    0.000    0.000    0.000    0.000 
#    0.000    0.000    0.000    0.000    0.000    0.000 
#
# Total GULP energy -78305.779407 kJ/mol
# GULP energy per Si atom -5593.269958 kJ/mol
# Density = 2.454734 g / cm^3
# Si number density = 24.603343 Si / 1000 Ang^3
#
#
#
# Elastic Constant Matrix: (Units=GPa)
#
#
# Indices 1 2 3 4 5 6 
#
# 1 120.5156 27.7034 61.9062 12.9215 -10.9834 -12.1492
# 2 27.7034 80.3398 42.3929 6.1308 -3.4993 2.6270
# 3 61.9062 42.3929 66.1549 5.1400 -27.5131 8.4510
# 4 12.9215 6.1308 5.1400 48.0785 3.2516 -4.5778
# 5 -10.9834 -3.4993 -27.5131 3.2516 59.5135 -4.0092
# 6 -12.1492 2.6270 8.4510 -4.5778 -4.0092 77.8806
#
#
#
# Elastic Compliance Matrix: (Units=1/GPa)
#
#
# Indices 1 2 3 4 5 6 
#
# 1 0.021577 0.007549 -0.029093 -0.002535 -0.008503 0.005682
# 2 0.007549 0.023089 -0.025806 -0.001357 -0.008926 0.002660
# 3 -0.029093 -0.025806 0.070461 0.000939 0.024964 -0.009974
# 4 -0.002535 -0.001357 0.000939 0.021710 -0.001249 0.000760
# 5 -0.008503 -0.008926 0.024964 -0.001249 0.026152 -0.002461
# 6 0.005682 0.002660 -0.009974 0.000760 -0.002461 0.014637
#
#
# Mechanical properties :
#
#
# Convention : Reuss Voigt Hill
#
# Bulk Modulus (GPa) = 48.95837 59.00169 53.98003
# Shear Modulus (GPa) = 17.91239 46.09505 32.00372
#
# Velocity S-wave (km/s) = 2.70116 4.33312 3.61056
# Velocity P-wave (km/s) = 5.44708 7.00484 6.27449
#
# Compressibility (1/GPa) = 0.02042552
#
# Stress axis : x y z
#
# Youngs Moduli (GPa) = 46.34650 43.31039 14.19220
#
# Poissons Ratio (x) = -0.32694 0.41290
# Poissons Ratio (y) = -0.34986 0.36625
# Poissons Ratio (z) = 1.34836 1.11768
#
# Static dielectric constant tensor:
#      x y z
#    x 1.987360 0.080740 -0.015640 
#    y 0.080740 1.959490 0.074670 
#    z -0.015640 0.074670 1.920210 
# 
# From -- ./inp_files/199225.got.cif
#   From: 2010.05.17/outbox.cif.g08.bks.cpg/sg2_100_cif.got.tgz:199225.got - 2010.06.03 11:33:40.
