data_PCOD9040799
_publ_section_title
;
Structure prediction by ZEFSAII (Michael W. Deem and Ramdas Pophale) SiO2 
 PCOD9040799
Probable space group: P -1
;
_chemical_formula_sum "Si O2"
_cell_formula_units_Z 14
_cell_length_a 14.377097
_cell_length_b 14.117030
_cell_length_c 6.199879
_cell_angle_alpha 85.155014
_cell_angle_beta 75.776208
_cell_angle_gamma 31.816438
_cell_volume 623.737105
_symmetry_space_group_name_H-M "P -1"
_symmetry_group_IT_number 2
_symmetry_cell_setting 'triclinic'
loop_
_space_group_symop_operation_xyz
x,y,z
-x,-y,-z
loop_
_atom_site_type_symbol
_atom_site_label
_atom_site_fract_x
_atom_site_fract_y
_atom_site_fract_z
Si Si1 0.564648 0.852683 0.862959
Si Si2 0.627073 0.347608 0.150536
Si Si3 0.157563 0.371308 0.618699
Si Si4 0.683765 0.115409 0.955572
Si Si5 0.189395 0.887438 0.512313
Si Si6 0.029552 0.813720 0.082448
Si Si7 0.100047 0.540627 0.011563
O O1 0.646658 0.801129 0.585916
O O2 0.735676 0.657837 0.929826
O O3 0.401114 0.914818 0.959852
O O4 0.500000 0.000000 0.000000
O O5 0.680887 0.296791 0.388778
O O6 0.500000 0.500000 0.000000
O O7 0.591632 0.266448 0.146469
O O8 0.823168 0.227009 0.990015
O O9 0.000000 0.500000 0.500000
O O10 0.097766 0.336353 0.820263
O O11 0.129107 0.491245 0.752569
O O12 0.675022 0.177428 0.723480
O O13 0.903000 0.925861 0.920336
O O14 0.000000 0.000000 0.500000
O O15 0.109248 0.041950 0.673178
O O16 0.114472 0.636688 0.061384
#
# Coordination Sequence:
#
# PCOD9040799 Si02
#       7
#     2   2   2   2   2   2   2
#     4  11  26  43  67 102 143 181 240 303 357 422
#     4  11  23  43  68 102 144 179 238 299 355 435
#     4   9  22  44  66  94 135 180 238 289 355 419
#     4  11  24  42  66 100 142 183 235 294 366 423
#     4  11  21  44  68 103 141 192 234 287 362 434
#     4  11  23  40  71 101 138 183 237 291 358 438
#     4  10  23  43  69 100 136 185 241 294 358 429
#
# _framework density 22.445353999999998
#
# number of rings (size 3 to 8) (size 9 to 14) (size 15 to 20)
#    0.000    1.429    2.857    1.714    8.000    4.571 
#    0.000    0.000    0.000    0.000    0.000    0.000 
#    0.000    0.000    0.000    0.000    0.000    0.000 
#
# Total GULP energy -77941.582138 kJ/mol
# GULP energy per Si atom -5567.255867 kJ/mol
# Density = 2.239427 g / cm^3
# Si number density = 22.445354 Si / 1000 Ang^3
#
#
#
# Elastic Constant Matrix: (Units=GPa)
#
#
# Indices 1 2 3 4 5 6 
#
# 1 125.4339 33.2174 29.6643 13.3826 3.8983 10.1080
# 2 33.2174 117.3127 24.0318 -15.9500 7.7854 4.9413
# 3 29.6643 24.0318 114.5503 5.4501 -0.5192 -4.1008
# 4 13.3826 -15.9500 5.4501 29.9445 -1.6417 10.9722
# 5 3.8983 7.7854 -0.5192 -1.6417 32.7443 9.8301
# 6 10.1080 4.9413 -4.1008 10.9722 9.8301 40.2491
#
#
#
# Elastic Compliance Matrix: (Units=1/GPa)
#
#
# Indices 1 2 3 4 5 6 
#
# 1 0.009860 -0.003153 -0.001649 -0.005598 -0.000552 -0.000596
# 2 -0.003153 0.011226 -0.002067 0.008791 -0.001001 -0.002949
# 3 -0.001649 -0.002067 0.009827 -0.003082 -0.000069 0.002526
# 4 -0.005598 0.008791 -0.003082 0.046507 0.005030 -0.013894
# 5 -0.000552 -0.001001 -0.000069 0.005030 0.033916 -0.009400
# 6 -0.000596 -0.002949 0.002526 -0.013894 -0.009400 0.031698
#
#
# Mechanical properties :
#
#
# Convention : Reuss Voigt Hill
#
# Bulk Modulus (GPa) = 58.22648 59.01375 58.62012
# Shear Modulus (GPa) = 30.76943 38.61317 34.69130
#
# Velocity S-wave (km/s) = 3.70653 4.15217 3.93566
# Velocity P-wave (km/s) = 6.65699 7.02401 6.84296
#
# Compressibility (1/GPa) = 0.01717432
#
# Stress axis : x y z
#
# Youngs Moduli (GPa) = 101.42127 89.07612 101.75734
#
# Poissons Ratio (x) = 0.28088 0.16783
# Poissons Ratio (y) = 0.31981 0.21033
# Poissons Ratio (z) = 0.16728 0.18412
#
# Static dielectric constant tensor:
#      x y z
#    x -0.936050 1.168620 -1.578480 
#    y 1.168620 1.389380 0.655100 
#    z -1.578480 0.655100 1.000680 
# 
# From -- ./inp_files/98065.got.cif
#   From: 2010.05.17/outbox.cif.g08.bks.cpg/sg2_50_cif.got.tgz:98065.got - 2010.06.03 11:33:40.
