data_PCOD9040244
_publ_section_title
;
Structure prediction by ZEFSAII (Michael W. Deem and Ramdas Pophale) SiO2 
 PCOD9040244
Probable space group: P -1
;
_chemical_formula_sum "Si O2"
_cell_formula_units_Z 14
_cell_length_a 14.841279
_cell_length_b 5.186498
_cell_length_c 11.715822
_cell_angle_alpha 74.102793
_cell_angle_beta 139.843019
_cell_angle_gamma 111.725632
_cell_volume 540.195900
_symmetry_space_group_name_H-M "P -1"
_symmetry_group_IT_number 2
_symmetry_cell_setting 'triclinic'
loop_
_space_group_symop_operation_xyz
x,y,z
-x,-y,-z
loop_
_atom_site_type_symbol
_atom_site_label
_atom_site_fract_x
_atom_site_fract_y
_atom_site_fract_z
Si Si1 0.820491 0.353348 0.706028
Si Si2 0.000876 0.711528 0.324873
Si Si3 0.958216 0.145099 0.060728
Si Si4 0.187903 0.873034 0.697013
Si Si5 0.450367 0.799303 0.645237
Si Si6 0.273228 0.910716 0.007642
Si Si7 0.558452 0.793622 0.235956
O O1 0.876301 0.371470 0.626467
O O2 0.646806 0.265284 0.553472
O O3 0.886727 0.649993 0.791516
O O4 0.895382 0.146493 0.873583
O O5 0.084838 0.903382 0.486958
O O6 0.889481 0.440779 0.300737
O O7 0.933134 0.873774 0.145701
O O8 0.851194 0.288039 0.015294
O O9 0.209320 0.031917 0.820078
O O10 0.347302 0.980294 0.784815
O O11 0.409408 0.502704 0.707258
O O12 0.400917 0.057002 0.620714
O O13 0.622172 0.893106 0.822268
O O14 0.387326 0.765554 0.074924
#
# Coordination Sequence:
#
# PCOD9040244 Si02
#       7
#     2   2   2   2   2   2   2
#     4  11  23  46  65  99 130 185 228 291 334 410
#     4  11  23  42  66 101 136 178 228 285 342 413
#     4  11  25  42  71  93 137 177 238 280 344 400
#     4  11  22  41  67 100 141 177 226 279 349 407
#     4  10  24  43  71  97 146 172 238 268 354 400
#     4  10  24  42  63 104 135 179 226 281 341 415
#     4  10  23  43  65 102 139 184 215 285 333 423
#
# _framework density 25.916526999999999
#
# number of rings (size 3 to 8) (size 9 to 14) (size 15 to 20)
#    0.857    0.571    2.857    1.714    2.000    2.857 
#    0.000    0.714    0.000    0.000    0.000    0.000 
#    0.000    0.000    0.000    0.000    0.000    0.000 
#
# Total GULP energy -77953.316401 kJ/mol
# GULP energy per Si atom -5568.094029 kJ/mol
# Density = 2.585754 g / cm^3
# Si number density = 25.916527 Si / 1000 Ang^3
#
#
#
# Elastic Constant Matrix: (Units=GPa)
#
#
# Indices 1 2 3 4 5 6 
#
# 1 42.1093 -7.7645 15.8113 6.4991 -13.5659 13.2440
# 2 -7.7645 81.2588 32.1839 0.5725 2.4827 1.5308
# 3 15.8113 32.1839 172.4837 23.7354 -3.0036 14.0773
# 4 6.4991 0.5725 23.7354 46.9771 8.3389 -2.6447
# 5 -13.5659 2.4827 -3.0036 8.3389 35.1484 2.1568
# 6 13.2440 1.5308 14.0773 -2.6447 2.1568 21.6630
#
#
#
# Elastic Compliance Matrix: (Units=1/GPa)
#
#
# Indices 1 2 3 4 5 6 
#
# 1 0.042020 0.004182 -0.000409 -0.010889 0.020254 -0.029065
# 2 0.004182 0.013876 -0.002914 0.000572 0.000348 -0.001609
# 3 -0.000409 -0.002914 0.007422 -0.004302 0.002015 -0.005093
# 4 -0.010889 0.000572 -0.004302 0.027896 -0.012089 0.014022
# 5 0.020254 0.000348 0.002015 -0.012089 0.040463 -0.019222
# 6 -0.029065 -0.001609 -0.005093 0.014022 -0.019222 0.070980
#
#
# Mechanical properties :
#
#
# Convention : Reuss Voigt Hill
#
# Bulk Modulus (GPa) = 15.37603 41.81259 28.59431
# Shear Modulus (GPa) = 22.46030 37.79911 30.12971
#
# Velocity S-wave (km/s) = 2.94707 3.82317 3.41334
# Velocity P-wave (km/s) = 4.18642 5.97138 5.15672
#
# Compressibility (1/GPa) = 0.06503631
#
# Stress axis : x y z
#
# Youngs Moduli (GPa) = 23.79839 72.06830 134.74187
#
# Poissons Ratio (x) = -0.30143 0.05511
# Poissons Ratio (y) = -0.09954 0.39262
# Poissons Ratio (z) = 0.00973 0.21000
#
# Static dielectric constant tensor:
#      x y z
#    x 2.281450 -0.174400 0.056250 
#    y -0.174400 2.034680 -0.016060 
#    z 0.056250 -0.016060 2.139430 
# 
# From -- ./inp_files/459091.got.cif
#   From: 2010.05.17/outbox.cif.g08.bks.cpg/sg2_230_cif.got.tgz:459091.got - 2010.06.03 11:33:40.
