data_PCOD9040312
_publ_section_title
;
Structure prediction by ZEFSAII (Michael W. Deem and Ramdas Pophale) SiO2 
 PCOD9040312
Probable space group: P -1
;
_chemical_formula_sum "Si O2"
_cell_formula_units_Z 14
_cell_length_a 8.028589
_cell_length_b 10.370047
_cell_length_c 12.619725
_cell_angle_alpha 68.457639
_cell_angle_beta 117.005890
_cell_angle_gamma 136.033701
_cell_volume 648.496828
_symmetry_space_group_name_H-M "P -1"
_symmetry_group_IT_number 2
_symmetry_cell_setting 'triclinic'
loop_
_space_group_symop_operation_xyz
x,y,z
-x,-y,-z
loop_
_atom_site_type_symbol
_atom_site_label
_atom_site_fract_x
_atom_site_fract_y
_atom_site_fract_z
Si Si1 0.353400 0.500632 0.862156
Si Si2 0.557077 0.936257 0.140599
Si Si3 0.163703 0.454632 0.517413
Si Si4 0.018786 0.752387 0.693401
Si Si5 0.905729 0.833279 0.259326
Si Si6 0.058145 0.536505 0.128947
Si Si7 0.654478 0.779764 0.664847
O O1 0.161389 0.291375 0.824399
O O2 0.530900 0.643928 0.774390
O O3 0.184166 0.538466 0.851700
O O4 0.500000 0.500000 0.000000
O O5 0.702798 0.093067 0.226445
O O6 0.733606 0.887732 0.184394
O O7 0.288276 0.749312 0.155645
O O8 0.500000 0.000000 0.000000
O O9 0.040957 0.349011 0.403302
O O10 0.168128 0.311362 0.625572
O O11 0.437087 0.659056 0.550074
O O12 0.000000 0.500000 0.500000
O O13 0.868821 0.582014 0.783861
O O14 0.885037 0.831265 0.647762
O O15 0.199241 0.015621 0.305997
O O16 0.000000 0.500000 0.000000
#
# Coordination Sequence:
#
# PCOD9040312 Si02
#       7
#     2   2   2   2   2   2   2
#     4  11  24  39  63  95 135 180 219 273 336 397
#     4  11  24  42  68  99 136 172 225 274 333 406
#     4  11  24  44  68  99 136 176 230 281 337 401
#     4  11  23  41  72  98 130 179 224 279 342 396
#     4  10  24  45  66  98 138 174 224 283 334 399
#     4  12  23  41  65  92 134 174 223 275 329 398
#     4  10  23  43  65  97 134 172 224 279 336 401
#
# _framework density 21.588387000000001
#
# number of rings (size 3 to 8) (size 9 to 14) (size 15 to 20)
#    0.000    1.143    1.429    5.571    2.000    6.857 
#    0.000    0.000    0.000    0.000    0.000    0.000 
#    0.000    0.000    0.000    0.000    0.000    0.000 
#
# Total GULP energy -77982.535957 kJ/mol
# GULP energy per Si atom -5570.181140 kJ/mol
# Density = 2.153925 g / cm^3
# Si number density = 21.588387 Si / 1000 Ang^3
#
#
#
# Elastic Constant Matrix: (Units=GPa)
#
#
# Indices 1 2 3 4 5 6 
#
# 1 73.9949 14.5398 15.0943 16.6775 -7.5177 -5.9668
# 2 14.5398 136.6628 35.5091 47.1479 -1.2396 -1.7336
# 3 15.0943 35.5091 116.3675 45.9577 -6.5085 -9.3991
# 4 16.6775 47.1479 45.9577 49.6644 -11.7920 1.7579
# 5 -7.5177 -1.2396 -6.5085 -11.7920 36.5001 7.2617
# 6 -5.9668 -1.7336 -9.3991 1.7579 7.2617 29.9850
#
#
#
# Elastic Compliance Matrix: (Units=1/GPa)
#
#
# Indices 1 2 3 4 5 6 
#
# 1 0.014986 0.000315 0.000567 -0.005821 0.000649 0.003362
# 2 0.000315 0.011667 0.002039 -0.014235 -0.004427 0.003283
# 3 0.000567 0.002039 0.015052 -0.017272 -0.004093 0.006953
# 4 -0.005821 -0.014235 -0.017272 0.055955 0.016220 -0.014604
# 5 0.000649 -0.004427 -0.004093 0.016220 0.033999 -0.010595
# 6 0.003362 0.003283 0.006953 -0.014604 -0.010595 0.039810
#
#
# Mechanical properties :
#
#
# Convention : Reuss Voigt Hill
#
# Bulk Modulus (GPa) = 21.03271 50.81240 35.92255
# Shear Modulus (GPa) = 27.55189 40.68870 34.12030
#
# Velocity S-wave (km/s) = 3.57632 4.34608 3.97985
# Velocity P-wave (km/s) = 5.17853 6.98374 6.14775
#
# Compressibility (1/GPa) = 0.04754499
#
# Stress axis : x y z
#
# Youngs Moduli (GPa) = 66.72947 85.71474 66.43686
#
# Poissons Ratio (x) = -0.02700 -0.03765
# Poissons Ratio (y) = -0.02102 -0.13544
# Poissons Ratio (z) = -0.03781 -0.17474
#
# Static dielectric constant tensor:
#      x y z
#    x 1.868640 -0.052550 0.028410 
#    y -0.052550 1.795750 -0.007390 
#    z 0.028410 -0.007390 1.783120 
# 
# From -- ./inp_files/389828.got.cif
#   From: 2010.05.17/outbox.cif.g08.bks.cpg/sg2_195_cif.got.tgz:389828.got - 2010.06.03 11:33:40.
