data_PCOD9040865
_publ_section_title
;
Structure prediction by ZEFSAII (Michael W. Deem and Ramdas Pophale) SiO2 
 PCOD9040865
Probable space group: P -1
;
_chemical_formula_sum "Si O2"
_cell_formula_units_Z 16
_cell_length_a 9.638238
_cell_length_b 8.918537
_cell_length_c 27.030721
_cell_angle_alpha 33.905416
_cell_angle_beta 44.130752
_cell_angle_gamma 68.534604
_cell_volume 727.643919
_symmetry_space_group_name_H-M "P -1"
_symmetry_group_IT_number 2
_symmetry_cell_setting 'triclinic'
loop_
_space_group_symop_operation_xyz
x,y,z
-x,-y,-z
loop_
_atom_site_type_symbol
_atom_site_label
_atom_site_fract_x
_atom_site_fract_y
_atom_site_fract_z
Si Si1 0.961182 0.757616 0.735646
Si Si2 0.539944 0.336147 0.881899
Si Si3 0.097731 0.228334 0.660937
Si Si4 0.851724 0.610523 0.629588
Si Si5 0.422833 0.356423 0.395194
Si Si6 0.605080 0.759097 0.333172
Si Si7 0.209782 0.557262 0.895470
Si Si8 0.888211 0.615529 0.142917
O O1 0.745533 0.620725 0.788562
O O2 0.956898 0.452766 0.842053
O O3 0.942516 0.938970 0.738735
O O4 0.222120 0.013969 0.569328
O O5 0.641445 0.421630 0.776737
O O6 0.300666 0.333064 0.945446
O O7 0.500000 0.000000 0.000000
O O8 0.362531 0.451219 0.505391
O O9 0.159187 0.136031 0.722847
O O10 0.001707 0.451780 0.634591
O O11 0.738455 0.563405 0.617173
O O12 0.000000 0.000000 0.500000
O O13 0.601389 0.636764 0.312874
O O14 0.610338 0.381846 0.300342
O O15 0.572849 0.053348 0.259958
O O16 0.124487 0.512851 0.873289
O O17 0.000000 0.500000 0.000000
O O18 0.000000 0.000000 0.000000
#
# Coordination Sequence:
#
# PCOD9040865 Si02
#       8
#     2   2   2   2   2   2   2   2
#     4  11  25  45  72 106 143 187 237 299 354 425
#     4  12  28  47  71 105 146 187 240 300 365 425
#     4  10  24  43  71 102 140 182 239 294 355 421
#     4  12  25  45  71 103 141 185 234 300 360 430
#     4  11  25  42  72 107 141 187 235 296 356 426
#     4  10  23  43  69 104 137 183 237 293 350 424
#     4  12  26  47  72  97 142 190 237 293 362 430
#     4  12  25  46  70 104 144 187 241 292 355 427
#
# _framework density 21.988779000000001
#
# number of rings (size 3 to 8) (size 9 to 14) (size 15 to 20)
#    0.000    0.750    3.750    2.625    5.250    1.000 
#    0.000    1.250    0.000    0.000    0.000    0.000 
#    0.000    0.000    0.000    0.000    0.000    0.000 
#
# Total GULP energy -89420.757605 kJ/mol
# GULP energy per Si atom -5588.797350 kJ/mol
# Density = 2.193873 g / cm^3
# Si number density = 21.988779 Si / 1000 Ang^3
#
#
#
# Elastic Constant Matrix: (Units=GPa)
#
#
# Indices 1 2 3 4 5 6 
#
# 1 129.3303 49.2815 26.9001 8.3526 21.9812 -2.1509
# 2 49.2815 95.0620 32.5541 17.3602 18.9108 13.3723
# 3 26.9001 32.5541 69.6323 6.2162 24.5788 7.0637
# 4 8.3526 17.3602 6.2162 37.6810 -4.5084 -0.6518
# 5 21.9812 18.9108 24.5788 -4.5084 31.7876 -6.2330
# 6 -2.1509 13.3723 7.0637 -0.6518 -6.2330 44.3062
#
#
#
# Elastic Compliance Matrix: (Units=1/GPa)
#
#
# Indices 1 2 3 4 5 6 
#
# 1 0.010258 -0.004449 -0.000659 -0.000538 -0.003736 0.001412
# 2 -0.004449 0.017500 -0.002357 -0.007737 -0.007852 -0.006340
# 3 -0.000659 -0.002357 0.022924 -0.004754 -0.017624 -0.005525
# 4 -0.000538 -0.007737 -0.004754 0.032826 0.014399 0.005575
# 5 -0.003736 -0.007852 -0.017624 0.014399 0.056977 0.013226
# 6 0.001412 -0.006340 -0.005525 0.005575 0.013226 0.027376
#
#
# Mechanical properties :
#
#
# Convention : Reuss Voigt Hill
#
# Bulk Modulus (GPa) = 27.97188 56.83290 42.40239
# Shear Modulus (GPa) = 25.67946 35.10755 30.39350
#
# Velocity S-wave (km/s) = 3.42108 4.00010 3.72187
# Velocity P-wave (km/s) = 5.32481 6.87290 6.14778
#
# Compressibility (1/GPa) = 0.03575018
#
# Stress axis : x y z
#
# Youngs Moduli (GPa) = 97.48598 57.14261 43.62292
#
# Poissons Ratio (x) = 0.25425 0.02876
# Poissons Ratio (y) = 0.43375 0.10283
# Poissons Ratio (z) = 0.06426 0.13470
#
# Static dielectric constant tensor:
#      x y z
#    x 1.804060 -0.011010 -0.024140 
#    y -0.011010 1.767280 -0.090680 
#    z -0.024140 -0.090680 1.782700 
# 
# From -- ./inp_files/606616.got.cif
#   From: 2010.05.17/outbox.cif.g08.bks.cpg/sg2_304_cif.got.tgz:606616.got - 2010.06.03 11:33:40.
