data_PCOD9040300
_publ_section_title
;
Structure prediction by ZEFSAII (Michael W. Deem and Ramdas Pophale) SiO2 
 PCOD9040300
Probable space group: P -1
;
_chemical_formula_sum "Si O2"
_cell_formula_units_Z 14
_cell_length_a 27.352781
_cell_length_b 24.620805
_cell_length_c 11.272018
_cell_angle_alpha 153.443450
_cell_angle_beta 25.415635
_cell_angle_gamma 170.718103
_cell_volume 524.956193
_symmetry_space_group_name_H-M "P -1"
_symmetry_group_IT_number 2
_symmetry_cell_setting 'triclinic'
loop_
_space_group_symop_operation_xyz
x,y,z
-x,-y,-z
loop_
_atom_site_type_symbol
_atom_site_label
_atom_site_fract_x
_atom_site_fract_y
_atom_site_fract_z
Si Si1 0.630702 0.367250 0.939586
Si Si2 0.113274 0.256014 0.102109
Si Si3 0.016351 0.881543 0.283180
Si Si4 0.800878 0.569879 0.509961
Si Si5 0.416337 0.969301 0.253452
Si Si6 0.625681 0.595116 0.767142
Si Si7 0.803094 0.226444 0.116178
O O1 0.923782 0.691534 0.015585
O O2 0.354370 0.195216 0.213912
O O3 0.442071 0.067107 0.822827
O O4 0.732733 0.485539 0.810676
O O5 0.979584 0.177842 0.365448
O O6 0.353506 0.395117 0.902508
O O7 0.897003 0.964621 0.918427
O O8 0.740869 0.605893 0.444593
O O9 0.000000 0.000000 0.500000
O O10 0.646802 0.537593 0.729751
O O11 0.000645 0.688694 0.211372
O O12 0.518480 0.209892 0.483457
O O13 0.060379 0.573895 0.286130
O O14 0.500000 0.000000 0.000000
O O15 0.629235 0.119884 0.181147
#
# Coordination Sequence:
#
# PCOD9040300 Si02
#       7
#     2   2   2   2   2   2   2
#     4  12  23  40  65  93 126 165 207 262 311 362
#     4  12  26  42  60  97 136 165 203 252 314 390
#     4  12  21  39  63  89 128 169 213 253 297 367
#     4  11  25  43  66  92 130 170 203 261 322 363
#     4  10  23  43  65  96 120 157 218 271 304 362
#     4  12  25  40  64  94 130 171 211 246 307 385
#     4  11  24  42  69  94 118 161 222 263 307 365
#
# _framework density 26.668893000000001
#
# number of rings (size 3 to 8) (size 9 to 14) (size 15 to 20)
#    0.000    0.571    4.286    4.714    2.000    4.571 
#    0.000    1.429    0.000    0.000    0.000    0.000 
#    0.000    0.000    0.000    0.000    0.000    0.000 
#
# Total GULP energy -78409.401151 kJ/mol
# GULP energy per Si atom -5600.671511 kJ/mol
# Density = 2.660819 g / cm^3
# Si number density = 26.668893 Si / 1000 Ang^3
#
#
#
# Elastic Constant Matrix: (Units=GPa)
#
#
# Indices 1 2 3 4 5 6 
#
# 1 150.6526 50.4238 38.0921 11.3345 -23.7880 -17.7984
# 2 50.4238 111.6293 15.7875 22.6471 -15.3367 -2.5480
# 3 38.0921 15.7875 88.4102 5.4764 -17.9446 -3.4505
# 4 11.3345 22.6471 5.4764 35.7047 -3.3984 -4.0497
# 5 -23.7880 -15.3367 -17.9446 -3.3984 54.2379 4.0057
# 6 -17.7984 -2.5480 -3.4505 -4.0497 4.0057 61.8164
#
#
#
# Elastic Compliance Matrix: (Units=1/GPa)
#
#
# Indices 1 2 3 4 5 6 
#
# 1 0.009040 -0.003402 -0.002822 0.000152 0.001917 0.002191
# 2 -0.003402 0.012006 0.000004 -0.006501 0.001572 -0.001012
# 3 -0.002822 0.000004 0.013196 -0.000873 0.003099 -0.000334
# 4 0.000152 -0.006501 -0.000873 0.032412 -0.000167 0.001861
# 5 0.001917 0.001572 0.003099 -0.000167 0.020779 -0.000568
# 6 0.002191 -0.001012 -0.000334 0.001861 -0.000568 0.016906
#
#
# Mechanical properties :
#
#
# Convention : Reuss Voigt Hill
#
# Bulk Modulus (GPa) = 45.86700 62.14430 54.00565
# Shear Modulus (GPa) = 40.30713 46.77772 43.54243
#
# Velocity S-wave (km/s) = 3.89188 4.19264 4.04506
# Velocity P-wave (km/s) = 6.11814 6.84035 6.48930
#
# Compressibility (1/GPa) = 0.02180217
#
# Stress axis : x y z
#
# Youngs Moduli (GPa) = 110.61870 83.29147 75.77849
#
# Poissons Ratio (x) = 0.28333 0.21387
# Poissons Ratio (y) = 0.37629 -0.00030
# Poissons Ratio (z) = 0.31220 -0.00033
#
# Static dielectric constant tensor:
#      x y z
#    x 2.021420 -0.091140 0.036960 
#    y -0.091140 2.170620 -0.084320 
#    z 0.036960 -0.084320 2.113530 
# 
# From -- ./inp_files/477112.got.cif
#   From: 2010.05.17/outbox.cif.g08.bks.cpg/sg2_239_cif.got.tgz:477112.got - 2010.06.03 11:33:40.
