data_PCOD9040873
_publ_section_title
;
Structure prediction by ZEFSAII (Michael W. Deem and Ramdas Pophale) SiO2 
 PCOD9040873
Probable space group: P -1
;
_chemical_formula_sum "Si O2"
_cell_formula_units_Z 14
_cell_length_a 12.667703
_cell_length_b 9.835100
_cell_length_c 10.026784
_cell_angle_alpha 31.825138
_cell_angle_beta 64.042952
_cell_angle_gamma 74.936909
_cell_volume 575.529654
_symmetry_space_group_name_H-M "P -1"
_symmetry_group_IT_number 2
_symmetry_cell_setting 'triclinic'
loop_
_space_group_symop_operation_xyz
x,y,z
-x,-y,-z
loop_
_atom_site_type_symbol
_atom_site_label
_atom_site_fract_x
_atom_site_fract_y
_atom_site_fract_z
Si Si1 0.714397 0.438137 0.680926
Si Si2 0.539789 0.853666 0.974123
Si Si3 0.011001 0.625697 0.743590
Si Si4 0.922283 0.792343 0.116384
Si Si5 0.386399 0.917137 0.532126
Si Si6 0.214223 0.987647 0.197029
Si Si7 0.242049 0.382800 0.196695
O O1 0.793223 0.676981 0.352948
O O2 0.744585 0.186858 0.797439
O O3 0.569697 0.393240 0.794258
O O4 0.758721 0.481009 0.771206
O O5 0.562299 0.055410 0.669440
O O6 0.669112 0.806357 0.984385
O O7 0.500000 0.000000 0.000000
O O8 0.009553 0.428748 0.781959
O O9 0.146690 0.803551 0.505509
O O10 0.891755 0.732001 0.692591
O O11 0.000000 0.500000 0.000000
O O12 0.890826 0.903390 0.901216
O O13 0.000000 0.000000 0.000000
O O14 0.689737 0.853108 0.618129
O O15 0.500000 0.000000 0.500000
O O16 0.310437 0.629076 0.860805
#
# Coordination Sequence:
#
# PCOD9040873 Si02
#       7
#     2   2   2   2   2   2   2
#     4  10  23  43  69 105 137 193 244 306 374 443
#     4  10  23  47  72 103 144 190 248 308 378 442
#     4  11  26  45  69 103 147 196 246 309 378 447
#     4  11  24  42  71 103 144 189 251 306 366 455
#     4  12  27  49  73 112 147 191 248 311 370 455
#     4  10  23  44  68 102 144 188 251 306 371 446
#     4  12  27  45  78 107 150 193 250 305 381 446
#
# _framework density 24.325422
#
# number of rings (size 3 to 8) (size 9 to 14) (size 15 to 20)
#    0.000    1.143    1.429    3.000    8.000    3.429 
#    0.000    0.000    0.000    0.000    0.000    0.000 
#    0.000    0.000    0.000    0.000    0.000    0.000 
#
# Total GULP energy -78315.380907 kJ/mol
# GULP energy per Si atom -5593.955779 kJ/mol
# Density = 2.427006 g / cm^3
# Si number density = 24.325422 Si / 1000 Ang^3
#
#
#
# Elastic Constant Matrix: (Units=GPa)
#
#
# Indices 1 2 3 4 5 6 
#
# 1 158.9699 38.0737 22.9174 -2.7685 -6.6262 -7.4716
# 2 38.0737 115.6388 50.5433 15.3210 -1.3368 10.4077
# 3 22.9174 50.5433 98.7241 19.5154 2.6916 -5.9796
# 4 -2.7685 15.3210 19.5154 44.4181 7.1673 9.9555
# 5 -6.6262 -1.3368 2.6916 7.1673 32.8105 2.2036
# 6 -7.4716 10.4077 -5.9796 9.9555 2.2036 39.9912
#
#
#
# Elastic Compliance Matrix: (Units=1/GPa)
#
#
# Indices 1 2 3 4 5 6 
#
# 1 0.007065 -0.002330 -0.000577 0.000982 0.001062 0.001537
# 2 -0.002330 0.012579 -0.005990 -0.001035 0.001055 -0.004405
# 3 -0.000577 -0.005990 0.014735 -0.005461 -0.000716 0.005053
# 4 0.000982 -0.001035 -0.005461 0.027700 -0.004978 -0.006985
# 5 0.001062 0.001055 -0.000716 -0.004978 0.031929 -0.000704
# 6 0.001537 -0.004405 0.005053 -0.006985 -0.000704 0.028972
#
#
# Mechanical properties :
#
#
# Convention : Reuss Voigt Hill
#
# Bulk Modulus (GPa) = 60.29666 66.26687 63.28176
# Shear Modulus (GPa) = 34.17590 40.89720 37.53655
#
# Velocity S-wave (km/s) = 3.75233 4.10476 3.93249
# Velocity P-wave (km/s) = 6.60413 7.05453 6.83304
#
# Compressibility (1/GPa) = 0.01658467
#
# Stress axis : x y z
#
# Youngs Moduli (GPa) = 141.53533 79.49960 67.86640
#
# Poissons Ratio (x) = 0.18525 0.03916
# Poissons Ratio (y) = 0.32980 0.40651
# Poissons Ratio (z) = 0.08167 0.47619
#
# Static dielectric constant tensor:
#      x y z
#    x 2.583930 -0.466510 -0.004000 
#    y -0.466510 2.201000 -0.009370 
#    z -0.004000 -0.009370 1.979430 
# 
# From -- ./inp_files/424796.got.cif
#   From: 2010.05.17/outbox.cif.g08.bks.cpg/sg2_213_cif.got.tgz:424796.got - 2010.06.03 11:33:40.
