data_PCOD9040365
_publ_section_title
;
Structure prediction by ZEFSAII (Michael W. Deem and Ramdas Pophale) SiO2 
 PCOD9040365
Probable space group: P -1
;
_chemical_formula_sum "Si O2"
_cell_formula_units_Z 14
_cell_length_a 5.930171
_cell_length_b 12.461575
_cell_length_c 11.450296
_cell_angle_alpha 84.105152
_cell_angle_beta 69.326371
_cell_angle_gamma 48.452200
_cell_volume 581.961709
_symmetry_space_group_name_H-M "P -1"
_symmetry_group_IT_number 2
_symmetry_cell_setting 'triclinic'
loop_
_space_group_symop_operation_xyz
x,y,z
-x,-y,-z
loop_
_atom_site_type_symbol
_atom_site_label
_atom_site_fract_x
_atom_site_fract_y
_atom_site_fract_z
Si Si1 0.234296 0.511557 0.115789
Si Si2 0.190228 0.667237 0.572717
Si Si3 0.744977 0.998090 0.207402
Si Si4 0.406993 0.798145 0.978135
Si Si5 0.572482 0.839008 0.166587
Si Si6 0.018241 0.904505 0.408454
Si Si7 0.274683 0.389228 0.364757
O O1 0.298504 0.374366 0.063493
O O2 0.279126 0.473871 0.248890
O O3 0.908581 0.676316 0.142130
O O4 0.500000 0.500000 0.000000
O O5 0.500000 0.500000 0.500000
O O6 0.060794 0.777762 0.476799
O O7 0.367876 0.698118 0.628840
O O8 0.889149 0.673847 0.650181
O O9 0.504625 0.976425 0.216246
O O10 0.748094 0.996740 0.346482
O O11 0.693030 0.126943 0.138017
O O12 0.081682 0.854959 0.097840
O O13 0.512726 0.861705 0.037121
O O14 0.330740 0.833671 0.279980
O O15 0.000000 0.000000 0.500000
O O16 0.000000 0.500000 0.500000
#
# Coordination Sequence:
#
# PCOD9040365 Si02
#       7
#     2   2   2   2   2   2   2
#     4  12  25  43  75 111 143 188 252 313 371 447
#     4  10  23  44  71 102 146 191 246 301 377 445
#     4  10  23  44  68  98 146 186 243 300 371 446
#     4  10  23  43  66 103 141 189 238 303 373 446
#     4  11  23  44  72 102 142 190 244 314 375 442
#     4  11  27  44  71 106 145 195 250 307 375 457
#     4  10  24  43  70 106 151 194 240 308 380 449
#
# _framework density 24.056566
#
# number of rings (size 3 to 8) (size 9 to 14) (size 15 to 20)
#    0.000    1.429    1.429    2.571    8.000    4.000 
#    0.000    0.000    0.000    0.000    0.000    0.000 
#    0.000    0.000    0.000    0.000    0.000    0.000 
#
# Total GULP energy -78058.631961 kJ/mol
# GULP energy per Si atom -5575.616569 kJ/mol
# Density = 2.400181 g / cm^3
# Si number density = 24.056566 Si / 1000 Ang^3
#
#
#
# Elastic Constant Matrix: (Units=GPa)
#
#
# Indices 1 2 3 4 5 6 
#
# 1 118.5951 22.3466 40.1083 -17.1038 10.1358 4.8839
# 2 22.3466 81.7541 23.3271 -13.3080 0.0192 7.3158
# 3 40.1083 23.3271 140.2324 -28.0036 3.6640 -2.1238
# 4 -17.1038 -13.3080 -28.0036 45.7318 -4.8041 -1.7667
# 5 10.1358 0.0192 3.6640 -4.8041 44.1773 4.3506
# 6 4.8839 7.3158 -2.1238 -1.7667 4.3506 33.6679
#
#
#
# Elastic Compliance Matrix: (Units=1/GPa)
#
#
# Indices 1 2 3 4 5 6 
#
# 1 0.009930 -0.001744 -0.002188 0.001640 -0.001831 -0.000877
# 2 -0.001744 0.013759 -0.001357 0.002523 0.001059 -0.002827
# 3 -0.002188 -0.001357 0.008854 0.004272 0.000097 0.001382
# 4 0.001640 0.002523 0.004272 0.026068 0.002045 0.000587
# 5 -0.001831 0.001059 0.000097 0.002045 0.023555 -0.002895
# 6 -0.000877 -0.002827 0.001382 0.000587 -0.002895 0.030935
#
#
# Mechanical properties :
#
#
# Convention : Reuss Voigt Hill
#
# Bulk Modulus (GPa) = 45.52521 56.90506 51.21514
# Shear Modulus (GPa) = 38.16790 41.70204 39.93497
#
# Velocity S-wave (km/s) = 3.98752 4.16805 4.07878
# Velocity P-wave (km/s) = 6.33765 6.84613 6.59679
#
# Compressibility (1/GPa) = 0.02196585
#
# Stress axis : x y z
#
# Youngs Moduli (GPa) = 100.70731 72.67967 112.94357
#
# Poissons Ratio (x) = 0.12676 0.24710
# Poissons Ratio (y) = 0.17564 0.15322
# Poissons Ratio (z) = 0.22033 0.09860
#
# Static dielectric constant tensor:
#      x y z
#    x 2.059420 -0.021630 0.067920 
#    y -0.021630 2.035780 0.014850 
#    z 0.067920 0.014850 1.888700 
# 
# From -- ./inp_files/78460.got.cif
#   From: 2010.05.17/outbox.cif.g08.bks.cpg/sg2_40_cif.got.tgz:78460.got - 2010.06.03 11:33:40.
