data_PCOD9040643
_publ_section_title
;
Structure prediction by ZEFSAII (Michael W. Deem and Ramdas Pophale) SiO2 
 PCOD9040643
Probable space group: P -1
;
_chemical_formula_sum "Si O2"
_cell_formula_units_Z 14
_cell_length_a 12.673401
_cell_length_b 12.259486
_cell_length_c 8.380489
_cell_angle_alpha 39.146307
_cell_angle_beta 57.956863
_cell_angle_gamma 46.791277
_cell_volume 599.127258
_symmetry_space_group_name_H-M "P -1"
_symmetry_group_IT_number 2
_symmetry_cell_setting 'triclinic'
loop_
_space_group_symop_operation_xyz
x,y,z
-x,-y,-z
loop_
_atom_site_type_symbol
_atom_site_label
_atom_site_fract_x
_atom_site_fract_y
_atom_site_fract_z
Si Si1 0.569713 0.748871 0.379253
Si Si2 0.618481 0.797856 0.911355
Si Si3 0.548300 0.393327 0.910231
Si Si4 0.122503 0.369355 0.679469
Si Si5 0.860116 0.095540 0.117535
Si Si6 0.072273 0.301978 0.301667
Si Si7 0.998442 0.172717 0.193068
O O1 0.529002 0.577458 0.609816
O O2 0.717231 0.685803 0.429278
O O3 0.450602 0.960316 0.311218
O O4 0.603716 0.767858 0.145972
O O5 0.782902 0.688708 0.844362
O O6 0.534292 0.713560 0.972376
O O7 0.500000 0.500000 0.000000
O O8 0.716640 0.226076 0.984372
O O9 0.000000 0.500000 0.500000
O O10 0.063479 0.534109 0.678007
O O11 0.118122 0.175533 0.972538
O O12 0.873706 0.225808 0.103281
O O13 0.868951 0.907346 0.413798
O O14 0.000000 0.000000 0.000000
O O15 0.009030 0.299356 0.183675
O O16 0.000000 0.000000 0.500000
#
# Coordination Sequence:
#
# PCOD9040643 Si02
#       7
#     2   2   2   2   2   2   2
#     4  11  26  49  71 105 140 193 240 297 357 429
#     4  11  27  48  73 101 148 189 242 286 361 437
#     4  12  28  46  70 105 145 188 238 291 366 429
#     4  12  25  43  73 106 141 179 243 301 359 420
#     4  11  25  44  69 106 139 183 233 302 358 416
#     4  11  24  45  72 102 139 189 236 292 361 429
#     4  10  23  43  68 101 142 183 238 289 357 431
#
# _framework density 23.367322999999999
#
# number of rings (size 3 to 8) (size 9 to 14) (size 15 to 20)
#    0.000    0.857    1.429    4.286    8.000    1.143 
#    0.000    0.000    0.000    0.000    0.000    0.000 
#    0.000    0.000    0.000    0.000    0.000    0.000 
#
# Total GULP energy -78149.523958 kJ/mol
# GULP energy per Si atom -5582.108854 kJ/mol
# Density = 2.331414 g / cm^3
# Si number density = 23.367323 Si / 1000 Ang^3
#
#
#
# Elastic Constant Matrix: (Units=GPa)
#
#
# Indices 1 2 3 4 5 6 
#
# 1 153.3494 48.0167 26.4482 -11.6771 -7.8148 4.9248
# 2 48.0167 78.4826 22.1075 -12.1614 0.7895 -17.7624
# 3 26.4482 22.1075 96.5185 -8.7368 -5.5812 -3.1749
# 4 -11.6771 -12.1614 -8.7368 33.0497 2.9549 2.2827
# 5 -7.8148 0.7895 -5.5812 2.9549 32.9299 1.6927
# 6 4.9248 -17.7624 -3.1749 2.2827 1.6927 37.9476
#
#
#
# Elastic Compliance Matrix: (Units=1/GPa)
#
#
# Indices 1 2 3 4 5 6 
#
# 1 0.008879 -0.006006 -0.000998 0.000754 0.002230 -0.004192
# 2 -0.006006 0.020006 -0.002417 0.004208 -0.003198 0.009831
# 3 -0.000998 -0.002417 0.011424 0.001648 0.001621 -0.000218
# 4 0.000754 0.004208 0.001648 0.032728 -0.002588 0.000156
# 5 0.002230 -0.003198 0.001621 -0.002588 0.031630 -0.002906
# 6 -0.004192 0.009831 -0.000218 0.000156 -0.002906 0.031600
#
#
# Mechanical properties :
#
#
# Convention : Reuss Voigt Hill
#
# Bulk Modulus (GPa) = 46.58409 57.94394 52.26401
# Shear Modulus (GPa) = 30.81382 36.23731 33.52557
#
# Velocity S-wave (km/s) = 3.63529 3.94225 3.79188
# Velocity P-wave (km/s) = 6.13183 6.75075 6.44872
#
# Compressibility (1/GPa) = 0.02146656
#
# Stress axis : x y z
#
# Youngs Moduli (GPa) = 112.62077 49.98470 87.53767
#
# Poissons Ratio (x) = 0.30019 0.08739
# Poissons Ratio (y) = 0.67636 0.21161
# Poissons Ratio (z) = 0.11243 0.12083
#
# Static dielectric constant tensor:
#      x y z
#    x 1.842180 0.043120 -0.004710 
#    y 0.043120 1.885670 0.002540 
#    z -0.004710 0.002540 2.045470 
# 
# From -- ./inp_files/261289.got.cif
#   From: 2010.05.17/outbox.cif.g08.bks.cpg/sg2_131_cif.got.tgz:261289.got - 2010.06.03 11:33:40.
