data_PCOD9040205
_publ_section_title
;
Structure prediction by ZEFSAII (Michael W. Deem and Ramdas Pophale) SiO2 
 PCOD9040205
Probable space group: P -1
;
_chemical_formula_sum "Si O2"
_cell_formula_units_Z 14
_cell_length_a 10.729861
_cell_length_b 10.816606
_cell_length_c 12.331264
_cell_angle_alpha 136.511088
_cell_angle_beta 34.965126
_cell_angle_gamma 136.081066
_cell_volume 534.987671
_symmetry_space_group_name_H-M "P -1"
_symmetry_group_IT_number 2
_symmetry_cell_setting 'triclinic'
loop_
_space_group_symop_operation_xyz
x,y,z
-x,-y,-z
loop_
_atom_site_type_symbol
_atom_site_label
_atom_site_fract_x
_atom_site_fract_y
_atom_site_fract_z
Si Si1 0.240541 0.925593 0.598715
Si Si2 0.195784 0.303981 0.139275
Si Si3 0.434459 0.892711 0.216120
Si Si4 0.317088 0.447195 0.383390
Si Si5 0.627565 0.727084 0.572287
Si Si6 0.833230 0.722129 0.214591
Si Si7 0.894500 0.471187 0.842012
O O1 0.124540 0.085274 0.757392
O O2 0.500000 0.000000 0.500000
O O3 0.267039 0.843990 0.409885
O O4 0.076870 0.795234 0.720064
O O5 0.251171 0.413281 0.284001
O O6 0.243141 0.430023 0.078370
O O7 0.339044 0.157601 0.946113
O O8 0.284693 0.735785 0.139593
O O9 0.473463 0.108751 0.290516
O O10 0.340375 0.264185 0.315669
O O11 0.559984 0.612136 0.321174
O O12 0.118003 0.479983 0.619911
O O13 0.500000 0.500000 0.500000
O O14 0.848327 0.760899 0.356983
O O15 0.957763 0.593461 0.983876
#
# Coordination Sequence:
#
# PCOD9040205 Si02
#       7
#     2   2   2   2   2   2   2
#     4  11  24  41  63  98 138 177 220 277 335 399
#     4  12  25  41  69 105 138 176 227 271 342 407
#     4  11  24  43  68 100 134 179 227 275 338 398
#     4  11  23  43  70  95 138 181 224 278 331 397
#     4   9  23  47  68  96 136 178 228 282 332 392
#     4  10  23  43  64  97 133 175 225 279 331 389
#     4  12  24  40  70 103 134 178 225 279 335 402
#
# _framework density 26.168824999999998
#
# number of rings (size 3 to 8) (size 9 to 14) (size 15 to 20)
#    0.000    1.143    2.857    2.571    2.000    7.429 
#    0.000    0.000    0.000    0.000    0.000    0.000 
#    0.000    0.000    0.000    0.000    0.000    0.000 
#
# Total GULP energy -78318.365897 kJ/mol
# GULP energy per Si atom -5594.168993 kJ/mol
# Density = 2.610926 g / cm^3
# Si number density = 26.168825 Si / 1000 Ang^3
#
#
#
# Elastic Constant Matrix: (Units=GPa)
#
#
# Indices 1 2 3 4 5 6 
#
# 1 83.5596 29.6823 12.5395 -2.0314 -4.2402 -19.5291
# 2 29.6823 115.0794 27.5483 -7.0014 -14.5178 -21.9672
# 3 12.5395 27.5483 128.6884 -5.1754 -13.0504 -6.4234
# 4 -2.0314 -7.0014 -5.1754 30.8540 -3.6003 -11.3041
# 5 -4.2402 -14.5178 -13.0504 -3.6003 49.2085 -5.4349
# 6 -19.5291 -21.9672 -6.4234 -11.3041 -5.4349 41.4743
#
#
#
# Elastic Compliance Matrix: (Units=1/GPa)
#
#
# Indices 1 2 3 4 5 6 
#
# 1 0.014453 -0.001968 -0.000369 0.003096 0.001539 0.006752
# 2 -0.001968 0.011711 -0.001329 0.005376 0.004107 0.007074
# 3 -0.000369 -0.001329 0.008431 0.001762 0.002071 0.001179
# 4 0.003096 0.005376 0.001762 0.041092 0.007173 0.016718
# 5 0.001539 0.004107 0.002071 0.007173 0.023654 0.008276
# 6 0.006752 0.007074 0.001179 0.016718 0.008276 0.036861
#
#
# Mechanical properties :
#
#
# Convention : Reuss Voigt Hill
#
# Bulk Modulus (GPa) = 36.68181 51.87418 44.27800
# Shear Modulus (GPa) = 32.76031 41.47785 37.11908
#
# Velocity S-wave (km/s) = 3.54203 3.98554 3.77031
# Velocity P-wave (km/s) = 5.54760 6.40666 5.99254
#
# Compressibility (1/GPa) = 0.02726147
#
# Stress axis : x y z
#
# Youngs Moduli (GPa) = 69.18790 85.38940 118.60928
#
# Poissons Ratio (x) = 0.16806 0.04382
# Poissons Ratio (y) = 0.13618 0.15768
# Poissons Ratio (z) = 0.02556 0.11352
#
# Static dielectric constant tensor:
#      x y z
#    x 2.201990 0.017100 0.022810 
#    y 0.017100 2.038260 0.079590 
#    z 0.022810 0.079590 2.099820 
# 
# From -- ./inp_files/387490.got.cif
#   From: 2010.05.17/outbox.cif.g08.bks.cpg/sg2_194_cif.got.tgz:387490.got - 2010.06.03 11:33:40.
