data_PCOD9040636
_publ_section_title
;
Structure prediction by ZEFSAII (Michael W. Deem and Ramdas Pophale) SiO2 
 PCOD9040636
Probable space group: P -1
;
_chemical_formula_sum "Si O2"
_cell_formula_units_Z 14
_cell_length_a 7.891270
_cell_length_b 9.689274
_cell_length_c 9.801468
_cell_angle_alpha 89.746753
_cell_angle_beta 131.901738
_cell_angle_gamma 101.063420
_cell_volume 539.513991
_symmetry_space_group_name_H-M "P -1"
_symmetry_group_IT_number 2
_symmetry_cell_setting 'triclinic'
loop_
_space_group_symop_operation_xyz
x,y,z
-x,-y,-z
loop_
_atom_site_type_symbol
_atom_site_label
_atom_site_fract_x
_atom_site_fract_y
_atom_site_fract_z
Si Si1 0.323520 0.144041 0.141101
Si Si2 0.045959 0.121351 0.723133
Si Si3 0.465723 0.889779 0.108883
Si Si4 0.621764 0.446858 0.268414
Si Si5 0.290399 0.637980 0.170670
Si Si6 0.953953 0.414896 0.685834
Si Si7 0.638049 0.879797 0.537842
O O1 0.515991 0.279723 0.187001
O O2 0.288275 0.178172 0.278559
O O3 0.415778 0.002092 0.189685
O O4 0.108579 0.120470 0.919141
O O5 0.289045 0.153934 0.771623
O O6 0.919745 0.247279 0.635570
O O7 0.879147 0.968745 0.598422
O O8 0.265394 0.744841 0.032853
O O9 0.500000 0.000000 0.000000
O O10 0.412714 0.520692 0.181058
O O11 0.776042 0.468103 0.490616
O O12 0.788007 0.512533 0.232191
O O13 0.093023 0.574163 0.178598
O O14 0.482783 0.751377 0.367467
O O15 0.500000 0.000000 0.500000
#
# Coordination Sequence:
#
# PCOD9040636 Si02
#       7
#     2   2   2   2   2   2   2
#     4  11  23  44  67 100 142 179 227 285 344 411
#     4  11  23  42  68  99 136 183 230 282 348 402
#     4  10  23  43  68 101 139 177 228 288 342 406
#     4  11  25  44  70 100 144 181 227 285 341 415
#     4  12  23  44  73 100 140 176 234 285 340 410
#     4  11  23  42  69  99 136 184 227 277 343 405
#     4  12  22  39  71 100 133 175 234 293 334 399
#
# _framework density 25.949279000000001
#
# number of rings (size 3 to 8) (size 9 to 14) (size 15 to 20)
#    0.000    0.857    5.714    0.857    0.000    4.571 
#    0.000    0.714    0.000    0.000    0.000    0.000 
#    0.000    0.000    0.000    0.000    0.000    0.000 
#
# Total GULP energy -78339.745411 kJ/mol
# GULP energy per Si atom -5595.696101 kJ/mol
# Density = 2.589022 g / cm^3
# Si number density = 25.949279 Si / 1000 Ang^3
#
#
#
# Elastic Constant Matrix: (Units=GPa)
#
#
# Indices 1 2 3 4 5 6 
#
# 1 142.3115 55.6675 23.8688 -25.5745 4.9990 29.6690
# 2 55.6675 103.2445 -4.2614 -20.2230 8.6921 13.1715
# 3 23.8688 -4.2614 88.6772 -13.4821 -17.5948 1.8365
# 4 -25.5745 -20.2230 -13.4821 31.6440 12.5851 0.1557
# 5 4.9990 8.6921 -17.5948 12.5851 39.6594 -3.5609
# 6 29.6690 13.1715 1.8365 0.1557 -3.5609 52.6720
#
#
#
# Elastic Compliance Matrix: (Units=1/GPa)
#
#
# Indices 1 2 3 4 5 6 
#
# 1 0.011873 -0.003782 -0.003056 0.007925 -0.005077 -0.006002
# 2 -0.003782 0.014146 0.002150 0.008741 -0.004607 -0.001819
# 3 -0.003056 0.002150 0.013615 0.002626 0.005215 0.001054
# 4 0.007925 0.008741 0.002626 0.052346 -0.019096 -0.008187
# 5 -0.005077 -0.004607 0.005215 -0.019096 0.035804 0.006307
# 6 -0.006002 -0.001819 0.001054 -0.008187 0.006307 0.023235
#
#
# Mechanical properties :
#
#
# Convention : Reuss Voigt Hill
#
# Bulk Modulus (GPa) = 33.04852 53.86477 43.45665
# Shear Modulus (GPa) = 29.32906 42.05896 35.69401
#
# Velocity S-wave (km/s) = 3.36556 4.03030 3.71284
# Velocity P-wave (km/s) = 5.27884 6.51618 5.92987
#
# Compressibility (1/GPa) = 0.03025854
#
# Stress axis : x y z
#
# Youngs Moduli (GPa) = 84.22758 70.69248 73.44899
#
# Poissons Ratio (x) = 0.26737 0.22443
# Poissons Ratio (y) = 0.31856 -0.15794
# Poissons Ratio (z) = 0.25736 -0.15201
#
# Static dielectric constant tensor:
#      x y z
#    x 2.056330 0.065270 -0.060900 
#    y 0.065270 2.061600 -0.013390 
#    z -0.060900 -0.013390 2.153460 
# 
# From -- ./inp_files/159843.got.cif
#   From: 2010.05.17/outbox.cif.g08.bks.cpg/sg2_80_cif.got.tgz:159843.got - 2010.06.03 11:33:40.
