data_PCOD9040452
_publ_section_title
;
Structure prediction by ZEFSAII (Michael W. Deem and Ramdas Pophale) SiO2 
 PCOD9040452
Probable space group: P -1
;
_chemical_formula_sum "Si O2"
_cell_formula_units_Z 12
_cell_length_a 14.247891
_cell_length_b 11.761367
_cell_length_c 9.653074
_cell_angle_alpha 36.560775
_cell_angle_beta 131.345855
_cell_angle_gamma 149.261541
_cell_volume 490.138982
_symmetry_space_group_name_H-M "P -1"
_symmetry_group_IT_number 2
_symmetry_cell_setting 'triclinic'
loop_
_space_group_symop_operation_xyz
x,y,z
-x,-y,-z
loop_
_atom_site_type_symbol
_atom_site_label
_atom_site_fract_x
_atom_site_fract_y
_atom_site_fract_z
Si Si1 0.787362 0.827513 0.454217
Si Si2 0.673901 0.288908 0.182655
Si Si3 0.509041 0.286166 0.560333
Si Si4 0.191495 0.710003 0.403498
Si Si5 0.587898 0.678536 0.047710
Si Si6 0.060345 0.654865 0.055135
O O1 0.652108 0.494854 0.619285
O O2 0.684364 0.825440 0.479271
O O3 0.000000 0.000000 0.500000
O O4 0.803007 0.015999 0.169816
O O5 0.688514 0.262501 0.389011
O O6 0.564027 0.359395 0.990283
O O7 0.874687 0.517677 0.084761
O O8 0.554726 0.990329 0.283506
O O9 0.617832 0.523144 0.316567
O O10 0.153030 0.614212 0.297659
O O11 0.000000 0.500000 0.500000
O O12 0.256805 0.000951 0.163645
O O13 0.500000 0.500000 0.000000
O O14 0.000000 0.500000 0.000000
#
# Coordination Sequence:
#
# PCOD9040452 Si02
#       6
#     2   2   2   2   2   2
#     4  11  24  45  67 105 144 189 233 289 355 422
#     4  11  24  45  72 102 137 189 232 290 363 412
#     4  11  24  45  71 103 145 180 242 295 342 429
#     4  10  23  43  67 100 137 178 233 289 350 420
#     4  12  24  44  70  99 136 180 237 293 353 420
#     4  11  22  44  69 100 142 183 230 289 352 422
#
# _framework density 24.482852000000001
#
# number of rings (size 3 to 8) (size 9 to 14) (size 15 to 20)
#    0.000    1.000    5.000    1.500    0.000    1.333 
#    0.000    6.667    0.000    0.000    0.000    0.000 
#    0.000    0.000    0.000    0.000    0.000    0.000 
#
# Total GULP energy -66981.555880 kJ/mol
# GULP energy per Si atom -5581.796323 kJ/mol
# Density = 2.442713 g / cm^3
# Si number density = 24.482852 Si / 1000 Ang^3
#
#
#
# Elastic Constant Matrix: (Units=GPa)
#
#
# Indices 1 2 3 4 5 6 
#
# 1 105.9636 49.0207 27.2022 1.9715 -0.2942 -4.9760
# 2 49.0207 97.8276 16.9356 -7.6528 -4.9720 -1.9119
# 3 27.2022 16.9356 126.0240 -10.0936 -22.9186 -3.8946
# 4 1.9715 -7.6528 -10.0936 42.7299 0.8245 -8.5770
# 5 -0.2942 -4.9720 -22.9186 0.8245 42.4509 -3.6725
# 6 -4.9760 -1.9119 -3.8946 -8.5770 -3.6725 60.2912
#
#
#
# Elastic Compliance Matrix: (Units=1/GPa)
#
#
# Indices 1 2 3 4 5 6 
#
# 1 0.013083 -0.006393 -0.002487 -0.002243 -0.001933 0.000280
# 2 -0.006393 0.013724 0.000061 0.002819 0.001577 0.000408
# 3 -0.002487 0.000061 0.009654 0.002526 0.005248 0.001099
# 4 -0.002243 0.002819 0.002526 0.025334 0.001512 0.003764
# 5 -0.001933 0.001577 0.005248 0.001512 0.026711 0.002072
# 6 0.000280 0.000408 0.001099 0.003764 0.002072 0.017355
#
#
# Mechanical properties :
#
#
# Convention : Reuss Voigt Hill
#
# Bulk Modulus (GPa) = 53.13116 57.34801 55.23959
# Shear Modulus (GPa) = 38.52833 44.87153 41.69993
#
# Velocity S-wave (km/s) = 3.97128 4.28574 4.13150
# Velocity P-wave (km/s) = 6.54038 6.92565 6.73577
#
# Compressibility (1/GPa) = 0.01882135
#
# Stress axis : x y z
#
# Youngs Moduli (GPa) = 76.43546 72.86593 103.57976
#
# Poissons Ratio (x) = 0.46586 0.25764
# Poissons Ratio (y) = 0.48868 -0.00630
# Poissons Ratio (z) = 0.19012 -0.00443
#
# Static dielectric constant tensor:
#      x y z
#    x 1.842800 -0.047730 0.037470 
#    y -0.047730 2.101450 0.161450 
#    z 0.037470 0.161450 1.964610 
# 
# From -- ./inp_files/302223.got.cif
#   From: 2010.05.17/outbox.cif.g08.bks.cpg/sg2_152_cif.got.tgz:302223.got - 2010.06.03 11:33:40.
