data_PCOD9040049
_publ_section_title
;
Structure prediction by ZEFSAII (Michael W. Deem and Ramdas Pophale) SiO2 
 PCOD9040049
Probable space group: P -1
;
_chemical_formula_sum "Si O2"
_cell_formula_units_Z 14
_cell_length_a 15.970990
_cell_length_b 9.280254
_cell_length_c 9.168260
_cell_angle_alpha 73.457750
_cell_angle_beta 35.774637
_cell_angle_gamma 55.444579
_cell_volume 609.252383
_symmetry_space_group_name_H-M "P -1"
_symmetry_group_IT_number 2
_symmetry_cell_setting 'triclinic'
loop_
_space_group_symop_operation_xyz
x,y,z
-x,-y,-z
loop_
_atom_site_type_symbol
_atom_site_label
_atom_site_fract_x
_atom_site_fract_y
_atom_site_fract_z
Si Si1 0.391457 0.086666 0.477710
Si Si2 0.586332 0.201371 0.036347
Si Si3 0.960385 0.852807 0.650806
Si Si4 0.239729 0.633601 0.104141
Si Si5 0.463238 0.789434 0.239110
Si Si6 0.291699 0.671779 0.716220
Si Si7 0.991343 0.326186 0.059097
O O1 0.411717 0.247016 0.350306
O O2 0.500000 0.000000 0.500000
O O3 0.469746 0.938616 0.276551
O O4 0.188594 0.162327 0.767374
O O5 0.636540 0.339156 0.974057
O O6 0.578092 0.183484 0.880888
O O7 0.747886 0.992045 0.921008
O O8 0.061194 0.702346 0.422079
O O9 0.031995 0.742855 0.732841
O O10 0.000000 0.000000 0.500000
O O11 0.349917 0.419453 0.959311
O O12 0.209722 0.753799 0.967859
O O13 0.310188 0.791983 0.538945
O O14 0.500000 0.500000 0.500000
O O15 0.169348 0.622512 0.832620
O O16 0.000000 0.500000 0.000000
#
# Coordination Sequence:
#
# PCOD9040049 Si02
#       7
#     2   2   2   2   2   2   2
#     4  12  27  47  71 103 156 195 243 305 379 440
#     4  11  23  45  70 105 148 194 238 309 376 434
#     4  10  23  45  71 106 143 190 249 301 360 434
#     4  10  23  42  76 101 143 191 250 309 359 437
#     4  11  25  43  75 104 142 194 256 298 369 439
#     4  10  24  44  72 106 140 185 252 302 358 433
#     4  12  29  47  76 109 149 201 247 305 378 443
#
# _framework density 22.978981999999998
#
# number of rings (size 3 to 8) (size 9 to 14) (size 15 to 20)
#    0.000    1.143    1.429    3.429   14.000    0.571 
#    0.000    1.429    0.000    0.000    0.000    0.000 
#    0.000    0.000    0.000    0.000    0.000    0.000 
#
# Total GULP energy -78189.784813 kJ/mol
# GULP energy per Si atom -5584.984629 kJ/mol
# Density = 2.292668 g / cm^3
# Si number density = 22.978982 Si / 1000 Ang^3
#
#
#
# Elastic Constant Matrix: (Units=GPa)
#
#
# Indices 1 2 3 4 5 6 
#
# 1 126.8327 31.8934 33.1024 -19.9634 3.6198 -16.7874
# 2 31.8934 69.7040 18.9599 -2.9310 4.1584 -0.0398
# 3 33.1024 18.9599 109.4629 -5.5680 9.6742 -4.5837
# 4 -19.9634 -2.9310 -5.5680 40.9154 -1.0330 6.4022
# 5 3.6198 4.1584 9.6742 -1.0330 48.3990 -13.5039
# 6 -16.7874 -0.0398 -4.5837 6.4022 -13.5039 33.7589
#
#
#
# Elastic Compliance Matrix: (Units=1/GPa)
#
#
# Indices 1 2 3 4 5 6 
#
# 1 0.010753 -0.004229 -0.002245 0.003912 0.001452 0.004877
# 2 -0.004229 0.016793 -0.001641 -0.000684 -0.001599 -0.002816
# 3 -0.002245 -0.001641 0.010254 0.000216 -0.001881 -0.000519
# 4 0.003912 -0.000684 0.000216 0.026842 -0.000646 -0.003375
# 5 0.001452 -0.001599 -0.001881 -0.000646 0.023882 0.010140
# 6 0.004877 -0.002816 -0.000519 -0.003375 0.010140 0.036669
#
#
# Mechanical properties :
#
#
# Convention : Reuss Voigt Hill
#
# Bulk Modulus (GPa) = 46.35896 52.65678 49.50787
# Shear Modulus (GPa) = 33.64452 39.41758 36.53105
#
# Velocity S-wave (km/s) = 3.83056 4.14620 3.99150
# Velocity P-wave (km/s) = 6.30734 6.77394 6.54480
#
# Compressibility (1/GPa) = 0.02157080
#
# Stress axis : x y z
#
# Youngs Moduli (GPa) = 92.99370 59.54916 97.52255
#
# Poissons Ratio (x) = 0.25184 0.21889
# Poissons Ratio (y) = 0.39328 0.16005
# Poissons Ratio (z) = 0.20873 0.09773
#
# Static dielectric constant tensor:
#      x y z
#    x 1.879020 -0.028530 -0.023620 
#    y -0.028530 1.939760 0.019980 
#    z -0.023620 0.019980 1.947060 
# 
# From -- ./inp_files/184473.got.cif
#   From: 2010.05.17/outbox.cif.g08.bks.cpg/sg2_93_cif.got.tgz:184473.got - 2010.06.03 11:33:40.
