data_PCOD9040980
_publ_section_title
;
Structure prediction by ZEFSAII (Michael W. Deem and Ramdas Pophale) SiO2 
 PCOD9040980
Probable space group: P -1
;
_chemical_formula_sum "Si O2"
_cell_formula_units_Z 14
_cell_length_a 6.155043
_cell_length_b 10.824062
_cell_length_c 12.070787
_cell_angle_alpha 71.918464
_cell_angle_beta 130.058792
_cell_angle_gamma 117.827463
_cell_volume 544.273897
_symmetry_space_group_name_H-M "P -1"
_symmetry_group_IT_number 2
_symmetry_cell_setting 'triclinic'
loop_
_space_group_symop_operation_xyz
x,y,z
-x,-y,-z
loop_
_atom_site_type_symbol
_atom_site_label
_atom_site_fract_x
_atom_site_fract_y
_atom_site_fract_z
Si Si1 0.647561 0.910806 0.934456
Si Si2 0.030131 0.471404 0.357012
Si Si3 0.609392 0.847301 0.179378
Si Si4 0.430427 0.284313 0.579986
Si Si5 0.771329 0.945215 0.592149
Si Si6 0.846263 0.541846 0.045653
Si Si7 0.390530 0.275796 0.212329
O O1 0.491086 0.818986 0.803177
O O2 0.516149 0.029676 0.881114
O O3 0.602803 0.815248 0.056176
O O4 0.000000 0.000000 0.000000
O O5 0.206591 0.370068 0.476083
O O6 0.262883 0.629190 0.412754
O O7 0.990230 0.481969 0.209275
O O8 0.683633 0.411601 0.304306
O O9 0.469884 0.728502 0.257344
O O10 0.951992 0.921068 0.313027
O O11 0.266821 0.131435 0.517001
O O12 0.757274 0.820239 0.706211
O O13 0.500000 0.000000 0.500000
O O14 0.500000 0.500000 0.000000
O O15 0.850144 0.689607 0.954191
O O16 0.000000 0.500000 0.000000
#
# Coordination Sequence:
#
# PCOD9040980 Si02
#       7
#     2   2   2   2   2   2   2
#     4  11  24  45  71 106 137 178 234 297 360 420
#     4  10  24  44  65 102 138 191 234 289 355 423
#     4  11  25  43  71 103 141 182 232 297 356 423
#     4  11  24  42  68  97 147 182 237 283 351 436
#     4  12  24  41  69 101 143 187 227 289 358 428
#     4  10  23  43  70 101 138 187 242 299 360 426
#     4  11  23  43  73 101 141 182 240 296 360 428
#
# _framework density 25.722345000000001
#
# number of rings (size 3 to 8) (size 9 to 14) (size 15 to 20)
#    0.000    1.143    1.429    3.857    2.000    4.000 
#    0.000    4.286    0.000    0.000    0.000    0.000 
#    0.000    0.000    0.000    0.000    0.000    0.000 
#
# Total GULP energy -78156.318545 kJ/mol
# GULP energy per Si atom -5582.594182 kJ/mol
# Density = 2.566380 g / cm^3
# Si number density = 25.722345 Si / 1000 Ang^3
#
#
#
# Elastic Constant Matrix: (Units=GPa)
#
#
# Indices 1 2 3 4 5 6 
#
# 1 71.4922 5.2440 23.0133 -1.0107 -15.4276 -3.2033
# 2 5.2440 61.1541 -9.8447 -6.5779 4.1470 13.9727
# 3 23.0133 -9.8447 112.1148 -34.3652 -25.2426 -8.7633
# 4 -1.0107 -6.5779 -34.3652 47.9416 7.2656 0.0607
# 5 -15.4276 4.1470 -25.2426 7.2656 55.2656 -7.7528
# 6 -3.2033 13.9727 -8.7633 0.0607 -7.7528 33.5415
#
#
#
# Elastic Compliance Matrix: (Units=1/GPa)
#
#
# Indices 1 2 3 4 5 6 
#
# 1 0.016303 -0.003249 -0.003476 -0.003210 0.004042 0.002943
# 2 -0.003249 0.019745 0.002553 0.004948 -0.003078 -0.008589
# 3 -0.003476 0.002553 0.014093 0.009698 0.004463 0.003300
# 4 -0.003210 0.004948 0.009698 0.028511 -0.000589 -0.000022
# 5 0.004042 -0.003078 0.004463 -0.000589 0.022704 0.008083
# 6 0.002943 -0.008589 0.003300 -0.000022 0.008083 0.036404
#
#
# Mechanical properties :
#
#
# Convention : Reuss Voigt Hill
#
# Bulk Modulus (GPa) = 23.92480 31.28737 27.60609
# Shear Modulus (GPa) = 31.24308 42.43963 36.84135
#
# Velocity S-wave (km/s) = 3.48893 4.06632 3.78864
# Velocity P-wave (km/s) = 5.05486 5.85120 5.46754
#
# Compressibility (1/GPa) = 0.04179763
#
# Stress axis : x y z
#
# Youngs Moduli (GPa) = 61.33674 50.64529 70.95961
#
# Poissons Ratio (x) = 0.16456 0.24663
# Poissons Ratio (y) = 0.19930 -0.18117
# Poissons Ratio (z) = 0.21318 -0.12930
#
# Static dielectric constant tensor:
#      x y z
#    x 2.053870 0.063530 0.018570 
#    y 0.063530 2.111620 0.105740 
#    z 0.018570 0.105740 2.067020 
# 
# From -- ./inp_files/364188.got.cif
#   From: 2010.05.17/outbox.cif.g08.bks.cpg/sg2_183_cif.got.tgz:364188.got - 2010.06.03 11:33:40.
