data_PCOD9040757
_publ_section_title
;
Structure prediction by ZEFSAII (Michael W. Deem and Ramdas Pophale) SiO2 
 PCOD9040757
Probable space group: P -1
;
_chemical_formula_sum "Si O2"
_cell_formula_units_Z 16
_cell_length_a 9.140935
_cell_length_b 15.899671
_cell_length_c 8.822406
_cell_angle_alpha 86.200029
_cell_angle_beta 106.505324
_cell_angle_gamma 144.019781
_cell_volume 691.130792
_symmetry_space_group_name_H-M "P -1"
_symmetry_group_IT_number 2
_symmetry_cell_setting 'triclinic'
loop_
_space_group_symop_operation_xyz
x,y,z
-x,-y,-z
loop_
_atom_site_type_symbol
_atom_site_label
_atom_site_fract_x
_atom_site_fract_y
_atom_site_fract_z
Si Si1 0.032546 0.262731 0.603430
Si Si2 0.937130 0.540348 0.851157
Si Si3 0.339467 0.039105 0.355850
Si Si4 0.358422 0.256459 0.585874
Si Si5 0.284920 0.962621 0.022228
Si Si6 0.125882 0.642639 0.585986
Si Si7 0.815217 0.637278 0.029256
Si Si8 0.055574 0.992180 0.735572
O O1 0.039949 0.345762 0.485773
O O2 0.264788 0.300391 0.635172
O O3 0.047209 0.307874 0.771156
O O4 0.770280 0.080877 0.546043
O O5 0.677741 0.402215 0.685373
O O6 0.169712 0.652881 0.778444
O O7 0.870402 0.589917 0.929583
O O8 0.000000 0.500000 0.000000
O O9 0.604103 0.213316 0.448520
O O10 0.099273 0.995378 0.253870
O O11 0.402572 0.025966 0.216600
O O12 0.183384 0.173986 0.389180
O O13 0.250231 0.121657 0.650538
O O14 0.978682 0.788650 0.982623
O O15 0.234485 0.023128 0.902579
O O16 0.500000 0.000000 0.000000
O O17 0.000000 0.500000 0.500000
O O18 0.500000 0.500000 0.000000
#
# Coordination Sequence:
#
# PCOD9040757 Si02
#       8
#     2   2   2   2   2   2   2   2
#     4  10  23  46  71  98 141 185 238 293 356 437
#     4  12  27  43  70 102 145 185 235 293 363 434
#     4  10  23  45  69 102 137 190 236 293 358 431
#     4  10  23  43  68  98 134 184 234 290 358 414
#     4  11  25  42  70 107 139 186 245 298 358 435
#     4  12  26  44  70 109 143 187 233 300 372 426
#     4  11  24  45  66 103 139 188 235 296 362 426
#     4  10  23  43  70  97 136 182 240 292 346 431
#
# _framework density 23.150466000000002
#
# number of rings (size 3 to 8) (size 9 to 14) (size 15 to 20)
#    0.000    1.250    1.250    3.000    7.000    3.500 
#    4.500    0.000    0.000    0.000    0.000    0.000 
#    0.000    0.000    0.000    0.000    0.000    0.000 
#
# Total GULP energy -89280.970410 kJ/mol
# GULP energy per Si atom -5580.060651 kJ/mol
# Density = 2.309777 g / cm^3
# Si number density = 23.150466 Si / 1000 Ang^3
#
#
#
# Elastic Constant Matrix: (Units=GPa)
#
#
# Indices 1 2 3 4 5 6 
#
# 1 80.6468 27.7251 26.8839 -3.5074 -10.2450 -7.3751
# 2 27.7251 133.7428 26.4530 -2.0144 10.2137 -7.7280
# 3 26.8839 26.4530 95.0759 -19.9563 1.9598 -19.0208
# 4 -3.5074 -2.0144 -19.9563 37.8189 -5.2333 0.4265
# 5 -10.2450 10.2137 1.9598 -5.2333 46.2789 0.2933
# 6 -7.3751 -7.7280 -19.0208 0.4265 0.2933 39.1563
#
#
#
# Elastic Compliance Matrix: (Units=1/GPa)
#
#
# Indices 1 2 3 4 5 6 
#
# 1 0.015061 -0.002712 -0.003477 -0.000025 0.004073 0.000582
# 2 -0.002712 0.008578 -0.001713 -0.001054 -0.002543 0.000381
# 3 -0.003477 -0.001713 0.014721 0.007254 -0.000233 0.006081
# 4 -0.000025 -0.001054 0.007254 0.030644 0.003366 0.002952
# 5 0.004073 -0.002543 -0.000233 0.003366 0.023462 -0.000060
# 6 0.000582 0.000381 0.006081 0.002952 -0.000060 0.028646
#
#
# Mechanical properties :
#
#
# Convention : Reuss Voigt Hill
#
# Bulk Modulus (GPa) = 44.33142 52.39884 48.36513
# Shear Modulus (GPa) = 34.61782 39.87768 37.24775
#
# Velocity S-wave (km/s) = 3.87116 4.15486 4.01551
# Velocity P-wave (km/s) = 6.25875 6.76020 6.51430
#
# Compressibility (1/GPa) = 0.02255737
#
# Stress axis : x y z
#
# Youngs Moduli (GPa) = 66.39754 116.57273 67.92817
#
# Poissons Ratio (x) = 0.31618 0.23617
# Poissons Ratio (y) = 0.18009 0.11633
# Poissons Ratio (z) = 0.23085 0.19964
#
# Static dielectric constant tensor:
#      x y z
#    x 1.905200 0.043000 -0.002690 
#    y 0.043000 2.037640 0.040470 
#    z -0.002690 0.040470 1.871920 
# 
# From -- ./inp_files/207095.got.cif
#   From: 2010.05.17/outbox.cif.g08.bks.cpg/sg2_104_cif.got.tgz:207095.got - 2010.06.03 11:33:40.
