data_PCOD9040787
_publ_section_title
;
Structure prediction by ZEFSAII (Michael W. Deem and Ramdas Pophale) SiO2 
 PCOD9040787
Probable space group: P -1
;
_chemical_formula_sum "Si O2"
_cell_formula_units_Z 16
_cell_length_a 11.177387
_cell_length_b 9.396500
_cell_length_c 14.646307
_cell_angle_alpha 46.511786
_cell_angle_beta 41.775914
_cell_angle_gamma 73.818314
_cell_volume 650.122399
_symmetry_space_group_name_H-M "P -1"
_symmetry_group_IT_number 2
_symmetry_cell_setting 'triclinic'
loop_
_space_group_symop_operation_xyz
x,y,z
-x,-y,-z
loop_
_atom_site_type_symbol
_atom_site_label
_atom_site_fract_x
_atom_site_fract_y
_atom_site_fract_z
Si Si1 0.453021 0.080626 0.780541
Si Si2 0.842918 0.865510 0.783712
Si Si3 0.571124 0.355512 0.412289
Si Si4 0.595607 0.533740 0.715138
Si Si5 0.090731 0.128668 0.985929
Si Si6 0.878033 0.237600 0.213130
Si Si7 0.609045 0.751334 0.789664
Si Si8 0.286031 0.801171 0.249851
O O1 0.469574 0.228178 0.618583
O O2 0.245364 0.036109 0.969272
O O3 0.646977 0.211459 0.678616
O O4 0.464691 0.862826 0.837446
O O5 0.015693 0.804256 0.740821
O O6 0.794561 0.865757 0.704564
O O7 0.868332 0.099324 0.704395
O O8 0.633542 0.664804 0.037631
O O9 0.431695 0.396194 0.401354
O O10 0.760143 0.601144 0.222459
O O11 0.659346 0.208927 0.376500
O O12 0.653041 0.728783 0.669642
O O13 0.742923 0.422072 0.683587
O O14 0.917877 0.105096 0.167006
O O15 0.000000 0.000000 0.000000
O O16 0.000000 0.500000 0.000000
O O17 0.500000 0.500000 0.000000
O O18 0.500000 0.000000 0.000000
#
# Coordination Sequence:
#
# PCOD9040787 Si02
#       8
#     2   2   2   2   2   2   2   2
#     4  11  22  40  61  95 126 163 212 263 319 363
#     4   9  16  34  56  81 116 160 216 249 293 372
#     4  11  23  39  63  93 133 168 197 263 328 376
#     4  10  17  33  56  88 124 156 209 254 313 362
#     4  11  23  38  61  91 127 165 212 251 304 380
#     4  10  20  38  59  85 127 170 203 245 323 383
#     4   9  21  33  58  92 120 159 215 264 296 366
#     4   9  17  32  58  84 116 167 211 249 299 373
#
# _framework density 24.610748999999998
#
# number of rings (size 3 to 8) (size 9 to 14) (size 15 to 20)
#    0.000    2.000    3.750    1.875    1.750    1.500 
#    0.000    2.500    0.000    0.000    0.000    7.000 
#    0.000    0.000    0.000    0.000    0.000    0.000 
#
# Total GULP energy -89442.658531 kJ/mol
# GULP energy per Si atom -5590.166158 kJ/mol
# Density = 2.455473 g / cm^3
# Si number density = 24.610749 Si / 1000 Ang^3
#
#
#
# Elastic Constant Matrix: (Units=GPa)
#
#
# Indices 1 2 3 4 5 6 
#
# 1 81.8208 49.3439 24.7676 -10.7453 30.9810 -3.5728
# 2 49.3439 206.9085 25.0477 -2.4553 1.2591 -11.3372
# 3 24.7676 25.0477 68.9410 -4.1633 3.3497 6.5735
# 4 -10.7453 -2.4553 -4.1633 29.7800 4.1533 6.5070
# 5 30.9810 1.2591 3.3497 4.1533 34.7113 6.5612
# 6 -3.5728 -11.3372 6.5735 6.5070 6.5612 54.0115
#
#
#
# Elastic Compliance Matrix: (Units=1/GPa)
#
#
# Indices 1 2 3 4 5 6 
#
# 1 0.030583 -0.005923 -0.007014 0.012776 -0.028608 0.003569
# 2 -0.005923 0.006297 -0.000639 -0.002595 0.005302 0.000676
# 3 -0.007014 -0.000639 0.017308 -0.000172 0.005262 -0.003323
# 4 0.012776 -0.002595 -0.000172 0.040721 -0.015658 -0.002682
# 5 -0.028608 0.005302 0.005262 -0.015658 0.056731 -0.006425
# 6 0.003569 0.000676 -0.003323 -0.002682 -0.006425 0.020401
#
#
# Mechanical properties :
#
#
# Convention : Reuss Voigt Hill
#
# Bulk Modulus (GPa) = 36.98739 61.77652 49.38195
# Shear Modulus (GPa) = 24.01483 40.93464 32.47473
#
# Velocity S-wave (km/s) = 3.12715 4.08276 3.63648
# Velocity P-wave (km/s) = 5.30097 6.88340 6.14335
#
# Compressibility (1/GPa) = 0.02703624
#
# Stress axis : x y z
#
# Youngs Moduli (GPa) = 32.69769 158.80796 57.77719
#
# Poissons Ratio (x) = 0.94064 0.40525
# Poissons Ratio (y) = 0.19367 0.03690
# Poissons Ratio (z) = 0.22934 0.10142
#
# Static dielectric constant tensor:
#      x y z
#    x 1.694400 0.049970 0.159740 
#    y 0.049970 1.987930 0.031570 
#    z 0.159740 0.031570 1.912280 
# 
# From -- ./inp_files/512735.got.cif
#   From: 2010.05.17/outbox.cif.g08.bks.cpg/sg2_257_cif.got.tgz:512735.got - 2010.06.03 11:33:40.
