data_PCOD9040195
_publ_section_title
;
Structure prediction by ZEFSAII (Michael W. Deem and Ramdas Pophale) SiO2 
 PCOD9040195
Probable space group: P -1
;
_chemical_formula_sum "Si O2"
_cell_formula_units_Z 16
_cell_length_a 22.450893
_cell_length_b 19.977478
_cell_length_c 28.352837
_cell_angle_alpha 19.682705
_cell_angle_beta 10.694105
_cell_angle_gamma 20.262068
_cell_volume 777.681630
_symmetry_space_group_name_H-M "P -1"
_symmetry_group_IT_number 2
_symmetry_cell_setting 'triclinic'
loop_
_space_group_symop_operation_xyz
x,y,z
-x,-y,-z
loop_
_atom_site_type_symbol
_atom_site_label
_atom_site_fract_x
_atom_site_fract_y
_atom_site_fract_z
Si Si1 0.365969 0.855205 0.663522
Si Si2 0.750696 0.138088 0.565772
Si Si3 0.771015 0.495870 0.929461
Si Si4 0.176654 0.185365 0.749696
Si Si5 0.809648 0.833528 0.884752
Si Si6 0.375299 0.901862 0.451798
Si Si7 0.414274 0.563618 0.422714
Si Si8 0.320240 0.899216 0.998655
O O1 0.648872 0.764340 0.466728
O O2 0.500000 0.000000 0.500000
O O3 0.257167 0.674725 0.896772
O O4 0.058560 0.996025 0.782584
O O5 0.584729 0.331020 0.597768
O O6 0.956028 0.197217 0.322680
O O7 0.487615 0.018223 0.828787
O O8 0.000000 0.000000 0.500000
O O9 0.432976 0.659019 0.079198
O O10 0.919444 0.370356 0.850839
O O11 0.049857 0.617689 0.647983
O O12 0.466884 0.111625 0.610844
O O13 0.000000 0.000000 0.000000
O O14 0.991042 0.923519 0.727071
O O15 0.674802 0.640288 0.135654
O O16 0.500000 0.000000 0.000000
O O17 0.509062 0.677598 0.474928
O O18 0.510339 0.061168 0.209069
#
# Coordination Sequence:
#
# PCOD9040195 Si02
#       8
#     2   2   2   2   2   2   2   2
#     4  12  25  48  74  99 136 176 227 289 346 408
#     4  11  22  39  64  94 138 181 222 268 329 389
#     4  11  24  47  69 103 140 175 230 282 340 406
#     4  11  23  47  73  96 135 176 220 291 348 402
#     4  11  22  36  60  92 134 175 219 272 317 391
#     4  10  23  43  64  95 136 178 227 273 336 400
#     4  11  21  41  61  94 136 175 221 273 321 398
#     4  11  23  45  71 100 142 181 225 287 330 403
#
# _framework density 20.573971
#
# number of rings (size 3 to 8) (size 9 to 14) (size 15 to 20)
#    0.000    1.000    6.250    1.125    1.750    4.500 
#    2.250    1.250    0.000    0.000    0.000    0.000 
#    0.000    0.000    0.000    0.000    0.000    0.000 
#
# Total GULP energy -89393.779111 kJ/mol
# GULP energy per Si atom -5587.111194 kJ/mol
# Density = 2.052714 g / cm^3
# Si number density = 20.573971 Si / 1000 Ang^3
#
#
#
# Elastic Constant Matrix: (Units=GPa)
#
#
# Indices 1 2 3 4 5 6 
#
# 1 118.8598 48.2417 46.5769 0.6102 -0.4070 17.0595
# 2 48.2417 104.4181 36.8627 11.8948 -5.7971 0.6325
# 3 46.5769 36.8627 100.7946 -0.0528 5.5098 6.3970
# 4 0.6102 11.8948 -0.0528 23.4004 -1.4552 -3.4822
# 5 -0.4070 -5.7971 5.5098 -1.4552 42.0894 3.2976
# 6 17.0595 0.6325 6.3970 -3.4822 3.2976 38.6310
#
#
#
# Elastic Compliance Matrix: (Units=1/GPa)
#
#
# Indices 1 2 3 4 5 6 
#
# 1 0.012391 -0.004471 -0.003815 0.001269 0.000415 -0.004688
# 2 -0.004471 0.013566 -0.003099 -0.006442 0.001889 0.001523
# 3 -0.003815 -0.003099 0.012938 0.001560 -0.002097 -0.000087
# 4 0.001269 -0.006442 0.001560 0.046510 0.000258 0.003457
# 5 0.000415 0.001889 -0.002097 0.000258 0.024458 -0.001931
# 6 -0.004688 0.001523 -0.000087 0.003457 -0.001931 0.028422
#
#
# Mechanical properties :
#
#
# Convention : Reuss Voigt Hill
#
# Bulk Modulus (GPa) = 62.01316 65.27057 63.64187
# Shear Modulus (GPa) = 30.04292 33.65024 31.84658
#
# Velocity S-wave (km/s) = 3.82545 4.04861 3.93861
# Velocity P-wave (km/s) = 7.05118 7.32453 7.18915
#
# Compressibility (1/GPa) = 0.01612561
#
# Stress axis : x y z
#
# Youngs Moduli (GPa) = 80.70669 73.71465 77.28986
#
# Poissons Ratio (x) = 0.32957 0.29486
# Poissons Ratio (y) = 0.36083 0.23949
# Poissons Ratio (z) = 0.30790 0.22842
#
# Static dielectric constant tensor:
#      x y z
#    x 1.751460 -0.039220 -0.017570 
#    y -0.039220 1.747540 0.029260 
#    z -0.017570 0.029260 1.775780 
# 
# From -- ./inp_files/624206.got.cif
#   From: 2010.05.17/outbox.cif.g08.bks.cpg/sg2_313_cif.got.tgz:624206.got - 2010.06.03 11:33:40.
