data_PCOD9040385
_publ_section_title
;
Structure prediction by ZEFSAII (Michael W. Deem and Ramdas Pophale) SiO2 
 PCOD9040385
Probable space group: P -1
;
_chemical_formula_sum "Si O2"
_cell_formula_units_Z 16
_cell_length_a 19.533061
_cell_length_b 9.170960
_cell_length_c 8.923848
_cell_angle_alpha 98.451674
_cell_angle_beta 52.606457
_cell_angle_gamma 55.276701
_cell_volume 684.709891
_symmetry_space_group_name_H-M "P -1"
_symmetry_group_IT_number 2
_symmetry_cell_setting 'triclinic'
loop_
_space_group_symop_operation_xyz
x,y,z
-x,-y,-z
loop_
_atom_site_type_symbol
_atom_site_label
_atom_site_fract_x
_atom_site_fract_y
_atom_site_fract_z
Si Si1 0.829297 0.825691 0.757669
Si Si2 0.145370 0.697923 0.691807
Si Si3 0.030986 0.808080 0.521320
Si Si4 0.834359 0.854288 0.431248
Si Si5 0.357084 0.586866 0.216490
Si Si6 0.432914 0.942593 0.674025
Si Si7 0.804345 0.655209 0.213197
Si Si8 0.634949 0.666001 0.095214
O O1 0.779246 0.863035 0.660812
O O2 0.000000 0.500000 0.500000
O O3 0.880820 0.920244 0.722169
O O4 0.678687 0.011932 0.088531
O O5 0.080668 0.748973 0.619754
O O6 0.308228 0.555690 0.420253
O O7 0.179283 0.508230 0.722858
O O8 0.000000 0.000000 0.000000
O O9 0.186985 0.529306 0.187435
O O10 0.000000 0.000000 0.500000
O O11 0.762547 0.862954 0.393544
O O12 0.790724 0.088014 0.534924
O O13 0.021638 0.571066 0.121646
O O14 0.500000 0.500000 0.000000
O O15 0.375757 0.446891 0.031938
O O16 0.315536 0.176359 0.738127
O O17 0.460365 0.043903 0.761666
O O18 0.579876 0.684227 0.334700
#
# Coordination Sequence:
#
# PCOD9040385 Si02
#       8
#     2   2   2   2   2   2   2   2
#     4  12  21  40  68 101 124 171 225 264 327 390
#     4  11  24  41  66 102 131 169 227 266 327 395
#     4  11  24  42  68  95 135 176 217 273 327 387
#     4  11  23  40  67  99 133 168 220 273 324 389
#     4  11  24  46  65  93 136 177 212 276 337 392
#     4  11  24  42  69  98 134 174 218 280 330 391
#     4  11  23  41  68 100 133 170 218 274 330 393
#     4  10  23  43  66  92 136 173 220 270 333 392
#
# _framework density 23.367559
#
# number of rings (size 3 to 8) (size 9 to 14) (size 15 to 20)
#    0.000    1.000    3.750    3.000    5.250    1.000 
#    4.500    5.625    0.000    0.000    0.000    0.000 
#    0.000    0.000    0.000    0.000    0.000    0.000 
#
# Total GULP energy -89242.221143 kJ/mol
# GULP energy per Si atom -5577.638821 kJ/mol
# Density = 2.331437 g / cm^3
# Si number density = 23.367559 Si / 1000 Ang^3
#
#
#
# Elastic Constant Matrix: (Units=GPa)
#
#
# Indices 1 2 3 4 5 6 
#
# 1 93.5771 8.5233 35.1434 -8.7604 12.0604 26.6863
# 2 8.5233 64.2009 17.8263 -20.8087 13.4458 9.3319
# 3 35.1434 17.8263 178.7414 -37.7133 4.3517 23.0060
# 4 -8.7604 -20.8087 -37.7133 48.0457 14.2728 -7.8407
# 5 12.0604 13.4458 4.3517 14.2728 39.5033 -8.1150
# 6 26.6863 9.3319 23.0060 -7.8407 -8.1150 38.8937
#
#
#
# Elastic Compliance Matrix: (Units=1/GPa)
#
#
# Indices 1 2 3 4 5 6 
#
# 1 0.016044 0.003802 -0.000524 0.005240 -0.010653 -0.012777
# 2 0.003802 0.025360 0.002101 0.017084 -0.018316 -0.010314
# 3 -0.000524 0.002101 0.007795 0.007750 -0.005088 -0.004254
# 4 0.005240 0.017084 0.007750 0.041189 -0.025040 -0.009200
# 5 -0.010653 -0.018316 -0.005088 -0.025040 0.048471 0.019779
# 6 -0.012777 -0.010314 -0.004254 -0.009200 0.019779 0.041741
#
#
# Mechanical properties :
#
#
# Convention : Reuss Voigt Hill
#
# Bulk Modulus (GPa) = 16.67842 51.05615 33.86728
# Shear Modulus (GPa) = 26.33960 43.62363 34.98161
#
# Velocity S-wave (km/s) = 3.36100 4.32539 3.87333
# Velocity P-wave (km/s) = 4.71325 6.84411 5.87608
#
# Compressibility (1/GPa) = 0.05995773
#
# Stress axis : x y z
#
# Youngs Moduli (GPa) = 62.32797 39.43188 128.28881
#
# Poissons Ratio (x) = -0.14993 0.06725
# Poissons Ratio (y) = -0.23698 -0.26957
# Poissons Ratio (z) = 0.03267 -0.08286
#
# Static dielectric constant tensor:
#      x y z
#    x 2.112360 -0.154670 -0.229350 
#    y -0.154670 2.129860 0.236260 
#    z -0.229350 0.236260 2.195780 
# 
# From -- ./inp_files/209459.got.cif
#   From: 2010.05.17/outbox.cif.g08.bks.cpg/sg2_105_cif.got.tgz:209459.got - 2010.06.03 11:33:40.
