data_PCOD9040295
_publ_section_title
;
Structure prediction by ZEFSAII (Michael W. Deem and Ramdas Pophale) SiO2 
 PCOD9040295
Probable space group: P -1
;
_chemical_formula_sum "Si O2"
_cell_formula_units_Z 16
_cell_length_a 11.660952
_cell_length_b 9.024377
_cell_length_c 19.803447
_cell_angle_alpha 72.657854
_cell_angle_beta 158.615598
_cell_angle_gamma 106.571814
_cell_volume 725.147192
_symmetry_space_group_name_H-M "P -1"
_symmetry_group_IT_number 2
_symmetry_cell_setting 'triclinic'
loop_
_space_group_symop_operation_xyz
x,y,z
-x,-y,-z
loop_
_atom_site_type_symbol
_atom_site_label
_atom_site_fract_x
_atom_site_fract_y
_atom_site_fract_z
Si Si1 0.078011 0.094651 0.809791
Si Si2 0.367792 0.684644 0.544870
Si Si3 0.183886 0.467133 0.288276
Si Si4 0.912087 0.184941 0.849151
Si Si5 0.235858 0.126187 0.548875
Si Si6 0.512962 0.197985 0.253765
Si Si7 0.213377 0.805478 0.829268
Si Si8 0.987459 0.414902 0.433164
O O1 0.795033 0.186433 0.607465
O O2 0.004625 0.081130 0.850292
O O3 0.120699 0.932958 0.817018
O O4 0.410356 0.188079 0.971292
O O5 0.682441 0.620774 0.692299
O O6 0.433942 0.750085 0.647083
O O7 0.113527 0.541488 0.432145
O O8 0.500000 0.500000 0.500000
O O9 0.055245 0.634924 0.178490
O O10 0.939346 0.357409 0.208982
O O11 0.553719 0.154908 0.676472
O O12 0.153837 0.161260 0.045421
O O13 0.949212 0.142933 0.336883
O O14 0.213197 0.267748 0.569772
O O15 0.283129 0.954521 0.626410
O O16 0.644083 0.333315 0.257317
O O17 0.000000 0.500000 0.500000
#
# Coordination Sequence:
#
# PCOD9040295 Si02
#       8
#     2   2   2   2   2   2   2   2
#     4  11  25  44  69 103 133 173 228 276 336 396
#     4  11  22  45  67  96 137 175 220 276 336 395
#     4  12  23  43  70  99 135 177 221 280 338 395
#     4  12  26  43  68 103 134 175 226 276 334 401
#     4  12  22  46  69  95 138 177 223 272 335 398
#     4  11  26  43  67  98 134 183 218 274 333 397
#     4  11  25  43  71 103 132 174 224 282 333 399
#     4  10  23  43  65  95 133 177 220 269 330 395
#
# _framework density 22.064485999999999
#
# number of rings (size 3 to 8) (size 9 to 14) (size 15 to 20)
#    0.000    0.750    5.000    1.500    3.500    2.000 
#    2.250    0.000    0.000    0.000    0.000    0.000 
#    0.000    0.000    0.000    0.000    0.000    0.000 
#
# Total GULP energy -89498.903910 kJ/mol
# GULP energy per Si atom -5593.681494 kJ/mol
# Density = 2.201427 g / cm^3
# Si number density = 22.064486 Si / 1000 Ang^3
#
#
#
# Elastic Constant Matrix: (Units=GPa)
#
#
# Indices 1 2 3 4 5 6 
#
# 1 69.9855 21.3216 15.7088 11.2934 4.3591 -27.4957
# 2 21.3216 76.8374 6.4579 6.1139 -9.9514 -12.6447
# 3 15.7088 6.4579 64.4263 7.5753 -20.3720 -11.7634
# 4 11.2934 6.1139 7.5753 28.4779 3.2023 10.1347
# 5 4.3591 -9.9514 -20.3720 3.2023 25.5917 -3.8558
# 6 -27.4957 -12.6447 -11.7634 10.1347 -3.8558 51.5026
#
#
#
# Elastic Compliance Matrix: (Units=1/GPa)
#
#
# Indices 1 2 3 4 5 6 
#
# 1 0.023294 -0.003744 -0.002982 -0.011704 -0.004403 0.012809
# 2 -0.003744 0.016794 0.005211 -0.006990 0.013044 0.005666
# 3 -0.002982 0.005211 0.028693 -0.014856 0.028941 0.011331
# 4 -0.011704 -0.006990 -0.014856 0.056439 -0.023259 -0.024205
# 5 -0.004403 0.013044 0.028941 -0.023259 0.073489 0.017541
# 6 0.012809 0.005666 0.011331 -0.024205 0.017541 0.036311
#
#
# Mechanical properties :
#
#
# Convention : Reuss Voigt Hill
#
# Bulk Modulus (GPa) = 15.20882 33.13620 24.17251
# Shear Modulus (GPa) = 19.23325 32.29850 25.76588
#
# Velocity S-wave (km/s) = 2.95563 3.83014 3.42095
# Velocity P-wave (km/s) = 4.30761 5.88307 5.15587
#
# Compressibility (1/GPa) = 0.06575134
#
# Stress axis : x y z
#
# Youngs Moduli (GPa) = 42.92959 59.54637 34.85115
#
# Poissons Ratio (x) = 0.22295 0.10391
# Poissons Ratio (y) = 0.16074 -0.18160
# Poissons Ratio (z) = 0.12800 -0.31029
#
# Static dielectric constant tensor:
#      x y z
#    x 1.845720 0.012850 0.020710 
#    y 0.012850 1.826560 0.020110 
#    z 0.020710 0.020110 1.770760 
# 
# From -- ./inp_files/190710.got.cif
#   From: 2010.05.17/outbox.cif.g08.bks.cpg/sg2_96_cif.got.tgz:190710.got - 2010.06.03 11:33:40.
