data_PCOD9040315
_publ_section_title
;
Structure prediction by ZEFSAII (Michael W. Deem and Ramdas Pophale) SiO2 
 PCOD9040315
Probable space group: P -1
;
_chemical_formula_sum "Si O2"
_cell_formula_units_Z 16
_cell_length_a 5.155257
_cell_length_b 18.028794
_cell_length_c 8.014187
_cell_angle_alpha 65.272344
_cell_angle_beta 117.395686
_cell_angle_gamma 113.905467
_cell_volume 579.406570
_symmetry_space_group_name_H-M "P -1"
_symmetry_group_IT_number 2
_symmetry_cell_setting 'triclinic'
loop_
_space_group_symop_operation_xyz
x,y,z
-x,-y,-z
loop_
_atom_site_type_symbol
_atom_site_label
_atom_site_fract_x
_atom_site_fract_y
_atom_site_fract_z
Si Si1 0.625408 0.946954 0.727801
Si Si2 0.529934 0.630864 0.032324
Si Si3 0.922112 0.120753 0.707859
Si Si4 0.729112 0.846834 0.556809
Si Si5 0.697648 0.656963 0.693417
Si Si6 0.532501 0.213535 0.984807
Si Si7 0.122189 0.646307 0.309404
Si Si8 0.789296 0.507483 0.698157
O O1 0.800592 0.896127 0.706887
O O2 0.500000 0.000000 0.500000
O O3 0.781163 0.025126 0.818176
O O4 0.408553 0.871835 0.841370
O O5 0.655209 0.619651 0.900413
O O6 0.430808 0.717648 0.921402
O O7 0.306517 0.546756 0.111522
O O8 0.786509 0.653355 0.233436
O O9 0.634959 0.161258 0.567489
O O10 0.090185 0.109484 0.593679
O O11 0.191663 0.175065 0.849626
O O12 0.804643 0.756764 0.656236
O O13 0.369992 0.643919 0.521647
O O14 0.884459 0.605370 0.687939
O O15 0.728547 0.273957 0.843013
O O16 0.038792 0.551577 0.291891
O O17 0.500000 0.500000 0.500000
#
# Coordination Sequence:
#
# PCOD9040315 Si02
#       8
#     2   2   2   2   2   2   2   2
#     4  10  23  44  67  98 135 179 230 293 349 423
#     4  11  23  41  67  97 135 180 233 283 353 420
#     4  11  24  44  70  97 140 182 231 293 355 417
#     4  11  23  45  67 104 135 182 236 287 355 420
#     4  11  21  43  66  99 135 181 231 292 346 420
#     4  11  22  43  63  97 136 176 233 285 349 421
#     4  10  23  43  65  97 137 179 232 285 348 420
#     4   9  22  42  63  97 138 175 230 287 346 416
#
# _framework density 27.614460000000001
#
# number of rings (size 3 to 8) (size 9 to 14) (size 15 to 20)
#    0.000    1.500    2.500    1.875    0.000    4.500 
#    6.750    3.125    0.000    0.000    0.000    0.000 
#    0.000    0.000    0.000    0.000    0.000    0.000 
#
# Total GULP energy -89435.441232 kJ/mol
# GULP energy per Si atom -5589.715077 kJ/mol
# Density = 2.755161 g / cm^3
# Si number density = 27.614460 Si / 1000 Ang^3
#
#
#
# Elastic Constant Matrix: (Units=GPa)
#
#
# Indices 1 2 3 4 5 6 
#
# 1 92.2353 44.6625 30.2755 -11.3425 11.1635 13.3655
# 2 44.6625 233.3113 29.3779 -31.2513 0.2093 -4.2467
# 3 30.2755 29.3779 129.8993 -21.1540 6.7042 15.1177
# 4 -11.3425 -31.2513 -21.1540 47.7465 2.6120 1.3063
# 5 11.1635 0.2093 6.7042 2.6120 40.4757 -2.6967
# 6 13.3655 -4.2467 15.1177 1.3063 -2.6967 37.9012
#
#
#
# Elastic Compliance Matrix: (Units=1/GPa)
#
#
# Indices 1 2 3 4 5 6 
#
# 1 0.013879 -0.002343 -0.001724 0.001346 -0.003937 -0.004796
# 2 -0.002343 0.005157 -0.000413 0.002560 0.000624 0.001525
# 3 -0.001724 -0.000413 0.009247 0.003591 -0.001509 -0.003358
# 4 0.001346 0.002560 0.003591 0.024754 -0.002755 -0.002670
# 5 -0.003937 0.000624 -0.001509 -0.002755 0.026486 0.004040
# 6 -0.004796 0.001525 -0.003358 -0.002670 0.004040 0.029965
#
#
# Mechanical properties :
#
#
# Convention : Reuss Voigt Hill
#
# Bulk Modulus (GPa) = 51.75453 73.78640 62.77046
# Shear Modulus (GPa) = 40.03522 48.63334 44.33428
#
# Velocity S-wave (km/s) = 3.81174 4.20116 4.01118
# Velocity P-wave (km/s) = 6.17698 7.09304 6.65080
#
# Compressibility (1/GPa) = 0.01932198
#
# Stress axis : x y z
#
# Youngs Moduli (GPa) = 72.04899 193.92058 108.14189
#
# Poissons Ratio (x) = 0.45441 0.18648
# Poissons Ratio (y) = 0.16883 0.04466
# Poissons Ratio (z) = 0.12424 0.08008
#
# Static dielectric constant tensor:
#      x y z
#    x 2.131470 0.040490 0.042360 
#    y 0.040490 2.173200 0.031830 
#    z 0.042360 0.031830 2.215240 
# 
# From -- ./inp_files/138802.got.cif
#   From: 2010.05.17/outbox.cif.g08.bks.cpg/sg2_70_cif.got.tgz:138802.got - 2010.06.03 11:33:40.
