data_PCOD9040786
_publ_section_title
;
Structure prediction by ZEFSAII (Michael W. Deem and Ramdas Pophale) SiO2 
 PCOD9040786
Probable space group: P -1
;
_chemical_formula_sum "Si O2"
_cell_formula_units_Z 14
_cell_length_a 5.957687
_cell_length_b 12.526069
_cell_length_c 21.866673
_cell_angle_alpha 152.145264
_cell_angle_beta 121.211013
_cell_angle_gamma 50.787366
_cell_volume 586.988416
_symmetry_space_group_name_H-M "P -1"
_symmetry_group_IT_number 2
_symmetry_cell_setting 'triclinic'
loop_
_space_group_symop_operation_xyz
x,y,z
-x,-y,-z
loop_
_atom_site_type_symbol
_atom_site_label
_atom_site_fract_x
_atom_site_fract_y
_atom_site_fract_z
Si Si1 0.195751 0.702708 0.584851
Si Si2 0.802157 0.431714 0.350724
Si Si3 0.906200 0.533353 0.194641
Si Si4 0.045703 0.255344 0.807835
Si Si5 0.333722 0.963327 0.518623
Si Si6 0.471022 0.319417 0.982019
Si Si7 0.143214 0.145069 0.133667
O O1 0.500000 0.500000 0.500000
O O2 0.213337 0.725250 0.671986
O O3 0.982357 0.581178 0.475474
O O4 0.099961 0.968129 0.672352
O O5 0.961072 0.263479 0.229537
O O6 0.506265 0.669727 0.412125
O O7 0.072785 0.605689 0.202273
O O8 0.668899 0.807445 0.323353
O O9 0.103395 0.373756 0.198144
O O10 0.749980 0.376905 0.059973
O O11 0.356950 0.254090 0.869516
O O12 0.800495 0.424149 0.906071
O O13 0.500000 0.000000 0.500000
O O14 0.000000 0.000000 0.500000
O O15 0.546860 0.072950 0.911169
O O16 0.000000 0.000000 0.000000
#
# Coordination Sequence:
#
# PCOD9040786 Si02
#       7
#     2   2   2   2   2   2   2
#     4  11  25  44  75 106 139 192 245 316 381 446
#     4  11  25  47  70 104 149 186 250 313 376 452
#     4  11  24  43  70 101 143 184 240 305 372 446
#     4  11  24  41  71 103 137 190 242 305 367 450
#     4  12  28  45  76 109 148 197 246 313 381 454
#     4  10  24  44  66  99 145 186 245 297 369 444
#     4  10  23  43  68  99 141 193 239 299 371 448
#
# _framework density 23.850556999999998
#
# number of rings (size 3 to 8) (size 9 to 14) (size 15 to 20)
#    0.000    1.143    1.429    3.000    6.000    9.714 
#    0.000    0.000    0.000    0.000    0.000    0.000 
#    0.000    0.000    0.000    0.000    0.000    0.000 
#
# Total GULP energy -78176.373028 kJ/mol
# GULP energy per Si atom -5584.026645 kJ/mol
# Density = 2.379627 g / cm^3
# Si number density = 23.850557 Si / 1000 Ang^3
#
#
#
# Elastic Constant Matrix: (Units=GPa)
#
#
# Indices 1 2 3 4 5 6 
#
# 1 82.9499 39.1477 24.4051 4.1461 17.3104 4.6913
# 2 39.1477 120.2081 29.6040 6.7529 7.2865 10.8432
# 3 24.4051 29.6040 122.6051 7.3395 9.8753 8.8674
# 4 4.1461 6.7529 7.3395 41.5535 -0.9365 -8.3535
# 5 17.3104 7.2865 9.8753 -0.9365 20.6726 5.6577
# 6 4.6913 10.8432 8.8674 -8.3535 5.6577 44.7942
#
#
#
# Elastic Compliance Matrix: (Units=1/GPa)
#
#
# Indices 1 2 3 4 5 6 
#
# 1 0.017182 -0.004554 -0.001340 -0.000820 -0.012450 0.000988
# 2 -0.004554 0.010351 -0.001466 -0.001374 0.001397 -0.002171
# 3 -0.001340 -0.001466 0.009162 -0.001563 -0.002453 -0.001300
# 4 -0.000820 -0.001374 -0.001563 0.025754 0.001626 0.005325
# 5 -0.012450 0.001397 -0.002453 0.001626 0.061186 -0.005974
# 6 0.000988 -0.002171 -0.001300 0.005325 -0.005974 0.024751
#
#
# Mechanical properties :
#
#
# Convention : Reuss Voigt Hill
#
# Bulk Modulus (GPa) = 45.50626 56.89742 51.20184
# Shear Modulus (GPa) = 29.33712 36.91113 33.12413
#
# Velocity S-wave (km/s) = 3.51100 3.93822 3.73073
# Velocity P-wave (km/s) = 5.96299 6.67735 6.33026
#
# Compressibility (1/GPa) = 0.02197500
#
# Stress axis : x y z
#
# Youngs Moduli (GPa) = 58.19982 96.60502 109.14388
#
# Poissons Ratio (x) = 0.43994 0.14628
# Poissons Ratio (y) = 0.26504 0.16003
# Poissons Ratio (z) = 0.07800 0.14164
#
# Static dielectric constant tensor:
#      x y z
#    x 1.932310 0.058920 0.030640 
#    y 0.058920 1.944540 -0.025200 
#    z 0.030640 -0.025200 1.971570 
# 
# From -- ./inp_files/366762.got.cif
#   From: 2010.05.17/outbox.cif.g08.bks.cpg/sg2_184_cif.got.tgz:366762.got - 2010.06.03 11:33:40.
