data_PCOD9040785
_publ_section_title
;
Structure prediction by ZEFSAII (Michael W. Deem and Ramdas Pophale) SiO2 
 PCOD9040785
Probable space group: P -1
;
_chemical_formula_sum "Si O2"
_cell_formula_units_Z 16
_cell_length_a 5.591047
_cell_length_b 10.826067
_cell_length_c 12.994850
_cell_angle_alpha 90.296522
_cell_angle_beta 102.532345
_cell_angle_gamma 59.379728
_cell_volume 655.544509
_symmetry_space_group_name_H-M "P -1"
_symmetry_group_IT_number 2
_symmetry_cell_setting 'triclinic'
loop_
_space_group_symop_operation_xyz
x,y,z
-x,-y,-z
loop_
_atom_site_type_symbol
_atom_site_label
_atom_site_fract_x
_atom_site_fract_y
_atom_site_fract_z
Si Si1 0.563055 0.966599 0.385692
Si Si2 0.368847 0.779531 0.601619
Si Si3 0.178567 0.043224 0.936078
Si Si4 0.837829 0.337461 0.795564
Si Si5 0.946640 0.132333 0.229735
Si Si6 0.453598 0.305905 0.606741
Si Si7 0.365881 0.569501 0.880547
Si Si8 0.002183 0.517584 0.691603
O O1 0.725551 0.053044 0.385907
O O2 0.283749 0.039339 0.285693
O O3 0.500000 0.000000 0.500000
O O4 0.669975 0.799291 0.397240
O O5 0.186594 0.770872 0.677463
O O6 0.362776 0.737724 0.482280
O O7 0.706071 0.668353 0.653207
O O8 0.171385 0.965231 0.828493
O O9 0.028088 0.213185 0.893963
O O10 0.500000 0.000000 0.000000
O O11 0.000000 0.000000 0.000000
O O12 0.655304 0.279016 0.722509
O O13 0.642883 0.492125 0.832792
O O14 0.960359 0.385212 0.714046
O O15 0.828542 0.258684 0.134552
O O16 0.201256 0.470664 0.607665
O O17 0.165746 0.522231 0.807314
O O18 0.500000 0.500000 0.000000
#
# Coordination Sequence:
#
# PCOD9040785 Si02
#       8
#     2   2   2   2   2   2   2   2
#     4  10  23  43  68  99 141 184 233 293 369 439
#     4  11  24  43  68 104 138 185 233 298 373 443
#     4  12  31  51  78 109 149 200 253 312 377 440
#     4  11  25  45  69 102 141 185 243 297 369 441
#     4  12  25  45  74 104 144 186 247 307 368 451
#     4  10  24  42  69  98 142 185 236 296 367 450
#     4  11  25  45  68  97 137 184 243 305 365 433
#     4  11  24  43  68  99 139 188 237 298 363 446
#
# _framework density 24.407191999999998
#
# number of rings (size 3 to 8) (size 9 to 14) (size 15 to 20)
#    0.000    1.000    3.750    1.125    8.750    6.000 
#    0.000    0.000    0.000    0.000    0.000    0.000 
#    0.000    0.000    0.000    0.000    0.000    0.000 
#
# Total GULP energy -89168.921034 kJ/mol
# GULP energy per Si atom -5573.057565 kJ/mol
# Density = 2.435164 g / cm^3
# Si number density = 24.407192 Si / 1000 Ang^3
#
#
#
# Elastic Constant Matrix: (Units=GPa)
#
#
# Indices 1 2 3 4 5 6 
#
# 1 47.0341 4.8396 8.8084 4.3336 9.7411 -6.9792
# 2 4.8396 57.7741 16.7192 11.4266 2.2388 17.1091
# 3 8.8084 16.7192 105.7635 0.1372 7.4942 -18.5758
# 4 4.3336 11.4266 0.1372 49.5618 -9.3894 -1.9976
# 5 9.7411 2.2388 7.4942 -9.3894 40.8665 3.5542
# 6 -6.9792 17.1091 -18.5758 -1.9976 3.5542 26.6437
#
#
#
# Elastic Compliance Matrix: (Units=1/GPa)
#
#
# Indices 1 2 3 4 5 6 
#
# 1 0.024994 -0.005291 0.001337 -0.001893 -0.007367 0.011718
# 2 -0.005291 0.030141 -0.009404 -0.007191 0.002128 -0.028121
# 3 0.001337 -0.009404 0.014009 0.002052 -0.003359 0.016758
# 4 -0.001893 -0.007191 0.002052 0.023253 0.005238 0.006597
# 5 -0.007367 0.002128 -0.003359 0.005238 0.028718 -0.009076
# 6 0.011718 -0.028121 0.016758 0.006597 -0.009076 0.072048
#
#
# Mechanical properties :
#
#
# Convention : Reuss Voigt Hill
#
# Bulk Modulus (GPa) = 23.56955 30.14514 26.85735
# Shear Modulus (GPa) = 21.36554 35.42802 28.39678
#
# Velocity S-wave (km/s) = 2.96189 3.81404 3.41465
# Velocity P-wave (km/s) = 4.62329 5.63681 5.15502
#
# Compressibility (1/GPa) = 0.04242762
#
# Stress axis : x y z
#
# Youngs Moduli (GPa) = 40.00945 33.17759 71.38258
#
# Poissons Ratio (x) = 0.17554 -0.09546
# Poissons Ratio (y) = 0.21169 0.67132
# Poissons Ratio (z) = -0.05351 0.31202
#
# Static dielectric constant tensor:
#      x y z
#    x 3.871260 0.777940 -1.596530 
#    y 0.777940 2.364810 -0.665320 
#    z -1.596530 -0.665320 3.230850 
# 
# From -- ./inp_files/68459.got.cif
#   From: 2010.05.17/outbox.cif.g08.bks.cpg/sg2_35_cif.got.tgz:68459.got - 2010.06.03 11:33:40.
