data_PCOD9040372
_publ_section_title
;
Structure prediction by ZEFSAII (Michael W. Deem and Ramdas Pophale) SiO2 
 PCOD9040372
Probable space group: P -1
;
_chemical_formula_sum "Si O2"
_cell_formula_units_Z 16
_cell_length_a 15.077092
_cell_length_b 12.935133
_cell_length_c 6.327790
_cell_angle_alpha 112.697794
_cell_angle_beta 94.514181
_cell_angle_gamma 41.910206
_cell_volume 715.644148
_symmetry_space_group_name_H-M "P -1"
_symmetry_group_IT_number 2
_symmetry_cell_setting 'triclinic'
loop_
_space_group_symop_operation_xyz
x,y,z
-x,-y,-z
loop_
_atom_site_type_symbol
_atom_site_label
_atom_site_fract_x
_atom_site_fract_y
_atom_site_fract_z
Si Si1 0.868708 0.201471 0.068349
Si Si2 0.881757 0.519973 0.020359
Si Si3 0.481428 0.636244 0.472527
Si Si4 0.263015 0.002356 0.977443
Si Si5 0.754628 0.522385 0.403870
Si Si6 0.262769 0.848285 0.228228
Si Si7 0.335163 0.184883 0.089386
Si Si8 0.023277 0.166458 0.724705
O O1 0.743963 0.237076 0.026438
O O2 0.898894 0.221314 0.857924
O O3 0.851592 0.320224 0.320578
O O4 0.000000 0.000000 0.000000
O O5 0.841660 0.502495 0.222208
O O6 0.732246 0.713844 0.066186
O O7 0.000000 0.500000 0.000000
O O8 0.952108 0.348693 0.768046
O O9 0.500000 0.500000 0.500000
O O10 0.393642 0.811935 0.737225
O O11 0.615759 0.580564 0.377397
O O12 0.386257 0.705446 0.303363
O O13 0.128954 0.096528 0.884256
O O14 0.269898 0.955817 0.183286
O O15 0.265474 0.133737 0.085093
O O16 0.707702 0.667091 0.661055
O O17 0.118360 0.002397 0.455443
O O18 0.500000 0.000000 0.000000
#
# Coordination Sequence:
#
# PCOD9040372 Si02
#       8
#     2   2   2   2   2   2   2   2
#     4  11  23  44  68 102 142 179 236 293 355 426
#     4  11  26  46  70 104 144 184 242 291 353 425
#     4  11  26  46  71 104 144 184 240 293 356 431
#     4  11  23  44  68 105 138 182 243 291 351 428
#     4  11  28  45  71 105 142 186 233 295 350 424
#     4  11  25  42  76  98 142 190 229 299 364 411
#     4  12  27  47  74 102 144 189 237 294 358 425
#     4  10  23  43  66 106 137 183 238 293 354 431
#
# _framework density 22.357479000000001
#
# number of rings (size 3 to 8) (size 9 to 14) (size 15 to 20)
#    0.000    1.000    3.750    1.125    7.000    5.000 
#    0.000    0.000    0.000    0.000    0.000    0.000 
#    0.000    0.000    0.000    0.000    0.000    0.000 
#
# Total GULP energy -89181.771295 kJ/mol
# GULP energy per Si atom -5573.860706 kJ/mol
# Density = 2.230659 g / cm^3
# Si number density = 22.357479 Si / 1000 Ang^3
#
#
#
# Elastic Constant Matrix: (Units=GPa)
#
#
# Indices 1 2 3 4 5 6 
#
# 1 90.3354 22.5176 17.2404 9.0773 7.9062 14.3247
# 2 22.5176 133.2961 19.9191 13.2168 20.1292 13.3561
# 3 17.2404 19.9191 61.5091 21.9758 16.7873 4.3821
# 4 9.0773 13.2168 21.9758 38.1264 3.8644 5.9527
# 5 7.9062 20.1292 16.7873 3.8644 37.9638 13.5480
# 6 14.3247 13.3561 4.3821 5.9527 13.5480 42.9412
#
#
#
# Elastic Compliance Matrix: (Units=1/GPa)
#
#
# Indices 1 2 3 4 5 6 
#
# 1 0.012513 -0.001397 -0.002873 -0.000346 0.000737 -0.003631
# 2 -0.001397 0.008632 -0.000778 -0.001734 -0.003480 -0.000801
# 3 -0.002873 -0.000778 0.024188 -0.012559 -0.009664 0.003522
# 4 -0.000346 -0.001734 -0.012559 0.034354 0.004571 -0.004268
# 5 0.000737 -0.003480 -0.009664 0.004571 0.035402 -0.009980
# 6 -0.003631 -0.000801 0.003522 -0.004268 -0.009980 0.028129
#
#
# Mechanical properties :
#
#
# Convention : Reuss Voigt Hill
#
# Bulk Modulus (GPa) = 28.37969 44.94388 36.66178
# Shear Modulus (GPa) = 30.29207 38.83719 34.56463
#
# Velocity S-wave (km/s) = 3.68489 4.17238 3.93618
# Velocity P-wave (km/s) = 5.55209 6.58465 6.09029
#
# Compressibility (1/GPa) = 0.03523647
#
# Stress axis : x y z
#
# Youngs Moduli (GPa) = 79.91942 115.84801 41.34218
#
# Poissons Ratio (x) = 0.16190 0.11879
# Poissons Ratio (y) = 0.11169 0.03214
# Poissons Ratio (z) = 0.22963 0.09008
#
# Static dielectric constant tensor:
#      x y z
#    x 1.911460 -0.012590 0.017300 
#    y -0.012590 1.888840 0.036610 
#    z 0.017300 0.036610 1.853630 
# 
# From -- ./inp_files/95318.got.cif
#   From: 2010.05.17/outbox.cif.g08.bks.cpg/sg2_48_cif.got.tgz:95318.got - 2010.06.03 11:33:40.
