data_PCOD9040189
_publ_section_title
;
Structure prediction by ZEFSAII (Michael W. Deem and Ramdas Pophale) SiO2 
 PCOD9040189
Probable space group: P -1
;
_chemical_formula_sum "Si O2"
_cell_formula_units_Z 16
_cell_length_a 10.665352
_cell_length_b 10.327060
_cell_length_c 8.007979
_cell_angle_alpha 109.539173
_cell_angle_beta 73.462298
_cell_angle_gamma 77.263400
_cell_volume 746.609355
_symmetry_space_group_name_H-M "P -1"
_symmetry_group_IT_number 2
_symmetry_cell_setting 'triclinic'
loop_
_space_group_symop_operation_xyz
x,y,z
-x,-y,-z
loop_
_atom_site_type_symbol
_atom_site_label
_atom_site_fract_x
_atom_site_fract_y
_atom_site_fract_z
Si Si1 0.578550 0.584284 0.277884
Si Si2 0.192868 0.484726 0.078042
Si Si3 0.053552 0.373301 0.563406
Si Si4 0.561771 0.276034 0.268216
Si Si5 0.696062 0.767205 0.796851
Si Si6 0.213316 0.953999 0.068337
Si Si7 0.311003 0.738821 0.253058
Si Si8 0.050823 0.893899 0.594639
O O1 0.568977 0.424398 0.246668
O O2 0.513763 0.676654 0.506331
O O3 0.472054 0.667126 0.207707
O O4 0.734787 0.562163 0.148971
O O5 0.246719 0.347747 0.124105
O O6 0.256980 0.606612 0.169011
O O7 0.026589 0.560169 0.206142
O O8 0.217658 0.304568 0.435790
O O9 0.000000 0.500000 0.500000
O O10 0.999192 0.243387 0.475010
O O11 0.462755 0.212423 0.170626
O O12 0.715842 0.154329 0.155944
O O13 0.730893 0.911072 0.888875
O O14 0.274018 0.852274 0.163940
O O15 0.045333 0.016255 0.179437
O O16 0.217404 0.825477 0.482762
O O17 0.000000 0.000000 0.500000
#
# Coordination Sequence:
#
# PCOD9040189 Si02
#       8
#     2   2   2   2   2   2   2   2
#     4  11  22  34  52  78 104 140 179 212 247 301
#     4  10  17  33  56  78 100 135 180 210 247 305
#     4   8  16  28  50  78 102 125 165 216 252 295
#     4  11  22  35  50  77 110 137 172 216 257 297
#     4  10  19  34  54  80 105 132 168 214 265 304
#     4  10  19  34  54  80 105 132 168 214 265 304
#     4  10  17  33  56  78 100 135 180 210 247 305
#     4   8  16  28  50  78 102 125 165 216 252 295
#
# _framework density 21.430215
#
# number of rings (size 3 to 8) (size 9 to 14) (size 15 to 20)
#    0.000    2.250    2.500    1.500    0.000    0.000 
#    0.000    3.750    0.000    0.000    0.000    0.000 
#    0.000    0.000    0.000    0.000    0.000    0.000 
#
# Total GULP energy -89180.273936 kJ/mol
# GULP energy per Si atom -5573.767121 kJ/mol
# Density = 2.138144 g / cm^3
# Si number density = 21.430215 Si / 1000 Ang^3
#
#
#
# Elastic Constant Matrix: (Units=GPa)
#
#
# Indices 1 2 3 4 5 6 
#
# 1 18.1292 -21.7321 4.1075 -15.5346 -28.1437 -8.8008
# 2 -21.7321 59.9380 -21.3730 -33.9814 -13.3503 0.9954
# 3 4.1075 -21.3730 163.4184 -13.6423 -51.6898 -15.3717
# 4 -15.5346 -33.9814 -13.6423 15.2538 -13.3328 -17.9190
# 5 -28.1437 -13.3503 -51.6898 -13.3328 33.4337 -2.2647
# 6 -8.8008 0.9954 -15.3717 -17.9190 -2.2647 8.6056
#
#
#
# Elastic Compliance Matrix: (Units=1/GPa)
#
#
# Indices 1 2 3 4 5 6 
#
# 1 0.023020 -0.004015 -0.004991 -0.019612 0.000503 -0.025612
# 2 -0.004015 0.011743 -0.001674 -0.004012 -0.004091 -0.017885
# 3 -0.004991 -0.001674 0.006146 -0.004716 0.002543 -0.003084
# 4 -0.019612 -0.004012 -0.004716 0.015918 -0.019046 0.000117
# 5 0.000503 -0.004091 0.002543 -0.019046 0.023136 -0.028042
# 6 -0.025612 -0.017885 -0.003084 0.000117 -0.028042 0.079433
#
#
# Mechanical properties :
#
#
# Convention : Reuss Voigt Hill
#
# Bulk Modulus (GPa) = 51.15408 18.16558 34.65983
# Shear Modulus (GPa) = 26.69905 30.15749 28.42827
#
# Velocity S-wave (km/s) = 3.53350 3.75539 3.64614
# Velocity P-wave (km/s) = 6.36941 5.22484 5.82531
#
# Compressibility (1/GPa) = 0.01954878
#
# Stress axis : x y z
#
# Youngs Moduli (GPa) = 43.44051 85.15965 162.70382
#
# Poissons Ratio (x) = 0.34188 0.81206
# Poissons Ratio (y) = 0.17439 0.27243
# Poissons Ratio (z) = 0.21681 0.14259
#
# Static dielectric constant tensor:
#      x y z
#    x 1.726140 -0.010220 -0.035410 
#    y -0.010220 1.707230 0.008650 
#    z -0.035410 0.008650 1.901030 
# 
# From -- ./inp_files/253606.got.cif
#   From: 2010.05.17/outbox.cif.g08.bks.cpg/sg2_127_cif.got.tgz:253606.got - 2010.06.03 11:33:40.
