data_PCOD9040940
_publ_section_title
;
Structure prediction by ZEFSAII (Michael W. Deem and Ramdas Pophale) SiO2 
 PCOD9040940
Probable space group: P -1
;
_chemical_formula_sum "Si O2"
_cell_formula_units_Z 12
_cell_length_a 14.540691
_cell_length_b 9.278148
_cell_length_c 9.351216
_cell_angle_alpha 130.670816
_cell_angle_beta 51.283487
_cell_angle_gamma 145.192949
_cell_volume 534.163971
_symmetry_space_group_name_H-M "P -1"
_symmetry_group_IT_number 2
_symmetry_cell_setting 'triclinic'
loop_
_space_group_symop_operation_xyz
x,y,z
-x,-y,-z
loop_
_atom_site_type_symbol
_atom_site_label
_atom_site_fract_x
_atom_site_fract_y
_atom_site_fract_z
Si Si1 0.884592 0.245049 0.050446
Si Si2 0.093689 0.918842 0.795728
Si Si3 0.047256 0.067902 0.662711
Si Si4 0.449735 0.470495 0.869712
Si Si5 0.406469 0.555873 0.540708
Si Si6 0.477950 0.032827 0.878037
O O1 0.699262 0.094887 0.092175
O O2 0.931502 0.286605 0.201907
O O3 0.000000 0.500000 0.000000
O O4 0.919160 0.069336 0.855932
O O5 0.055852 0.892363 0.644567
O O6 0.286983 0.177815 0.791989
O O7 0.000000 0.000000 0.000000
O O8 0.229112 0.368725 0.668822
O O9 0.000000 0.000000 0.500000
O O10 0.592667 0.537932 0.676726
O O11 0.500000 0.500000 0.000000
O O12 0.413663 0.654869 0.022384
O O13 0.500000 0.500000 0.500000
O O14 0.500107 0.862648 0.658229
O O15 0.500000 0.000000 0.000000
#
# Coordination Sequence:
#
# PCOD9040940 Si02
#       6
#     2   2   2   2   2   2
#     4  11  23  44  67  98 142 183 228 283 354 418
#     4  10  23  43  69  98 141 184 230 290 353 422
#     4  11  23  42  70  99 136 189 233 285 356 419
#     4  12  25  45  71 101 141 185 236 293 360 417
#     4  12  24  43  69 104 143 183 239 295 347 423
#     4  12  24  42  73 104 137 190 236 286 355 421
#
# _framework density 22.465011000000001
#
# number of rings (size 3 to 8) (size 9 to 14) (size 15 to 20)
#    0.000    0.667    6.667    1.000    4.667    0.667 
#    0.000    0.833    0.000    0.000    0.000    0.000 
#    0.000    0.000    0.000    0.000    0.000    0.000 
#
# Total GULP energy -66835.492958 kJ/mol
# GULP energy per Si atom -5569.624413 kJ/mol
# Density = 2.241388 g / cm^3
# Si number density = 22.465011 Si / 1000 Ang^3
#
#
#
# Elastic Constant Matrix: (Units=GPa)
#
#
# Indices 1 2 3 4 5 6 
#
# 1 163.2286 22.4086 45.4727 -7.4857 26.8275 -35.5519
# 2 22.4086 65.6982 10.3689 4.2861 4.0318 -27.8752
# 3 45.4727 10.3689 110.3354 5.1786 9.9023 -13.2151
# 4 -7.4857 4.2861 5.1786 29.9736 -7.1012 -1.1010
# 5 26.8275 4.0318 9.9023 -7.1012 52.5619 -19.5585
# 6 -35.5519 -27.8752 -13.2151 -1.1010 -19.5585 47.0179
#
#
#
# Elastic Compliance Matrix: (Units=1/GPa)
#
#
# Indices 1 2 3 4 5 6 
#
# 1 0.008366 -0.000516 -0.002814 0.002424 -0.001664 0.004594
# 2 -0.000516 0.021033 -0.000391 -0.001758 0.003460 0.013368
# 3 -0.002814 -0.000391 0.010478 -0.002638 -0.000792 0.000195
# 4 0.002424 -0.001758 -0.002638 0.036081 0.005445 0.003159
# 5 -0.001664 0.003460 -0.000792 0.005445 0.024554 0.010913
# 6 0.004594 0.013368 0.000195 0.003159 0.010913 0.037335
#
#
# Mechanical properties :
#
#
# Convention : Reuss Voigt Hill
#
# Bulk Modulus (GPa) = 30.83062 55.08473 42.95767
# Shear Modulus (GPa) = 32.03045 43.31148 37.67096
#
# Velocity S-wave (km/s) = 3.78006 4.39561 4.09941
# Velocity P-wave (km/s) = 5.72761 7.09474 6.44751
#
# Compressibility (1/GPa) = 0.03243528
#
# Stress axis : x y z
#
# Youngs Moduli (GPa) = 119.52776 47.54407 95.44010
#
# Poissons Ratio (x) = 0.02456 0.26854
# Poissons Ratio (y) = 0.06173 0.03729
# Poissons Ratio (z) = 0.33632 0.01858
#
# Static dielectric constant tensor:
#      x y z
#    x 1.972240 -0.094520 0.034000 
#    y -0.094520 1.983980 -0.038560 
#    z 0.034000 -0.038560 1.848410 
# 
# From -- ./inp_files/148323.got.cif
#   From: 2010.05.17/outbox.cif.g08.bks.cpg/sg2_75_cif.got.tgz:148323.got - 2010.06.03 11:33:40.
