data_PCOD9040064
_publ_section_title
;
Structure prediction by ZEFSAII (Michael W. Deem and Ramdas Pophale) SiO2 
 PCOD9040064
Probable space group: P -1
;
_chemical_formula_sum "Si O2"
_cell_formula_units_Z 16
_cell_length_a 7.875572
_cell_length_b 9.663408
_cell_length_c 9.169727
_cell_angle_alpha 125.981904
_cell_angle_beta 89.466900
_cell_angle_gamma 92.500738
_cell_volume 564.057883
_symmetry_space_group_name_H-M "P -1"
_symmetry_group_IT_number 2
_symmetry_cell_setting 'triclinic'
loop_
_space_group_symop_operation_xyz
x,y,z
-x,-y,-z
loop_
_atom_site_type_symbol
_atom_site_label
_atom_site_fract_x
_atom_site_fract_y
_atom_site_fract_z
Si Si1 0.017333 0.387907 0.074849
Si Si2 0.786071 0.953762 0.423347
Si Si3 0.572072 0.248466 0.652197
Si Si4 0.305122 0.874233 0.055341
Si Si5 0.399023 0.360098 0.103566
Si Si6 0.880704 0.075307 0.177922
Si Si7 0.928209 0.683234 0.467227
Si Si8 0.590208 0.739168 0.628867
O O1 0.005296 0.525223 0.289650
O O2 0.000000 0.500000 0.000000
O O3 0.153973 0.016270 0.723634
O O4 0.862876 0.246166 0.987206
O O5 0.605321 0.845865 0.360175
O O6 0.908349 0.838988 0.446928
O O7 0.730718 0.131883 0.608191
O O8 0.563477 0.254606 0.478482
O O9 0.974798 0.247805 0.346989
O O10 0.327030 0.066471 0.235134
O O11 0.292089 0.901365 0.896391
O O12 0.463110 0.766306 0.035224
O O13 0.000000 0.000000 0.000000
O O14 0.420329 0.556814 0.177915
O O15 0.431048 0.343092 0.265330
O O16 0.202398 0.313617 0.045088
O O17 0.734998 0.635297 0.482884
#
# Coordination Sequence:
#
# PCOD9040064 Si02
#       8
#     2   2   2   2   2   2   2   2
#     4  12  32  52  81 119 168 219 275 349 421 496
#     4  10  23  42  77 111 158 213 275 342 407 490
#     4  10  23  46  78 120 158 216 284 335 424 502
#     4  12  28  51  79 123 164 214 277 341 418 495
#     4  12  27  51  81 119 166 217 272 348 422 490
#     4  12  25  44  77 120 160 215 279 342 409 497
#     4  11  25  48  78 114 162 220 277 339 411 499
#     4  11  24  47  81 119 162 215 277 343 417 494
#
# _framework density 28.365884000000001
#
# number of rings (size 3 to 8) (size 9 to 14) (size 15 to 20)
#    0.000    0.750    1.250    4.875    1.750   10.500 
#    0.000    0.000    0.000    0.000    0.000    0.000 
#    0.000    0.000    0.000    0.000    0.000    0.000 
#
# Total GULP energy -89848.453608 kJ/mol
# GULP energy per Si atom -5615.528351 kJ/mol
# Density = 2.830132 g / cm^3
# Si number density = 28.365884 Si / 1000 Ang^3
#
#
#
# Elastic Constant Matrix: (Units=GPa)
#
#
# Indices 1 2 3 4 5 6 
#
# 1 134.8343 46.4359 69.3107 26.7902 -1.2615 -12.5942
# 2 46.4359 179.3570 54.5996 -4.7850 -2.7032 -0.4759
# 3 69.3107 54.5996 167.7607 21.0279 10.0975 -2.4377
# 4 26.7902 -4.7850 21.0279 61.5138 -6.3778 -2.7257
# 5 -1.2615 -2.7032 10.0975 -6.3778 49.8531 0.6486
# 6 -12.5942 -0.4759 -2.4377 -2.7257 0.6486 66.9450
#
#
#
# Elastic Compliance Matrix: (Units=1/GPa)
#
#
# Indices 1 2 3 4 5 6 
#
# 1 0.010628 -0.001812 -0.003360 -0.003506 0.000380 0.001718
# 2 -0.001812 0.006633 -0.001717 0.001975 0.000918 -0.000285
# 3 -0.003360 -0.001717 0.008242 -0.001719 -0.002062 -0.000394
# 4 -0.003506 0.001975 -0.001719 0.018813 0.002773 0.000031
# 5 0.000380 0.000918 -0.002062 0.002773 0.020892 -0.000087
# 6 0.001718 -0.000285 -0.000394 0.000031 -0.000087 0.015247
#
#
# Mechanical properties :
#
#
# Convention : Reuss Voigt Hill
#
# Bulk Modulus (GPa) = 85.28751 91.40494 88.34623
# Shear Modulus (GPa) = 50.94706 56.43609 53.69157
#
# Velocity S-wave (km/s) = 4.24260 4.46531 4.35538
# Velocity P-wave (km/s) = 7.35743 7.67325 7.51700
#
# Compressibility (1/GPa) = 0.01172505
#
# Stress axis : x y z
#
# Youngs Moduli (GPa) = 94.08899 150.75926 121.33461
#
# Poissons Ratio (x) = 0.27319 0.40766
# Poissons Ratio (y) = 0.17050 0.20834
# Poissons Ratio (z) = 0.31612 0.25886
#
# Static dielectric constant tensor:
#      x y z
#    x 2.231980 0.032290 -0.044600 
#    y 0.032290 2.234300 0.000590 
#    z -0.044600 0.000590 2.199070 
# 
# From -- ./inp_files/216768.got.cif
#   From: 2010.05.17/outbox.cif.g08.bks.cpg/sg2_109_cif.got.tgz:216768.got - 2010.06.03 11:33:40.
