data_PCOD9040676
_publ_section_title
;
Structure prediction by ZEFSAII (Michael W. Deem and Ramdas Pophale) SiO2 
 PCOD9040676
Probable space group: P -1
;
_chemical_formula_sum "Si O2"
_cell_formula_units_Z 14
_cell_length_a 5.054746
_cell_length_b 11.968419
_cell_length_c 26.487958
_cell_angle_alpha 21.667231
_cell_angle_beta 105.203722
_cell_angle_gamma 104.981718
_cell_volume 570.449141
_symmetry_space_group_name_H-M "P -1"
_symmetry_group_IT_number 2
_symmetry_cell_setting 'triclinic'
loop_
_space_group_symop_operation_xyz
x,y,z
-x,-y,-z
loop_
_atom_site_type_symbol
_atom_site_label
_atom_site_fract_x
_atom_site_fract_y
_atom_site_fract_z
Si Si1 0.134599 0.730544 0.370173
Si Si2 0.509730 0.640447 0.146371
Si Si3 0.653991 0.078974 0.144967
Si Si4 0.439866 0.290737 0.147868
Si Si5 0.424618 0.502327 0.676212
Si Si6 0.064527 0.634682 0.788856
Si Si7 0.832228 0.709788 0.528942
O O1 0.275224 0.523842 0.421947
O O2 0.000000 0.500000 0.500000
O O3 0.320652 0.993270 0.295360
O O4 0.900192 0.914595 0.253316
O O5 0.506607 0.493752 0.263406
O O6 0.780169 0.563496 0.161583
O O7 0.242555 0.496446 0.165597
O O8 0.500000 0.000000 0.000000
O O9 0.451996 0.169771 0.141811
O O10 0.532933 0.837391 0.200414
O O11 0.725059 0.404471 0.987319
O O12 0.743213 0.368136 0.151140
O O13 0.612022 0.719457 0.558594
O O14 0.108933 0.577243 0.621029
O O15 0.084594 0.973571 0.625554
#
# Coordination Sequence:
#
# PCOD9040676 Si02
#       7
#     2   2   2   2   2   2   2
#     4  11  24  41  71 104 151 191 232 295 362 432
#     4  12  28  51  74 103 141 192 243 296 362 423
#     4  10  23  43  68 105 137 193 239 291 360 424
#     4  11  24  43  70 103 147 185 240 296 357 431
#     4  11  24  47  73 100 145 189 238 301 348 434
#     4  12  28  45  75 108 143 186 240 301 356 431
#     4  11  25  44  71 110 141 185 240 289 375 415
#
# _framework density 24.542065000000001
#
# number of rings (size 3 to 8) (size 9 to 14) (size 15 to 20)
#    0.000    0.857    1.429    4.286    8.000    5.714 
#    2.571    0.000    0.000    0.000    0.000    0.000 
#    0.000    0.000    0.000    0.000    0.000    0.000 
#
# Total GULP energy -78494.761621 kJ/mol
# GULP energy per Si atom -5606.768687 kJ/mol
# Density = 2.448621 g / cm^3
# Si number density = 24.542065 Si / 1000 Ang^3
#
#
#
# Elastic Constant Matrix: (Units=GPa)
#
#
# Indices 1 2 3 4 5 6 
#
# 1 50.9332 7.9419 2.6057 9.3587 -5.8371 2.8730
# 2 7.9419 93.5073 28.7579 11.9895 0.8651 1.7060
# 3 2.6057 28.7579 136.9744 -16.0930 3.7853 10.9375
# 4 9.3587 11.9895 -16.0930 39.0958 -2.3763 -4.3761
# 5 -5.8371 0.8651 3.7853 -2.3763 35.0831 -1.1499
# 6 2.8730 1.7060 10.9375 -4.3761 -1.1499 41.9425
#
#
#
# Elastic Compliance Matrix: (Units=1/GPa)
#
#
# Indices 1 2 3 4 5 6 
#
# 1 0.021217 -0.000911 -0.000769 -0.005105 0.003235 -0.001660
# 2 -0.000911 0.012372 -0.003132 -0.004910 -0.000456 -0.000149
# 3 -0.000769 -0.003132 0.008649 0.004478 -0.000734 -0.001628
# 4 -0.005105 -0.004910 0.004478 0.030496 0.000939 0.002589
# 5 0.003235 -0.000456 -0.000734 0.000939 0.029225 0.000888
# 6 -0.001660 -0.000149 -0.001628 0.002589 0.000888 0.024681
#
#
# Mechanical properties :
#
#
# Convention : Reuss Voigt Hill
#
# Bulk Modulus (GPa) = 30.66171 40.00286 35.33229
# Shear Modulus (GPa) = 33.98206 39.36491 36.67349
#
# Velocity S-wave (km/s) = 3.72512 4.00931 3.86983
# Velocity P-wave (km/s) = 5.56980 6.14556 5.86475
#
# Compressibility (1/GPa) = 0.03261397
#
# Stress axis : x y z
#
# Youngs Moduli (GPa) = 47.13115 80.83072 115.61526
#
# Poissons Ratio (x) = 0.07360 0.08893
# Poissons Ratio (y) = 0.04291 0.36216
# Poissons Ratio (z) = 0.03625 0.25320
#
# Static dielectric constant tensor:
#      x y z
#    x 1.950850 -0.018740 -0.039260 
#    y -0.018740 1.951990 -0.003910 
#    z -0.039260 -0.003910 1.959790 
# 
# From -- ./inp_files/60760.got.cif
#   From: 2010.05.17/outbox.cif.g08.bks.cpg/sg2_31_cif.got.tgz:60760.got - 2010.06.03 11:33:40.
