data_PCOD9040789
_publ_section_title
;
Structure prediction by ZEFSAII (Michael W. Deem and Ramdas Pophale) SiO2 
 PCOD9040789
Probable space group: P -1
;
_chemical_formula_sum "Si O2"
_cell_formula_units_Z 16
_cell_length_a 5.586880
_cell_length_b 24.305857
_cell_length_c 17.749693
_cell_angle_alpha 19.615027
_cell_angle_beta 115.978017
_cell_angle_gamma 108.897451
_cell_volume 695.228586
_symmetry_space_group_name_H-M "P -1"
_symmetry_group_IT_number 2
_symmetry_cell_setting 'triclinic'
loop_
_space_group_symop_operation_xyz
x,y,z
-x,-y,-z
loop_
_atom_site_type_symbol
_atom_site_label
_atom_site_fract_x
_atom_site_fract_y
_atom_site_fract_z
Si Si1 0.185269 0.304911 0.265997
Si Si2 0.109486 0.001766 0.911940
Si Si3 0.412925 0.724592 0.517099
Si Si4 0.767884 0.331968 0.911759
Si Si5 0.376529 0.368736 0.955891
Si Si6 0.494622 0.870113 0.598374
Si Si7 0.944872 0.001657 0.268640
Si Si8 0.401525 0.284915 0.601310
O O1 0.479499 0.298234 0.354003
O O2 0.238463 0.225152 0.292733
O O3 0.102595 0.166398 0.484456
O O4 0.000000 0.500000 0.000000
O O5 0.127878 0.991676 0.837281
O O6 0.242361 0.145735 0.777830
O O7 0.781280 0.084907 0.770902
O O8 0.276392 0.819272 0.203453
O O9 0.271451 0.574086 0.680335
O O10 0.641313 0.683295 0.535701
O O11 0.574873 0.321141 0.971263
O O12 0.662961 0.527279 0.614473
O O13 0.096242 0.311294 0.997048
O O14 0.765101 0.177219 0.056111
O O15 0.561749 0.286072 0.160584
O O16 0.265127 0.973728 0.373771
O O17 0.500000 0.000000 0.500000
#
# Coordination Sequence:
#
# PCOD9040789 Si02
#       8
#     2   2   2   2   2   2   2   2
#     4  12  28  42  69 106 146 185 242 303 362 425
#     4  11  22  42  70  99 137 177 241 294 361 421
#     4  11  22  42  69  99 138 179 238 293 362 419
#     4  11  25  46  71 103 143 187 238 293 360 431
#     4  11  25  42  72 101 139 189 239 288 354 434
#     4  12  26  43  67  98 140 193 237 286 359 441
#     4  12  26  43  69 100 143 183 236 299 358 426
#     4  10  23  43  69 100 133 185 234 296 361 431
#
# _framework density 23.014012000000001
#
# number of rings (size 3 to 8) (size 9 to 14) (size 15 to 20)
#    0.000    0.750    5.000    1.875    7.000    2.500 
#    0.000    0.000    0.000    3.000    0.000    0.000 
#    0.000    0.000    0.000    0.000    0.000    0.000 
#
# Total GULP energy -89233.237813 kJ/mol
# GULP energy per Si atom -5577.077363 kJ/mol
# Density = 2.296163 g / cm^3
# Si number density = 23.014012 Si / 1000 Ang^3
#
#
#
# Elastic Constant Matrix: (Units=GPa)
#
#
# Indices 1 2 3 4 5 6 
#
# 1 63.9811 33.3521 11.8369 -5.2187 9.6021 -17.5642
# 2 33.3521 114.5190 53.6095 -12.9916 5.4006 -22.3178
# 3 11.8369 53.6095 169.7667 -17.0778 20.5852 -13.4403
# 4 -5.2187 -12.9916 -17.0778 27.9495 -7.2438 1.8987
# 5 9.6021 5.4006 20.5852 -7.2438 34.3755 -1.1492
# 6 -17.5642 -22.3178 -13.4403 1.8987 -1.1492 28.6108
#
#
#
# Elastic Compliance Matrix: (Units=1/GPa)
#
#
# Indices 1 2 3 4 5 6 
#
# 1 0.021421 -0.004675 0.001522 0.000603 -0.005701 0.009950
# 2 -0.004675 0.012986 -0.003251 0.003342 0.002104 0.005595
# 3 0.001522 -0.003251 0.007656 0.002312 -0.003956 0.001683
# 4 0.000603 0.003342 0.002312 0.040430 0.006496 0.001641
# 5 -0.005701 0.002104 -0.003956 0.006496 0.033997 -0.002783
# 6 0.009950 0.005595 0.001683 0.001641 -0.002783 0.045995
#
#
# Mechanical properties :
#
#
# Convention : Reuss Voigt Hill
#
# Bulk Modulus (GPa) = 34.17990 60.65153 47.41571
# Shear Modulus (GPa) = 27.02063 34.81838 30.91951
#
# Velocity S-wave (km/s) = 3.43022 3.89385 3.66937
# Velocity P-wave (km/s) = 5.52925 6.82843 6.21289
#
# Compressibility (1/GPa) = 0.02925696
#
# Stress axis : x y z
#
# Youngs Moduli (GPa) = 46.68270 77.00751 130.61143
#
# Poissons Ratio (x) = 0.36000 -0.19884
# Poissons Ratio (y) = 0.21824 0.42457
# Poissons Ratio (z) = -0.07107 0.25032
#
# Static dielectric constant tensor:
#      x y z
#    x 1.991070 0.079140 0.036610 
#    y 0.079140 1.914570 0.000400 
#    z 0.036610 0.000400 1.892450 
# 
# From -- ./inp_files/85096.got.cif
#   From: 2010.05.17/outbox.cif.g08.bks.cpg/sg2_43_cif.got.tgz:85096.got - 2010.06.03 11:33:40.
