data_PCOD9040582
_publ_section_title
;
Structure prediction by ZEFSAII (Michael W. Deem and Ramdas Pophale) SiO2 
 PCOD9040582
Probable space group: P -1
;
_chemical_formula_sum "Si O2"
_cell_formula_units_Z 16
_cell_length_a 10.384818
_cell_length_b 20.325328
_cell_length_c 16.458029
_cell_angle_alpha 19.603515
_cell_angle_beta 145.999862
_cell_angle_gamma 135.515322
_cell_volume 608.048638
_symmetry_space_group_name_H-M "P -1"
_symmetry_group_IT_number 2
_symmetry_cell_setting 'triclinic'
loop_
_space_group_symop_operation_xyz
x,y,z
-x,-y,-z
loop_
_atom_site_type_symbol
_atom_site_label
_atom_site_fract_x
_atom_site_fract_y
_atom_site_fract_z
Si Si1 0.662459 0.922911 0.569331
Si Si2 0.782985 0.334661 0.132647
Si Si3 0.896766 0.234264 0.134625
Si Si4 0.217201 0.135543 0.712833
Si Si5 0.574219 0.367101 0.275458
Si Si6 0.000368 0.791604 0.046941
Si Si7 0.649182 0.639063 0.339340
Si Si8 0.059109 0.209966 0.797213
O O1 0.438532 0.857101 0.498015
O O2 0.888425 0.775623 0.802739
O O3 0.654146 0.158703 0.276667
O O4 0.757751 0.855351 0.789263
O O5 0.824523 0.377752 0.010519
O O6 0.046509 0.226102 0.440611
O O7 0.614493 0.531001 0.868494
O O8 0.643449 0.288180 0.890318
O O9 0.000000 0.000000 0.500000
O O10 0.227019 0.318091 0.564504
O O11 0.500000 0.000000 0.000000
O O12 0.092429 0.988416 0.863494
O O13 0.834049 0.366693 0.443872
O O14 0.500000 0.500000 0.000000
O O15 0.218784 0.595339 0.350820
O O16 0.962501 0.732005 0.187734
O O17 0.697921 0.788910 0.121351
O O18 0.000000 0.000000 0.000000
#
# Coordination Sequence:
#
# PCOD9040582 Si02
#       8
#     2   2   2   2   2   2   2   2
#     4  10  24  44  70  99 137 178 226 279 339 408
#     4  10  23  43  67  97 138 179 225 281 340 397
#     4  10  23  43  68  99 130 178 227 275 344 401
#     4  11  23  41  69 102 140 183 227 282 339 408
#     4  12  27  46  69 103 139 181 233 278 341 413
#     4  11  24  43  68 104 133 181 232 275 352 404
#     4  12  24  45  70  94 141 176 224 290 335 413
#     4  12  27  46  71 103 138 181 232 286 348 408
#
# _framework density 26.313683999999999
#
# number of rings (size 3 to 8) (size 9 to 14) (size 15 to 20)
#    0.000    1.000    1.250    5.625    5.250    6.000 
#    0.000    0.000    0.000    0.000    0.000    0.000 
#    0.000    0.000    0.000    0.000    0.000    0.000 
#
# Total GULP energy -89826.746125 kJ/mol
# GULP energy per Si atom -5614.171633 kJ/mol
# Density = 2.625379 g / cm^3
# Si number density = 26.313684 Si / 1000 Ang^3
#
#
#
# Elastic Constant Matrix: (Units=GPa)
#
#
# Indices 1 2 3 4 5 6 
#
# 1 116.5515 40.9155 -1.1290 9.3734 -2.2942 -16.9392
# 2 40.9155 165.2049 33.1786 5.5452 -3.1036 -12.2656
# 3 -1.1290 33.1786 67.9028 0.0316 7.2024 3.5008
# 4 9.3734 5.5452 0.0316 52.6075 0.2735 0.4947
# 5 -2.2942 -3.1036 7.2024 0.2735 46.5396 2.4454
# 6 -16.9392 -12.2656 3.5008 0.4947 2.4454 52.3486
#
#
#
# Elastic Compliance Matrix: (Units=1/GPa)
#
#
# Indices 1 2 3 4 5 6 
#
# 1 0.009958 -0.002473 0.001241 -0.001539 0.000008 0.002574
# 2 -0.002473 0.007567 -0.003898 -0.000371 0.000925 0.001194
# 3 0.001241 -0.003898 0.017023 0.000208 -0.002754 -0.001523
# 4 -0.001539 -0.000371 0.000208 0.019330 -0.000206 -0.000772
# 5 0.000008 0.000925 -0.002754 -0.000206 0.022009 -0.000623
# 6 0.002574 0.001194 -0.001523 -0.000772 -0.000623 0.020354
#
#
# Mechanical properties :
#
#
# Convention : Reuss Voigt Hill
#
# Bulk Modulus (GPa) = 41.17210 55.06548 48.11879
# Shear Modulus (GPa) = 43.63167 48.74542 46.18855
#
# Velocity S-wave (km/s) = 4.07644 4.30871 4.19418
# Velocity P-wave (km/s) = 6.15119 6.76205 6.46384
#
# Compressibility (1/GPa) = 0.02428829
#
# Stress axis : x y z
#
# Youngs Moduli (GPa) = 100.42269 132.15746 58.74497
#
# Poissons Ratio (x) = 0.32676 -0.07289
# Poissons Ratio (y) = 0.24830 0.22898
# Poissons Ratio (z) = -0.12461 0.51513
#
# Static dielectric constant tensor:
#      x y z
#    x 2.035620 0.000350 -0.020030 
#    y 0.000350 2.022900 -0.045220 
#    z -0.020030 -0.045220 2.091190 
# 
# From -- ./inp_files/307154.got.cif
#   From: 2010.05.17/outbox.cif.g08.bks.cpg/sg2_154_cif.got.tgz:307154.got - 2010.06.03 11:33:40.
