data_PCOD9040367
_publ_section_title
;
Structure prediction by ZEFSAII (Michael W. Deem and Ramdas Pophale) SiO2 
 PCOD9040367
Probable space group: P -1
;
_chemical_formula_sum "Si O2"
_cell_formula_units_Z 16
_cell_length_a 14.133668
_cell_length_b 5.682437
_cell_length_c 9.075488
_cell_angle_alpha 91.761118
_cell_angle_beta 109.308796
_cell_angle_gamma 89.227890
_cell_volume 687.556972
_symmetry_space_group_name_H-M "P -1"
_symmetry_group_IT_number 2
_symmetry_cell_setting 'triclinic'
loop_
_space_group_symop_operation_xyz
x,y,z
-x,-y,-z
loop_
_atom_site_type_symbol
_atom_site_label
_atom_site_fract_x
_atom_site_fract_y
_atom_site_fract_z
Si Si1 0.222044 0.481369 0.627427
Si Si2 0.259629 0.108410 0.837553
Si Si3 0.584450 0.314579 0.594028
Si Si4 0.610461 0.957882 0.820555
Si Si5 0.030767 0.255758 0.097120
Si Si6 0.749382 0.680987 0.674552
Si Si7 0.935541 0.173708 0.365790
Si Si8 0.402258 0.847459 0.708559
O O1 0.224853 0.371101 0.789864
O O2 0.228014 0.302886 0.488185
O O3 0.116426 0.617926 0.562419
O O4 0.321563 0.639734 0.676421
O O5 0.163197 0.960552 0.743808
O O6 0.349605 0.059728 0.768596
O O7 0.305766 0.034735 0.013053
O O8 0.500000 0.500000 0.500000
O O9 0.695665 0.427386 0.658256
O O10 0.583211 0.128025 0.457242
O O11 0.567740 0.204559 0.743237
O O12 0.665650 0.844756 0.707348
O O13 0.514731 0.811359 0.824186
O O14 0.988931 0.251906 0.243734
O O15 0.150301 0.275714 0.181527
O O16 0.000000 0.500000 0.000000
O O17 0.000000 0.000000 0.000000
O O18 0.000000 0.000000 0.500000
#
# Coordination Sequence:
#
# PCOD9040367 Si02
#       8
#     2   2   2   2   2   2   2   2
#     4  10  25  46  74 105 142 193 261 301 383 461
#     4  11  25  43  69 104 145 191 247 315 378 462
#     4  11  24  43  69 101 140 193 247 300 376 457
#     4  12  25  41  70 103 151 188 245 313 384 448
#     4  12  31  52  81 118 160 201 262 330 405 467
#     4  11  26  44  75 104 143 197 250 313 375 464
#     4  11  27  50  78 105 151 202 261 320 391 466
#     4  10  23  43  66 103 144 193 240 306 365 462
#
# _framework density 23.270800000000001
#
# number of rings (size 3 to 8) (size 9 to 14) (size 15 to 20)
#    0.000    1.000    1.250    3.000   12.250    3.500 
#    0.000    0.000    0.000    0.000    0.000    0.000 
#    0.000    0.000    0.000    0.000    0.000    0.000 
#
# Total GULP energy -89285.941031 kJ/mol
# GULP energy per Si atom -5580.371314 kJ/mol
# Density = 2.321783 g / cm^3
# Si number density = 23.270800 Si / 1000 Ang^3
#
#
#
# Elastic Constant Matrix: (Units=GPa)
#
#
# Indices 1 2 3 4 5 6 
#
# 1 146.4419 29.5678 41.6200 -0.6786 14.9202 -1.7027
# 2 29.5678 63.0633 57.1223 -9.4163 4.6834 -6.4534
# 3 41.6200 57.1223 138.5731 -12.2604 15.3533 -5.2559
# 4 -0.6786 -9.4163 -12.2604 34.5552 7.6577 4.8304
# 5 14.9202 4.6834 15.3533 7.6577 43.2151 7.0946
# 6 -1.7027 -6.4534 -5.2559 4.8304 7.0946 37.0433
#
#
#
# Elastic Compliance Matrix: (Units=1/GPa)
#
#
# Indices 1 2 3 4 5 6 
#
# 1 0.007871 -0.002592 -0.001116 -0.000538 -0.001978 0.000201
# 2 -0.002592 0.026783 -0.009933 0.003243 0.000517 0.002615
# 3 -0.001116 -0.009933 0.012232 0.002311 -0.003341 0.000292
# 4 -0.000538 0.003243 0.002311 0.032341 -0.006368 -0.002129
# 5 -0.001978 0.000517 -0.003341 -0.006368 0.026869 -0.004790
# 6 0.000201 0.002615 0.000292 -0.002129 -0.004790 0.028697
#
#
# Mechanical properties :
#
#
# Convention : Reuss Voigt Hill
#
# Bulk Modulus (GPa) = 51.01272 67.18871 59.10072
# Shear Modulus (GPa) = 29.65424 37.61394 33.63409
#
# Velocity S-wave (km/s) = 3.57362 4.02476 3.80588
# Velocity P-wave (km/s) = 6.24473 7.10869 6.69067
#
# Compressibility (1/GPa) = 0.01960295
#
# Stress axis : x y z
#
# Youngs Moduli (GPa) = 127.05568 37.33676 81.75204
#
# Poissons Ratio (x) = 0.09677 0.09126
# Poissons Ratio (y) = 0.32932 0.81206
# Poissons Ratio (z) = 0.14183 0.37088
#
# Static dielectric constant tensor:
#      x y z
#    x 1.898370 -0.019990 -0.035640 
#    y -0.019990 2.071930 -0.031910 
#    z -0.035640 -0.031910 1.894140 
# 
# From -- ./inp_files/288691.got.cif
#   From: 2010.05.17/outbox.cif.g08.bks.cpg/sg2_145_cif.got.tgz:288691.got - 2010.06.03 11:33:40.
