data_PCOD9040733
_publ_section_title
;
Structure prediction by ZEFSAII (Michael W. Deem and Ramdas Pophale) SiO2 
 PCOD9040733
Probable space group: P -1
;
_chemical_formula_sum "Si O2"
_cell_formula_units_Z 12
_cell_length_a 9.146122
_cell_length_b 8.956566
_cell_length_c 10.144884
_cell_angle_alpha 73.731775
_cell_angle_beta 72.581205
_cell_angle_gamma 46.465638
_cell_volume 571.554906
_symmetry_space_group_name_H-M "P -1"
_symmetry_group_IT_number 2
_symmetry_cell_setting 'triclinic'
loop_
_space_group_symop_operation_xyz
x,y,z
-x,-y,-z
loop_
_atom_site_type_symbol
_atom_site_label
_atom_site_fract_x
_atom_site_fract_y
_atom_site_fract_z
Si Si1 0.466375 0.842141 0.873687
Si Si2 0.787463 0.065591 0.825814
Si Si3 0.269230 0.248851 0.681452
Si Si4 0.922690 0.622615 0.853213
Si Si5 0.821765 0.017482 0.304677
Si Si6 0.602416 0.265385 0.545769
O O1 0.708117 0.687770 0.855364
O O2 0.381779 0.074696 0.811221
O O3 0.370277 0.817764 0.780266
O O4 0.364428 0.846477 0.032172
O O5 0.673801 0.194880 0.692918
O O6 0.974096 0.058559 0.799791
O O7 0.881989 0.832057 0.831695
O O8 0.178955 0.169397 0.637871
O O9 0.436942 0.241060 0.567510
O O10 0.093525 0.471078 0.736237
O O11 0.000000 0.500000 0.000000
O O12 0.784620 0.120661 0.429020
O O13 0.500000 0.500000 0.500000
#
# Coordination Sequence:
#
# PCOD9040733 Si02
#       6
#     2   2   2   2   2   2
#     4  10  23  43  69  98 136 170 221 278 329 388
#     4  12  22  44  69 100 137 169 230 279 322 401
#     4  10  23  43  68  96 134 173 224 265 341 386
#     4  12  21  39  71 104 128 175 219 274 339 386
#     4  10  24  44  66  97 140 177 216 278 333 399
#     4  12  25  45  67  98 136 180 224 275 329 397
#
# _framework density 20.995359000000001
#
# number of rings (size 3 to 8) (size 9 to 14) (size 15 to 20)
#    1.000    0.000    3.333    4.000    0.000    1.333 
#    0.000    5.000    0.000    0.000    0.000    0.000 
#    0.000    0.000    0.000    0.000    0.000    0.000 
#
# Total GULP energy -67063.639853 kJ/mol
# GULP energy per Si atom -5588.636654 kJ/mol
# Density = 2.094757 g / cm^3
# Si number density = 20.995359 Si / 1000 Ang^3
#
#
#
# Elastic Constant Matrix: (Units=GPa)
#
#
# Indices 1 2 3 4 5 6 
#
# 1 74.6822 -2.6144 -0.3363 -17.4756 -9.3132 -13.1427
# 2 -2.6144 48.5933 16.9413 -13.9449 -0.8736 -7.4378
# 3 -0.3363 16.9413 83.4496 -11.2201 0.4365 -0.2042
# 4 -17.4756 -13.9449 -11.2201 37.5219 0.1042 -9.9011
# 5 -9.3132 -0.8736 0.4365 0.1042 28.0837 7.1271
# 6 -13.1427 -7.4378 -0.2042 -9.9011 7.1271 30.1831
#
#
#
# Elastic Compliance Matrix: (Units=1/GPa)
#
#
# Indices 1 2 3 4 5 6 
#
# 1 0.020981 0.008389 0.000741 0.017375 0.003034 0.016191
# 2 0.008389 0.030281 -0.003555 0.018688 -0.000703 0.017387
# 3 0.000741 -0.003555 0.013129 0.003112 -0.000236 0.000612
# 4 0.017375 0.018688 0.003112 0.050269 -0.001245 0.028976
# 5 0.003034 -0.000703 -0.000236 -0.001245 0.038734 -0.008408
# 6 0.016191 0.017387 0.000612 0.028976 -0.008408 0.055961
#
#
# Mechanical properties :
#
#
# Convention : Reuss Voigt Hill
#
# Bulk Modulus (GPa) = 13.23750 26.07845 19.65798
# Shear Modulus (GPa) = 22.38296 32.00671 27.19484
#
# Velocity S-wave (km/s) = 3.26865 3.90868 3.60290
# Velocity P-wave (km/s) = 4.53476 5.72873 5.16635
#
# Compressibility (1/GPa) = 0.07554294
#
# Stress axis : x y z
#
# Youngs Moduli (GPa) = 47.66316 33.02355 76.16661
#
# Poissons Ratio (x) = -0.27705 -0.05646
# Poissons Ratio (y) = -0.39986 0.27075
# Poissons Ratio (z) = -0.03533 0.11739
#
# Static dielectric constant tensor:
#      x y z
#    x 1.782870 0.003930 0.017230 
#    y 0.003930 1.713090 -0.017600 
#    z 0.017230 -0.017600 1.716910 
# 
# From -- ./inp_files/44957.got.cif
#   From: 2010.05.17/outbox.cif.g08.bks.cpg/sg2_23_cif.got.tgz:44957.got - 2010.06.03 11:33:40.
