data_PCOD9040842
_publ_section_title
;
Structure prediction by ZEFSAII (Michael W. Deem and Ramdas Pophale) SiO2 
 PCOD9040842
Probable space group: P -1
;
_chemical_formula_sum "Si O2"
_cell_formula_units_Z 12
_cell_length_a 8.797094
_cell_length_b 5.489249
_cell_length_c 10.244342
_cell_angle_alpha 100.822949
_cell_angle_beta 92.933078
_cell_angle_gamma 104.491071
_cell_volume 467.923377
_symmetry_space_group_name_H-M "P -1"
_symmetry_group_IT_number 2
_symmetry_cell_setting 'triclinic'
loop_
_space_group_symop_operation_xyz
x,y,z
-x,-y,-z
loop_
_atom_site_type_symbol
_atom_site_label
_atom_site_fract_x
_atom_site_fract_y
_atom_site_fract_z
Si Si1 0.791062 0.502832 0.134394
Si Si2 0.186391 0.035363 0.003333
Si Si3 0.531962 0.549194 0.849359
Si Si4 0.132393 0.350516 0.461962
Si Si5 0.034653 0.851007 0.325378
Si Si6 0.624947 0.224167 0.602160
O O1 0.788437 0.249188 0.026105
O O2 0.632605 0.404899 0.203021
O O3 0.965976 0.604017 0.209309
O O4 0.778103 0.777576 0.103428
O O5 0.314474 0.208577 0.125537
O O6 0.000000 0.000000 0.000000
O O7 0.563841 0.318906 0.743141
O O8 0.500000 0.500000 0.000000
O O9 0.305146 0.522272 0.458476
O O10 0.000000 0.500000 0.500000
O O11 0.108931 0.190252 0.579195
O O12 0.064784 0.150104 0.322689
O O13 0.210910 0.847690 0.371215
O O14 0.500000 0.000000 0.500000
#
# Coordination Sequence:
#
# PCOD9040842 Si02
#       6
#     2   2   2   2   2   2
#     4  11  25  43  74 101 142 192 238 300 367 428
#     4  11  24  45  71 105 137 190 249 298 358 430
#     4  10  25  47  68 104 149 191 240 298 363 435
#     4   9  22  41  67  96 142 181 244 293 364 430
#     4  10  23  43  69 102 138 191 242 301 366 434
#     4  11  25  45  71 106 143 187 244 301 366 434
#
# _framework density 25.645226999999998
#
# number of rings (size 3 to 8) (size 9 to 14) (size 15 to 20)
#    0.000    1.667    0.000    2.000   14.000    3.333 
#    6.000    0.000    0.000    0.000    0.000    0.000 
#    0.000    0.000    0.000    0.000    0.000    0.000 
#
# Total GULP energy -66815.092342 kJ/mol
# GULP energy per Si atom -5567.924362 kJ/mol
# Density = 2.558686 g / cm^3
# Si number density = 25.645227 Si / 1000 Ang^3
#
#
#
# Elastic Constant Matrix: (Units=GPa)
#
#
# Indices 1 2 3 4 5 6 
#
# 1 169.9133 41.3759 64.8250 36.7162 2.7937 45.7018
# 2 41.3759 116.2803 72.4761 31.8166 7.5710 41.8300
# 3 64.8250 72.4761 143.9717 43.4325 -6.8827 28.8367
# 4 36.7162 31.8166 43.4325 58.2527 17.9898 12.3548
# 5 2.7937 7.5710 -6.8827 17.9898 52.1353 14.9884
# 6 45.7018 41.8300 28.8367 12.3548 14.9884 50.8233
#
#
#
# Elastic Compliance Matrix: (Units=1/GPa)
#
#
# Indices 1 2 3 4 5 6 
#
# 1 0.009510 0.002196 -0.001999 -0.004764 0.003137 -0.008991
# 2 0.002196 0.016693 -0.005631 -0.004269 0.001626 -0.011961
# 3 -0.001999 -0.005631 0.013236 -0.006984 0.005358 -0.000960
# 4 -0.004764 -0.004269 -0.006984 0.029891 -0.012733 0.008249
# 5 0.003137 0.001626 0.005358 -0.012733 0.027379 -0.012178
# 6 -0.008991 -0.011961 -0.000960 0.008249 -0.012178 0.039737
#
#
# Mechanical properties :
#
#
# Convention : Reuss Voigt Hill
#
# Bulk Modulus (GPa) = 35.00075 87.50214 61.25145
# Shear Modulus (GPa) = 31.88026 49.00815 40.44420
#
# Velocity S-wave (km/s) = 3.52962 4.37625 3.97554
# Velocity P-wave (km/s) = 5.50352 7.72850 6.70889
#
# Compressibility (1/GPa) = 0.02857081
#
# Stress axis : x y z
#
# Youngs Moduli (GPa) = 105.15560 59.90501 75.55141
#
# Poissons Ratio (x) = -0.13157 0.15105
# Poissons Ratio (y) = -0.23095 0.42543
# Poissons Ratio (z) = 0.21024 0.33732
#
# Static dielectric constant tensor:
#      x y z
#    x 2.218650 -0.173800 0.229310 
#    y -0.173800 2.310060 -0.210810 
#    z 0.229310 -0.210810 2.502770 
# 
# From -- ./inp_files/28838.got.cif
#   From: 2010.05.17/outbox.cif.g08.bks.cpg/sg2_15_cif.got.tgz:28838.got - 2010.06.03 11:33:40.
