data_PCOD9040026
_publ_section_title
;
Structure prediction by ZEFSAII (Michael W. Deem and Ramdas Pophale) SiO2 
 PCOD9040026
Probable space group: P -1
;
_chemical_formula_sum "Si O2"
_cell_formula_units_Z 16
_cell_length_a 19.225699
_cell_length_b 11.194225
_cell_length_c 9.037612
_cell_angle_alpha 73.971577
_cell_angle_beta 61.996055
_cell_angle_gamma 28.139652
_cell_volume 764.205469
_symmetry_space_group_name_H-M "P -1"
_symmetry_group_IT_number 2
_symmetry_cell_setting 'triclinic'
loop_
_space_group_symop_operation_xyz
x,y,z
-x,-y,-z
loop_
_atom_site_type_symbol
_atom_site_label
_atom_site_fract_x
_atom_site_fract_y
_atom_site_fract_z
Si Si1 0.934745 0.990456 0.430952
Si Si2 0.690553 0.167947 0.426449
Si Si3 0.955392 0.909998 0.759936
Si Si4 0.621493 0.602067 0.635487
Si Si5 0.531396 0.049643 0.086325
Si Si6 0.487004 0.724959 0.201967
Si Si7 0.309063 0.384591 0.745253
Si Si8 0.648617 0.235164 0.120656
O O1 0.838869 0.043338 0.389311
O O2 0.782900 0.291743 0.541198
O O3 0.064243 0.911774 0.264122
O O4 0.990994 0.839078 0.573686
O O5 0.500000 0.500000 0.500000
O O6 0.656843 0.101228 0.591806
O O7 0.735972 0.081045 0.242639
O O8 0.113883 0.659335 0.793471
O O9 0.789294 0.066758 0.916292
O O10 0.590519 0.717664 0.471534
O O11 0.480179 0.698340 0.789451
O O12 0.624554 0.691066 0.740529
O O13 0.649541 0.808225 0.163584
O O14 0.500000 0.000000 0.000000
O O15 0.583240 0.097743 0.924756
O O16 0.633869 0.594314 0.193014
O O17 0.552157 0.501683 0.151059
#
# Coordination Sequence:
#
# PCOD9040026 Si02
#       8
#     2   2   2   2   2   2   2   2
#     4  10  20  35  56  86 122 149 178 231 295 337
#     4  10  17  33  55  88 119 140 179 235 292 328
#     4  10  22  34  52  85 124 154 180 222 286 354
#     4  11  19  36  63  85 111 144 193 242 280 331
#     4  10  23  37  58  86 108 150 199 242 268 320
#     4  10  19  35  60  89 116 140 192 245 278 326
#     4  10  21  41  56  79 120 158 189 224 278 341
#     4  11  20  33  60  95 112 144 182 237 300 331
#
# _framework density 20.936776999999999
#
# number of rings (size 3 to 8) (size 9 to 14) (size 15 to 20)
#    0.000    1.750    3.750    3.375    1.750    3.000 
#    0.000    3.125    0.000    0.750    0.000    0.000 
#    0.000    0.000    0.000    0.000    0.000    0.000 
#
# Total GULP energy -89102.488333 kJ/mol
# GULP energy per Si atom -5568.905521 kJ/mol
# Density = 2.088912 g / cm^3
# Si number density = 20.936777 Si / 1000 Ang^3
#
#
#
# Elastic Constant Matrix: (Units=GPa)
#
#
# Indices 1 2 3 4 5 6 
#
# 1 63.5958 6.5538 19.3532 -1.0598 4.3796 -6.3229
# 2 6.5538 65.9374 32.8448 -32.6260 -3.0790 5.5401
# 3 19.3532 32.8448 127.7898 -26.7119 -18.6489 9.8036
# 4 -1.0598 -32.6260 -26.7119 35.9619 3.4053 -2.4107
# 5 4.3796 -3.0790 -18.6489 3.4053 38.7849 3.2541
# 6 -6.3229 5.5401 9.8036 -2.4107 3.2541 21.1958
#
#
#
# Elastic Compliance Matrix: (Units=1/GPa)
#
#
# Indices 1 2 3 4 5 6 
#
# 1 0.018388 -0.002590 -0.004282 -0.003980 -0.004697 0.008411
# 2 -0.002590 0.028711 -0.001470 0.024546 0.000115 -0.004823
# 3 -0.004282 -0.001470 0.011472 0.006075 0.005888 -0.006412
# 4 -0.003980 0.024546 0.006075 0.054087 0.000940 -0.004405
# 5 -0.004697 0.000115 0.005888 0.000940 0.029795 -0.008622
# 6 0.008411 -0.004823 -0.006412 -0.004405 -0.008622 0.054737
#
#
# Mechanical properties :
#
#
# Convention : Reuss Voigt Hill
#
# Bulk Modulus (GPa) = 23.87259 41.64741 32.76000
# Shear Modulus (GPa) = 21.94562 32.42659 27.18610
#
# Velocity S-wave (km/s) = 3.24108 3.93973 3.60736
# Velocity P-wave (km/s) = 5.04313 6.37420 5.74733
#
# Compressibility (1/GPa) = 0.04188905
#
# Stress axis : x y z
#
# Youngs Moduli (GPa) = 54.38454 34.82934 87.16526
#
# Poissons Ratio (x) = 0.09021 0.37321
# Poissons Ratio (y) = 0.14086 0.12810
# Poissons Ratio (z) = 0.23285 0.05119
#
# Static dielectric constant tensor:
#      x y z
#    x 1.811970 -0.009180 -0.003150 
#    y -0.009180 1.807240 -0.025770 
#    z -0.003150 -0.025770 1.811660 
# 
# From -- ./inp_files/344552.got.cif
#   From: 2010.05.17/outbox.cif.g08.bks.cpg/sg2_173_cif.got.tgz:344552.got - 2010.06.03 11:33:40.
