data_PCOD9040070
_publ_section_title
;
Structure prediction by ZEFSAII (Michael W. Deem and Ramdas Pophale) SiO2 
 PCOD9040070
Probable space group: P -1
;
_chemical_formula_sum "Si O2"
_cell_formula_units_Z 12
_cell_length_a 18.512386
_cell_length_b 17.694955
_cell_length_c 6.429142
_cell_angle_alpha 46.766693
_cell_angle_beta 131.884831
_cell_angle_gamma 157.495579
_cell_volume 582.698380
_symmetry_space_group_name_H-M "P -1"
_symmetry_group_IT_number 2
_symmetry_cell_setting 'triclinic'
loop_
_space_group_symop_operation_xyz
x,y,z
-x,-y,-z
loop_
_atom_site_type_symbol
_atom_site_label
_atom_site_fract_x
_atom_site_fract_y
_atom_site_fract_z
Si Si1 0.460770 0.622566 0.059809
Si Si2 0.210164 0.698919 0.943753
Si Si3 0.687173 0.413258 0.762459
Si Si4 0.864209 0.907243 0.224787
Si Si5 0.538792 0.886594 0.437689
Si Si6 0.136826 0.272767 0.784309
O O1 0.512505 0.785411 0.768033
O O2 0.321288 0.439810 0.972322
O O3 0.349595 0.540973 0.212116
O O4 0.656926 0.741940 0.225414
O O5 0.243302 0.638297 0.951235
O O6 0.359171 0.799476 0.221844
O O7 0.000000 0.500000 0.000000
O O8 0.277731 0.872706 0.668037
O O9 0.490184 0.212986 0.634430
O O10 0.838349 0.598420 0.539449
O O11 0.856627 0.810794 0.218194
O O12 0.000000 0.000000 0.500000
O O13 0.956454 0.088944 0.932780
#
# Coordination Sequence:
#
# PCOD9040070 Si02
#       6
#     2   2   2   2   2   2
#     4  11  22  40  64  90 124 160 202 253 296 362
#     4   9  18  39  61  84 123 159 193 246 300 358
#     4   9  20  38  61  90 118 157 202 244 300 355
#     4  11  25  41  62  91 122 161 208 247 304 359
#     4   8  20  37  57  88 120 159 196 239 307 354
#     4  10  23  43  60  88 125 159 205 247 307 359
#
# _framework density 20.593845000000002
#
# number of rings (size 3 to 8) (size 9 to 14) (size 15 to 20)
#    1.000    1.333    0.000    1.500    2.333    8.667 
#    3.000    0.833    0.000    0.000    0.000    0.000 
#    0.000    0.000    0.000    0.000    0.000    0.000 
#
# Total GULP energy -66867.851698 kJ/mol
# GULP energy per Si atom -5572.320975 kJ/mol
# Density = 2.054697 g / cm^3
# Si number density = 20.593845 Si / 1000 Ang^3
#
#
#
# Elastic Constant Matrix: (Units=GPa)
#
#
# Indices 1 2 3 4 5 6 
#
# 1 77.5253 30.5364 10.2012 11.3963 -18.7482 -1.7906
# 2 30.5364 107.2224 20.1146 -13.4237 -10.3181 -3.9199
# 3 10.2012 20.1146 50.4658 -7.3385 -12.5321 -11.8602
# 4 11.3963 -13.4237 -7.3385 29.6317 -2.0686 3.9657
# 5 -18.7482 -10.3181 -12.5321 -2.0686 20.8197 -1.4356
# 6 -1.7906 -3.9199 -11.8602 3.9657 -1.4356 27.5811
#
#
#
# Elastic Compliance Matrix: (Units=1/GPa)
#
#
# Indices 1 2 3 4 5 6 
#
# 1 0.020067 -0.005526 0.001419 -0.009224 0.015494 0.003260
# 2 -0.005526 0.012310 -0.002981 0.007084 -0.000028 -0.000911
# 3 0.001419 -0.002981 0.028951 0.004914 0.018569 0.012378
# 4 -0.009224 0.007084 0.004914 0.042332 0.002130 -0.003455
# 5 0.015494 -0.000028 0.018569 0.002130 0.074224 0.012544
# 6 0.003260 -0.000911 0.012378 -0.003455 0.012544 0.042811
#
#
# Mechanical properties :
#
#
# Convention : Reuss Voigt Hill
#
# Bulk Modulus (GPa) = 21.20754 39.65753 30.43254
# Shear Modulus (GPa) = 19.95294 27.23057 23.59176
#
# Velocity S-wave (km/s) = 3.11606 3.64024 3.38830
# Velocity P-wave (km/s) = 4.82357 6.08007 5.48790
#
# Compressibility (1/GPa) = 0.04715304
#
# Stress axis : x y z
#
# Youngs Moduli (GPa) = 49.83253 81.23415 34.54065
#
# Poissons Ratio (x) = 0.44888 -0.04900
# Poissons Ratio (y) = 0.27536 0.10295
# Poissons Ratio (z) = -0.07069 0.24212
#
# Static dielectric constant tensor:
#      x y z
#    x 1.731060 -0.021370 0.006880 
#    y -0.021370 1.757060 -0.028430 
#    z 0.006880 -0.028430 1.776770 
# 
# From -- ./inp_files/6254.got.cif
#   From: 2010.05.17/outbox.cif.g08.bks.cpg/sg2_4_cif.got.tgz:6254.got - 2010.06.03 11:33:40.
