data_PCOD9040532
_publ_section_title
;
Structure prediction by ZEFSAII (Michael W. Deem and Ramdas Pophale) SiO2 
 PCOD9040532
Probable space group: P -1
;
_chemical_formula_sum "Si O2"
_cell_formula_units_Z 16
_cell_length_a 22.683468
_cell_length_b 20.851455
_cell_length_c 10.686069
_cell_angle_alpha 29.316741
_cell_angle_beta 142.632590
_cell_angle_gamma 163.059279
_cell_volume 693.167692
_symmetry_space_group_name_H-M "P -1"
_symmetry_group_IT_number 2
_symmetry_cell_setting 'triclinic'
loop_
_space_group_symop_operation_xyz
x,y,z
-x,-y,-z
loop_
_atom_site_type_symbol
_atom_site_label
_atom_site_fract_x
_atom_site_fract_y
_atom_site_fract_z
Si Si1 0.931248 0.956397 0.596625
Si Si2 0.502559 0.635573 0.186869
Si Si3 0.063269 0.861107 0.074435
Si Si4 0.843116 0.102350 0.318834
Si Si5 0.957720 0.795806 0.278993
Si Si6 0.668174 0.287640 0.216765
Si Si7 0.771548 0.302165 0.099864
Si Si8 0.536467 0.242275 0.640803
O O1 0.693755 0.629956 0.783077
O O2 0.932029 0.111213 0.347716
O O3 0.071477 0.030670 0.790471
O O4 0.000000 0.000000 0.500000
O O5 0.500000 0.500000 0.500000
O O6 0.435074 0.695906 0.027830
O O7 0.717730 0.916511 0.997724
O O8 0.017660 0.788259 0.267499
O O9 0.871497 0.570751 0.163142
O O10 0.915524 0.117036 0.541658
O O11 0.979772 0.395152 0.025080
O O12 0.593432 0.817964 0.384616
O O13 0.712302 0.495848 0.409637
O O14 0.000000 0.000000 0.000000
O O15 0.500000 0.000000 0.500000
O O16 0.732180 0.279706 0.217329
O O17 0.655719 0.281014 0.863934
O O18 0.653302 0.039480 0.285525
#
# Coordination Sequence:
#
# PCOD9040532 Si02
#       8
#     2   2   2   2   2   2   2   2
#     4  11  22  38  62  98 134 166 221 284 336 392
#     4  11  25  40  70 100 132 180 226 277 338 406
#     4  11  24  43  64  98 140 173 224 283 336 406
#     4  11  23  39  70  95 124 176 225 276 336 404
#     4  11  24  41  62  93 136 174 214 272 338 399
#     4  11  26  45  68  99 141 180 222 278 344 401
#     4  10  23  43  67  94 129 171 222 281 331 397
#     4  10  24  43  66  94 128 171 227 276 332 402
#
# _framework density 23.082436999999999
#
# number of rings (size 3 to 8) (size 9 to 14) (size 15 to 20)
#    0.000    1.250    2.500    2.625    3.500    4.000 
#    0.000    0.000    0.000    0.000    0.000    0.000 
#    0.000    0.000    0.000    0.000    0.000    0.000 
#
# Total GULP energy -89330.070578 kJ/mol
# GULP energy per Si atom -5583.129411 kJ/mol
# Density = 2.302990 g / cm^3
# Si number density = 23.082437 Si / 1000 Ang^3
#
#
#
# Elastic Constant Matrix: (Units=GPa)
#
#
# Indices 1 2 3 4 5 6 
#
# 1 128.9526 26.3949 15.7122 -9.5127 -22.0696 2.4060
# 2 26.3949 87.9070 14.8677 -26.3016 -13.8466 23.9825
# 3 15.7122 14.8677 73.8522 -20.1388 -14.8963 4.4214
# 4 -9.5127 -26.3016 -20.1388 36.3442 7.3259 -3.5879
# 5 -22.0696 -13.8466 -14.8963 7.3259 36.9014 -0.8561
# 6 2.4060 23.9825 4.4214 -3.5879 -0.8561 36.4331
#
#
#
# Elastic Compliance Matrix: (Units=1/GPa)
#
#
# Indices 1 2 3 4 5 6 
#
# 1 0.009012 -0.002354 -0.000785 -0.000543 0.004322 0.001098
# 2 -0.002354 0.019155 0.001375 0.012151 0.003659 -0.011338
# 3 -0.000785 0.001375 0.017029 0.009011 0.005087 -0.001913
# 4 -0.000543 0.012151 0.009011 0.040727 -0.000330 -0.005053
# 5 0.004322 0.003659 0.005087 -0.000330 0.033117 -0.002566
# 6 0.001098 -0.011338 -0.001913 -0.005053 -0.002566 0.034513
#
#
# Mechanical properties :
#
#
# Convention : Reuss Voigt Hill
#
# Bulk Modulus (GPa) = 24.00016 44.96240 34.48128
# Shear Modulus (GPa) = 29.24499 37.51819 33.38159
#
# Velocity S-wave (km/s) = 3.56333 4.03600 3.80701
# Velocity P-wave (km/s) = 5.22971 6.42187 5.85621
#
# Compressibility (1/GPa) = 0.04166638
#
# Stress axis : x y z
#
# Youngs Moduli (GPa) = 110.96858 52.20548 58.72464
#
# Poissons Ratio (x) = 0.12290 0.04611
# Poissons Ratio (y) = 0.26123 -0.08074
# Poissons Ratio (z) = 0.08714 -0.07178
#
# Static dielectric constant tensor:
#      x y z
#    x 2.021830 0.014290 0.053330 
#    y 0.014290 1.883570 -0.004930 
#    z 0.053330 -0.004930 1.930210 
# 
# From -- ./inp_files/472723.got.cif
#   From: 2010.05.17/outbox.cif.g08.bks.cpg/sg2_237_cif.got.tgz:472723.got - 2010.06.03 11:33:40.
