data_PCOD9040482
_publ_section_title
;
Structure prediction by ZEFSAII (Michael W. Deem and Ramdas Pophale) SiO2 
 PCOD9040482
Probable space group: P -1
;
_chemical_formula_sum "Si O2"
_cell_formula_units_Z 12
_cell_length_a 9.282158
_cell_length_b 14.515331
_cell_length_c 6.660289
_cell_angle_alpha 70.442142
_cell_angle_beta 37.798629
_cell_angle_gamma 72.241913
_cell_volume 516.977461
_symmetry_space_group_name_H-M "P -1"
_symmetry_group_IT_number 2
_symmetry_cell_setting 'triclinic'
loop_
_space_group_symop_operation_xyz
x,y,z
-x,-y,-z
loop_
_atom_site_type_symbol
_atom_site_label
_atom_site_fract_x
_atom_site_fract_y
_atom_site_fract_z
Si Si1 0.451403 0.776159 0.441111
Si Si2 0.188651 0.793019 0.124615
Si Si3 0.774151 0.357185 0.444122
Si Si4 0.241104 0.472070 0.385095
Si Si5 0.261826 0.945689 0.253628
Si Si6 0.131721 0.263511 0.789823
O O1 0.468539 0.679800 0.351719
O O2 0.285199 0.859213 0.457581
O O3 0.713760 0.803054 0.176093
O O4 0.358931 0.761515 0.777359
O O5 0.173414 0.708048 0.367604
O O6 0.273489 0.887618 0.071980
O O7 0.946435 0.802270 0.260271
O O8 0.782770 0.467252 0.424625
O O9 0.938806 0.320820 0.104929
O O10 0.245107 0.356584 0.498152
O O11 0.000000 0.500000 0.500000
O O12 0.500000 0.500000 0.000000
O O13 0.000000 0.000000 0.500000
O O14 0.500000 0.000000 0.000000
#
# Coordination Sequence:
#
# PCOD9040482 Si02
#       6
#     2   2   2   2   2   2
#     4  10  25  43  72 103 136 189 232 289 353 417
#     4  10  23  45  70 100 143 180 234 283 356 412
#     4  10  23  43  67 102 144 189 236 287 342 411
#     4  12  26  44  70 104 145 191 239 285 344 406
#     4  11  28  48  73 106 142 179 229 292 360 425
#     4  11  24  42  74 101 141 190 239 287 348 409
#
# _framework density 23.211845
#
# number of rings (size 3 to 8) (size 9 to 14) (size 15 to 20)
#    0.000    1.333    1.667    1.500   14.000    3.333 
#    0.000    0.000    0.000    0.000    0.000    0.000 
#    0.000    0.000    0.000    0.000    0.000    0.000 
#
# Total GULP energy -66845.248242 kJ/mol
# GULP energy per Si atom -5570.437353 kJ/mol
# Density = 2.315901 g / cm^3
# Si number density = 23.211845 Si / 1000 Ang^3
#
#
#
# Elastic Constant Matrix: (Units=GPa)
#
#
# Indices 1 2 3 4 5 6 
#
# 1 203.9737 80.6924 37.6471 15.3384 -10.7873 26.1608
# 2 80.6924 81.0313 16.7069 -0.1726 -9.6084 18.3665
# 3 37.6471 16.7069 75.9294 -5.7224 0.5783 8.3806
# 4 15.3384 -0.1726 -5.7224 27.1375 6.3852 -4.2564
# 5 -10.7873 -9.6084 0.5783 6.3852 37.5464 6.2837
# 6 26.1608 18.3665 8.3806 -4.2564 6.2837 47.6475
#
#
#
# Elastic Compliance Matrix: (Units=1/GPa)
#
#
# Indices 1 2 3 4 5 6 
#
# 1 0.009750 -0.008166 -0.003316 -0.007239 0.002427 -0.002589
# 2 -0.008166 0.021814 -0.000079 0.003313 0.003353 -0.004057
# 3 -0.003316 -0.000079 0.015275 0.005592 -0.002150 -0.000053
# 4 -0.007239 0.003313 0.005592 0.045682 -0.010284 0.007151
# 5 0.002427 0.003353 -0.002150 -0.010284 0.031189 -0.007278
# 6 -0.002589 -0.004057 -0.000053 0.007151 -0.007278 0.025581
#
#
# Mechanical properties :
#
#
# Convention : Reuss Voigt Hill
#
# Bulk Modulus (GPa) = 42.16376 70.11415 56.13896
# Shear Modulus (GPa) = 27.72884 37.52550 32.62717
#
# Velocity S-wave (km/s) = 3.46005 4.02512 3.75323
# Velocity P-wave (km/s) = 5.84523 7.20236 6.55899
#
# Compressibility (1/GPa) = 0.02371705
#
# Stress axis : x y z
#
# Youngs Moduli (GPa) = 102.56485 45.84292 65.46632
#
# Poissons Ratio (x) = 0.37437 0.21706
# Poissons Ratio (y) = 0.83759 0.00515
# Poissons Ratio (z) = 0.34006 0.00361
#
# Static dielectric constant tensor:
#      x y z
#    x 2.066080 0.023320 -0.228560 
#    y 0.023320 1.894270 -0.078560 
#    z -0.228560 -0.078560 2.069810 
# 
# From -- ./inp_files/3172.got.cif
#   From: 2010.05.17/outbox.cif.g08.bks.cpg/sg2_2_cif.got.tgz:3172.got - 2010.06.03 11:33:40.
