data_PCOD9040199
_publ_section_title
;
Structure prediction by ZEFSAII (Michael W. Deem and Ramdas Pophale) SiO2 
 PCOD9040199
Probable space group: P -1
;
_chemical_formula_sum "Si O2"
_cell_formula_units_Z 16
_cell_length_a 12.781669
_cell_length_b 8.586707
_cell_length_c 8.217404
_cell_angle_alpha 97.762044
_cell_angle_beta 94.738429
_cell_angle_gamma 47.831102
_cell_volume 662.281235
_symmetry_space_group_name_H-M "P -1"
_symmetry_group_IT_number 2
_symmetry_cell_setting 'triclinic'
loop_
_space_group_symop_operation_xyz
x,y,z
-x,-y,-z
loop_
_atom_site_type_symbol
_atom_site_label
_atom_site_fract_x
_atom_site_fract_y
_atom_site_fract_z
Si Si1 0.412325 0.279908 0.947365
Si Si2 0.032251 0.784990 0.496911
Si Si3 0.329826 0.020971 0.853363
Si Si4 0.531976 0.284055 0.469838
Si Si5 0.911001 0.881338 0.008135
Si Si6 0.174325 0.690554 0.837315
Si Si7 0.772590 0.931970 0.668087
Si Si8 0.268632 0.388395 0.297280
O O1 0.575252 0.123824 0.997698
O O2 0.335937 0.342732 0.122268
O O3 0.336470 0.495270 0.872529
O O4 0.378803 0.148348 0.835972
O O5 0.130313 0.672013 0.653586
O O6 0.124148 0.627335 0.339190
O O7 0.888014 0.839219 0.526463
O O8 0.000000 0.000000 0.500000
O O9 0.371208 0.862396 0.692549
O O10 0.167741 0.173184 0.907101
O O11 0.500000 0.500000 0.500000
O O12 0.387587 0.334954 0.428418
O O13 0.622340 0.144119 0.617803
O O14 0.836772 0.962574 0.832387
O O15 0.872759 0.081931 0.120728
O O16 0.074300 0.703761 0.958941
O O17 0.761123 0.762642 0.691000
#
# Coordination Sequence:
#
# PCOD9040199 Si02
#       8
#     2   2   2   2   2   2   2   2
#     4  10  23  44  67  96 131 172 219 271 329 388
#     4  11  26  44  68  96 136 175 223 275 332 392
#     4  10  23  43  66  95 131 171 218 270 326 392
#     4  11  26  42  68  98 133 176 222 269 336 395
#     4  10  23  43  64  96 131 169 220 271 322 389
#     4  10  25  41  67  99 130 172 222 267 331 389
#     4  11  24  45  66  97 134 174 225 271 332 394
#     4  11  24  44  67  97 134 177 219 275 330 392
#
# _framework density 24.158922
#
# number of rings (size 3 to 8) (size 9 to 14) (size 15 to 20)
#    0.000    1.500    1.250    1.500   14.000    2.000 
#    0.000    0.000    0.000    0.000    0.000    0.000 
#    0.000    0.000    0.000    0.000    0.000    0.000 
#
# Total GULP energy -89622.430475 kJ/mol
# GULP energy per Si atom -5601.401905 kJ/mol
# Density = 2.410394 g / cm^3
# Si number density = 24.158922 Si / 1000 Ang^3
#
#
#
# Elastic Constant Matrix: (Units=GPa)
#
#
# Indices 1 2 3 4 5 6 
#
# 1 72.2261 -2.9906 12.9282 6.6760 -0.8401 -16.4450
# 2 -2.9906 90.6998 17.0429 3.0474 4.4049 -4.2427
# 3 12.9282 17.0429 70.8813 13.6673 7.5128 1.6043
# 4 6.6760 3.0474 13.6673 43.4678 -8.5970 0.9590
# 5 -0.8401 4.4049 7.5128 -8.5970 37.2116 6.9155
# 6 -16.4450 -4.2427 1.6043 0.9590 6.9155 30.4823
#
#
#
# Elastic Compliance Matrix: (Units=1/GPa)
#
#
# Indices 1 2 3 4 5 6 
#
# 1 0.016944 0.001768 -0.003137 -0.002271 -0.001573 0.009981
# 2 0.001768 0.011880 -0.002994 -0.000520 -0.001461 0.003113
# 3 -0.003137 -0.002994 0.016906 -0.005376 -0.004015 -0.001919
# 4 -0.002271 -0.000520 -0.005376 0.026735 0.007952 -0.003660
# 5 -0.001573 -0.001461 -0.004015 0.007952 0.031176 -0.008164
# 6 0.009981 0.003113 -0.001919 -0.003660 -0.008164 0.040692
#
#
# Mechanical properties :
#
#
# Convention : Reuss Voigt Hill
#
# Bulk Modulus (GPa) = 27.02443 31.97424 29.49933
# Shear Modulus (GPa) = 30.23094 36.02078 33.12586
#
# Velocity S-wave (km/s) = 3.54126 3.86553 3.70694
# Velocity P-wave (km/s) = 5.28499 5.76079 5.52801
#
# Compressibility (1/GPa) = 0.03700356
#
# Stress axis : x y z
#
# Youngs Moduli (GPa) = 59.01725 84.17289 59.15189
#
# Poissons Ratio (x) = -0.14879 0.18554
# Poissons Ratio (y) = -0.10432 0.17711
# Poissons Ratio (z) = 0.18512 0.25203
#
# Static dielectric constant tensor:
#      x y z
#    x 1.917190 -0.024410 -0.025960 
#    y -0.024410 1.863080 -0.004240 
#    z -0.025960 -0.004240 1.950730 
# 
# From -- ./inp_files/190668.got.cif
#   From: 2010.05.17/outbox.cif.g08.bks.cpg/sg2_96_cif.got.tgz:190668.got - 2010.06.03 11:33:40.
