data_PCOD9040368
_publ_section_title
;
Structure prediction by ZEFSAII (Michael W. Deem and Ramdas Pophale) SiO2 
 PCOD9040368
Probable space group: P -1
;
_chemical_formula_sum "Si O2"
_cell_formula_units_Z 10
_cell_length_a 8.464471
_cell_length_b 7.757668
_cell_length_c 10.685649
_cell_angle_alpha 107.682640
_cell_angle_beta 60.646141
_cell_angle_gamma 142.895456
_cell_volume 363.838965
_symmetry_space_group_name_H-M "P -1"
_symmetry_group_IT_number 2
_symmetry_cell_setting 'triclinic'
loop_
_space_group_symop_operation_xyz
x,y,z
-x,-y,-z
loop_
_atom_site_type_symbol
_atom_site_label
_atom_site_fract_x
_atom_site_fract_y
_atom_site_fract_z
Si Si1 0.717067 0.978221 0.687963
Si Si2 0.231244 0.180710 0.632539
Si Si3 0.655828 0.246067 0.596581
Si Si4 0.710019 0.330726 0.013413
Si Si5 0.841408 0.746537 0.904151
O O1 0.715304 0.858805 0.535106
O O2 0.483658 0.714925 0.818452
O O3 0.614821 0.098596 0.708511
O O4 0.039906 0.213488 0.677603
O O5 0.512751 0.331930 0.640081
O O6 0.987158 0.893409 0.748407
O O7 0.000000 0.500000 0.500000
O O8 0.500000 0.000000 0.500000
O O9 0.848000 0.543777 0.891496
O O10 0.000000 0.500000 0.000000
O O11 0.500000 0.000000 0.000000
O O12 0.500000 0.500000 0.000000
O O13 0.000000 0.000000 0.000000
#
# Coordination Sequence:
#
# PCOD9040368 Si02
#       5
#     2   2   2   2   2
#     4  10  23  46  76 113 146 200 259 318 384 457
#     4  10  23  47  76 112 150 199 256 327 378 463
#     4  10  23  43  66 103 147 187 238 307 380 443
#     4  12  27  48  74 109 153 201 253 314 383 464
#     4  12  26  49  74 109 154 201 252 313 388 462
#
# _framework density 27.484687000000001
#
# number of rings (size 3 to 8) (size 9 to 14) (size 15 to 20)
#    0.000    1.200    2.000    2.400    0.000   10.400 
#    0.000    0.000    0.000    0.000    0.000    0.000 
#    0.000    0.000    0.000    0.000    0.000    0.000 
#
# Total GULP energy -55793.577561 kJ/mol
# GULP energy per Si atom -5579.357756 kJ/mol
# Density = 2.742213 g / cm^3
# Si number density = 27.484687 Si / 1000 Ang^3
#
#
#
# Elastic Constant Matrix: (Units=GPa)
#
#
# Indices 1 2 3 4 5 6 
#
# 1 211.2329 39.4210 10.8313 -10.0508 7.7970 34.0944
# 2 39.4210 167.7843 34.9255 -8.9868 -12.2808 30.3306
# 3 10.8313 34.9255 161.1753 -26.7722 10.6743 -3.6470
# 4 -10.0508 -8.9868 -26.7722 52.9161 -5.8785 -14.2467
# 5 7.7970 -12.2808 10.6743 -5.8785 49.4361 -26.6810
# 6 34.0944 30.3306 -3.6470 -14.2467 -26.6810 56.2336
#
#
#
# Elastic Compliance Matrix: (Units=1/GPa)
#
#
# Indices 1 2 3 4 5 6 
#
# 1 0.005847 -0.000699 -0.000267 -0.001043 -0.004065 -0.005378
# 2 -0.000699 0.007109 -0.001712 -0.000740 0.000210 -0.003609
# 3 -0.000267 -0.001712 0.007328 0.004032 -0.000124 0.002523
# 4 -0.001043 -0.000740 0.004032 0.024597 0.008194 0.011412
# 5 -0.004065 0.000210 -0.000124 0.008194 0.032675 0.019922
# 6 -0.005378 -0.003609 0.002523 0.011412 0.019922 0.035497
#
#
# Mechanical properties :
#
#
# Convention : Reuss Voigt Hill
#
# Bulk Modulus (GPa) = 66.99152 78.94977 72.97064
# Shear Modulus (GPa) = 40.52351 62.05150 51.28750
#
# Velocity S-wave (km/s) = 3.84396 4.75665 4.32445
# Velocity P-wave (km/s) = 6.64292 7.67822 7.17926
#
# Compressibility (1/GPa) = 0.01492726
#
# Stress axis : x y z
#
# Youngs Moduli (GPa) = 171.03594 140.66958 136.45650
#
# Poissons Ratio (x) = 0.09837 0.03644
# Poissons Ratio (y) = 0.11961 0.23360
# Poissons Ratio (z) = 0.04568 0.24082
#
# Static dielectric constant tensor:
#      x y z
#    x 2.166670 -0.042790 -0.064240 
#    y -0.042790 2.041730 0.092080 
#    z -0.064240 0.092080 2.154400 
# 
# From -- ./inp_files/33038.got.cif
#   From: 2010.05.17/outbox.cif.g08.bks.cpg/sg2_17_cif.got.tgz:33038.got - 2010.06.03 11:33:40.
