data_PCOD9040029
_publ_section_title
;
Structure prediction by ZEFSAII (Michael W. Deem and Ramdas Pophale) SiO2 
 PCOD9040029
Probable space group: P -1
;
_chemical_formula_sum "Si O2"
_cell_formula_units_Z 16
_cell_length_a 11.448649
_cell_length_b 17.475996
_cell_length_c 9.068594
_cell_angle_alpha 133.748728
_cell_angle_beta 59.030507
_cell_angle_gamma 147.321799
_cell_volume 697.003714
_symmetry_space_group_name_H-M "P -1"
_symmetry_group_IT_number 2
_symmetry_cell_setting 'triclinic'
loop_
_space_group_symop_operation_xyz
x,y,z
-x,-y,-z
loop_
_atom_site_type_symbol
_atom_site_label
_atom_site_fract_x
_atom_site_fract_y
_atom_site_fract_z
Si Si1 0.611118 0.476796 0.303678
Si Si2 0.336348 0.731966 0.503421
Si Si3 0.047419 0.211302 0.022537
Si Si4 0.003086 0.220867 0.737251
Si Si5 0.311734 0.104146 0.958383
Si Si6 0.244639 0.111288 0.697923
Si Si7 0.590644 0.078717 0.710466
Si Si8 0.132939 0.462929 0.515611
O O1 0.500000 0.500000 0.500000
O O2 0.754117 0.611562 0.258083
O O3 0.768069 0.507616 0.353453
O O4 0.410587 0.280294 0.127307
O O5 0.503835 0.764884 0.339989
O O6 0.286406 0.637367 0.557589
O O7 0.104573 0.624765 0.439563
O O8 0.463425 0.920111 0.689855
O O9 0.985342 0.228866 0.933089
O O10 0.209873 0.215290 0.872536
O O11 0.115803 0.344507 0.270634
O O12 0.848613 0.026034 0.980797
O O13 0.841943 0.203009 0.732801
O O14 0.909553 0.046447 0.526790
O O15 0.189408 0.022032 0.771595
O O16 0.517313 0.150986 0.889727
O O17 0.500000 0.000000 0.500000
#
# Coordination Sequence:
#
# PCOD9040029 Si02
#       8
#     2   2   2   2   2   2   2   2
#     4  12  28  46  68 102 144 180 229 285 347 409
#     4  10  23  42  74  98 131 186 225 285 343 399
#     4  12  26  43  73 105 136 180 235 282 340 416
#     4  11  26  43  72 101 141 178 230 285 344 407
#     4  12  25  43  74 102 135 187 230 278 350 409
#     4  11  24  46  73  95 143 182 233 275 352 407
#     4  11  21  44  73  98 137 181 233 278 343 411
#     4  11  25  46  71  97 146 177 231 284 349 401
#
# _framework density 22.955400999999998
#
# number of rings (size 3 to 8) (size 9 to 14) (size 15 to 20)
#    0.000    0.750    3.750    3.750    7.000    3.500 
#    0.000    0.000    0.000    0.000    0.000    0.000 
#    0.000    0.000    0.000    0.000    0.000    0.000 
#
# Total GULP energy -89522.133752 kJ/mol
# GULP energy per Si atom -5595.133360 kJ/mol
# Density = 2.290315 g / cm^3
# Si number density = 22.955401 Si / 1000 Ang^3
#
#
#
# Elastic Constant Matrix: (Units=GPa)
#
#
# Indices 1 2 3 4 5 6 
#
# 1 59.3426 -10.1482 -2.7862 -7.2324 -4.2592 -9.7349
# 2 -10.1482 108.4170 3.0035 -8.4540 7.2793 -18.1827
# 3 -2.7862 3.0035 67.2406 4.2213 -1.5217 -2.2166
# 4 -7.2324 -8.4540 4.2213 26.7549 -7.4220 -4.1918
# 5 -4.2592 7.2793 -1.5217 -7.4220 47.6208 -6.9415
# 6 -9.7349 -18.1827 -2.2166 -4.1918 -6.9415 18.1979
#
#
#
# Elastic Compliance Matrix: (Units=1/GPa)
#
#
# Indices 1 2 3 4 5 6 
#
# 1 0.025194 0.007692 0.000809 0.015558 0.007571 0.027733
# 2 0.007692 0.014316 -0.000204 0.011086 0.003467 0.022270
# 3 0.000809 -0.000204 0.015101 -0.001771 0.000585 0.001883
# 4 0.015558 0.011086 -0.001771 0.054938 0.013600 0.037026
# 5 0.007571 0.003467 0.000585 0.013600 0.026310 0.020754
# 6 0.027733 0.022270 0.001883 0.037026 0.020754 0.108712
#
#
# Mechanical properties :
#
#
# Convention : Reuss Voigt Hill
#
# Bulk Modulus (GPa) = 14.04416 23.90427 18.97421
# Shear Modulus (GPa) = 19.86398 34.84346 27.35372
#
# Velocity S-wave (km/s) = 2.94484 3.90022 3.45570
# Velocity P-wave (km/s) = 4.20643 5.54240 4.91998
#
# Compressibility (1/GPa) = 0.07120399
#
# Stress axis : x y z
#
# Youngs Moduli (GPa) = 39.69264 69.85297 66.22027
#
# Poissons Ratio (x) = -0.53729 -0.05358
# Poissons Ratio (y) = -0.30530 0.01352
# Poissons Ratio (z) = -0.03212 0.01426
#
# Static dielectric constant tensor:
#      x y z
#    x 1.882440 0.023020 0.009360 
#    y 0.023020 1.845830 -0.006130 
#    z 0.009360 -0.006130 1.853800 
# 
# From -- ./inp_files/279107.got.cif
#   From: 2010.05.17/outbox.cif.g08.bks.cpg/sg2_140_cif.got.tgz:279107.got - 2010.06.03 11:33:40.
