data_PCOD9040839
_publ_section_title
;
Structure prediction by ZEFSAII (Michael W. Deem and Ramdas Pophale) SiO2 
 PCOD9040839
Probable space group: P -1
;
_chemical_formula_sum "Si O2"
_cell_formula_units_Z 13
_cell_length_a 6.486674
_cell_length_b 11.831793
_cell_length_c 9.964291
_cell_angle_alpha 119.015810
_cell_angle_beta 83.385192
_cell_angle_gamma 123.914494
_cell_volume 542.106046
_symmetry_space_group_name_H-M "P -1"
_symmetry_group_IT_number 2
_symmetry_cell_setting 'triclinic'
loop_
_space_group_symop_operation_xyz
x,y,z
-x,-y,-z
loop_
_atom_site_type_symbol
_atom_site_label
_atom_site_fract_x
_atom_site_fract_y
_atom_site_fract_z
Si Si1 0.500000 0.500000 0.000000
Si Si2 0.059969 0.770787 0.075851
Si Si3 0.710252 0.251205 0.714338
Si Si4 0.256673 0.573007 0.439408
Si Si5 0.137104 0.950907 0.561698
Si Si6 0.297112 0.331599 0.180313
Si Si7 0.710455 0.869251 0.730466
O O1 0.496031 0.559456 0.883794
O O2 0.224478 0.324887 0.896793
O O3 0.189961 0.705216 0.115818
O O4 0.231311 0.959025 0.188892
O O5 0.979441 0.739043 0.907558
O O6 0.754966 0.391406 0.698208
O O7 0.842608 0.180434 0.585638
O O8 0.416049 0.106147 0.657782
O O9 0.326585 0.447805 0.360969
O O10 0.474286 0.740923 0.583582
O O11 0.000000 0.500000 0.500000
O O12 0.963232 0.888102 0.669307
O O13 0.000000 0.000000 0.500000
O O14 0.327091 0.198880 0.157040
#
# Coordination Sequence:
#
# PCOD9040839 Si02
#       7
#     1   2   2   2   2   2   2
#     4   8  24  42  72  96 142 182 236 280 360 422
#     4  10  23  43  69 102 137 182 239 286 351 421
#     4  11  23  40  66 105 137 179 242 290 343 433
#     4  12  27  42  66 103 149 183 234 297 359 414
#     4  11  21  39  67 104 139 176 235 295 354 401
#     4  10  25  44  65 102 138 191 228 288 362 409
#     4  12  23  43  74  99 138 189 236 295 349 427
#
# _framework density 23.980546
#
# number of rings (size 3 to 8) (size 9 to 14) (size 15 to 20)
#    0.923    0.308    3.077    2.769    6.462    0.615 
#    0.000    4.615    0.000    0.000    0.000    0.000 
#    0.000    0.000    0.000    0.000    0.000    0.000 
#
# Total GULP energy -72391.438308 kJ/mol
# GULP energy per Si atom -5568.572178 kJ/mol
# Density = 2.392597 g / cm^3
# Si number density = 23.980546 Si / 1000 Ang^3
#
#
#
# Elastic Constant Matrix: (Units=GPa)
#
#
# Indices 1 2 3 4 5 6 
#
# 1 44.2794 13.0148 14.4438 4.2299 8.9868 -7.9412
# 2 13.0148 144.3547 27.2850 -6.0386 7.4032 -1.2434
# 3 14.4438 27.2850 70.5960 6.2505 36.4677 -4.4419
# 4 4.2299 -6.0386 6.2505 53.1141 -1.4763 9.4586
# 5 8.9868 7.4032 36.4677 -1.4763 39.2757 -5.8499
# 6 -7.9412 -1.2434 -4.4419 9.4586 -5.8499 29.0161
#
#
#
# Elastic Compliance Matrix: (Units=1/GPa)
#
#
# Indices 1 2 3 4 5 6 
#
# 1 0.026070 -0.001783 -0.002850 -0.003298 -0.002021 0.007290
# 2 -0.001783 0.007836 -0.004405 0.001778 0.002967 -0.000808
# 3 -0.002850 -0.004405 0.031115 -0.004658 -0.027622 -0.000256
# 4 -0.003298 0.001778 -0.004658 0.021316 0.004414 -0.007598
# 5 -0.002021 0.002967 -0.027622 0.004414 0.051826 0.004355
# 6 0.007290 -0.000808 -0.000256 -0.007598 0.004355 0.039740
#
#
# Mechanical properties :
#
#
# Convention : Reuss Voigt Hill
#
# Bulk Modulus (GPa) = 21.30132 40.96858 31.13495
# Shear Modulus (GPa) = 23.62641 37.91360 30.77000
#
# Velocity S-wave (km/s) = 3.14225 3.98051 3.58596
# Velocity P-wave (km/s) = 4.69755 6.18443 5.49154
#
# Compressibility (1/GPa) = 0.04694545
#
# Stress axis : x y z
#
# Youngs Moduli (GPa) = 38.35782 127.61720 32.13851
#
# Poissons Ratio (x) = 0.22758 0.09160
# Poissons Ratio (y) = 0.06840 0.14156
# Poissons Ratio (z) = 0.10932 0.56212
#
# Static dielectric constant tensor:
#      x y z
#    x 1.967420 -0.020900 0.010790 
#    y -0.020900 1.888670 -0.057910 
#    z 0.010790 -0.057910 1.998860 
# 
# From -- ./inp_files/361370.got.cif
#   From: 2010.05.17/outbox.cif.g08.bks.cpg/sg2_181_cif.got.tgz:361370.got - 2010.06.03 11:33:40.
