data_PCOD9040211
_publ_section_title
;
Structure prediction by ZEFSAII (Michael W. Deem and Ramdas Pophale) SiO2 
 PCOD9040211
Probable space group: P -1
;
_chemical_formula_sum "Si O2"
_cell_formula_units_Z 12
_cell_length_a 9.618312
_cell_length_b 5.076709
_cell_length_c 15.988106
_cell_angle_alpha 120.044998
_cell_angle_beta 44.357241
_cell_angle_gamma 101.974364
_cell_volume 457.620589
_symmetry_space_group_name_H-M "P -1"
_symmetry_group_IT_number 2
_symmetry_cell_setting 'triclinic'
loop_
_space_group_symop_operation_xyz
x,y,z
-x,-y,-z
loop_
_atom_site_type_symbol
_atom_site_label
_atom_site_fract_x
_atom_site_fract_y
_atom_site_fract_z
Si Si1 0.240487 0.853919 0.267708
Si Si2 0.350160 0.927463 0.861798
Si Si3 0.691428 0.587781 0.474960
Si Si4 0.210929 0.746452 0.451294
Si Si5 0.795166 0.674248 0.164217
Si Si6 0.037135 0.452135 0.181917
O O1 0.446349 0.966435 0.184899
O O2 0.244786 0.679604 0.327737
O O3 0.197925 0.634906 0.176933
O O4 0.034299 0.133326 0.409094
O O5 0.299393 0.020479 0.801092
O O6 0.347403 0.569026 0.819078
O O7 0.162150 0.143531 0.030962
O O8 0.500000 0.500000 0.500000
O O9 0.703096 0.502062 0.553622
O O10 0.900083 0.395245 0.309368
O O11 0.698542 0.949837 0.521441
O O12 0.872666 0.673149 0.225200
O O13 0.000000 0.500000 0.000000
#
# Coordination Sequence:
#
# PCOD9040211 Si02
#       6
#     2   2   2   2   2   2
#     4  10  24  44  71  97 140 175 221 272 334 403
#     4  11  24  42  70  98 133 176 220 274 334 393
#     4  11  25  43  69  96 132 175 227 275 325 396
#     4  10  25  45  65  98 134 178 218 275 330 389
#     4  10  23  43  64  97 137 174 216 274 330 390
#     4  10  23  43  66 100 133 173 224 275 331 392
#
# _framework density 26.222594999999998
#
# number of rings (size 3 to 8) (size 9 to 14) (size 15 to 20)
#    0.000    1.667    0.000    3.000    4.667   16.667 
#    0.000    5.000    0.000    0.000    0.000    0.000 
#    0.000    0.000    0.000    0.000    0.000    0.000 
#
# Total GULP energy -67378.172848 kJ/mol
# GULP energy per Si atom -5614.847737 kJ/mol
# Density = 2.616291 g / cm^3
# Si number density = 26.222595 Si / 1000 Ang^3
#
#
#
# Elastic Constant Matrix: (Units=GPa)
#
#
# Indices 1 2 3 4 5 6 
#
# 1 165.3852 46.1516 15.8537 2.0809 2.3787 23.4978
# 2 46.1516 130.1131 23.1445 0.6962 -1.4156 5.1314
# 3 15.8537 23.1445 103.6570 -10.8982 1.9428 8.6715
# 4 2.0809 0.6962 -10.8982 39.8566 11.8635 -11.6445
# 5 2.3787 -1.4156 1.9428 11.8635 52.1566 -3.7060
# 6 23.4978 5.1314 8.6715 -11.6445 -3.7060 51.9512
#
#
#
# Elastic Compliance Matrix: (Units=1/GPa)
#
#
# Indices 1 2 3 4 5 6 
#
# 1 0.007233 -0.002354 -0.000439 -0.001324 -0.000310 -0.003285
# 2 -0.002354 0.008818 -0.001711 -0.000551 0.000564 0.000396
# 3 -0.000439 -0.001711 0.010504 0.003042 -0.001165 -0.000787
# 4 -0.001324 -0.000551 0.003042 0.029759 -0.006385 0.006360
# 5 -0.000310 0.000564 -0.001165 -0.006385 0.020721 0.000326
# 6 -0.003285 0.000396 -0.000787 0.006360 0.000326 0.022276
#
#
# Mechanical properties :
#
#
# Convention : Reuss Voigt Hill
#
# Bulk Modulus (GPa) = 56.98841 63.27276 60.13059
# Shear Modulus (GPa) = 43.79464 49.72656 46.76060
#
# Velocity S-wave (km/s) = 4.09113 4.35941 4.22740
# Velocity P-wave (km/s) = 6.64050 7.03709 6.84167
#
# Compressibility (1/GPa) = 0.01754743
#
# Stress axis : x y z
#
# Youngs Moduli (GPa) = 138.24790 113.39885 95.20356
#
# Poissons Ratio (x) = 0.26698 0.04182
# Poissons Ratio (y) = 0.32548 0.16285
# Poissons Ratio (z) = 0.06073 0.19397
#
# Static dielectric constant tensor:
#      x y z
#    x 2.070660 -0.010860 -0.048560 
#    y -0.010860 2.038580 0.026230 
#    z -0.048560 0.026230 2.078300 
# 
# From -- ./inp_files/134567.got.cif
#   From: 2010.05.17/outbox.cif.g08.bks.cpg/sg2_68_cif.got.tgz:134567.got - 2010.06.03 11:33:40.
