data_PCOD9040995
_publ_section_title
;
Structure prediction by ZEFSAII (Michael W. Deem and Ramdas Pophale) SiO2 
 PCOD9040995
Probable space group: P -1
;
_chemical_formula_sum "Si O2"
_cell_formula_units_Z 14
_cell_length_a 4.982556
_cell_length_b 5.232376
_cell_length_c 20.305288
_cell_angle_alpha 113.948232
_cell_angle_beta 86.598761
_cell_angle_gamma 94.679762
_cell_volume 481.986436
_symmetry_space_group_name_H-M "P -1"
_symmetry_group_IT_number 2
_symmetry_cell_setting 'triclinic'
loop_
_space_group_symop_operation_xyz
x,y,z
-x,-y,-z
loop_
_atom_site_type_symbol
_atom_site_label
_atom_site_fract_x
_atom_site_fract_y
_atom_site_fract_z
Si Si1 0.326542 0.720834 0.956287
Si Si2 0.144197 0.882648 0.850064
Si Si3 0.590569 0.846940 0.683694
Si Si4 0.323236 0.608239 0.454432
Si Si5 0.317451 0.736228 0.107182
Si Si6 0.844963 0.423166 0.720310
Si Si7 0.215253 0.036295 0.597683
O O1 0.091141 0.788863 0.916787
O O2 0.519134 0.516218 0.893774
O O3 0.258884 0.625510 0.021291
O O4 0.500000 0.000000 0.000000
O O5 0.055554 0.620565 0.778553
O O6 0.449126 0.012441 0.862187
O O7 0.960566 0.132449 0.857617
O O8 0.768510 0.679692 0.611145
O O9 0.621498 0.627400 0.718885
O O10 0.324808 0.902931 0.650694
O O11 0.707810 0.156251 0.732400
O O12 0.500000 0.500000 0.500000
O O13 0.524165 0.790254 0.421291
O O14 0.136605 0.809659 0.518123
O O15 0.004078 0.263084 0.643720
#
# Coordination Sequence:
#
# PCOD9040995 Si02
#       7
#     2   2   2   2   2   2   2
#     4   9  21  43  72 103 138 180 233 297 349 414
#     4  11  26  43  67 103 139 191 233 287 355 428
#     4  11  25  46  65 101 135 181 235 289 355 427
#     4   9  20  43  72  98 135 175 232 304 358 418
#     4  10  23  43  70 102 140 179 238 293 352 415
#     4  12  29  42  70  99 139 193 232 285 361 436
#     4  10  23  46  68 100 139 177 232 303 357 425
#
# _framework density 29.04646
#
# number of rings (size 3 to 8) (size 9 to 14) (size 15 to 20)
#    0.000    1.714    1.429    0.429    8.000    9.714 
#    0.000    0.000    0.000    0.000    0.000    0.000 
#    0.000    0.000    0.000    0.000    0.000    0.000 
#
# Total GULP energy -78353.897658 kJ/mol
# GULP energy per Si atom -5596.706976 kJ/mol
# Density = 2.898035 g / cm^3
# Si number density = 29.046460 Si / 1000 Ang^3
#
#
#
# Elastic Constant Matrix: (Units=GPa)
#
#
# Indices 1 2 3 4 5 6 
#
# 1 120.4012 36.2494 36.9048 7.2418 15.5439 -16.1632
# 2 36.2494 203.3413 45.3542 18.1576 11.6034 -29.2854
# 3 36.9048 45.3542 167.5275 41.6977 16.3906 -9.6774
# 4 7.2418 18.1576 41.6977 54.7228 0.2581 8.0195
# 5 15.5439 11.6034 16.3906 0.2581 46.0520 -0.1063
# 6 -16.1632 -29.2854 -9.6774 8.0195 -0.1063 37.9701
#
#
#
# Elastic Compliance Matrix: (Units=1/GPa)
#
#
# Indices 1 2 3 4 5 6 
#
# 1 0.009768 -0.000768 -0.001386 -0.000453 -0.002600 0.003301
# 2 -0.000768 0.006113 -0.000569 -0.002177 -0.001055 0.004700
# 3 -0.001386 -0.000569 0.008381 -0.006361 -0.002330 0.002444
# 4 -0.000453 -0.002177 -0.006361 0.025180 0.002804 -0.008803
# 5 -0.002600 -0.001055 -0.002330 0.002804 0.023665 -0.003041
# 6 0.003301 0.004700 0.002444 -0.008803 -0.003041 0.033840
#
#
# Mechanical properties :
#
#
# Convention : Reuss Voigt Hill
#
# Bulk Modulus (GPa) = 53.14767 80.92077 67.03422
# Shear Modulus (GPa) = 42.13543 52.59974 47.36759
#
# Velocity S-wave (km/s) = 3.81283 4.26006 4.04264
# Velocity P-wave (km/s) = 6.14173 7.21922 6.70216
#
# Compressibility (1/GPa) = 0.01881550
#
# Stress axis : x y z
#
# Youngs Moduli (GPa) = 102.37908 163.58112 119.31671
#
# Poissons Ratio (x) = 0.12562 0.16537
# Poissons Ratio (y) = 0.07862 0.06793
# Poissons Ratio (z) = 0.14189 0.09313
#
# Static dielectric constant tensor:
#      x y z
#    x 2.239530 0.115980 -0.082030 
#    y 0.115980 2.323030 -0.094290 
#    z -0.082030 -0.094290 2.339820 
# 
# From -- ./inp_files/603488.got.cif
#   From: 2010.05.17/outbox.cif.g08.bks.cpg/sg2_302_cif.got.tgz:603488.got - 2010.06.03 11:33:40.
