data_PCOD9040285
_publ_section_title
;
Structure prediction by ZEFSAII (Michael W. Deem and Ramdas Pophale) SiO2 
 PCOD9040285
Probable space group: P -1
;
_chemical_formula_sum "Si O2"
_cell_formula_units_Z 14
_cell_length_a 8.926516
_cell_length_b 9.281711
_cell_length_c 12.924636
_cell_angle_alpha 38.494839
_cell_angle_beta 55.629530
_cell_angle_gamma 78.226789
_cell_volume 487.683451
_symmetry_space_group_name_H-M "P -1"
_symmetry_group_IT_number 2
_symmetry_cell_setting 'triclinic'
loop_
_space_group_symop_operation_xyz
x,y,z
-x,-y,-z
loop_
_atom_site_type_symbol
_atom_site_label
_atom_site_fract_x
_atom_site_fract_y
_atom_site_fract_z
Si Si1 0.529863 0.896840 0.282774
Si Si2 0.501233 0.276956 0.824338
Si Si3 0.347824 0.215811 0.259964
Si Si4 0.901685 0.688746 0.553806
Si Si5 0.936398 0.802950 0.958138
Si Si6 0.289112 0.031715 0.611389
Si Si7 0.010790 0.718829 0.183603
O O1 0.367151 0.011025 0.291843
O O2 0.478543 0.695261 0.323251
O O3 0.578197 0.835192 0.414750
O O4 0.747154 0.138075 0.022725
O O5 0.686418 0.498016 0.690130
O O6 0.500000 0.000000 0.000000
O O7 0.291728 0.265746 0.952376
O O8 0.146605 0.245173 0.350262
O O9 0.393333 0.121243 0.409885
O O10 0.500000 0.500000 0.000000
O O11 0.934478 0.948259 0.333637
O O12 0.026112 0.530776 0.592223
O O13 0.015149 0.068479 0.856874
O O14 0.130118 0.747407 0.872431
O O15 0.878213 0.613250 0.192288
#
# Coordination Sequence:
#
# PCOD9040285 Si02
#       7
#     2   2   2   2   2   2   2
#     4  10  17  33  56  79 112 141 187 217 269 324
#     4  11  19  35  57  85 106 149 173 228 277 326
#     4  10  18  34  55  83 104 148 185 227 252 337
#     4  10  20  33  55  86 107 135 192 217 277 309
#     4   9  18  32  55  78 113 138 185 218 274 322
#     4   9  21  32  54  86 105 145 184 229 260 321
#     4   9  16  32  52  79 102 152 172 218 262 335
#
# _framework density 28.707146999999999
#
# number of rings (size 3 to 8) (size 9 to 14) (size 15 to 20)
#    0.857    1.429    4.286    1.286    0.000    1.143 
#    0.000    0.000    0.000    6.857    0.000    0.000 
#    0.000    0.000    0.000    0.000    0.000    0.000 
#
# Total GULP energy -77963.907323 kJ/mol
# GULP energy per Si atom -5568.850523 kJ/mol
# Density = 2.864181 g / cm^3
# Si number density = 28.707147 Si / 1000 Ang^3
#
#
#
# Elastic Constant Matrix: (Units=GPa)
#
#
# Indices 1 2 3 4 5 6 
#
# 1 102.3088 18.7062 35.4182 -4.9645 -8.6469 10.8443
# 2 18.7062 103.8683 35.1503 4.4388 -14.8423 8.3088
# 3 35.4182 35.1503 137.6916 37.6079 3.5255 13.7834
# 4 -4.9645 4.4388 37.6079 38.1672 -5.0851 -7.5398
# 5 -8.6469 -14.8423 3.5255 -5.0851 57.2983 -3.8519
# 6 10.8443 8.3088 13.7834 -7.5398 -3.8519 40.2401
#
#
#
# Elastic Compliance Matrix: (Units=1/GPa)
#
#
# Indices 1 2 3 4 5 6 
#
# 1 0.012120 -0.000426 -0.004962 0.006879 0.002639 0.000063
# 2 -0.000426 0.011271 -0.003505 0.002477 0.003275 -0.000234
# 3 -0.004962 -0.003505 0.014756 -0.016668 -0.004484 -0.006546
# 4 0.006879 0.002477 -0.016668 0.046799 0.007723 0.012852
# 5 0.002639 0.003275 -0.004484 0.007723 0.019896 0.003500
# 6 0.000063 -0.000234 -0.006546 0.012852 0.003500 0.029868
#
#
# Mechanical properties :
#
#
# Convention : Reuss Voigt Hill
#
# Bulk Modulus (GPa) = 49.10793 58.04645 53.57719
# Shear Modulus (GPa) = 31.39081 44.11404 37.75242
#
# Velocity S-wave (km/s) = 3.31037 3.92432 3.63035
# Velocity P-wave (km/s) = 5.63517 6.38732 6.02299
#
# Compressibility (1/GPa) = 0.02036331
#
# Stress axis : x y z
#
# Youngs Moduli (GPa) = 82.50838 88.72149 67.76713
#
# Poissons Ratio (x) = 0.03776 0.33623
# Poissons Ratio (y) = 0.03511 0.23752
# Poissons Ratio (z) = 0.40937 0.31096
#
# Static dielectric constant tensor:
#      x y z
#    x 2.723740 -0.391840 0.134840 
#    y -0.391840 2.451900 -0.106310 
#    z 0.134840 -0.106310 2.376400 
# 
# From -- ./inp_files/388997.got.cif
#   From: 2010.05.17/outbox.cif.g08.bks.cpg/sg2_195_cif.got.tgz:388997.got - 2010.06.03 11:33:40.
