data_PCOD9040698
_publ_section_title
;
Structure prediction by ZEFSAII (Michael W. Deem and Ramdas Pophale) SiO2 
 PCOD9040698
Probable space group: P -1
;
_chemical_formula_sum "Si O2"
_cell_formula_units_Z 16
_cell_length_a 5.132058
_cell_length_b 11.883119
_cell_length_c 11.975896
_cell_angle_alpha 97.874340
_cell_angle_beta 88.228317
_cell_angle_gamma 113.002018
_cell_volume 665.735205
_symmetry_space_group_name_H-M "P -1"
_symmetry_group_IT_number 2
_symmetry_cell_setting 'triclinic'
loop_
_space_group_symop_operation_xyz
x,y,z
-x,-y,-z
loop_
_atom_site_type_symbol
_atom_site_label
_atom_site_fract_x
_atom_site_fract_y
_atom_site_fract_z
Si Si1 0.832159 0.924555 0.096083
Si Si2 0.113453 0.913812 0.558330
Si Si3 0.171938 0.522379 0.642814
Si Si4 0.403468 0.839969 0.355437
Si Si5 0.259404 0.695842 0.858779
Si Si6 0.199945 0.779847 0.103096
Si Si7 0.122169 0.171263 0.229923
Si Si8 0.460690 0.631387 0.442940
O O1 0.501068 0.892400 0.085847
O O2 0.921683 0.809598 0.095722
O O3 0.980119 0.022850 0.202593
O O4 0.000000 0.000000 0.000000
O O5 0.194102 0.833877 0.456757
O O6 0.901303 0.820286 0.635977
O O7 0.397460 0.013699 0.628746
O O8 0.000000 0.000000 0.500000
O O9 0.209242 0.570636 0.775496
O O10 0.350267 0.634361 0.571654
O O11 0.312448 0.427926 0.591684
O O12 0.838523 0.464280 0.617363
O O13 0.253933 0.775753 0.234038
O O14 0.561658 0.757392 0.389969
O O15 0.580692 0.780566 0.830991
O O16 0.063802 0.762265 0.817579
O O17 0.202603 0.686334 0.991598
#
# Coordination Sequence:
#
# PCOD9040698 Si02
#       8
#     2   2   2   2   2   2   2   2
#     4  12  21  38  57  90 131 176 216 245 306 373
#     4  11  26  41  62  96 136 170 214 258 305 401
#     4  10  23  43  68  93 119 156 223 277 313 372
#     4  11  26  42  64  95 133 176 208 255 330 384
#     4  12  24  41  66  99 126 169 217 269 315 365
#     4  12  24  40  61  93 136 172 210 259 309 391
#     4  12  24  38  66  92 133 171 212 262 313 372
#     4  10  23  44  68  90 122 165 209 271 327 371
#
# _framework density 24.033583
#
# number of rings (size 3 to 8) (size 9 to 14) (size 15 to 20)
#    0.000    0.750    3.750    3.375    7.000    1.000 
#    0.000    1.250    0.000    0.000    0.000    0.000 
#    0.000    0.000    0.000    0.000    0.000    0.000 
#
# Total GULP energy -89335.690970 kJ/mol
# GULP energy per Si atom -5583.480686 kJ/mol
# Density = 2.397888 g / cm^3
# Si number density = 24.033583 Si / 1000 Ang^3
#
#
#
# Elastic Constant Matrix: (Units=GPa)
#
#
# Indices 1 2 3 4 5 6 
#
# 1 98.9875 18.4860 10.5857 4.1247 -0.8845 -8.3513
# 2 18.4860 35.2456 19.2853 4.5229 -1.5112 0.8371
# 3 10.5857 19.2853 169.7159 5.3509 -19.0592 -4.5663
# 4 4.1247 4.5229 5.3509 29.2567 -3.4811 11.8630
# 5 -0.8845 -1.5112 -19.0592 -3.4811 32.3161 5.3387
# 6 -8.3513 0.8371 -4.5663 11.8630 5.3387 40.0365
#
#
#
# Elastic Compliance Matrix: (Units=1/GPa)
#
#
# Indices 1 2 3 4 5 6 
#
# 1 0.011562 -0.005913 0.000026 -0.002129 -0.000714 0.003264
# 2 -0.005913 0.033808 -0.003490 -0.003346 -0.000795 -0.001241
# 3 0.000026 -0.003490 0.006727 -0.000456 0.003675 0.000491
# 4 -0.002129 -0.003346 -0.000456 0.041286 0.006191 -0.013485
# 5 -0.000714 -0.000795 0.003675 0.006191 0.034743 -0.006180
# 6 0.003264 -0.001241 0.000491 -0.013485 -0.006180 0.030560
#
#
# Mechanical properties :
#
#
# Convention : Reuss Voigt Hill
#
# Bulk Modulus (GPa) = 29.99185 44.51812 37.25498
# Shear Modulus (GPa) = 26.51763 37.36132 31.93948
#
# Velocity S-wave (km/s) = 3.32529 3.94705 3.64943
# Velocity P-wave (km/s) = 5.22012 6.27183 5.76998
#
# Compressibility (1/GPa) = 0.03334239
#
# Stress axis : x y z
#
# Youngs Moduli (GPa) = 86.49387 29.57886 148.64428
#
# Poissons Ratio (x) = 0.17489 -0.00380
# Poissons Ratio (y) = 0.51142 0.51877
# Poissons Ratio (z) = -0.00221 0.10323
#
# Static dielectric constant tensor:
#      x y z
#    x 2.196290 -0.395000 0.023040 
#    y -0.395000 2.581950 0.007420 
#    z 0.023040 0.007420 2.271500 
# 
# From -- ./inp_files/364783.got.cif
#   From: 2010.05.17/outbox.cif.g08.bks.cpg/sg2_183_cif.got.tgz:364783.got - 2010.06.03 11:33:40.
