data_PCOD9040409
_publ_section_title
;
Structure prediction by ZEFSAII (Michael W. Deem and Ramdas Pophale) SiO2 
 PCOD9040409
Probable space group: P -1
;
_chemical_formula_sum "Si O2"
_cell_formula_units_Z 16
_cell_length_a 9.578475
_cell_length_b 20.624459
_cell_length_c 8.765035
_cell_angle_alpha 126.527531
_cell_angle_beta 103.302088
_cell_angle_gamma 120.245513
_cell_volume 776.500878
_symmetry_space_group_name_H-M "P -1"
_symmetry_group_IT_number 2
_symmetry_cell_setting 'triclinic'
loop_
_space_group_symop_operation_xyz
x,y,z
-x,-y,-z
loop_
_atom_site_type_symbol
_atom_site_label
_atom_site_fract_x
_atom_site_fract_y
_atom_site_fract_z
Si Si1 0.888315 0.537153 0.007954
Si Si2 0.133206 0.377453 0.200414
Si Si3 0.580644 0.130192 0.716630
Si Si4 0.251181 0.098355 0.791484
Si Si5 0.828611 0.069120 0.223326
Si Si6 0.346904 0.849424 0.581063
Si Si7 0.607232 0.640660 0.215460
Si Si8 0.606666 0.660459 0.884599
O O1 0.101624 0.689990 0.359036
O O2 0.856320 0.563447 0.868795
O O3 0.611952 0.410384 0.831476
O O4 0.000000 0.500000 0.000000
O O5 0.345397 0.502010 0.544720
O O6 0.185464 0.308424 0.072648
O O7 0.859489 0.260284 0.035906
O O8 0.413938 0.113323 0.748770
O O9 0.603733 0.164557 0.592636
O O10 0.500000 0.000000 0.500000
O O11 0.184250 0.021783 0.822114
O O12 0.373790 0.242169 0.045750
O O13 0.000000 0.000000 0.500000
O O14 0.746526 0.100999 0.367957
O O15 0.111840 0.219412 0.452455
O O16 0.607277 0.967045 0.901052
O O17 0.500000 0.500000 0.000000
O O18 0.626412 0.674555 0.091105
#
# Coordination Sequence:
#
# PCOD9040409 Si02
#       8
#     2   2   2   2   2   2   2   2
#     4  11  25  43  65  93 134 171 212 272 328 384
#     4  10  24  45  65  95 131 169 219 267 330 387
#     4  11  22  42  67  95 130 172 213 264 328 387
#     4  12  25  42  67  93 135 173 217 271 320 387
#     4  11  23  43  66 100 130 171 219 268 327 387
#     4  10  23  43  66  96 132 169 217 269 327 388
#     4  12  22  43  67  95 129 173 217 263 328 394
#     4  11  24  43  67  97 131 170 218 270 327 385
#
# _framework density 20.605257999999999
#
# number of rings (size 3 to 8) (size 9 to 14) (size 15 to 20)
#    0.000    1.000    5.000    1.500    5.250    2.500 
#    2.250    1.250    0.000    0.000    0.000    0.000 
#    0.000    0.000    0.000    0.000    0.000    0.000 
#
# Total GULP energy -89338.022894 kJ/mol
# GULP energy per Si atom -5583.626431 kJ/mol
# Density = 2.055836 g / cm^3
# Si number density = 20.605258 Si / 1000 Ang^3
#
#
#
# Elastic Constant Matrix: (Units=GPa)
#
#
# Indices 1 2 3 4 5 6 
#
# 1 123.4338 22.8293 23.3334 14.0857 25.5924 -5.8199
# 2 22.8293 36.8361 9.8736 21.2485 5.9203 -12.0592
# 3 23.3334 9.8736 99.3039 10.0063 31.2102 5.5756
# 4 14.0857 21.2485 10.0063 22.7586 0.9826 -0.5301
# 5 25.5924 5.9203 31.2102 0.9826 40.8838 14.6328
# 6 -5.8199 -12.0592 5.5756 -0.5301 14.6328 37.8944
#
#
#
# Elastic Compliance Matrix: (Units=1/GPa)
#
#
# Indices 1 2 3 4 5 6 
#
# 1 0.010778 -0.000403 0.000579 -0.006065 -0.008668 0.004704
# 2 -0.000403 0.095209 0.007209 -0.089534 -0.031191 0.039968
# 3 0.000579 0.007209 0.014691 -0.012801 -0.014306 0.005567
# 4 -0.006065 -0.089534 -0.012801 0.134351 0.037700 -0.040219
# 5 -0.008668 -0.031191 -0.014306 0.037700 0.055123 -0.029911
# 6 0.004704 0.039968 0.005567 -0.040219 -0.029911 0.049999
#
#
# Mechanical properties :
#
#
# Convention : Reuss Voigt Hill
#
# Bulk Modulus (GPa) = 7.38290 41.29403 24.33847
# Shear Modulus (GPa) = 12.80314 33.87652 23.33983
#
# Velocity S-wave (km/s) = 2.49540 4.05911 3.36923
# Velocity P-wave (km/s) = 3.44869 6.48480 5.19356
#
# Compressibility (1/GPa) = 0.13544808
#
# Stress axis : x y z
#
# Youngs Moduli (GPa) = 92.78365 10.50319 68.06977
#
# Poissons Ratio (x) = 0.00423 -0.03941
# Poissons Ratio (y) = 0.03739 -0.49073
# Poissons Ratio (z) = -0.05372 -0.07572
#
# Static dielectric constant tensor:
#      x y z
#    x 1.767270 -0.020840 -0.021560 
#    y -0.020840 1.790410 0.039590 
#    z -0.021560 0.039590 1.753870 
# 
# From -- ./inp_files/206814.got.cif
#   From: 2010.05.17/outbox.cif.g08.bks.cpg/sg2_104_cif.got.tgz:206814.got - 2010.06.03 11:33:40.
