data_PCOD9040378
_publ_section_title
;
Structure prediction by ZEFSAII (Michael W. Deem and Ramdas Pophale) SiO2 
 PCOD9040378
Probable space group: P -1
;
_chemical_formula_sum "Si O2"
_cell_formula_units_Z 12
_cell_length_a 8.738348
_cell_length_b 10.025444
_cell_length_c 12.530241
_cell_angle_alpha 146.220923
_cell_angle_beta 122.139771
_cell_angle_gamma 77.063639
_cell_volume 457.871414
_symmetry_space_group_name_H-M "P -1"
_symmetry_group_IT_number 2
_symmetry_cell_setting 'triclinic'
loop_
_space_group_symop_operation_xyz
x,y,z
-x,-y,-z
loop_
_atom_site_type_symbol
_atom_site_label
_atom_site_fract_x
_atom_site_fract_y
_atom_site_fract_z
Si Si1 0.196617 0.488459 0.019861
Si Si2 0.243687 0.016898 0.319841
Si Si3 0.609910 0.468247 0.655390
Si Si4 0.728645 0.696852 0.262743
Si Si5 0.853988 0.047542 0.120249
Si Si6 0.933925 0.441764 0.602358
O O1 0.331664 0.506667 0.181659
O O2 0.281818 0.757931 0.157813
O O3 0.159535 0.231453 0.763763
O O4 0.000000 0.500000 0.000000
O O5 0.380731 0.236307 0.428704
O O6 0.284552 0.112578 0.523041
O O7 0.014711 0.953697 0.164963
O O8 0.762650 0.395102 0.595726
O O9 0.653254 0.768141 0.835375
O O10 0.872091 0.591446 0.307071
O O11 0.500000 0.500000 0.000000
O O12 0.831544 0.233717 0.328047
O O13 0.963940 0.252551 0.201354
#
# Coordination Sequence:
#
# PCOD9040378 Si02
#       6
#     2   2   2   2   2   2
#     4  12  23  42  64  97 128 165 210 260 318 375
#     4  11  25  41  66  97 128 164 212 260 313 380
#     4  12  23  40  68  95 127 169 208 261 317 372
#     4  11  23  40  65  93 127 165 207 261 315 371
#     4  10  23  45  64  92 130 167 213 257 314 373
#     4  10  23  43  66  91 129 170 209 263 311 372
#
# _framework density 26.208231000000001
#
# number of rings (size 3 to 8) (size 9 to 14) (size 15 to 20)
#    0.000    1.000    5.000    1.000    0.000    4.000 
#    0.000    7.500    0.000    0.000    0.000    0.000 
#    0.000    0.000    0.000    0.000    0.000    0.000 
#
# Total GULP energy -67091.130843 kJ/mol
# GULP energy per Si atom -5590.927570 kJ/mol
# Density = 2.614858 g / cm^3
# Si number density = 26.208231 Si / 1000 Ang^3
#
#
#
# Elastic Constant Matrix: (Units=GPa)
#
#
# Indices 1 2 3 4 5 6 
#
# 1 115.6862 3.8584 62.0951 14.6392 -11.1167 20.2231
# 2 3.8584 73.2509 12.3700 8.7536 4.8582 7.5352
# 3 62.0951 12.3700 103.0733 12.7162 -12.4980 16.5160
# 4 14.6392 8.7536 12.7162 48.2021 13.3352 0.5414
# 5 -11.1167 4.8582 -12.4980 13.3352 49.1868 -5.5087
# 6 20.2231 7.5352 16.5160 0.5414 -5.5087 45.4157
#
#
#
# Elastic Compliance Matrix: (Units=1/GPa)
#
#
# Indices 1 2 3 4 5 6 
#
# 1 0.013586 0.001090 -0.007248 -0.002789 0.001499 -0.003380
# 2 0.001090 0.014497 -0.001939 -0.002043 -0.001385 -0.002329
# 3 -0.007248 -0.001939 0.015174 -0.002215 0.002830 -0.001599
# 4 -0.002789 -0.002043 -0.002215 0.024619 -0.007534 0.001179
# 5 0.001499 -0.001385 0.002830 -0.007534 0.023736 0.001502
# 6 -0.003380 -0.002329 -0.001599 0.001179 0.001502 0.024660
#
#
# Mechanical properties :
#
#
# Convention : Reuss Voigt Hill
#
# Bulk Modulus (GPa) = 36.95213 49.85084 43.40148
# Shear Modulus (GPa) = 35.33880 42.80671 39.07276
#
# Velocity S-wave (km/s) = 3.67602 4.04583 3.86535
# Velocity P-wave (km/s) = 5.66988 6.39432 6.04297
#
# Compressibility (1/GPa) = 0.02706204
#
# Stress axis : x y z
#
# Youngs Moduli (GPa) = 73.60588 68.97808 65.90327
#
# Poissons Ratio (x) = -0.07518 0.47768
# Poissons Ratio (y) = -0.08022 0.12780
# Poissons Ratio (z) = 0.53351 0.13376
#
# Static dielectric constant tensor:
#      x y z
#    x 2.133890 0.091280 0.052690 
#    y 0.091280 2.037800 0.018360 
#    z 0.052690 0.018360 2.142660 
# 
# From -- ./inp_files/168623.got.cif
#   From: 2010.05.17/outbox.cif.g08.bks.cpg/sg2_85_cif.got.tgz:168623.got - 2010.06.03 11:33:40.
