data_PCOD9040234
_publ_section_title
;
Structure prediction by ZEFSAII (Michael W. Deem and Ramdas Pophale) SiO2 
 PCOD9040234
Probable space group: P -1
;
_chemical_formula_sum "Si O2"
_cell_formula_units_Z 13
_cell_length_a 11.103918
_cell_length_b 9.624692
_cell_length_c 9.002731
_cell_angle_alpha 39.443566
_cell_angle_beta 108.280333
_cell_angle_gamma 120.401239
_cell_volume 521.967115
_symmetry_space_group_name_H-M "P -1"
_symmetry_group_IT_number 2
_symmetry_cell_setting 'triclinic'
loop_
_space_group_symop_operation_xyz
x,y,z
-x,-y,-z
loop_
_atom_site_type_symbol
_atom_site_label
_atom_site_fract_x
_atom_site_fract_y
_atom_site_fract_z
Si Si1 0.704661 0.592422 0.875728
Si Si2 0.000000 0.500000 0.500000
Si Si3 0.452565 0.936606 0.865123
Si Si4 0.102826 0.603883 0.722477
Si Si5 0.300254 0.022238 0.234707
Si Si6 0.866214 0.850654 0.171216
Si Si7 0.827666 0.995948 0.357613
O O1 0.647544 0.758532 0.807386
O O2 0.805526 0.779636 0.639619
O O3 0.599486 0.350168 0.951842
O O4 0.791314 0.502530 0.095822
O O5 0.028571 0.584774 0.260823
O O6 0.873695 0.595493 0.385290
O O7 0.581257 0.060236 0.697246
O O8 0.324448 0.002989 0.726104
O O9 0.500000 0.000000 0.000000
O O10 0.163174 0.799386 0.442213
O O11 0.084354 0.752272 0.729601
O O12 0.258594 0.124614 0.986869
O O13 0.881054 0.948570 0.262400
O O14 0.000000 0.000000 0.000000
#
# Coordination Sequence:
#
# PCOD9040234 Si02
#       7
#     2   1   2   2   2   2   2
#     4  10  23  43  65 101 138 172 218 271 334 397
#     4  12  24  42  70  98 122 186 226 268 330 390
#     4  11  23  41  71 102 134 174 218 275 328 398
#     4  10  23  43  70  98 136 174 226 274 327 397
#     4  11  22  43  69  98 135 176 222 268 332 394
#     4  12  25  45  70  96 132 176 225 280 330 389
#     4  10  25  46  67 102 136 173 218 277 337 391
#
# _framework density 24.905783
#
# number of rings (size 3 to 8) (size 9 to 14) (size 15 to 20)
#    0.000    1.231    4.615    0.462    0.000   11.692 
#    0.000    1.538    0.000    0.000    0.000    0.000 
#    0.000    0.000    0.000    0.000    0.000    0.000 
#
# Total GULP energy -72542.515454 kJ/mol
# GULP energy per Si atom -5580.193496 kJ/mol
# Density = 2.484910 g / cm^3
# Si number density = 24.905783 Si / 1000 Ang^3
#
#
#
# Elastic Constant Matrix: (Units=GPa)
#
#
# Indices 1 2 3 4 5 6 
#
# 1 112.4157 35.0155 32.0454 8.7570 17.0868 -31.7057
# 2 35.0155 162.1614 59.0257 31.9820 4.7779 -40.2934
# 3 32.0454 59.0257 111.0276 13.5260 9.7246 -9.5479
# 4 8.7570 31.9820 13.5260 46.9339 2.8898 -3.7537
# 5 17.0868 4.7779 9.7246 2.8898 34.4961 5.7125
# 6 -31.7057 -40.2934 -9.5479 -3.7537 5.7125 42.8153
#
#
#
# Elastic Compliance Matrix: (Units=1/GPa)
#
#
# Indices 1 2 3 4 5 6 
#
# 1 0.014054 0.001596 -0.002963 -0.001369 -0.008258 0.012231
# 2 0.001596 0.011366 -0.004690 -0.005697 -0.002328 0.010644
# 3 -0.002963 -0.004690 0.012084 0.000001 -0.000656 -0.003826
# 4 -0.001369 -0.005697 0.000001 0.025106 0.000056 -0.004182
# 5 -0.008258 -0.002328 -0.000656 0.000056 0.035771 -0.013220
# 6 0.012231 0.010644 -0.003826 -0.004182 -0.013220 0.042974
#
#
# Mechanical properties :
#
#
# Convention : Reuss Voigt Hill
#
# Bulk Modulus (GPa) = 39.38494 70.86422 55.12458
# Shear Modulus (GPa) = 30.87700 42.15026 36.51363
#
# Velocity S-wave (km/s) = 3.52483 4.11833 3.83308
# Velocity P-wave (km/s) = 5.69331 7.15044 6.46307
#
# Compressibility (1/GPa) = 0.02539042
#
# Stress axis : x y z
#
# Youngs Moduli (GPa) = 71.15167 87.98147 82.75610
#
# Poissons Ratio (x) = -0.14044 0.24522
# Poissons Ratio (y) = -0.11358 0.38813
# Poissons Ratio (z) = 0.21084 0.41263
#
# Static dielectric constant tensor:
#      x y z
#    x 1.989510 -0.136220 0.057020 
#    y -0.136220 1.413010 0.073340 
#    z 0.057020 0.073340 2.000630 
# 
# From -- ./inp_files/24032.got.cif
#   From: 2010.05.17/outbox.cif.g08.bks.cpg/sg2_13_cif.got.tgz:24032.got - 2010.06.03 11:33:40.
