data_PCOD9040208
_publ_section_title
;
Structure prediction by ZEFSAII (Michael W. Deem and Ramdas Pophale) SiO2 
 PCOD9040208
Probable space group: P -1
;
_chemical_formula_sum "Si O2"
_cell_formula_units_Z 16
_cell_length_a 16.459296
_cell_length_b 13.259098
_cell_length_c 8.752200
_cell_angle_alpha 83.662886
_cell_angle_beta 71.068349
_cell_angle_gamma 26.404044
_cell_volume 725.972490
_symmetry_space_group_name_H-M "P -1"
_symmetry_group_IT_number 2
_symmetry_cell_setting 'triclinic'
loop_
_space_group_symop_operation_xyz
x,y,z
-x,-y,-z
loop_
_atom_site_type_symbol
_atom_site_label
_atom_site_fract_x
_atom_site_fract_y
_atom_site_fract_z
Si Si1 0.456342 0.672849 0.127153
Si Si2 0.198498 0.143879 0.327243
Si Si3 0.205419 0.523384 0.576231
Si Si4 0.785251 0.783328 0.025320
Si Si5 0.519024 0.919183 0.344641
Si Si6 0.962760 0.992951 0.690685
Si Si7 0.315284 0.706434 0.710751
Si Si8 0.581354 0.201145 0.195539
O O1 0.629137 0.437493 0.171523
O O2 0.337046 0.892416 0.254531
O O3 0.514866 0.656936 0.930963
O O4 0.282441 0.772252 0.182688
O O5 0.956584 0.368398 0.443603
O O6 0.304211 0.092192 0.406784
O O7 0.212478 0.197672 0.158534
O O8 0.295246 0.363027 0.690053
O O9 0.083181 0.755192 0.666615
O O10 0.400627 0.347482 0.384621
O O11 0.594039 0.916516 0.170891
O O12 0.749998 0.931647 0.098517
O O13 0.000000 0.500000 0.000000
O O14 0.500000 0.000000 0.500000
O O15 0.085601 0.933002 0.741402
O O16 0.000000 0.000000 0.500000
O O17 0.500000 0.500000 0.500000
O O18 0.327098 0.802400 0.768219
#
# Coordination Sequence:
#
# PCOD9040208 Si02
#       8
#     2   2   2   2   2   2   2   2
#     4  10  23  43  64  97 136 171 219 269 326 397
#     4  10  24  42  71  96 129 178 219 268 341 391
#     4  11  22  42  67  97 133 171 224 265 327 394
#     4  11  23  47  68  96 134 176 222 283 327 386
#     4  12  24  43  69  98 134 166 225 281 329 395
#     4  11  22  40  67  98 131 174 215 266 327 398
#     4  12  22  40  72  96 134 177 213 269 338 387
#     4  11  24  42  67 100 136 172 225 274 325 398
#
# _framework density 22.039403
#
# number of rings (size 3 to 8) (size 9 to 14) (size 15 to 20)
#    0.000    1.000    5.000    1.500    0.000    1.000 
#    0.000    1.250    2.750    0.000    0.000    0.000 
#    0.000    0.000    0.000    0.000    0.000    0.000 
#
# Total GULP energy -89566.153705 kJ/mol
# GULP energy per Si atom -5597.884607 kJ/mol
# Density = 2.198924 g / cm^3
# Si number density = 22.039403 Si / 1000 Ang^3
#
#
#
# Elastic Constant Matrix: (Units=GPa)
#
#
# Indices 1 2 3 4 5 6 
#
# 1 134.5297 42.1704 27.2058 -24.8632 7.9749 -21.4266
# 2 42.1704 97.4664 9.5389 -24.4497 6.6616 7.1184
# 3 27.2058 9.5389 53.8126 -17.1456 -5.5770 0.9213
# 4 -24.8632 -24.4497 -17.1456 23.9553 4.7613 -1.4923
# 5 7.9749 6.6616 -5.5770 4.7613 33.6295 -4.3902
# 6 -21.4266 7.1184 0.9213 -1.4923 -4.3902 44.6649
#
#
#
# Elastic Compliance Matrix: (Units=1/GPa)
#
#
# Indices 1 2 3 4 5 6 
#
# 1 0.011595 -0.003050 -0.003345 0.007496 -0.002968 0.006076
# 2 -0.003050 0.015931 0.003485 0.016271 -0.004679 -0.003990
# 3 -0.003345 0.003485 0.025572 0.017961 0.001548 -0.001935
# 4 0.007496 0.016271 0.017961 0.081763 -0.013330 0.002054
# 5 -0.002968 -0.004679 0.001548 -0.013330 0.033793 0.002166
# 6 0.006076 -0.003990 -0.001935 0.002054 0.002166 0.026261
#
#
# Mechanical properties :
#
#
# Convention : Reuss Voigt Hill
#
# Bulk Modulus (GPa) = 21.15059 49.29321 35.22190
# Shear Modulus (GPa) = 23.09538 34.24286 28.66912
#
# Velocity S-wave (km/s) = 3.24066 3.94599 3.61059
# Velocity P-wave (km/s) = 4.86005 6.57082 5.77909
#
# Compressibility (1/GPa) = 0.04728001
#
# Stress axis : x y z
#
# Youngs Moduli (GPa) = 86.24596 62.77020 39.10501
#
# Poissons Ratio (x) = 0.19144 0.13079
# Poissons Ratio (y) = 0.26303 -0.13629
# Poissons Ratio (z) = 0.28846 -0.21878
#
# Static dielectric constant tensor:
#      x y z
#    x 1.805420 0.011580 0.005930 
#    y 0.011580 1.835890 0.016120 
#    z 0.005930 0.016120 1.815140 
# 
# From -- ./inp_files/202257.got.cif
#   From: 2010.05.17/outbox.cif.g08.bks.cpg/sg2_102_cif.got.tgz:202257.got - 2010.06.03 11:33:40.
