data_PCOD9040232
_publ_section_title
;
Structure prediction by ZEFSAII (Michael W. Deem and Ramdas Pophale) SiO2 
 PCOD9040232
Probable space group: P -1
;
_chemical_formula_sum "Si O2"
_cell_formula_units_Z 16
_cell_length_a 10.697794
_cell_length_b 7.853992
_cell_length_c 12.171066
_cell_angle_alpha 128.955472
_cell_angle_beta 74.997715
_cell_angle_gamma 113.342456
_cell_volume 730.068519
_symmetry_space_group_name_H-M "P -1"
_symmetry_group_IT_number 2
_symmetry_cell_setting 'triclinic'
loop_
_space_group_symop_operation_xyz
x,y,z
-x,-y,-z
loop_
_atom_site_type_symbol
_atom_site_label
_atom_site_fract_x
_atom_site_fract_y
_atom_site_fract_z
Si Si1 0.183901 0.047017 0.742774
Si Si2 0.086399 0.422819 0.040229
Si Si3 0.853595 0.347642 0.230098
Si Si4 0.731959 0.209560 0.702498
Si Si5 0.466520 0.229497 0.413608
Si Si6 0.565958 0.218422 0.150821
Si Si7 0.518114 0.700548 0.316515
Si Si8 0.024802 0.696657 0.481701
O O1 0.329276 0.155300 0.695395
O O2 0.186949 0.843051 0.742499
O O3 0.063570 0.936016 0.636278
O O4 0.149237 0.239270 0.900571
O O5 0.201459 0.645974 0.148910
O O6 0.983632 0.324871 0.125226
O O7 0.000000 0.500000 0.000000
O O8 0.729914 0.312862 0.159522
O O9 0.902796 0.596820 0.381493
O O10 0.594696 0.266567 0.726319
O O11 0.838842 0.284423 0.609911
O O12 0.688695 0.935064 0.617095
O O13 0.500000 0.500000 0.500000
O O14 0.526338 0.151013 0.259418
O O15 0.515643 0.218559 0.522373
O O16 0.514212 0.433800 0.217684
O O17 0.500000 0.000000 0.000000
O O18 0.000000 0.500000 0.500000
#
# Coordination Sequence:
#
# PCOD9040232 Si02
#       8
#     2   2   2   2   2   2   2   2
#     4  11  22  43  72  98 132 176 233 279 346 404
#     4  11  26  45  65  97 140 180 227 283 341 414
#     4  10  23  45  66  98 137 176 232 278 341 409
#     4  11  23  43  71 100 137 177 232 280 349 404
#     4  10  23  43  65 101 136 176 221 283 339 400
#     4  11  26  44  67 102 143 178 223 283 343 406
#     4  11  24  42  71 102 134 178 225 284 346 406
#     4   9  21  41  69  99 129 176 225 284 329 405
#
# _framework density 21.915751
#
# number of rings (size 3 to 8) (size 9 to 14) (size 15 to 20)
#    0.000    1.500    1.250    2.250    8.750    0.500 
#    4.500    1.875    0.000    0.000    0.000    0.000 
#    0.000    0.000    0.000    0.000    0.000    0.000 
#
# Total GULP energy -89374.022257 kJ/mol
# GULP energy per Si atom -5585.876391 kJ/mol
# Density = 2.186587 g / cm^3
# Si number density = 21.915751 Si / 1000 Ang^3
#
#
#
# Elastic Constant Matrix: (Units=GPa)
#
#
# Indices 1 2 3 4 5 6 
#
# 1 75.7006 34.3755 57.8112 14.6669 23.0125 8.8872
# 2 34.3755 125.7917 49.2842 6.6236 4.9429 13.1975
# 3 57.8112 49.2842 185.1785 21.3205 27.3631 10.1669
# 4 14.6669 6.6236 21.3205 36.5914 12.0942 0.9324
# 5 23.0125 4.9429 27.3631 12.0942 38.8813 1.5957
# 6 8.8872 13.1975 10.1669 0.9324 1.5957 28.4335
#
#
#
# Elastic Compliance Matrix: (Units=1/GPa)
#
#
# Indices 1 2 3 4 5 6 
#
# 1 0.021259 -0.003449 -0.004003 -0.002726 -0.008354 -0.003054
# 2 -0.003449 0.009778 -0.001669 -0.000035 0.002106 -0.002981
# 3 -0.004003 -0.001669 0.007660 -0.001808 -0.002225 -0.000529
# 4 -0.002726 -0.000035 -0.001808 0.031783 -0.007032 0.000867
# 5 -0.008354 0.002106 -0.002225 -0.007032 0.034119 0.000745
# 6 -0.003054 -0.002981 -0.000529 0.000867 0.000745 0.037627
#
#
# Mechanical properties :
#
#
# Convention : Reuss Voigt Hill
#
# Bulk Modulus (GPa) = 48.88794 74.40140 61.64467
# Shear Modulus (GPa) = 29.88874 37.12791 33.50832
#
# Velocity S-wave (km/s) = 3.69698 4.12043 3.91443
# Velocity P-wave (km/s) = 6.37018 7.52727 6.97277
#
# Compressibility (1/GPa) = 0.02045494
#
# Stress axis : x y z
#
# Youngs Moduli (GPa) = 47.03794 102.27112 130.54526
#
# Poissons Ratio (x) = 0.35273 0.52259
# Poissons Ratio (y) = 0.16223 0.21790
# Poissons Ratio (z) = 0.18830 0.17070
#
# Static dielectric constant tensor:
#      x y z
#    x 1.732040 -0.043090 -0.028050 
#    y -0.043090 1.822440 -0.000340 
#    z -0.028050 -0.000340 1.806600 
# 
# From -- ./inp_files/420008.got.cif
#   From: 2010.05.17/outbox.cif.g08.bks.cpg/sg2_211_cif.got.tgz:420008.got - 2010.06.03 11:33:40.
