data_PCOD9040075
_publ_section_title
;
Structure prediction by ZEFSAII (Michael W. Deem and Ramdas Pophale) SiO2 
 PCOD9040075
Probable space group: P -1
;
_chemical_formula_sum "Si O2"
_cell_formula_units_Z 14
_cell_length_a 9.245932
_cell_length_b 11.218243
_cell_length_c 17.180365
_cell_angle_alpha 28.375883
_cell_angle_beta 108.670803
_cell_angle_gamma 127.306814
_cell_volume 556.351051
_symmetry_space_group_name_H-M "P -1"
_symmetry_group_IT_number 2
_symmetry_cell_setting 'triclinic'
loop_
_space_group_symop_operation_xyz
x,y,z
-x,-y,-z
loop_
_atom_site_type_symbol
_atom_site_label
_atom_site_fract_x
_atom_site_fract_y
_atom_site_fract_z
Si Si1 0.633818 0.591739 0.549436
Si Si2 0.422272 0.652983 0.722783
Si Si3 0.441519 0.582841 0.021541
Si Si4 0.858059 0.515191 0.412371
Si Si5 0.767446 0.920354 0.114768
Si Si6 0.847496 0.332981 0.750138
Si Si7 0.335017 0.824793 0.752095
O O1 0.500000 0.500000 0.500000
O O2 0.448017 0.273852 0.760138
O O3 0.809497 0.578743 0.583480
O O4 0.740375 0.979035 0.374107
O O5 0.306320 0.348685 0.813719
O O6 0.500000 0.000000 0.500000
O O7 0.272828 0.569270 0.817213
O O8 0.613683 0.701613 0.764062
O O9 0.649167 0.959840 0.882714
O O10 0.292266 0.632203 0.936431
O O11 0.500000 0.500000 0.000000
O O12 0.894625 0.860854 0.224023
O O13 0.602120 0.170055 0.588545
O O14 0.000000 0.500000 0.500000
O O15 0.937642 0.521776 0.337344
O O16 0.841038 0.249699 0.888224
#
# Coordination Sequence:
#
# PCOD9040075 Si02
#       7
#     2   2   2   2   2   2   2
#     4  11  19  32  53  75 113 139 170 215 259 324
#     4  10  17  33  56  75 104 131 184 222 250 289
#     4   9  18  30  50  75 103 134 170 217 243 303
#     4  11  19  32  53  75 113 139 170 215 259 324
#     4  10  22  35  54  79 106 138 180 221 255 309
#     4  11  20  33  50  84 108 137 171 215 273 301
#     4  10  19  35  53  83 104 138 176 209 263 305
#
# _framework density 25.163968000000001
#
# number of rings (size 3 to 8) (size 9 to 14) (size 15 to 20)
#    0.000    1.714    5.714    1.714    0.000    0.000 
#    0.000    0.000    0.000    3.429    0.000   37.000 
#    0.000    0.000    0.000    0.000    0.000    0.000 
#
# Total GULP energy -78130.958485 kJ/mol
# GULP energy per Si atom -5580.782749 kJ/mol
# Density = 2.510669 g / cm^3
# Si number density = 25.163968 Si / 1000 Ang^3
#
#
#
# Elastic Constant Matrix: (Units=GPa)
#
#
# Indices 1 2 3 4 5 6 
#
# 1 97.1025 -1.2213 12.6892 5.8341 25.2318 2.7423
# 2 -1.2213 66.2208 7.7299 8.5669 -10.1843 -0.4387
# 3 12.6892 7.7299 117.8519 30.2979 18.4666 11.4487
# 4 5.8341 8.5669 30.2979 50.2545 2.6574 6.9975
# 5 25.2318 -10.1843 18.4666 2.6574 24.9261 4.8725
# 6 2.7423 -0.4387 11.4487 6.9975 4.8725 26.7370
#
#
#
# Elastic Compliance Matrix: (Units=1/GPa)
#
#
# Indices 1 2 3 4 5 6 
#
# 1 0.014493 -0.002288 0.001474 -0.001473 -0.016793 0.001291
# 2 -0.002288 0.017281 -0.002120 -0.001980 0.011177 -0.000092
# 3 0.001474 -0.002120 0.011800 -0.006141 -0.010096 -0.001792
# 4 -0.001473 -0.001980 -0.006141 0.024525 0.003457 -0.004301
# 5 -0.016793 0.011177 -0.010096 0.003457 0.070257 -0.007479
# 6 0.001291 -0.000092 -0.001792 -0.004301 -0.007479 0.040523
#
#
# Mechanical properties :
#
#
# Convention : Reuss Voigt Hill
#
# Bulk Modulus (GPa) = 26.52193 35.50787 31.01490
# Shear Modulus (GPa) = 25.33998 37.84869 31.59433
#
# Velocity S-wave (km/s) = 3.17676 3.88246 3.54720
# Velocity P-wave (km/s) = 4.90084 5.85143 5.39710
#
# Compressibility (1/GPa) = 0.03770464
#
# Stress axis : x y z
#
# Youngs Moduli (GPa) = 69.00095 57.86761 84.74384
#
# Poissons Ratio (x) = 0.13242 -0.12494
# Poissons Ratio (y) = 0.15790 0.17969
# Poissons Ratio (z) = -0.10173 0.12270
#
# Static dielectric constant tensor:
#      x y z
#    x 1.985160 0.031170 0.021760 
#    y 0.031170 2.115270 0.028240 
#    z 0.021760 0.028240 2.130420 
# 
# From -- ./inp_files/276494.got.cif
#   From: 2010.05.17/outbox.cif.g08.bks.cpg/sg2_139_cif.got.tgz:276494.got - 2010.06.03 11:33:40.
