data_PCOD9040560
_publ_section_title
;
Structure prediction by ZEFSAII (Michael W. Deem and Ramdas Pophale) SiO2 
 PCOD9040560
Probable space group: P -1
;
_chemical_formula_sum "Si O2"
_cell_formula_units_Z 16
_cell_length_a 15.924933
_cell_length_b 28.553286
_cell_length_c 8.704517
_cell_angle_alpha 37.146790
_cell_angle_beta 135.100346
_cell_angle_gamma 161.130986
_cell_volume 751.304344
_symmetry_space_group_name_H-M "P -1"
_symmetry_group_IT_number 2
_symmetry_cell_setting 'triclinic'
loop_
_space_group_symop_operation_xyz
x,y,z
-x,-y,-z
loop_
_atom_site_type_symbol
_atom_site_label
_atom_site_fract_x
_atom_site_fract_y
_atom_site_fract_z
Si Si1 0.011088 0.147085 0.151430
Si Si2 0.320272 0.170550 0.426956
Si Si3 0.253739 0.154564 0.038160
Si Si4 0.638206 0.005906 0.592703
Si Si5 0.235231 0.870216 0.906105
Si Si6 0.881449 0.509350 0.391667
Si Si7 0.725477 0.359194 0.920126
Si Si8 0.212477 0.306004 0.689710
O O1 0.936966 0.163656 0.143716
O O2 0.169741 0.157069 0.343671
O O3 0.739332 0.946713 0.259991
O O4 0.168476 0.288055 0.860803
O O5 0.621885 0.371209 0.313040
O O6 0.261004 0.115062 0.315714
O O7 0.524266 0.294368 0.931000
O O8 0.224901 0.223232 0.885065
O O9 0.000000 0.000000 0.000000
O O10 0.667673 0.036499 0.370399
O O11 0.942163 0.178717 0.595538
O O12 0.500000 0.000000 0.500000
O O13 0.452949 0.822631 0.862381
O O14 0.065952 0.692409 0.137122
O O15 0.500000 0.000000 0.000000
O O16 0.800362 0.444305 0.633834
O O17 0.000000 0.500000 0.500000
O O18 0.000000 0.500000 0.000000
O O19 0.500000 0.500000 0.500000
#
# Coordination Sequence:
#
# PCOD9040560 Si02
#       8
#     2   2   2   2   2   2   2   2
#     4  10  23  43  67  96 138 174 223 275 346 401
#     4  10  23  43  70  97 138 177 224 282 344 410
#     4  11  24  45  69 100 136 175 230 278 344 411
#     4  12  26  45  71  98 137 181 228 280 349 401
#     4  12  26  44  69 100 138 179 229 283 338 410
#     4  12  26  44  69  99 138 180 229 282 343 405
#     4  12  26  44  72 100 134 182 234 281 336 412
#     4  11  26  43  68 100 141 176 220 285 342 411
#
# _framework density 21.296298
#
# number of rings (size 3 to 8) (size 9 to 14) (size 15 to 20)
#    0.000    0.750    1.250    5.250   10.500    0.500 
#    0.000    0.000    0.000    0.000    0.000    0.000 
#    0.000    0.000    0.000    0.000    0.000    0.000 
#
# Total GULP energy -89267.537327 kJ/mol
# GULP energy per Si atom -5579.221083 kJ/mol
# Density = 2.124783 g / cm^3
# Si number density = 21.296298 Si / 1000 Ang^3
#
#
#
# Elastic Constant Matrix: (Units=GPa)
#
#
# Indices 1 2 3 4 5 6 
#
# 1 133.8805 14.8726 -1.8389 10.4823 -5.6427 19.2531
# 2 14.8726 100.0535 11.8374 -14.7857 -5.2844 11.1134
# 3 -1.8389 11.8374 71.0881 -13.5223 -5.0215 -8.9207
# 4 10.4823 -14.7857 -13.5223 35.4651 -6.0480 5.2769
# 5 -5.6427 -5.2844 -5.0215 -6.0480 45.5609 -0.4633
# 6 19.2531 11.1134 -8.9207 5.2769 -0.4633 31.3182
#
#
#
# Elastic Compliance Matrix: (Units=1/GPa)
#
#
# Indices 1 2 3 4 5 6 
#
# 1 0.008440 -0.000995 -0.000609 -0.002372 0.000501 -0.004602
# 2 -0.000995 0.011792 -0.001390 0.005717 0.001800 -0.004905
# 3 -0.000609 -0.001390 0.016051 0.005435 0.002300 0.004558
# 4 -0.002372 0.005717 0.005435 0.035023 0.005568 -0.004842
# 5 0.000501 0.001800 0.002300 0.005568 0.023203 -0.000887
# 6 -0.004602 -0.004905 0.004558 -0.004842 -0.000887 0.038601
#
#
# Mechanical properties :
#
#
# Convention : Reuss Voigt Hill
#
# Bulk Modulus (GPa) = 33.01024 39.41825 36.21424
# Shear Modulus (GPa) = 33.51255 41.14557 37.32906
#
# Velocity S-wave (km/s) = 3.97121 4.40028 4.19124
# Velocity P-wave (km/s) = 6.04660 6.66080 6.36112
#
# Compressibility (1/GPa) = 0.03029363
#
# Stress axis : x y z
#
# Youngs Moduli (GPa) = 118.48111 84.80419 62.30144
#
# Poissons Ratio (x) = 0.08441 0.03795
# Poissons Ratio (y) = 0.11793 0.08661
# Poissons Ratio (z) = 0.07217 0.11789
#
# Static dielectric constant tensor:
#      x y z
#    x 1.661850 0.185480 0.132220 
#    y 0.185480 1.385250 -0.247550 
#    z 0.132220 -0.247550 1.537050 
# 
# From -- ./inp_files/320669.got.cif
#   From: 2010.05.17/outbox.cif.g08.bks.cpg/sg2_161_cif.got.tgz:320669.got - 2010.06.03 11:33:40.
