data_PCOD9040882
_publ_section_title
;
Structure prediction by ZEFSAII (Michael W. Deem and Ramdas Pophale) SiO2 
 PCOD9040882
Probable space group: P -1
;
_chemical_formula_sum "Si O2"
_cell_formula_units_Z 14
_cell_length_a 11.636436
_cell_length_b 7.670196
_cell_length_c 10.959559
_cell_angle_alpha 77.814671
_cell_angle_beta 117.741290
_cell_angle_gamma 139.920755
_cell_volume 539.038124
_symmetry_space_group_name_H-M "P -1"
_symmetry_group_IT_number 2
_symmetry_cell_setting 'triclinic'
loop_
_space_group_symop_operation_xyz
x,y,z
-x,-y,-z
loop_
_atom_site_type_symbol
_atom_site_label
_atom_site_fract_x
_atom_site_fract_y
_atom_site_fract_z
Si Si1 0.912774 0.194849 0.731866
Si Si2 0.008009 0.625103 0.862550
Si Si3 0.520401 0.191818 0.393780
Si Si4 0.338040 0.091691 0.783145
Si Si5 0.203221 0.376468 0.066688
Si Si6 0.470869 0.369541 0.135644
Si Si7 0.024119 0.231920 0.509704
O O1 0.013141 0.264357 0.641852
O O2 0.902742 0.389114 0.745997
O O3 0.075643 0.296925 0.897210
O O4 0.672253 0.890330 0.645870
O O5 0.897478 0.687086 0.843826
O O6 0.230356 0.911960 0.880665
O O7 0.000000 0.500000 0.000000
O O8 0.488612 0.190966 0.228088
O O9 0.757618 0.487149 0.478525
O O10 0.500000 0.000000 0.500000
O O11 0.575265 0.289279 0.868341
O O12 0.364462 0.334357 0.755575
O O13 0.172562 0.873516 0.630662
O O14 0.255877 0.225877 0.092073
O O15 0.500000 0.500000 0.000000
O O16 0.000000 0.000000 0.500000
#
# Coordination Sequence:
#
# PCOD9040882 Si02
#       7
#     2   2   2   2   2   2   2
#     4  11  27  45  79 113 158 207 265 324 402 463
#     4  10  23  43  69 112 151 198 253 321 393 457
#     4  12  28  50  77 115 161 206 263 325 398 477
#     4  10  24  44  74 105 153 201 263 322 391 464
#     4   9  23  45  75 114 147 203 266 330 385 465
#     4  10  23  47  78 114 151 207 264 326 391 467
#     4  12  26  50  75 110 158 210 258 318 395 480
#
# _framework density 25.972190999999999
#
# number of rings (size 3 to 8) (size 9 to 14) (size 15 to 20)
#    0.857    0.571    1.429    1.714    4.000   10.286 
#    0.000    0.000    0.000    0.000    0.000    0.000 
#    0.000    0.000    0.000    0.000    0.000    0.000 
#
# Total GULP energy -77935.416613 kJ/mol
# GULP energy per Si atom -5566.815472 kJ/mol
# Density = 2.591308 g / cm^3
# Si number density = 25.972191 Si / 1000 Ang^3
#
#
#
# Elastic Constant Matrix: (Units=GPa)
#
#
# Indices 1 2 3 4 5 6 
#
# 1 98.9862 44.8621 42.1685 4.6930 -15.4957 4.2566
# 2 44.8621 175.0975 75.7786 14.0841 -9.6975 35.2004
# 3 42.1685 75.7786 202.1872 -8.3063 20.3513 -3.3768
# 4 4.6930 14.0841 -8.3063 61.7286 7.7144 8.8305
# 5 -15.4957 -9.6975 20.3513 7.7144 31.0010 9.4499
# 6 4.2566 35.2004 -3.3768 8.8305 9.4499 21.5502
#
#
#
# Elastic Compliance Matrix: (Units=1/GPa)
#
#
# Indices 1 2 3 4 5 6 
#
# 1 0.015482 0.004739 -0.007582 -0.003053 0.021044 -0.019964
# 2 0.004739 0.028883 -0.017726 -0.005175 0.045243 -0.068611
# 3 -0.007582 -0.017726 0.017854 0.004834 -0.036695 0.047360
# 4 -0.003053 -0.005175 0.004834 0.018798 -0.013435 0.008002
# 5 0.021044 0.045243 -0.036695 -0.013435 0.124928 -0.133083
# 6 -0.019964 -0.068611 0.047360 0.008002 -0.133083 0.224917
#
#
# Mechanical properties :
#
#
# Convention : Reuss Voigt Hill
#
# Bulk Modulus (GPa) = 47.43560 89.09882 68.26721
# Shear Modulus (GPa) = 10.43781 43.75341 27.09561
#
# Velocity S-wave (km/s) = 2.00688 4.10887 3.23345
# Velocity P-wave (km/s) = 4.86557 7.54257 6.34681
#
# Compressibility (1/GPa) = 0.02108121
#
# Stress axis : x y z
#
# Youngs Moduli (GPa) = 64.59065 34.62185 56.00941
#
# Poissons Ratio (x) = -0.16408 0.42468
# Poissons Ratio (y) = -0.30611 0.99284
# Poissons Ratio (z) = 0.48974 0.61372
#
# Static dielectric constant tensor:
#      x y z
#    x 2.195850 -0.047700 -0.048350 
#    y -0.047700 2.170860 -0.005100 
#    z -0.048350 -0.005100 3.031360 
# 
# From -- ./inp_files/511815.got.cif
#   From: 2010.05.17/outbox.cif.g08.bks.cpg/sg2_256_cif.got.tgz:511815.got - 2010.06.03 11:33:40.
