data_PCOD9040996
_publ_section_title
;
Structure prediction by ZEFSAII (Michael W. Deem and Ramdas Pophale) SiO2 
 PCOD9040996
Probable space group: P -1
;
_chemical_formula_sum "Si O2"
_cell_formula_units_Z 14
_cell_length_a 16.953115
_cell_length_b 15.567017
_cell_length_c 10.542026
_cell_angle_alpha 156.479111
_cell_angle_beta 135.977225
_cell_angle_gamma 31.418387
_cell_volume 551.237274
_symmetry_space_group_name_H-M "P -1"
_symmetry_group_IT_number 2
_symmetry_cell_setting 'triclinic'
loop_
_space_group_symop_operation_xyz
x,y,z
-x,-y,-z
loop_
_atom_site_type_symbol
_atom_site_label
_atom_site_fract_x
_atom_site_fract_y
_atom_site_fract_z
Si Si1 0.178975 0.289670 0.697704
Si Si2 0.380495 0.089224 0.141643
Si Si3 0.737980 0.107737 0.419694
Si Si4 0.524273 0.333737 0.677711
Si Si5 0.970694 0.919140 0.659635
Si Si6 0.158464 0.433318 0.586090
Si Si7 0.747802 0.436919 0.671368
O O1 0.223873 0.309050 0.636069
O O2 0.325385 0.999862 0.551597
O O3 0.054102 0.255855 0.514010
O O4 0.151026 0.537985 0.084831
O O5 0.399644 0.320736 0.477221
O O6 0.282429 0.186537 0.290101
O O7 0.288348 0.105227 0.938273
O O8 0.560352 0.752330 0.882313
O O9 0.579329 0.391092 0.696071
O O10 0.874084 0.981574 0.505313
O O11 0.753858 0.203810 0.435927
O O12 0.500000 0.500000 0.000000
O O13 0.891166 0.249016 0.060544
O O14 0.149143 0.720303 0.549685
O O15 0.000000 0.500000 0.500000
#
# Coordination Sequence:
#
# PCOD9040996 Si02
#       7
#     2   2   2   2   2   2   2
#     4  10  24  43  72 102 137 186 239 284 347 425
#     4  11  25  43  67 108 141 182 231 295 352 410
#     4  11  22  41  70 101 139 183 231 285 350 419
#     4  10  23  43  70 102 142 189 231 288 355 415
#     4  11  24  48  74 101 138 191 236 285 353 420
#     4  12  27  47  72 103 143 187 236 289 352 419
#     4  11  23  42  72 104 140 182 235 291 351 415
#
# _framework density 25.397411999999999
#
# number of rings (size 3 to 8) (size 9 to 14) (size 15 to 20)
#    0.000    1.143    1.429    4.286    4.000    1.714 
#    2.571    0.000    0.000    0.000    0.000    0.000 
#    0.000    0.000    0.000    0.000    0.000    0.000 
#
# Total GULP energy -78236.158953 kJ/mol
# GULP energy per Si atom -5588.297068 kJ/mol
# Density = 2.533961 g / cm^3
# Si number density = 25.397412 Si / 1000 Ang^3
#
#
#
# Elastic Constant Matrix: (Units=GPa)
#
#
# Indices 1 2 3 4 5 6 
#
# 1 130.5039 24.0482 54.6355 18.0237 -19.0716 -16.5097
# 2 24.0482 85.0624 42.4861 -10.2605 -4.8746 -6.1262
# 3 54.6355 42.4861 126.0468 -16.8606 -23.0866 -14.2629
# 4 18.0237 -10.2605 -16.8606 29.8848 -2.4341 -0.1652
# 5 -19.0716 -4.8746 -23.0866 -2.4341 44.6563 -3.8339
# 6 -16.5097 -6.1262 -14.2629 -0.1652 -3.8339 30.1496
#
#
#
# Elastic Compliance Matrix: (Units=1/GPa)
#
#
# Indices 1 2 3 4 5 6 
#
# 1 0.012689 -0.001743 -0.005551 -0.011188 0.002108 0.004175
# 2 -0.001743 0.014562 -0.003789 0.003841 -0.000894 0.000119
# 3 -0.005551 -0.003789 0.014516 0.010716 0.005633 0.003833
# 4 -0.011188 0.003841 0.010716 0.047889 0.003832 0.000473
# 5 0.002108 -0.000894 0.005633 0.003832 0.026925 0.007082
# 6 0.004175 0.000119 0.003833 0.000473 0.007082 0.038195
#
#
# Mechanical properties :
#
#
# Convention : Reuss Voigt Hill
#
# Bulk Modulus (GPa) = 51.01861 64.88361 57.95111
# Shear Modulus (GPa) = 27.25164 35.63436 31.44300
#
# Velocity S-wave (km/s) = 3.27923 3.74982 3.52240
# Velocity P-wave (km/s) = 5.87108 6.65966 6.27776
#
# Compressibility (1/GPa) = 0.01960069
#
# Stress axis : x y z
#
# Youngs Moduli (GPa) = 78.80872 68.67104 68.89083
#
# Poissons Ratio (x) = 0.11969 0.38239
# Poissons Ratio (y) = 0.13736 0.26106
# Poissons Ratio (z) = 0.43744 0.26023
#
# Static dielectric constant tensor:
#      x y z
#    x 2.011260 -0.059430 0.261920 
#    y -0.059430 2.054050 0.037830 
#    z 0.261920 0.037830 1.376910 
# 
# From -- ./inp_files/466688.got.cif
#   From: 2010.05.17/outbox.cif.g08.bks.cpg/sg2_234_cif.got.tgz:466688.got - 2010.06.03 11:33:40.
