data_PCOD9040663
_publ_section_title
;
Structure prediction by ZEFSAII (Michael W. Deem and Ramdas Pophale) SiO2 
 PCOD9040663
Probable space group: P -1
;
_chemical_formula_sum "Si O2"
_cell_formula_units_Z 14
_cell_length_a 12.552010
_cell_length_b 6.210868
_cell_length_c 12.289014
_cell_angle_alpha 132.086278
_cell_angle_beta 65.537067
_cell_angle_gamma 100.320915
_cell_volume 640.266500
_symmetry_space_group_name_H-M "P -1"
_symmetry_group_IT_number 2
_symmetry_cell_setting 'triclinic'
loop_
_space_group_symop_operation_xyz
x,y,z
-x,-y,-z
loop_
_atom_site_type_symbol
_atom_site_label
_atom_site_fract_x
_atom_site_fract_y
_atom_site_fract_z
Si Si1 0.371117 0.113992 0.546165
Si Si2 0.701329 0.819705 0.628076
Si Si3 0.975262 0.664211 0.443008
Si Si4 0.702035 0.831589 0.185614
Si Si5 0.546619 0.275616 0.266930
Si Si6 0.302516 0.838655 0.030147
Si Si7 0.100596 0.138981 0.066711
O O1 0.337680 0.002495 0.405898
O O2 0.276524 0.083146 0.670187
O O3 0.379469 0.460758 0.651655
O O4 0.500000 0.000000 0.500000
O O5 0.833732 0.669803 0.497012
O O6 0.593955 0.634286 0.636066
O O7 0.702690 0.010160 0.800341
O O8 0.000000 0.500000 0.500000
O O9 0.047482 0.437277 0.251515
O O10 0.000000 0.000000 0.500000
O O11 0.589258 0.045358 0.263647
O O12 0.672704 0.506518 0.084036
O O13 0.807696 0.829909 0.057544
O O14 0.593448 0.110885 0.080540
O O15 0.178042 0.935913 0.054196
O O16 0.000000 0.000000 0.000000
#
# Coordination Sequence:
#
# PCOD9040663 Si02
#       7
#     2   2   2   2   2   2   2
#     4  11  24  43  66 105 140 183 238 300 366 450
#     4  12  24  44  73 102 143 188 233 308 372 433
#     4  12  29  53  74 113 155 197 259 317 375 448
#     4  10  23  45  68  95 145 178 242 300 362 451
#     4  10  23  43  68 103 139 178 236 292 373 447
#     4  10  23  46  67 101 141 182 238 297 373 447
#     4  11  26  46  74 102 141 199 252 305 367 449
#
# _framework density 21.865895999999999
#
# number of rings (size 3 to 8) (size 9 to 14) (size 15 to 20)
#    0.000    1.143    2.857    1.714    6.000    3.429 
#    5.143    0.000    0.000    0.000    0.000    0.000 
#    0.000    0.000    0.000    0.000    0.000    0.000 
#
# Total GULP energy -77992.592186 kJ/mol
# GULP energy per Si atom -5570.899442 kJ/mol
# Density = 2.181613 g / cm^3
# Si number density = 21.865896 Si / 1000 Ang^3
#
#
#
# Elastic Constant Matrix: (Units=GPa)
#
#
# Indices 1 2 3 4 5 6 
#
# 1 111.3595 45.9088 45.8945 -20.0317 -9.6660 -10.3626
# 2 45.9088 101.3841 42.7912 -8.3919 6.4064 -22.3380
# 3 45.8945 42.7912 123.6708 -27.2087 5.3583 -21.4451
# 4 -20.0317 -8.3919 -27.2087 51.1206 -10.7226 0.3493
# 5 -9.6660 6.4064 5.3583 -10.7226 44.1269 -9.2218
# 6 -10.3626 -22.3380 -21.4451 0.3493 -9.2218 27.3364
#
#
#
# Elastic Compliance Matrix: (Units=1/GPa)
#
#
# Indices 1 2 3 4 5 6 
#
# 1 0.013199 -0.004738 -0.002404 0.004173 0.005074 0.000904
# 2 -0.004738 0.014679 -0.002047 -0.000895 -0.001441 0.008118
# 3 -0.002404 -0.002047 0.012053 0.005319 0.001099 0.007174
# 4 0.004173 -0.000895 0.005319 0.025542 0.008162 0.007450
# 5 0.005074 -0.001441 0.001099 0.008162 0.028130 0.010993
# 6 0.000904 0.008118 0.007174 0.007450 0.010993 0.052799
#
#
# Mechanical properties :
#
#
# Convention : Reuss Voigt Hill
#
# Bulk Modulus (GPa) = 46.39864 67.28928 56.84396
# Shear Modulus (GPa) = 29.07591 37.97145 33.52368
#
# Velocity S-wave (km/s) = 3.65051 4.17173 3.91979
# Velocity P-wave (km/s) = 6.24772 7.35152 6.82198
#
# Compressibility (1/GPa) = 0.02155236
#
# Stress axis : x y z
#
# Youngs Moduli (GPa) = 75.76215 68.12542 82.96751
#
# Poissons Ratio (x) = 0.32280 0.19943
# Poissons Ratio (y) = 0.35899 0.16986
# Poissons Ratio (z) = 0.18211 0.13947
#
# Static dielectric constant tensor:
#      x y z
#    x 1.928360 0.128070 -0.104760 
#    y 0.128070 2.068000 -0.171360 
#    z -0.104760 -0.171360 1.934950 
# 
# From -- ./inp_files/47534.got.cif
#   From: 2010.05.17/outbox.cif.g08.bks.cpg/sg2_24_cif.got.tgz:47534.got - 2010.06.03 11:33:40.
