data_PCOD9040309
_publ_section_title
;
Structure prediction by ZEFSAII (Michael W. Deem and Ramdas Pophale) SiO2 
 PCOD9040309
Probable space group: P -1
;
_chemical_formula_sum "Si O2"
_cell_formula_units_Z 14
_cell_length_a 14.200599
_cell_length_b 13.766751
_cell_length_c 8.500829
_cell_angle_alpha 73.615098
_cell_angle_beta 88.355555
_cell_angle_gamma 151.062558
_cell_volume 620.815112
_symmetry_space_group_name_H-M "P -1"
_symmetry_group_IT_number 2
_symmetry_cell_setting 'triclinic'
loop_
_space_group_symop_operation_xyz
x,y,z
-x,-y,-z
loop_
_atom_site_type_symbol
_atom_site_label
_atom_site_fract_x
_atom_site_fract_y
_atom_site_fract_z
Si Si1 0.749495 0.857515 0.370078
Si Si2 0.535525 0.183167 0.299089
Si Si3 0.565684 0.584292 0.197128
Si Si4 0.288306 0.438772 0.047771
Si Si5 0.541322 0.231083 0.629711
Si Si6 0.293927 0.807933 0.963656
Si Si7 0.006200 0.418697 0.403487
O O1 0.736771 0.781122 0.244359
O O2 0.664646 0.702177 0.586752
O O3 0.546084 0.742458 0.409663
O O4 0.010969 0.164921 0.240866
O O5 0.608113 0.251904 0.446231
O O6 0.629824 0.184482 0.189904
O O7 0.632161 0.380278 0.123351
O O8 0.245010 0.888526 0.445665
O O9 0.469178 0.588272 0.111569
O O10 0.684573 0.626507 0.047622
O O11 0.773373 0.439401 0.632004
O O12 0.316823 0.946419 0.845719
O O13 0.062141 0.531680 0.185797
O O14 0.500000 0.000000 0.000000
O O15 0.000000 0.500000 0.500000
#
# Coordination Sequence:
#
# PCOD9040309 Si02
#       7
#     2   2   2   2   2   2   2
#     4  11  24  46  69 100 136 171 225 276 335 398
#     4  12  25  44  68 101 137 175 229 274 331 401
#     4  10  24  47  69  98 133 175 223 276 338 399
#     4  11  25  44  70 101 133 175 223 274 340 394
#     4  11  25  44  67 103 134 177 229 272 333 399
#     4  10  23  43  65  97 132 179 221 267 339 390
#     4  11  25  46  68  94 142 178 223 276 329 398
#
# _framework density 22.550996999999999
#
# number of rings (size 3 to 8) (size 9 to 14) (size 15 to 20)
#    0.000    1.143    4.286    1.286    6.000    2.857 
#   10.286    0.000    0.000    0.000    0.000    0.000 
#    0.000    0.000    0.000    0.000    0.000    0.000 
#
# Total GULP energy -78370.764069 kJ/mol
# GULP energy per Si atom -5597.911719 kJ/mol
# Density = 2.249967 g / cm^3
# Si number density = 22.550997 Si / 1000 Ang^3
#
#
#
# Elastic Constant Matrix: (Units=GPa)
#
#
# Indices 1 2 3 4 5 6 
#
# 1 54.6825 0.9608 2.0745 -2.2940 11.3390 9.6395
# 2 0.9608 56.1215 19.8092 -17.6287 -0.3526 10.5318
# 3 2.0745 19.8092 108.9496 -12.4657 21.6827 9.2691
# 4 -2.2940 -17.6287 -12.4657 45.5377 -6.1330 -4.1937
# 5 11.3390 -0.3526 21.6827 -6.1330 44.2546 3.3977
# 6 9.6395 10.5318 9.2691 -4.1937 3.3977 24.9493
#
#
#
# Elastic Compliance Matrix: (Units=1/GPa)
#
#
# Indices 1 2 3 4 5 6 
#
# 1 0.020744 0.000759 0.001223 0.000225 -0.005260 -0.008035
# 2 0.000759 0.022884 -0.003271 0.007715 0.003265 -0.007885
# 3 0.001223 -0.003271 0.011145 0.000891 -0.005497 -0.002334
# 4 0.000225 0.007715 0.000891 0.025639 0.003104 0.000212
# 5 -0.005260 0.003265 -0.005497 0.003104 0.027131 -0.000477
# 6 -0.008035 -0.007885 -0.002334 0.000212 -0.000477 0.047482
#
#
# Mechanical properties :
#
#
# Convention : Reuss Voigt Hill
#
# Bulk Modulus (GPa) = 19.15928 29.49363 24.32645
# Shear Modulus (GPa) = 28.57111 36.07560 32.32335
#
# Velocity S-wave (km/s) = 3.56329 4.00401 3.79006
# Velocity P-wave (km/s) = 5.04419 5.87223 5.47389
#
# Compressibility (1/GPa) = 0.05219402
#
# Stress axis : x y z
#
# Youngs Moduli (GPa) = 48.20581 43.69868 89.72971
#
# Poissons Ratio (x) = -0.03315 -0.10977
# Poissons Ratio (y) = -0.03657 0.29355
# Poissons Ratio (z) = -0.05897 0.14296
#
# Static dielectric constant tensor:
#      x y z
#    x 1.803600 -0.008550 -0.023500 
#    y -0.008550 1.839760 -0.004340 
#    z -0.023500 -0.004340 1.817100 
# 
# From -- ./inp_files/314946.got.cif
#   From: 2010.05.17/outbox.cif.g08.bks.cpg/sg2_158_cif.got.tgz:314946.got - 2010.06.03 11:33:40.
