data_PCOD9040578
_publ_section_title
;
Structure prediction by ZEFSAII (Michael W. Deem and Ramdas Pophale) SiO2 
 PCOD9040578
Probable space group: P -1
;
_chemical_formula_sum "Si O2"
_cell_formula_units_Z 14
_cell_length_a 26.263777
_cell_length_b 14.008331
_cell_length_c 23.227653
_cell_angle_alpha 17.956457
_cell_angle_beta 163.997872
_cell_angle_gamma 163.425386
_cell_volume 621.277314
_symmetry_space_group_name_H-M "P -1"
_symmetry_group_IT_number 2
_symmetry_cell_setting 'triclinic'
loop_
_space_group_symop_operation_xyz
x,y,z
-x,-y,-z
loop_
_atom_site_type_symbol
_atom_site_label
_atom_site_fract_x
_atom_site_fract_y
_atom_site_fract_z
Si Si1 0.736405 0.361195 0.476054
Si Si2 0.815477 0.590406 0.235488
Si Si3 0.195135 0.479487 0.866031
Si Si4 0.154132 0.011099 0.846257
Si Si5 0.696139 0.751339 0.441043
Si Si6 0.437756 0.562395 0.643252
Si Si7 0.544434 0.229318 0.668111
O O1 0.707698 0.606853 0.256989
O O2 0.732443 0.514500 0.447054
O O3 0.959699 0.372588 0.696999
O O4 0.531962 0.957477 0.490878
O O5 0.829589 0.691810 0.125619
O O6 0.842277 0.878256 0.146885
O O7 0.000000 0.500000 0.500000
O O8 0.607107 0.198486 0.245416
O O9 0.322802 0.916610 0.746391
O O10 0.348945 0.410454 0.113052
O O11 0.928197 0.849112 0.660833
O O12 0.234444 0.731074 0.092336
O O13 0.666265 0.726930 0.354607
O O14 0.540075 0.363513 0.522323
O O15 0.500000 0.500000 0.500000
#
# Coordination Sequence:
#
# PCOD9040578 Si02
#       7
#     2   2   2   2   2   2   2
#     4  10  23  43  67  97 134 182 233 276 339 406
#     4  12  22  43  69  99 139 176 227 282 342 408
#     4  11  23  43  68  98 138 181 225 285 336 407
#     4  11  24  44  70  99 138 181 223 283 349 407
#     4  11  24  42  66  99 139 178 225 276 342 412
#     4  11  24  44  66  99 136 182 233 278 334 406
#     4  12  24  43  67 103 136 175 227 285 345 409
#
# _framework density 22.534220000000001
#
# number of rings (size 3 to 8) (size 9 to 14) (size 15 to 20)
#    0.000    0.857    4.286    3.429    0.000    4.571 
#    2.571    0.000    0.000    0.000    0.000    0.000 
#    0.000    0.000    0.000    0.000    0.000    0.000 
#
# Total GULP energy -78212.093482 kJ/mol
# GULP energy per Si atom -5586.578106 kJ/mol
# Density = 2.248293 g / cm^3
# Si number density = 22.534220 Si / 1000 Ang^3
#
#
#
# Elastic Constant Matrix: (Units=GPa)
#
#
# Indices 1 2 3 4 5 6 
#
# 1 165.1765 37.6026 51.5626 9.3852 -0.0570 -28.5032
# 2 37.6026 54.5395 18.5436 6.2112 0.0720 -14.1606
# 3 51.5626 18.5436 116.6939 -7.9601 4.6313 -14.2054
# 4 9.3852 6.2112 -7.9601 19.1781 -0.6837 -10.0339
# 5 -0.0570 0.0720 4.6313 -0.6837 29.8281 -0.5883
# 6 -28.5032 -14.1606 -14.2054 -10.0339 -0.5883 47.5717
#
#
#
# Elastic Compliance Matrix: (Units=1/GPa)
#
#
# Indices 1 2 3 4 5 6 
#
# 1 0.008461 -0.003843 -0.003050 -0.002883 0.000481 0.002413
# 2 -0.003843 0.022951 -0.001926 -0.004806 0.000184 0.002943
# 3 -0.003050 -0.001926 0.011150 0.008056 -0.001496 0.002609
# 4 -0.002883 -0.004806 0.008056 0.065286 0.000509 0.013025
# 5 0.000481 0.000184 -0.001496 0.000509 0.033778 0.000421
# 6 0.002413 0.002943 0.002609 0.013025 0.000421 0.026874
#
#
# Mechanical properties :
#
#
# Convention : Reuss Voigt Hill
#
# Bulk Modulus (GPa) = 40.12140 61.31419 50.71779
# Shear Modulus (GPa) = 25.71406 34.56230 30.13818
#
# Velocity S-wave (km/s) = 3.38170 3.92059 3.66107
# Velocity P-wave (km/s) = 5.75249 6.91108 6.35823
#
# Compressibility (1/GPa) = 0.02492436
#
# Stress axis : x y z
#
# Youngs Moduli (GPa) = 118.18385 43.57190 89.68786
#
# Poissons Ratio (x) = 0.16743 0.27356
# Poissons Ratio (y) = 0.45412 0.17274
# Poissons Ratio (z) = 0.36047 0.08392
#
# Static dielectric constant tensor:
#      x y z
#    x 1.920370 0.516680 0.263490 
#    y 0.516680 -8.147970 -5.323660 
#    z 0.263490 -5.323660 -1.032620 
# 
# From -- ./inp_files/183397.got.cif
#   From: 2010.05.17/outbox.cif.g08.bks.cpg/sg2_92_cif.got.tgz:183397.got - 2010.06.03 11:33:40.
