data_PCOD9040171
_publ_section_title
;
Structure prediction by ZEFSAII (Michael W. Deem and Ramdas Pophale) SiO2 
 PCOD9040171
Probable space group: P -1
;
_chemical_formula_sum "Si O2"
_cell_formula_units_Z 16
_cell_length_a 17.335095
_cell_length_b 16.985736
_cell_length_c 8.745907
_cell_angle_alpha 130.322620
_cell_angle_beta 128.566780
_cell_angle_gamma 22.177614
_cell_volume 738.510329
_symmetry_space_group_name_H-M "P -1"
_symmetry_group_IT_number 2
_symmetry_cell_setting 'triclinic'
loop_
_space_group_symop_operation_xyz
x,y,z
-x,-y,-z
loop_
_atom_site_type_symbol
_atom_site_label
_atom_site_fract_x
_atom_site_fract_y
_atom_site_fract_z
Si Si1 0.811063 0.266804 0.478400
Si Si2 0.115605 0.495417 0.860866
Si Si3 0.057236 0.561821 0.371753
Si Si4 0.489553 0.606054 0.237207
Si Si5 0.138453 0.149354 0.782117
Si Si6 0.226468 0.538854 0.791094
Si Si7 0.848792 0.188683 0.763625
Si Si8 0.424009 0.187857 0.137767
O O1 0.649208 0.447079 0.375809
O O2 0.738995 0.315400 0.625230
O O3 0.988468 0.190880 0.619546
O O4 0.923546 0.058374 0.303451
O O5 0.227032 0.445795 0.794698
O O6 0.024898 0.465527 0.684632
O O7 0.276387 0.340761 0.003617
O O8 0.931560 0.737106 0.000453
O O9 0.064054 0.652663 0.606133
O O10 0.284132 0.335827 0.299164
O O11 0.918357 0.714596 0.246535
O O12 0.563284 0.631917 0.254855
O O13 0.267287 0.798224 0.278105
O O14 0.500000 0.500000 0.000000
O O15 0.381510 0.914747 0.770863
O O16 0.162867 0.700458 0.005158
O O17 0.500000 0.000000 0.000000
#
# Coordination Sequence:
#
# PCOD9040171 Si02
#       8
#     2   2   2   2   2   2   2   2
#     4  11  22  43  70  94 120 165 220 261 312 367
#     4  11  22  41  65  93 131 167 208 261 310 374
#     4  11  22  40  67  91 130 171 201 262 319 370
#     4  10  23  43  64  90 131 162 204 260 324 371
#     4  11  21  40  67  94 122 167 212 262 311 369
#     4  11  23  42  60  95 133 170 204 249 326 382
#     4  10  24  43  67  94 124 163 216 268 305 371
#     4  11  21  40  67  93 123 162 222 261 305 368
#
# _framework density 21.665234999999999
#
# number of rings (size 3 to 8) (size 9 to 14) (size 15 to 20)
#    0.000    1.250    5.000    1.500    1.750    2.000 
#    9.000    3.125    0.000    0.000    0.000    0.000 
#    0.000    0.000    0.000    0.000    0.000    0.000 
#
# Total GULP energy -89367.191550 kJ/mol
# GULP energy per Si atom -5585.449472 kJ/mol
# Density = 2.161592 g / cm^3
# Si number density = 21.665235 Si / 1000 Ang^3
#
#
#
# Elastic Constant Matrix: (Units=GPa)
#
#
# Indices 1 2 3 4 5 6 
#
# 1 157.8853 8.9268 30.7826 -1.9795 -10.6975 -21.9724
# 2 8.9268 45.5675 17.6827 0.1289 -3.9177 -13.6338
# 3 30.7826 17.6827 94.6643 1.3773 -3.5010 -17.8849
# 4 -1.9795 0.1289 1.3773 18.7034 -3.6152 6.5244
# 5 -10.6975 -3.9177 -3.5010 -3.6152 32.3402 -7.0337
# 6 -21.9724 -13.6338 -17.8849 6.5244 -7.0337 23.7804
#
#
#
# Elastic Compliance Matrix: (Units=1/GPa)
#
#
# Indices 1 2 3 4 5 6 
#
# 1 0.008070 0.002145 -0.000973 -0.001585 0.004779 0.009803
# 2 0.002145 0.029337 -0.001737 -0.005773 0.008101 0.021476
# 3 -0.000973 -0.001737 0.013237 -0.004028 0.002612 0.009939
# 4 -0.001585 -0.005773 -0.004028 0.062310 -0.000117 -0.024934
# 5 0.004779 0.008101 0.002612 -0.000117 0.038644 0.022486
# 6 0.009803 0.021476 0.009939 -0.024934 0.022486 0.084388
#
#
# Mechanical properties :
#
#
# Convention : Reuss Voigt Hill
#
# Bulk Modulus (GPa) = 20.19557 45.87793 33.03675
# Shear Modulus (GPa) = 19.71441 31.01312 25.36376
#
# Velocity S-wave (km/s) = 3.01982 3.78758 3.42528
# Velocity P-wave (km/s) = 4.63691 6.35212 5.56105
#
# Compressibility (1/GPa) = 0.04951581
#
# Stress axis : x y z
#
# Youngs Moduli (GPa) = 123.91067 34.08618 75.54377
#
# Poissons Ratio (x) = -0.07312 0.07351
# Poissons Ratio (y) = -0.26579 0.13119
# Poissons Ratio (z) = 0.12057 0.05919
#
# Static dielectric constant tensor:
#      x y z
#    x 1.824950 -0.017650 0.009860 
#    y -0.017650 1.778290 0.008480 
#    z 0.009860 0.008480 1.813910 
# 
# From -- ./inp_files/39333.got.cif
#   From: 2010.05.17/outbox.cif.g08.bks.cpg/sg2_20_cif.got.tgz:39333.got - 2010.06.03 11:33:40.
