data_PCOD9040447
_publ_section_title
;
Structure prediction by ZEFSAII (Michael W. Deem and Ramdas Pophale) SiO2 
 PCOD9040447
Probable space group: P -1
;
_chemical_formula_sum "Si O2"
_cell_formula_units_Z 16
_cell_length_a 15.263142
_cell_length_b 8.158535
_cell_length_c 9.122622
_cell_angle_alpha 98.824198
_cell_angle_beta 134.237490
_cell_angle_gamma 104.983808
_cell_volume 688.743067
_symmetry_space_group_name_H-M "P -1"
_symmetry_group_IT_number 2
_symmetry_cell_setting 'triclinic'
loop_
_space_group_symop_operation_xyz
x,y,z
-x,-y,-z
loop_
_atom_site_type_symbol
_atom_site_label
_atom_site_fract_x
_atom_site_fract_y
_atom_site_fract_z
Si Si1 0.857847 0.345945 0.903885
Si Si2 0.448638 0.289223 0.610690
Si Si3 0.433312 0.303341 0.158540
Si Si4 0.551394 0.244643 0.008694
Si Si5 0.554390 0.079143 0.376145
Si Si6 0.866037 0.965179 0.246350
Si Si7 0.857157 0.953122 0.902888
Si Si8 0.149422 0.650576 0.766856
O O1 0.710075 0.257305 0.626453
O O2 0.860917 0.153265 0.916746
O O3 0.847907 0.408288 0.067732
O O4 0.000000 0.500000 0.000000
O O5 0.543139 0.510268 0.703097
O O6 0.476503 0.322363 0.822039
O O7 0.483369 0.117019 0.604124
O O8 0.287123 0.206577 0.364814
O O9 0.442475 0.152070 0.259345
O O10 0.547139 0.321327 0.174000
O O11 0.283430 0.200160 0.886003
O O12 0.459509 0.016063 0.816491
O O13 0.711660 0.322619 0.150075
O O14 0.851090 0.151476 0.231812
O O15 0.000000 0.000000 0.500000
O O16 0.866391 0.897930 0.072244
O O17 0.000000 0.000000 0.000000
O O18 0.000000 0.500000 0.500000
#
# Coordination Sequence:
#
# PCOD9040447 Si02
#       8
#     2   2   2   2   2   2   2   2
#     4  10  24  44  68  97 131 183 230 276 343 407
#     4   9  23  41  68  95 133 178 225 278 336 394
#     4  12  23  42  71 102 135 179 230 273 342 414
#     4  10  23  43  67 100 135 177 224 283 339 399
#     4   9  22  41  67  95 131 175 228 279 332 394
#     4  11  27  43  67 102 138 179 228 278 342 413
#     4  10  24  46  64  97 140 176 224 288 338 398
#     4  11  26  44  68  99 141 177 225 287 341 401
#
# _framework density 23.230723000000001
#
# number of rings (size 3 to 8) (size 9 to 14) (size 15 to 20)
#    0.750    1.000    1.250    0.750    7.000    4.000 
#    0.000    0.000    0.000    0.000    0.000    0.000 
#    0.000    0.000    0.000    0.000    0.000    0.000 
#
# Total GULP energy -89198.447879 kJ/mol
# GULP energy per Si atom -5574.902992 kJ/mol
# Density = 2.317785 g / cm^3
# Si number density = 23.230723 Si / 1000 Ang^3
#
#
#
# Elastic Constant Matrix: (Units=GPa)
#
#
# Indices 1 2 3 4 5 6 
#
# 1 110.3740 18.9095 60.0428 -3.1081 17.4838 14.2267
# 2 18.9095 94.7719 49.5174 9.0089 6.9668 -8.6196
# 3 60.0428 49.5174 195.2514 -4.7510 33.3263 8.3462
# 4 -3.1081 9.0089 -4.7510 47.7785 6.9800 2.9347
# 5 17.4838 6.9668 33.3263 6.9800 41.3819 -4.9588
# 6 14.2267 -8.6196 8.3462 2.9347 -4.9588 27.8552
#
#
#
# Elastic Compliance Matrix: (Units=1/GPa)
#
#
# Indices 1 2 3 4 5 6 
#
# 1 0.012222 -0.001795 -0.002226 0.001969 -0.004251 -0.007095
# 2 -0.001795 0.013752 -0.003877 -0.004000 0.003116 0.007310
# 3 -0.002226 -0.003877 0.007979 0.002440 -0.005690 -0.003724
# 4 0.001969 -0.004000 0.002440 0.023470 -0.006882 -0.006672
# 5 -0.004251 0.003116 -0.005690 -0.006882 0.032541 0.011358
# 6 -0.007095 0.007310 -0.003724 -0.006672 0.011358 0.045626
#
#
# Mechanical properties :
#
#
# Convention : Reuss Voigt Hill
#
# Bulk Modulus (GPa) = 55.08046 73.03740 64.05893
# Shear Modulus (GPa) = 31.75816 41.53162 36.64489
#
# Velocity S-wave (km/s) = 3.70141 4.23281 3.97600
# Velocity P-wave (km/s) = 6.48297 7.44293 6.97947
#
# Compressibility (1/GPa) = 0.01815526
#
# Stress axis : x y z
#
# Youngs Moduli (GPa) = 81.81851 72.71879 125.32384
#
# Poissons Ratio (x) = 0.13055 0.27903
# Poissons Ratio (y) = 0.14689 0.48590
# Poissons Ratio (z) = 0.18216 0.28194
#
# Static dielectric constant tensor:
#      x y z
#    x -11.587810 -0.371880 -0.044220 
#    y -0.371880 2.154970 -0.037680 
#    z -0.044220 -0.037680 1.915290 
# 
# From -- ./inp_files/299355.got.cif
#   From: 2010.05.17/outbox.cif.g08.bks.cpg/sg2_150_cif.got.tgz:299355.got - 2010.06.03 11:33:40.
