data_PCOD9040350
_publ_section_title
;
Structure prediction by ZEFSAII (Michael W. Deem and Ramdas Pophale) SiO2 
 PCOD9040350
Probable space group: P -1
;
_chemical_formula_sum "Si O2"
_cell_formula_units_Z 14
_cell_length_a 19.368926
_cell_length_b 5.241843
_cell_length_c 10.350940
_cell_angle_alpha 108.552317
_cell_angle_beta 147.507225
_cell_angle_gamma 83.079216
_cell_volume 512.153260
_symmetry_space_group_name_H-M "P -1"
_symmetry_group_IT_number 2
_symmetry_cell_setting 'triclinic'
loop_
_space_group_symop_operation_xyz
x,y,z
-x,-y,-z
loop_
_atom_site_type_symbol
_atom_site_label
_atom_site_fract_x
_atom_site_fract_y
_atom_site_fract_z
Si Si1 0.859793 0.866775 0.081618
Si Si2 0.848956 0.498659 0.782469
Si Si3 0.354812 0.224612 0.570180
Si Si4 0.095212 0.308861 0.587910
Si Si5 0.371954 0.412295 0.069186
Si Si6 0.358468 0.826331 0.309755
Si Si7 0.348673 0.999145 0.774649
O O1 0.875998 0.828098 0.253884
O O2 0.838834 0.561521 0.931357
O O3 0.010140 0.071916 0.317938
O O4 0.753665 0.039003 0.906487
O O5 0.792391 0.757835 0.695669
O O6 0.758650 0.257437 0.505767
O O7 0.000000 0.500000 0.000000
O O8 0.479661 0.440845 0.729763
O O9 0.355337 0.255670 0.728124
O O10 0.366427 0.925329 0.487288
O O11 0.000000 0.500000 0.500000
O O12 0.245078 0.488213 0.814151
O O13 0.362745 0.519826 0.217816
O O14 0.334893 0.089190 0.913408
O O15 0.500000 0.000000 0.500000
O O16 0.500000 0.000000 0.000000
#
# Coordination Sequence:
#
# PCOD9040350 Si02
#       7
#     2   2   2   2   2   2   2
#     4  10  23  43  66 101 136 176 226 282 329 407
#     4  11  25  46  69  98 138 180 225 273 340 406
#     4  10  24  46  68  97 138 171 229 282 330 402
#     4  11  23  41  67 103 136 172 225 278 344 393
#     4  11  22  41  68  96 132 176 219 279 334 391
#     4   9  20  41  66  94 129 174 218 277 332 386
#     4  12  26  44  70 102 134 181 226 276 340 403
#
# _framework density 27.335567999999999
#
# number of rings (size 3 to 8) (size 9 to 14) (size 15 to 20)
#    0.000    1.429    2.857    1.286    2.000    4.000 
#    0.000    2.857    0.000    0.000    0.000    0.000 
#    0.000    0.000    0.000    0.000    0.000    0.000 
#
# Total GULP energy -78019.857468 kJ/mol
# GULP energy per Si atom -5572.846962 kJ/mol
# Density = 2.727335 g / cm^3
# Si number density = 27.335568 Si / 1000 Ang^3
#
#
#
# Elastic Constant Matrix: (Units=GPa)
#
#
# Indices 1 2 3 4 5 6 
#
# 1 124.1144 54.0739 34.0807 -5.3298 -22.0275 -56.5084
# 2 54.0739 86.7845 46.2001 3.6807 -14.1096 -30.9813
# 3 34.0807 46.2001 187.4539 1.6467 8.8158 -27.2498
# 4 -5.3298 3.6807 1.6467 74.1497 -19.6102 -13.3735
# 5 -22.0275 -14.1096 8.8158 -19.6102 41.3331 6.7361
# 6 -56.5084 -30.9813 -27.2498 -13.3735 6.7361 53.2444
#
#
#
# Elastic Compliance Matrix: (Units=1/GPa)
#
#
# Indices 1 2 3 4 5 6 
#
# 1 0.022309 -0.004563 -0.000384 0.008643 0.010993 0.021606
# 2 -0.004563 0.018051 -0.003295 0.000590 0.004126 0.003601
# 3 -0.000384 -0.003295 0.006561 -0.000635 -0.003239 0.001284
# 4 0.008643 0.000590 -0.000635 0.019581 0.012185 0.012568
# 5 0.010993 0.004126 -0.003239 0.012185 0.036157 0.010896
# 6 0.021606 0.003601 0.001284 0.012568 0.010896 0.046242
#
#
# Mechanical properties :
#
#
# Convention : Reuss Voigt Hill
#
# Bulk Modulus (GPa) = 32.85279 74.11803 53.48541
# Shear Modulus (GPa) = 28.48503 51.34531 39.91517
#
# Velocity S-wave (km/s) = 3.23158 4.33868 3.82539
# Velocity P-wave (km/s) = 5.09594 7.22992 6.25461
#
# Compressibility (1/GPa) = 0.03043882
#
# Stress axis : x y z
#
# Youngs Moduli (GPa) = 44.82424 55.39809 152.41480
#
# Poissons Ratio (x) = 0.25276 0.05847
# Poissons Ratio (y) = 0.20451 0.50224
# Poissons Ratio (z) = 0.01720 0.18255
#
# Static dielectric constant tensor:
#      x y z
#    x 2.690250 0.354590 -0.342540 
#    y 0.354590 2.374440 -0.117830 
#    z -0.342540 -0.117830 2.694210 
# 
# From -- ./inp_files/93476.got.cif
#   From: 2010.05.17/outbox.cif.g08.bks.cpg/sg2_47_cif.got.tgz:93476.got - 2010.06.03 11:33:40.
