data_PCOD9040853
_publ_section_title
;
Structure prediction by ZEFSAII (Michael W. Deem and Ramdas Pophale) SiO2 
 PCOD9040853
Probable space group: P -1
;
_chemical_formula_sum "Si O2"
_cell_formula_units_Z 16
_cell_length_a 9.095223
_cell_length_b 8.116031
_cell_length_c 15.543115
_cell_angle_alpha 40.634477
_cell_angle_beta 94.269481
_cell_angle_gamma 104.246664
_cell_volume 712.652680
_symmetry_space_group_name_H-M "P -1"
_symmetry_group_IT_number 2
_symmetry_cell_setting 'triclinic'
loop_
_space_group_symop_operation_xyz
x,y,z
-x,-y,-z
loop_
_atom_site_type_symbol
_atom_site_label
_atom_site_fract_x
_atom_site_fract_y
_atom_site_fract_z
Si Si1 0.790688 0.084792 0.345378
Si Si2 0.802105 0.975952 0.834543
Si Si3 0.531119 0.932243 0.719476
Si Si4 0.241718 0.854514 0.062222
Si Si5 0.954865 0.591451 0.051793
Si Si6 0.076824 0.274385 0.616511
Si Si7 0.319641 0.673908 0.585275
Si Si8 0.496502 0.417582 0.822908
O O1 0.638177 0.034717 0.298691
O O2 0.910889 0.352230 0.211007
O O3 0.744719 0.164606 0.407278
O O4 0.856345 0.842985 0.416832
O O5 0.641296 0.988412 0.783960
O O6 0.837840 0.174371 0.836920
O O7 0.811391 0.703409 0.984253
O O8 0.936757 0.047115 0.742002
O O9 0.510421 0.630000 0.813985
O O10 0.615364 0.123228 0.569744
O O11 0.343430 0.652705 0.143916
O O12 0.105089 0.809301 0.006519
O O13 0.362609 0.144112 0.940120
O O14 0.000000 0.500000 0.000000
O O15 0.200941 0.417290 0.637838
O O16 0.000000 0.500000 0.500000
O O17 0.449279 0.565191 0.680103
#
# Coordination Sequence:
#
# PCOD9040853 Si02
#       8
#     2   2   2   2   2   2   2   2
#     4  11  26  45  73 102 137 193 229 290 357 407
#     4  12  24  43  68 104 140 182 234 286 351 416
#     4  11  25  46  70 100 141 188 235 283 342 422
#     4  11  25  41  70 104 138 182 225 301 355 407
#     4  12  24  44  71  98 141 181 229 290 349 420
#     4  12  26  44  67 107 139 181 237 284 344 426
#     4  11  24  48  72  98 147 183 238 290 342 419
#     4  10  23  43  69 103 135 182 238 284 354 417
#
# _framework density 22.451329999999999
#
# number of rings (size 3 to 8) (size 9 to 14) (size 15 to 20)
#    0.000    0.750    2.500    5.625    1.750    6.000 
#    0.000    0.000    0.000    0.000    0.000    0.000 
#    0.000    0.000    0.000    0.000    0.000    0.000 
#
# Total GULP energy -89401.611054 kJ/mol
# GULP energy per Si atom -5587.600691 kJ/mol
# Density = 2.240023 g / cm^3
# Si number density = 22.451330 Si / 1000 Ang^3
#
#
#
# Elastic Constant Matrix: (Units=GPa)
#
#
# Indices 1 2 3 4 5 6 
#
# 1 51.6900 -8.2542 21.7752 -8.1858 6.9139 -22.9096
# 2 -8.2542 40.6083 21.0950 -0.2550 4.4694 0.6975
# 3 21.7752 21.0950 53.6351 -9.1321 20.1213 -14.0494
# 4 -8.1858 -0.2550 -9.1321 30.4575 3.3017 7.0630
# 5 6.9139 4.4694 20.1213 3.3017 30.1673 -9.7995
# 6 -22.9096 0.6975 -14.0494 7.0630 -9.7995 43.3622
#
#
#
# Elastic Compliance Matrix: (Units=1/GPa)
#
#
# Indices 1 2 3 4 5 6 
#
# 1 0.035564 0.016696 -0.020239 -0.000340 0.007357 0.013682
# 2 0.016696 0.040598 -0.026249 -0.004578 0.008958 0.002434
# 3 -0.020239 -0.026249 0.048308 0.012190 -0.025820 -0.002440
# 4 -0.000340 -0.004578 0.012190 0.039109 -0.013464 -0.005570
# 5 0.007357 0.008958 -0.025820 -0.013464 0.051848 0.009287
# 6 0.013682 0.002434 -0.002440 -0.005570 0.009287 0.032466
#
#
# Mechanical properties :
#
#
# Convention : Reuss Voigt Hill
#
# Bulk Modulus (GPa) = 15.41148 23.90728 19.65938
# Shear Modulus (GPa) = 15.19267 28.21853 21.70560
#
# Velocity S-wave (km/s) = 2.60416 3.54909 3.11269
# Velocity P-wave (km/s) = 3.99017 5.24083 4.65767
#
# Compressibility (1/GPa) = 0.06488671
#
# Stress axis : x y z
#
# Youngs Moduli (GPa) = 28.11810 24.63162 20.70047
#
# Poissons Ratio (x) = -0.41125 0.41896
# Poissons Ratio (y) = -0.46946 0.54336
# Poissons Ratio (z) = 0.56909 0.64654
#
# Static dielectric constant tensor:
#      x y z
#    x 1.918180 -0.014700 0.017570 
#    y -0.014700 1.884130 -0.019780 
#    z 0.017570 -0.019780 1.864970 
# 
# From -- ./inp_files/494299.got.cif
#   From: 2010.05.17/outbox.cif.g08.bks.cpg/sg2_248_cif.got.tgz:494299.got - 2010.06.03 11:33:40.
