data_PCOD9040274
_publ_section_title
;
Structure prediction by ZEFSAII (Michael W. Deem and Ramdas Pophale) SiO2 
 PCOD9040274
Probable space group: P -1
;
_chemical_formula_sum "Si O2"
_cell_formula_units_Z 16
_cell_length_a 6.705638
_cell_length_b 10.396626
_cell_length_c 11.772911
_cell_angle_alpha 95.519338
_cell_angle_beta 116.074693
_cell_angle_gamma 76.312550
_cell_volume 716.259611
_symmetry_space_group_name_H-M "P -1"
_symmetry_group_IT_number 2
_symmetry_cell_setting 'triclinic'
loop_
_space_group_symop_operation_xyz
x,y,z
-x,-y,-z
loop_
_atom_site_type_symbol
_atom_site_label
_atom_site_fract_x
_atom_site_fract_y
_atom_site_fract_z
Si Si1 0.644275 0.135291 0.941987
Si Si2 0.978266 0.023264 0.841793
Si Si3 0.457185 0.604455 0.675095
Si Si4 0.274281 0.663311 0.389209
Si Si5 0.680779 0.391465 0.105165
Si Si6 0.167798 0.143020 0.709076
Si Si7 0.371056 0.147809 0.516834
Si Si8 0.170113 0.246836 0.241743
O O1 0.402476 0.131378 0.831829
O O2 0.784407 0.008932 0.034020
O O3 0.626031 0.254702 0.035066
O O4 0.808572 0.141455 0.874330
O O5 0.870010 0.895299 0.817166
O O6 0.036542 0.040926 0.726965
O O7 0.294266 0.643362 0.529200
O O8 0.628450 0.472314 0.662773
O O9 0.352776 0.582051 0.767192
O O10 0.598667 0.717950 0.739268
O O11 0.438097 0.764731 0.409842
O O12 0.012060 0.720703 0.301713
O O13 0.955414 0.359377 0.157548
O O14 0.500000 0.500000 0.000000
O O15 0.230179 0.131249 0.592335
O O16 0.208117 0.227250 0.385274
O O17 0.500000 0.000000 0.500000
#
# Coordination Sequence:
#
# PCOD9040274 Si02
#       8
#     2   2   2   2   2   2   2   2
#     4  10  24  42  61  95 133 172 215 271 321 389
#     4  10  23  43  65  93 133 171 218 264 327 393
#     4  10  24  46  66  92 131 175 218 264 332 376
#     4  10  24  43  68  95 129 172 218 270 316 399
#     4  11  26  41  67  96 132 172 225 270 317 391
#     4  12  23  38  69  96 128 172 212 268 334 383
#     4  11  24  41  67 101 132 163 217 274 330 388
#     4  10  23  44  66  94 130 172 213 275 323 387
#
# _framework density 22.338266000000001
#
# number of rings (size 3 to 8) (size 9 to 14) (size 15 to 20)
#    0.000    1.500    0.000    3.375    5.250   11.500 
#    0.000    3.750    0.000    0.000    0.000    0.000 
#    0.000    0.000    0.000    0.000    0.000    0.000 
#
# Total GULP energy -89347.452336 kJ/mol
# GULP energy per Si atom -5584.215771 kJ/mol
# Density = 2.228742 g / cm^3
# Si number density = 22.338266 Si / 1000 Ang^3
#
#
#
# Elastic Constant Matrix: (Units=GPa)
#
#
# Indices 1 2 3 4 5 6 
#
# 1 50.3415 20.5207 24.1211 -4.1190 -7.0371 -14.0406
# 2 20.5207 61.4768 15.0522 -7.0355 5.0912 -11.7597
# 3 24.1211 15.0522 68.6270 -7.7392 -4.1523 -8.7985
# 4 -4.1190 -7.0355 -7.7392 28.7976 -7.5988 2.4048
# 5 -7.0371 5.0912 -4.1523 -7.5988 49.5054 -6.6835
# 6 -14.0406 -11.7597 -8.7985 2.4048 -6.6835 24.7246
#
#
#
# Elastic Compliance Matrix: (Units=1/GPa)
#
#
# Indices 1 2 3 4 5 6 
#
# 1 0.030598 -0.006260 -0.007093 0.001518 0.006450 0.013470
# 2 -0.006260 0.020076 -0.001421 0.002702 -0.002028 0.004677
# 3 -0.007093 -0.001421 0.018116 0.003747 0.001472 0.001776
# 4 0.001518 0.002702 0.003747 0.038150 0.006307 0.001475
# 5 0.006450 -0.002028 0.001472 0.006307 0.023631 0.008997
# 6 0.013470 0.004677 0.001776 0.001475 0.008997 0.053240
#
#
# Mechanical properties :
#
#
# Convention : Reuss Voigt Hill
#
# Bulk Modulus (GPa) = 25.48457 33.31481 29.39969
# Shear Modulus (GPa) = 22.08093 28.65560 25.36826
#
# Velocity S-wave (km/s) = 3.14742 3.58551 3.37358
# Velocity P-wave (km/s) = 4.96403 5.66457 5.32583
#
# Compressibility (1/GPa) = 0.03923942
#
# Stress axis : x y z
#
# Youngs Moduli (GPa) = 32.68238 49.81149 55.20094
#
# Poissons Ratio (x) = 0.31184 0.39154
# Poissons Ratio (y) = 0.20461 0.07845
# Poissons Ratio (z) = 0.23182 0.07079
#
# Static dielectric constant tensor:
#      x y z
#    x 1.844480 0.022270 -0.009760 
#    y 0.022270 1.836130 -0.040260 
#    z -0.009760 -0.040260 1.852460 
# 
# From -- ./inp_files/364840.got.cif
#   From: 2010.05.17/outbox.cif.g08.bks.cpg/sg2_183_cif.got.tgz:364840.got - 2010.06.03 11:33:40.
