data_PCOD9040948
_publ_section_title
;
Structure prediction by ZEFSAII (Michael W. Deem and Ramdas Pophale) SiO2 
 PCOD9040948
Probable space group: P -1
;
_chemical_formula_sum "Si O2"
_cell_formula_units_Z 15
_cell_length_a 9.009010
_cell_length_b 25.916575
_cell_length_c 5.146931
_cell_angle_alpha 62.592832
_cell_angle_beta 54.544116
_cell_angle_gamma 35.478474
_cell_volume 567.951336
_symmetry_space_group_name_H-M "P -1"
_symmetry_group_IT_number 2
_symmetry_cell_setting 'triclinic'
loop_
_space_group_symop_operation_xyz
x,y,z
-x,-y,-z
loop_
_atom_site_type_symbol
_atom_site_label
_atom_site_fract_x
_atom_site_fract_y
_atom_site_fract_z
Si Si1 0.703408 0.075349 0.351725
Si Si2 0.341941 0.400027 0.253315
Si Si3 0.500000 0.000000 0.000000
Si Si4 0.998475 0.422822 0.961279
Si Si5 0.353878 0.161210 0.985013
Si Si6 0.097143 0.073681 0.759714
Si Si7 0.785724 0.349179 0.262250
Si Si8 0.627174 0.274007 0.879135
O O1 0.568137 0.131430 0.619375
O O2 0.776114 0.987770 0.490630
O O3 0.487111 0.135037 0.196582
O O4 0.981276 0.044151 0.092719
O O5 0.095942 0.421409 0.579465
O O6 0.507037 0.406097 0.249115
O O7 0.210792 0.473916 0.995288
O O8 0.577005 0.295283 0.185993
O O9 0.337613 0.097316 0.075983
O O10 0.296920 0.052968 0.816293
O O11 0.304454 0.343273 0.962311
O O12 0.836910 0.401520 0.187876
O O13 0.066410 0.264534 0.018864
O O14 0.826012 0.178690 0.774718
O O15 0.758215 0.304507 0.602494
#
# Coordination Sequence:
#
# PCOD9040948 Si02
#       8
#     2   2   1   2   2   2   2   2
#     4  10  25  45  69  98 140 190 238 290 353 426
#     4  10  23  43  69  99 137 178 225 288 354 426
#     4  10  24  40  66  92 136 180 220 296 344 412
#     4  10  23  45  67 100 137 177 226 286 358 425
#     4  11  25  43  68 101 139 187 237 289 355 418
#     4  10  23  44  67 100 135 181 237 288 356 416
#     4  11  25  40  68 101 138 179 235 285 352 420
#     4  11  24  42  69 102 133 180 231 291 347 429
#
# _framework density 26.410713000000001
#
# number of rings (size 3 to 8) (size 9 to 14) (size 15 to 20)
#    0.000    1.600    0.000    2.400    7.467    7.467 
#    2.400    0.000    0.000    0.000    0.000    0.000 
#    0.000    0.000    0.000    0.000    0.000    0.000 
#
# Total GULP energy -83661.169660 kJ/mol
# GULP energy per Si atom -5577.411311 kJ/mol
# Density = 2.635060 g / cm^3
# Si number density = 26.410713 Si / 1000 Ang^3
#
#
#
# Elastic Constant Matrix: (Units=GPa)
#
#
# Indices 1 2 3 4 5 6 
#
# 1 115.0774 25.8452 22.6343 -8.7145 -8.5396 -7.1042
# 2 25.8452 123.9822 9.3355 21.7355 5.1863 -3.7791
# 3 22.6343 9.3355 29.2425 11.1484 -1.7519 3.8389
# 4 -8.7145 21.7355 11.1484 38.1347 2.5421 -5.9976
# 5 -8.5396 5.1863 -1.7519 2.5421 49.0862 -6.0709
# 6 -7.1042 -3.7791 3.8389 -5.9976 -6.0709 35.0798
#
#
#
# Elastic Compliance Matrix: (Units=1/GPa)
#
#
# Indices 1 2 3 4 5 6 
#
# 1 0.013432 -0.003406 -0.013672 0.009780 0.002437 0.005943
# 2 -0.003406 0.009880 0.002328 -0.007212 -0.001346 -0.001346
# 3 -0.013672 0.002328 0.054035 -0.022126 -0.001084 -0.012402
# 4 0.009780 -0.007212 -0.022126 0.040665 0.000895 0.010732
# 5 0.002437 -0.001346 -0.001084 0.000895 0.021388 0.004322
# 6 0.005943 -0.001346 -0.012402 0.010732 0.004322 0.033505
#
#
# Mechanical properties :
#
#
# Convention : Reuss Voigt Hill
#
# Bulk Modulus (GPa) = 20.90039 42.65913 31.77976
# Shear Modulus (GPa) = 22.89848 38.49262 30.69555
#
# Velocity S-wave (km/s) = 2.94771 3.82181 3.41286
# Velocity P-wave (km/s) = 4.41770 5.97179 5.25254
#
# Compressibility (1/GPa) = 0.04784601
#
# Stress axis : x y z
#
# Youngs Moduli (GPa) = 74.44715 101.21397 18.50659
#
# Poissons Ratio (x) = 0.34473 0.25303
# Poissons Ratio (y) = 0.25356 -0.04308
# Poissons Ratio (z) = 1.01787 -0.23560
#
# Static dielectric constant tensor:
#      x y z
#    x 2.015910 -0.002170 0.092900 
#    y -0.002170 2.125760 0.083450 
#    z 0.092900 0.083450 2.294410 
# 
# From -- ./inp_files/54761.got.cif
#   From: 2010.05.17/outbox.cif.g08.bks.cpg/sg2_28_cif.got.tgz:54761.got - 2010.06.03 11:33:40.
