data_PCOD9040992
_publ_section_title
;
Structure prediction by ZEFSAII (Michael W. Deem and Ramdas Pophale) SiO2 
 PCOD9040992
Probable space group: P -1
;
_chemical_formula_sum "Si O2"
_cell_formula_units_Z 16
_cell_length_a 17.101233
_cell_length_b 6.902168
_cell_length_c 10.486325
_cell_angle_alpha 65.484556
_cell_angle_beta 131.819982
_cell_angle_gamma 126.846060
_cell_volume 737.939789
_symmetry_space_group_name_H-M "P -1"
_symmetry_group_IT_number 2
_symmetry_cell_setting 'triclinic'
loop_
_space_group_symop_operation_xyz
x,y,z
-x,-y,-z
loop_
_atom_site_type_symbol
_atom_site_label
_atom_site_fract_x
_atom_site_fract_y
_atom_site_fract_z
Si Si1 0.341985 0.346064 0.238094
Si Si2 0.831187 0.036837 0.540879
Si Si3 0.682897 0.738765 0.054222
Si Si4 0.072440 0.615440 0.220963
Si Si5 0.420038 0.164498 0.609068
Si Si6 0.919498 0.124631 0.343554
Si Si7 0.119979 0.322135 0.157542
Si Si8 0.464261 0.808509 0.897422
O O1 0.389586 0.209285 0.421615
O O2 0.454451 0.612838 0.274949
O O3 0.231052 0.358457 0.181176
O O4 0.306733 0.224607 0.096073
O O5 0.846333 0.212220 0.626810
O O6 0.880921 0.175956 0.426077
O O7 0.690686 0.852053 0.423926
O O8 0.896637 0.887031 0.703120
O O9 0.641332 0.455427 0.109796
O O10 0.804265 0.922101 0.202767
O O11 0.578213 0.782892 0.986000
O O12 0.141296 0.552713 0.203421
O O13 0.983018 0.362995 0.261412
O O14 0.994381 0.725587 0.038909
O O15 0.425815 0.921576 0.708454
O O16 0.000000 0.000000 0.500000
O O17 0.500000 0.000000 0.000000
#
# Coordination Sequence:
#
# PCOD9040992 Si02
#       8
#     2   2   2   2   2   2   2   2
#     4  10  23  46  70 103 140 177 223 292 337 421
#     4  11  24  46  68  99 141 178 229 291 341 409
#     4  11  27  44  72 101 139 183 232 283 350 402
#     4  11  25  45  71  99 132 192 227 283 355 400
#     4  10  23  43  70 102 138 175 226 278 348 404
#     4  12  27  45  68 102 137 179 237 285 338 414
#     4  10  24  45  70  98 139 174 239 285 340 418
#     4  11  23  46  72 103 139 183 226 285 344 416
#
# _framework density 21.681986999999999
#
# number of rings (size 3 to 8) (size 9 to 14) (size 15 to 20)
#    0.000    1.250    2.500    1.500    7.000    5.500 
#    4.500    0.000    0.000    0.000    0.000    0.000 
#    0.000    0.000    0.000    0.000    0.000    0.000 
#
# Total GULP energy -89491.918609 kJ/mol
# GULP energy per Si atom -5593.244913 kJ/mol
# Density = 2.163264 g / cm^3
# Si number density = 21.681987 Si / 1000 Ang^3
#
#
#
# Elastic Constant Matrix: (Units=GPa)
#
#
# Indices 1 2 3 4 5 6 
#
# 1 85.9965 20.4119 34.5087 16.6701 -17.9804 -5.6835
# 2 20.4119 84.6964 36.9044 -10.5059 3.3884 -1.2727
# 3 34.5087 36.9044 109.9159 2.8576 -2.3158 -5.4990
# 4 16.6701 -10.5059 2.8576 40.2049 -4.8443 -9.2792
# 5 -17.9804 3.3884 -2.3158 -4.8443 27.8534 4.4952
# 6 -5.6835 -1.2727 -5.4990 -9.2792 4.4952 29.5049
#
#
#
# Elastic Compliance Matrix: (Units=1/GPa)
#
#
# Indices 1 2 3 4 5 6 
#
# 1 0.017575 -0.003858 -0.003884 -0.007062 0.010477 -0.001322
# 2 -0.003858 0.015439 -0.004128 0.005817 -0.003956 0.001585
# 3 -0.003884 -0.004128 0.011751 -0.000130 -0.001280 0.001418
# 4 -0.007062 0.005817 -0.000130 0.031225 -0.001280 0.008882
# 5 0.010477 -0.003956 -0.001280 -0.001280 0.043697 -0.005451
# 6 -0.001322 0.001585 0.001418 0.008882 -0.005451 0.037594
#
#
# Mechanical properties :
#
#
# Convention : Reuss Voigt Hill
#
# Bulk Modulus (GPa) = 47.56366 51.58429 49.57398
# Shear Modulus (GPa) = 26.59165 32.09824 29.34495
#
# Velocity S-wave (km/s) = 3.50586 3.85178 3.68288
# Velocity P-wave (km/s) = 6.19456 6.60489 6.40302
#
# Compressibility (1/GPa) = 0.02102445
#
# Stress axis : x y z
#
# Youngs Moduli (GPa) = 56.89963 64.77212 85.10270
#
# Poissons Ratio (x) = 0.24990 0.33055
# Poissons Ratio (y) = 0.21952 0.35127
# Poissons Ratio (z) = 0.22101 0.26735
#
# Static dielectric constant tensor:
#      x y z
#    x 1.808330 0.010330 -0.007380 
#    y 0.010330 1.789830 -0.008860 
#    z -0.007380 -0.008860 1.775950 
# 
# From -- ./inp_files/459469.got.cif
#   From: 2010.05.17/outbox.cif.g08.bks.cpg/sg2_230_cif.got.tgz:459469.got - 2010.06.03 11:33:40.
