data_PCOD9040351
_publ_section_title
;
Structure prediction by ZEFSAII (Michael W. Deem and Ramdas Pophale) SiO2 
 PCOD9040351
Probable space group: P -1
;
_chemical_formula_sum "Si O2"
_cell_formula_units_Z 12
_cell_length_a 9.230999
_cell_length_b 11.238462
_cell_length_c 6.969046
_cell_angle_alpha 59.696195
_cell_angle_beta 50.458317
_cell_angle_gamma 69.647635
_cell_volume 480.973991
_symmetry_space_group_name_H-M "P -1"
_symmetry_group_IT_number 2
_symmetry_cell_setting 'triclinic'
loop_
_space_group_symop_operation_xyz
x,y,z
-x,-y,-z
loop_
_atom_site_type_symbol
_atom_site_label
_atom_site_fract_x
_atom_site_fract_y
_atom_site_fract_z
Si Si1 0.430583 0.669660 0.565295
Si Si2 0.494069 0.136472 0.016098
Si Si3 0.173601 0.580661 0.575650
Si Si4 0.220917 0.752524 0.051348
Si Si5 0.913890 0.848395 0.687465
Si Si6 0.850084 0.709861 0.249306
O O1 0.315515 0.547030 0.662441
O O2 0.292049 0.734676 0.789455
O O3 0.633705 0.672077 0.495373
O O4 0.457884 0.752853 0.277213
O O5 0.653880 0.135684 0.043034
O O6 0.282972 0.155380 0.258523
O O7 0.500000 0.000000 0.000000
O O8 0.060741 0.443026 0.752129
O O9 0.054143 0.720511 0.615551
O O10 0.259618 0.618540 0.263751
O O11 0.995833 0.774181 0.220226
O O12 0.852258 0.809987 0.985443
O O13 0.000000 0.000000 0.500000
#
# Coordination Sequence:
#
# PCOD9040351 Si02
#       6
#     2   2   2   2   2   2
#     4  10  23  43  66 101 137 176 226 275 339 396
#     4  10  24  46  65  96 140 180 225 279 338 407
#     4  11  23  45  68 102 141 175 226 278 337 403
#     4  11  24  42  69 101 137 171 230 283 332 400
#     4  11  23  44  72  95 135 184 223 279 342 395
#     4  11  24  44  70 101 138 181 224 279 337 398
#
# _framework density 24.949375
#
# number of rings (size 3 to 8) (size 9 to 14) (size 15 to 20)
#    0.000    1.333    1.667    3.500    2.333    1.333 
#    0.000    2.500    0.000    0.000    0.000    0.000 
#    0.000    0.000    0.000    0.000    0.000    0.000 
#
# Total GULP energy -66940.257216 kJ/mol
# GULP energy per Si atom -5578.354768 kJ/mol
# Density = 2.489259 g / cm^3
# Si number density = 24.949375 Si / 1000 Ang^3
#
#
#
# Elastic Constant Matrix: (Units=GPa)
#
#
# Indices 1 2 3 4 5 6 
#
# 1 175.8414 16.0226 3.7328 24.3454 -33.8491 34.6513
# 2 16.0226 62.3806 6.5272 -11.6052 -16.6509 0.5030
# 3 3.7328 6.5272 71.4772 5.5616 -16.5868 2.3105
# 4 24.3454 -11.6052 5.5616 34.4740 -1.0670 -1.9521
# 5 -33.8491 -16.6509 -16.5868 -1.0670 42.0272 3.9642
# 6 34.6513 0.5030 2.3105 -1.9521 3.9642 47.5590
#
#
#
# Elastic Compliance Matrix: (Units=1/GPa)
#
#
# Indices 1 2 3 4 5 6 
#
# 1 0.010659 -0.002080 0.002823 -0.008901 0.009501 -0.009039
# 2 -0.002080 0.019824 -0.001045 0.008562 0.005869 0.001219
# 3 0.002823 -0.001045 0.016435 -0.004944 0.008575 -0.003762
# 4 -0.008901 0.008562 -0.004944 0.039294 -0.005552 0.008710
# 5 0.009501 0.005869 0.008575 -0.005552 0.038034 -0.010800
# 6 -0.009039 0.001219 -0.003762 0.008710 -0.010800 0.029040
#
#
# Mechanical properties :
#
#
# Convention : Reuss Voigt Hill
#
# Bulk Modulus (GPa) = 21.59241 40.25159 30.92200
# Shear Modulus (GPa) = 29.52861 43.70648 36.61754
#
# Velocity S-wave (km/s) = 3.44400 4.19000 3.83518
# Velocity P-wave (km/s) = 4.94854 6.29098 5.65971
#
# Compressibility (1/GPa) = 0.04631258
#
# Stress axis : x y z
#
# Youngs Moduli (GPa) = 93.81730 50.44469 60.84685
#
# Poissons Ratio (x) = 0.10492 -0.17176
# Poissons Ratio (y) = 0.19514 0.06361
# Poissons Ratio (z) = -0.26484 0.05273
#
# Static dielectric constant tensor:
#      x y z
#    x 2.373550 0.024970 -0.290860 
#    y 0.024970 2.020660 -0.008300 
#    z -0.290860 -0.008300 2.187670 
# 
# From -- ./inp_files/26418.got.cif
#   From: 2010.05.17/outbox.cif.g08.bks.cpg/sg2_14_cif.got.tgz:26418.got - 2010.06.03 11:33:40.
