data_PCOD9040024
_publ_section_title
;
Structure prediction by ZEFSAII (Michael W. Deem and Ramdas Pophale) SiO2 
 PCOD9040024
Probable space group: P -1
;
_chemical_formula_sum "Si O2"
_cell_formula_units_Z 8
_cell_length_a 7.877848
_cell_length_b 4.993162
_cell_length_c 7.947991
_cell_angle_alpha 91.905697
_cell_angle_beta 111.868934
_cell_angle_gamma 86.539291
_cell_volume 289.590627
_symmetry_space_group_name_H-M "P -1"
_symmetry_group_IT_number 2
_symmetry_cell_setting 'triclinic'
loop_
_space_group_symop_operation_xyz
x,y,z
-x,-y,-z
loop_
_atom_site_type_symbol
_atom_site_label
_atom_site_fract_x
_atom_site_fract_y
_atom_site_fract_z
Si Si1 0.122415 0.136778 0.846862
Si Si2 0.362843 0.327907 0.625392
Si Si3 0.599791 0.251433 0.122246
Si Si4 0.739633 0.957864 0.746173
O O1 0.219072 0.251676 0.718920
O O2 0.906111 0.146147 0.769183
O O3 0.191398 0.820442 0.851583
O O4 0.200704 0.200703 0.062696
O O5 0.397707 0.639940 0.683070
O O6 0.555184 0.149919 0.702590
O O7 0.279895 0.248132 0.417138
O O8 0.500000 0.500000 0.000000
O O9 0.500000 0.000000 0.000000
#
# Coordination Sequence:
#
# PCOD9040024 Si02
#       4
#     2   2   2   2
#     4  11  22  45  73 106 147 192 239 302 368 429
#     4  11  23  46  73 104 151 189 243 303 365 430
#     4  12  23  45  77 105 146 199 238 302 373 428
#     4  10  23  42  74 115 138 195 245 299 361 446
#
# _framework density 27.625202000000002
#
# number of rings (size 3 to 8) (size 9 to 14) (size 15 to 20)
#    0.000    1.000    5.000    1.500    0.000    1.000 
#    0.000   27.500    0.000    0.000    0.000    0.000 
#    0.000    0.000    0.000    0.000    0.000    0.000 
#
# Total GULP energy -44718.846696 kJ/mol
# GULP energy per Si atom -5589.855837 kJ/mol
# Density = 2.756233 g / cm^3
# Si number density = 27.625202 Si / 1000 Ang^3
#
#
#
# Elastic Constant Matrix: (Units=GPa)
#
#
# Indices 1 2 3 4 5 6 
#
# 1 207.1565 51.9639 93.7054 7.1851 -19.7410 22.8513
# 2 51.9639 145.9048 67.4062 42.1628 -0.0925 -4.3508
# 3 93.7054 67.4062 247.7553 64.4943 -15.7723 2.2149
# 4 7.1851 42.1628 64.4943 59.5046 3.5435 -6.8881
# 5 -19.7410 -0.0925 -15.7723 3.5435 45.4269 -5.6711
# 6 22.8513 -4.3508 2.2149 -6.8881 -5.6711 24.1236
#
#
#
# Elastic Compliance Matrix: (Units=1/GPa)
#
#
# Indices 1 2 3 4 5 6 
#
# 1 0.007368 -0.002397 -0.002805 0.003082 0.001236 -0.005984
# 2 -0.002397 0.009601 -0.000171 -0.006052 -0.000333 0.002211
# 3 -0.002805 -0.000171 0.007191 -0.007413 0.001892 0.000294
# 4 0.003082 -0.006052 -0.007413 0.029441 -0.002997 0.004371
# 5 0.001236 -0.000333 0.001892 -0.002997 0.023859 0.003349
# 6 -0.005984 0.002211 0.000294 0.004371 0.003349 0.049528
#
#
# Mechanical properties :
#
#
# Convention : Reuss Voigt Hill
#
# Bulk Modulus (GPa) = 74.54405 114.10751 94.32578
# Shear Modulus (GPa) = 35.16044 51.66042 43.41043
#
# Velocity S-wave (km/s) = 3.57146 4.32910 3.96840
# Velocity P-wave (km/s) = 6.63700 8.14760 7.43078
#
# Compressibility (1/GPa) = 0.01341489
#
# Stress axis : x y z
#
# Youngs Moduli (GPa) = 135.71917 104.15446 139.05849
#
# Poissons Ratio (x) = 0.24963 0.39005
# Poissons Ratio (y) = 0.32528 0.02380
# Poissons Ratio (z) = 0.38068 0.01783
#
# Static dielectric constant tensor:
#      x y z
#    x 2.317750 0.147900 -0.047210 
#    y 0.147900 2.329540 -0.088570 
#    z -0.047210 -0.088570 2.257720 
# 
# From -- ./inp_files/143817.got.cif
#   From: 2010.05.17/outbox.cif.g08.bks.cpg/sg2_72_cif.got.tgz:143817.got - 2010.06.03 11:33:40.
