data_PCOD9040651
_publ_section_title
;
Structure prediction by ZEFSAII (Michael W. Deem and Ramdas Pophale) SiO2 
 PCOD9040651
Probable space group: P -1
;
_chemical_formula_sum "Si O2"
_cell_formula_units_Z 16
_cell_length_a 10.208167
_cell_length_b 11.308826
_cell_length_c 9.123341
_cell_angle_alpha 84.328510
_cell_angle_beta 98.902120
_cell_angle_gamma 39.635408
_cell_volume 622.780954
_symmetry_space_group_name_H-M "P -1"
_symmetry_group_IT_number 2
_symmetry_cell_setting 'triclinic'
loop_
_space_group_symop_operation_xyz
x,y,z
-x,-y,-z
loop_
_atom_site_type_symbol
_atom_site_label
_atom_site_fract_x
_atom_site_fract_y
_atom_site_fract_z
Si Si1 0.674245 0.320251 0.352390
Si Si2 0.593103 0.562790 0.960680
Si Si3 0.429943 0.119804 0.328370
Si Si4 0.191730 0.442683 0.473296
Si Si5 0.924879 0.040675 0.705184
Si Si6 0.868198 0.855613 0.251618
Si Si7 0.928597 0.690114 0.976269
Si Si8 0.467668 0.726052 0.220518
O O1 0.517335 0.346405 0.227827
O O2 0.747568 0.208563 0.530342
O O3 0.548631 0.534632 0.303229
O O4 0.902568 0.168133 0.319923
O O5 0.500000 0.500000 0.000000
O O6 0.517446 0.704446 0.060323
O O7 0.853464 0.390321 0.014195
O O8 0.281249 0.330013 0.349076
O O9 0.270494 0.158630 0.191175
O O10 0.500000 0.000000 0.500000
O O11 0.647937 0.000191 0.291675
O O12 0.383923 0.302478 0.643792
O O13 0.000000 0.500000 0.500000
O O14 0.076452 0.651848 0.401988
O O15 0.787799 0.084416 0.807988
O O16 0.060563 0.059788 0.774112
O O17 0.851073 0.789566 0.109990
O O18 0.000000 0.500000 0.000000
#
# Coordination Sequence:
#
# PCOD9040651 Si02
#       8
#     2   2   2   2   2   2   2   2
#     4  10  23  43  68 102 143 181 239 289 360 426
#     4  10  24  45  72 100 143 192 235 293 366 431
#     4  12  28  48  74 105 146 195 247 298 362 440
#     4  12  25  45  70 104 144 191 242 295 363 430
#     4  11  25  41  72 108 138 182 241 297 357 427
#     4  12  26  46  75 106 146 187 240 304 366 431
#     4  12  27  48  78 107 149 194 243 306 372 435
#     4  11  24  43  71  98 144 187 233 292 360 426
#
# _framework density 25.691213999999999
#
# number of rings (size 3 to 8) (size 9 to 14) (size 15 to 20)
#    0.000    0.750    3.750    3.000    7.000    0.500 
#    2.250    0.000    0.000    0.000    0.000    0.000 
#    0.000    0.000    0.000    0.000    0.000    0.000 
#
# Total GULP energy -89735.515067 kJ/mol
# GULP energy per Si atom -5608.469692 kJ/mol
# Density = 2.563274 g / cm^3
# Si number density = 25.691214 Si / 1000 Ang^3
#
#
#
# Elastic Constant Matrix: (Units=GPa)
#
#
# Indices 1 2 3 4 5 6 
#
# 1 111.6843 56.9460 42.3012 8.4923 12.3116 -29.9659
# 2 56.9460 169.0351 41.2749 26.5530 2.9172 -30.0096
# 3 42.3012 41.2749 169.1585 7.4095 36.0221 -20.6788
# 4 8.4923 26.5530 7.4095 56.2494 -0.7433 -5.4552
# 5 12.3116 2.9172 36.0221 -0.7433 38.8040 -4.1648
# 6 -29.9659 -30.0096 -20.6788 -5.4552 -4.1648 50.9232
#
#
#
# Elastic Compliance Matrix: (Units=1/GPa)
#
#
# Indices 1 2 3 4 5 6 
#
# 1 0.012527 -0.003001 -0.001400 0.000159 -0.001921 0.004894
# 2 -0.003001 0.008056 -0.001141 -0.002952 0.001600 0.002332
# 3 -0.001400 -0.001141 0.008181 -0.000300 -0.006938 0.001226
# 4 0.000159 -0.002952 -0.000300 0.019234 0.000858 0.000363
# 5 -0.001921 0.001600 -0.006938 0.000858 0.032692 -0.000240
# 6 0.004894 0.002332 0.001226 0.000363 -0.000240 0.024409
#
#
# Mechanical properties :
#
#
# Convention : Reuss Voigt Hill
#
# Bulk Modulus (GPa) = 56.56560 81.21357 68.88959
# Shear Modulus (GPa) = 40.95796 49.81905 45.38851
#
# Velocity S-wave (km/s) = 3.99713 4.40835 4.20777
# Velocity P-wave (km/s) = 6.58544 7.58890 7.10491
#
# Compressibility (1/GPa) = 0.01767859
#
# Stress axis : x y z
#
# Youngs Moduli (GPa) = 79.82586 124.13165 122.23827
#
# Poissons Ratio (x) = 0.37257 0.17112
# Poissons Ratio (y) = 0.23959 0.13952
# Poissons Ratio (z) = 0.11175 0.14168
#
# Static dielectric constant tensor:
#      x y z
#    x 2.040890 0.070450 -0.027090 
#    y 0.070450 2.026530 -0.029010 
#    z -0.027090 -0.029010 2.019890 
# 
# From -- ./inp_files/273174.got.cif
#   From: 2010.05.17/outbox.cif.g08.bks.cpg/sg2_137_cif.got.tgz:273174.got - 2010.06.03 11:33:40.
