data_PCOD9040437
_publ_section_title
;
Structure prediction by ZEFSAII (Michael W. Deem and Ramdas Pophale) SiO2 
 PCOD9040437
Probable space group: P -1
;
_chemical_formula_sum "Si O2"
_cell_formula_units_Z 12
_cell_length_a 5.191969
_cell_length_b 8.887321
_cell_length_c 17.684471
_cell_angle_alpha 52.555793
_cell_angle_beta 92.774135
_cell_angle_gamma 65.716493
_cell_volume 537.994685
_symmetry_space_group_name_H-M "P -1"
_symmetry_group_IT_number 2
_symmetry_cell_setting 'triclinic'
loop_
_space_group_symop_operation_xyz
x,y,z
-x,-y,-z
loop_
_atom_site_type_symbol
_atom_site_label
_atom_site_fract_x
_atom_site_fract_y
_atom_site_fract_z
Si Si1 0.652356 0.298219 0.123171
Si Si2 0.528956 0.987893 0.288021
Si Si3 0.751289 0.188815 0.766754
Si Si4 0.301467 0.170300 0.377893
Si Si5 0.157902 0.616540 0.427577
Si Si6 0.618819 0.433126 0.250153
O O1 0.702417 0.387602 0.176278
O O2 0.431649 0.213814 0.171857
O O3 0.500000 0.500000 0.000000
O O4 0.946814 0.068598 0.159611
O O5 0.503157 0.824779 0.280326
O O6 0.879511 0.880282 0.355447
O O7 0.340933 0.021363 0.350115
O O8 0.802192 0.365060 0.667336
O O9 0.618144 0.302338 0.810909
O O10 0.453938 0.304463 0.311373
O O11 0.933285 0.332930 0.333872
O O12 0.500000 0.000000 0.500000
O O13 0.500000 0.500000 0.500000
O O14 0.000000 0.500000 0.500000
#
# Coordination Sequence:
#
# PCOD9040437 Si02
#       6
#     2   2   2   2   2   2
#     4  10  24  49  72  97 138 183 230 301 357 402
#     4  10  23  43  66  99 139 179 237 277 337 423
#     4  11  24  43  69 102 140 176 237 288 339 418
#     4  11  25  43  66  98 146 187 224 277 339 409
#     4  11  23  36  62  98 137 184 224 266 335 402
#     4  11  26  44  68 104 139 176 234 286 335 419
#
# _framework density 22.305053999999998
#
# number of rings (size 3 to 8) (size 9 to 14) (size 15 to 20)
#    0.000    1.333    3.333    0.500    9.333    1.333 
#    0.000    0.833    0.000    0.000    0.000    0.000 
#    0.000    0.000    0.000    0.000    0.000    0.000 
#
# Total GULP energy -66883.209014 kJ/mol
# GULP energy per Si atom -5573.600751 kJ/mol
# Density = 2.225429 g / cm^3
# Si number density = 22.305054 Si / 1000 Ang^3
#
#
#
# Elastic Constant Matrix: (Units=GPa)
#
#
# Indices 1 2 3 4 5 6 
#
# 1 128.8977 22.0085 44.1374 -5.0423 -2.5106 -0.3963
# 2 22.0085 158.2957 46.6542 2.9355 12.6766 -9.4411
# 3 44.1374 46.6542 155.7586 -6.9955 4.8401 3.6263
# 4 -5.0423 2.9355 -6.9955 19.6333 -1.8417 3.0646
# 5 -2.5106 12.6766 4.8401 -1.8417 23.1367 -6.4631
# 6 -0.3963 -9.4411 3.6263 3.0646 -6.4631 28.2217
#
#
#
# Elastic Compliance Matrix: (Units=1/GPa)
#
#
# Indices 1 2 3 4 5 6 
#
# 1 0.008765 -0.000720 -0.002269 0.001673 0.002085 0.000469
# 2 -0.000720 0.007494 -0.002114 -0.002729 -0.003315 0.002306
# 3 -0.002269 -0.002114 0.007913 0.002806 -0.001170 -0.002329
# 4 0.001673 -0.002729 0.002806 0.054095 0.003639 -0.006291
# 5 0.002085 -0.003315 -0.001170 0.003639 0.048533 0.009790
# 6 0.000469 0.002306 -0.002329 -0.006291 0.009790 0.039436
#
#
# Mechanical properties :
#
#
# Convention : Reuss Voigt Hill
#
# Bulk Modulus (GPa) = 71.59735 74.28355 72.94045
# Shear Modulus (GPa) = 27.60943 36.20847 31.90895
#
# Velocity S-wave (km/s) = 3.52207 4.03343 3.78639
# Velocity P-wave (km/s) = 6.97917 7.42072 7.20333
#
# Compressibility (1/GPa) = 0.01396700
#
# Stress axis : x y z
#
# Youngs Moduli (GPa) = 114.08522 133.43948 126.37585
#
# Poissons Ratio (x) = 0.09607 0.28672
# Poissons Ratio (y) = 0.08214 0.26715
# Poissons Ratio (z) = 0.25883 0.28208
#
# Static dielectric constant tensor:
#      x y z
#    x 1.928720 -0.021220 -0.000640 
#    y -0.021220 1.949990 -0.023980 
#    z -0.000640 -0.023980 1.829440 
# 
# From -- ./inp_files/546111.got.cif
#   From: 2010.05.17/outbox.cif.g08.bks.cpg/sg2_274_cif.got.tgz:546111.got - 2010.06.03 11:33:40.
