data_PCOD9040495
_publ_section_title
;
Structure prediction by ZEFSAII (Michael W. Deem and Ramdas Pophale) SiO2 
 PCOD9040495
Probable space group: P -1
;
_chemical_formula_sum "Si O2"
_cell_formula_units_Z 16
_cell_length_a 8.635812
_cell_length_b 9.169203
_cell_length_c 14.641556
_cell_angle_alpha 129.743021
_cell_angle_beta 85.398404
_cell_angle_gamma 76.257804
_cell_volume 823.070967
_symmetry_space_group_name_H-M "P -1"
_symmetry_group_IT_number 2
_symmetry_cell_setting 'triclinic'
loop_
_space_group_symop_operation_xyz
x,y,z
-x,-y,-z
loop_
_atom_site_type_symbol
_atom_site_label
_atom_site_fract_x
_atom_site_fract_y
_atom_site_fract_z
Si Si1 0.151469 0.742643 0.442307
Si Si2 0.721544 0.444532 0.461075
Si Si3 0.341072 0.126870 0.291228
Si Si4 0.152509 0.885261 0.309102
Si Si5 0.027711 0.712150 0.076128
Si Si6 0.682018 0.101245 0.201262
Si Si7 0.147400 0.779593 0.909186
Si Si8 0.976535 0.612284 0.696414
O O1 0.288495 0.627615 0.464783
O O2 0.340296 0.311225 0.432460
O O3 0.226479 0.773600 0.355574
O O4 0.045353 0.600284 0.374313
O O5 0.660487 0.303726 0.343289
O O6 0.914137 0.383474 0.395659
O O7 0.976193 0.053934 0.421482
O O8 0.525202 0.038831 0.203897
O O9 0.206364 0.222452 0.253989
O O10 0.272396 0.982795 0.294582
O O11 0.106108 0.752829 0.182301
O O12 0.150399 0.702899 0.981105
O O13 0.854208 0.910775 0.144352
O O14 0.000000 0.500000 0.000000
O O15 0.700140 0.178387 0.128998
O O16 0.078285 0.650643 0.791714
O O17 0.000000 0.000000 0.000000
#
# Coordination Sequence:
#
# PCOD9040495 Si02
#       8
#     2   2   2   2   2   2   2   2
#     4  10  18  31  56  81 108 139 187 218 266 317
#     4  10  17  35  55  83 112 148 173 219 269 341
#     4  11  19  33  56  86 116 139 172 229 287 313
#     4  11  20  34  56  81 109 144 183 225 263 330
#     4  11  22  41  59  77 105 152 191 222 265 324
#     4  10  21  36  55  84 113 139 182 230 272 322
#     4   9  19  36  57  78 105 144 192 222 259 324
#     4  10  17  33  56  83 106 144 183 221 263 329
#
# _framework density 19.439392000000002
#
# number of rings (size 3 to 8) (size 9 to 14) (size 15 to 20)
#    0.000    1.750    3.750    3.375    0.000    0.000 
#    0.000    9.375    0.000    0.000    0.000    0.000 
#    0.000    0.000    0.000    0.000    0.000    0.000 
#
# Total GULP energy -89137.755030 kJ/mol
# GULP energy per Si atom -5571.109689 kJ/mol
# Density = 1.939515 g / cm^3
# Si number density = 19.439392 Si / 1000 Ang^3
#
#
#
# Elastic Constant Matrix: (Units=GPa)
#
#
# Indices 1 2 3 4 5 6 
#
# 1 73.7183 17.5736 32.9525 -7.5570 -15.5881 22.8331
# 2 17.5736 91.1745 53.6941 -18.8052 4.7194 32.5141
# 3 32.9525 53.6941 95.5622 -20.4049 9.3722 19.3984
# 4 -7.5570 -18.8052 -20.4049 31.9490 8.1124 -4.4196
# 5 -15.5881 4.7194 9.3722 8.1124 17.4373 3.3949
# 6 22.8331 32.5141 19.3984 -4.4196 3.3949 24.8478
#
#
#
# Elastic Compliance Matrix: (Units=1/GPa)
#
#
# Indices 1 2 3 4 5 6 
#
# 1 0.090639 0.041638 -0.051828 -0.039848 0.140208 -0.123556
# 2 0.041638 0.046272 -0.031729 -0.010971 0.063336 -0.084644
# 3 -0.051828 -0.031729 0.048037 0.032948 -0.092549 0.070148
# 4 -0.039848 -0.010971 0.032948 0.066379 -0.090875 0.049473
# 5 0.140208 0.063336 -0.092549 -0.090875 0.295733 -0.196033
# 6 -0.123556 -0.084644 0.070148 0.049473 -0.196033 0.245361
#
#
# Mechanical properties :
#
#
# Convention : Reuss Voigt Hill
#
# Bulk Modulus (GPa) = 9.89039 52.09949 30.99494
# Shear Modulus (GPa) = 5.49473 25.26247 15.37860
#
# Velocity S-wave (km/s) = 1.68307 3.60884 2.81571
# Velocity P-wave (km/s) = 2.97923 6.65012 5.15267
#
# Compressibility (1/GPa) = 0.10110823
#
# Stress axis : x y z
#
# Youngs Moduli (GPa) = 11.03273 21.61118 20.81749
#
# Poissons Ratio (x) = -0.89984 1.07894
# Poissons Ratio (y) = -0.45938 0.66052
# Poissons Ratio (z) = 0.57181 0.68570
#
# Static dielectric constant tensor:
#      x y z
#    x 1.689550 -0.010460 -0.037040 
#    y -0.010460 1.714740 -0.003280 
#    z -0.037040 -0.003280 1.659750 
# 
# From -- ./inp_files/491412.got.cif
#   From: 2010.05.17/outbox.cif.g08.bks.cpg/sg2_246_cif.got.tgz:491412.got - 2010.06.03 11:33:40.
