data_PCOD9040804
_publ_section_title
;
Structure prediction by ZEFSAII (Michael W. Deem and Ramdas Pophale) SiO2 
 PCOD9040804
Probable space group: P -1
;
_chemical_formula_sum "Si O2"
_cell_formula_units_Z 16
_cell_length_a 11.165755
_cell_length_b 9.431649
_cell_length_c 13.438457
_cell_angle_alpha 101.946166
_cell_angle_beta 149.302134
_cell_angle_gamma 87.961161
_cell_volume 677.497960
_symmetry_space_group_name_H-M "P -1"
_symmetry_group_IT_number 2
_symmetry_cell_setting 'triclinic'
loop_
_space_group_symop_operation_xyz
x,y,z
-x,-y,-z
loop_
_atom_site_type_symbol
_atom_site_label
_atom_site_fract_x
_atom_site_fract_y
_atom_site_fract_z
Si Si1 0.801657 0.019117 0.091321
Si Si2 0.654267 0.211997 0.347335
Si Si3 0.336783 0.118456 0.413890
Si Si4 0.854748 0.864032 0.309173
Si Si5 0.672294 0.313021 0.023064
Si Si6 0.394260 0.596335 0.209901
Si Si7 0.283006 0.547486 0.725994
Si Si8 0.386300 0.365311 0.323843
O O1 0.068065 0.021589 0.242299
O O2 0.774368 0.932486 0.163106
O O3 0.807620 0.192041 0.137119
O O4 0.570382 0.942642 0.842611
O O5 0.635564 0.285044 0.237502
O O6 0.590731 0.320064 0.399025
O O7 0.928755 0.211338 0.566490
O O8 0.472912 0.253707 0.608901
O O9 0.284609 0.213376 0.294229
O O10 0.500000 0.000000 0.500000
O O11 0.617183 0.772042 0.185756
O O12 0.000000 0.000000 0.500000
O O13 0.766626 0.360669 0.986056
O O14 0.701628 0.445637 0.142875
O O15 0.581858 0.543196 0.262065
O O16 0.266634 0.451969 0.167651
O O17 0.000000 0.500000 0.500000
O O18 0.500000 0.500000 0.500000
#
# Coordination Sequence:
#
# PCOD9040804 Si02
#       8
#     2   2   2   2   2   2   2   2
#     4  12  25  41  67 108 143 176 243 295 351 428
#     4  11  23  42  70 102 139 188 234 291 356 418
#     4  11  24  46  77 101 135 186 241 306 359 403
#     4  12  22  39  66 104 150 182 221 288 356 425
#     4  12  23  41  69 106 144 186 232 281 354 433
#     4  10  23  43  69 100 141 183 236 284 352 428
#     4  11  22  42  67  99 146 190 232 279 346 435
#     4   9  22  46  70  94 136 180 238 297 351 409
#
# _framework density 23.616308
#
# number of rings (size 3 to 8) (size 9 to 14) (size 15 to 20)
#    0.000    1.000    2.500    4.500    1.750    0.500 
#    0.000    0.625    8.250    0.000    0.000    0.000 
#    0.000    0.000    0.000    0.000    0.000    0.000 
#
# Total GULP energy -89234.563754 kJ/mol
# GULP energy per Si atom -5577.160235 kJ/mol
# Density = 2.356256 g / cm^3
# Si number density = 23.616308 Si / 1000 Ang^3
#
#
#
# Elastic Constant Matrix: (Units=GPa)
#
#
# Indices 1 2 3 4 5 6 
#
# 1 92.8817 45.1028 17.1943 -2.9787 -25.2437 8.6657
# 2 45.1028 126.8202 23.8492 -15.0253 -10.1030 8.3748
# 3 17.1943 23.8492 71.7603 4.5282 -7.4887 -9.0004
# 4 -2.9787 -15.0253 4.5282 32.4220 1.8898 -2.3349
# 5 -25.2437 -10.1030 -7.4887 1.8898 33.3314 -8.5613
# 6 8.6657 8.3748 -9.0004 -2.3349 -8.5613 61.3754
#
#
#
# Elastic Compliance Matrix: (Units=1/GPa)
#
#
# Indices 1 2 3 4 5 6 
#
# 1 0.016168 -0.004818 -0.001147 -0.001227 0.010500 -0.000375
# 2 -0.004818 0.010709 -0.003055 0.004954 -0.001698 -0.001277
# 3 -0.001147 -0.003055 0.016162 -0.003715 0.002871 0.003208
# 4 -0.001227 0.004954 -0.003715 0.033668 -0.002189 -0.000072
# 5 0.010500 -0.001698 0.002871 -0.002189 0.039385 0.004581
# 6 -0.000375 -0.001277 0.003208 -0.000072 0.004581 0.017627
#
#
# Mechanical properties :
#
#
# Convention : Reuss Voigt Hill
#
# Bulk Modulus (GPa) = 40.00100 51.52831 45.76465
# Shear Modulus (GPa) = 31.23231 39.11348 35.17290
#
# Velocity S-wave (km/s) = 3.64055 4.07407 3.86339
# Velocity P-wave (km/s) = 5.88610 6.63302 6.27069
#
# Compressibility (1/GPa) = 0.02499937
#
# Stress axis : x y z
#
# Youngs Moduli (GPa) = 61.85140 93.37728 61.87504
#
# Poissons Ratio (x) = 0.44993 0.07094
# Poissons Ratio (y) = 0.29803 0.18901
# Poissons Ratio (z) = 0.07091 0.28524
#
# Static dielectric constant tensor:
#      x y z
#    x 1.961100 0.025840 0.014340 
#    y 0.025840 1.882830 -0.104620 
#    z 0.014340 -0.104620 1.984160 
# 
# From -- ./inp_files/515821.got.cif
#   From: 2010.05.17/outbox.cif.g08.bks.cpg/sg2_258_cif.got.tgz:515821.got - 2010.06.03 11:33:40.
