data_PCOD9040672
_publ_section_title
;
Structure prediction by ZEFSAII (Michael W. Deem and Ramdas Pophale) SiO2 
 PCOD9040672
Probable space group: P -1
;
_chemical_formula_sum "Si O2"
_cell_formula_units_Z 16
_cell_length_a 11.622513
_cell_length_b 5.743562
_cell_length_c 12.832729
_cell_angle_alpha 98.351526
_cell_angle_beta 61.138973
_cell_angle_gamma 123.343204
_cell_volume 618.250873
_symmetry_space_group_name_H-M "P -1"
_symmetry_group_IT_number 2
_symmetry_cell_setting 'triclinic'
loop_
_space_group_symop_operation_xyz
x,y,z
-x,-y,-z
loop_
_atom_site_type_symbol
_atom_site_label
_atom_site_fract_x
_atom_site_fract_y
_atom_site_fract_z
Si Si1 0.295509 0.048572 0.000568
Si Si2 0.966683 0.602536 0.211878
Si Si3 0.173872 0.217427 0.890541
Si Si4 0.972688 0.979325 0.389861
Si Si5 0.528268 0.166070 0.173994
Si Si6 0.691429 0.648716 0.790408
Si Si7 0.737297 0.063337 0.385990
Si Si8 0.556805 0.207644 0.628700
O O1 0.139373 0.764084 0.095330
O O2 0.324818 0.308983 0.075441
O O3 0.449937 0.042767 0.920943
O O4 0.259274 0.078840 0.898511
O O5 0.873010 0.713210 0.195736
O O6 0.984717 0.727947 0.326166
O O7 0.864881 0.269920 0.255998
O O8 0.304687 0.537848 0.890407
O O9 0.000000 0.000000 0.000000
O O10 0.817284 0.960486 0.422406
O O11 0.000000 0.000000 0.500000
O O12 0.126109 0.245582 0.287299
O O13 0.378011 0.166794 0.205005
O O14 0.508696 0.082448 0.298371
O O15 0.623493 0.427091 0.708935
O O16 0.676655 0.225265 0.491257
O O17 0.585724 0.815583 0.374393
#
# Coordination Sequence:
#
# PCOD9040672 Si02
#       8
#     2   2   2   2   2   2   2   2
#     4  10  25  44  70 107 145 196 243 297 357 427
#     4  10  23  44  73 104 142 190 243 298 358 429
#     4  10  23  43  68 104 143 186 242 300 353 424
#     4  11  25  45  73 105 145 191 243 300 360 430
#     4  12  24  43  72 103 151 190 245 290 368 428
#     4  11  26  46  68 107 150 193 237 302 358 429
#     4  11  25  47  77 108 143 192 243 300 363 440
#     4  11  26  45  74 111 144 190 241 301 367 428
#
# _framework density 25.879462
#
# number of rings (size 3 to 8) (size 9 to 14) (size 15 to 20)
#    0.000    1.250    1.250    2.625    3.500   12.000 
#    0.000    3.125    0.000    0.000    0.000    0.000 
#    0.000    0.000    0.000    0.000    0.000    0.000 
#
# Total GULP energy -89232.095491 kJ/mol
# GULP energy per Si atom -5577.005968 kJ/mol
# Density = 2.582056 g / cm^3
# Si number density = 25.879462 Si / 1000 Ang^3
#
#
#
# Elastic Constant Matrix: (Units=GPa)
#
#
# Indices 1 2 3 4 5 6 
#
# 1 124.0375 -3.7285 20.8851 11.3846 -3.0030 15.2825
# 2 -3.7285 52.2664 28.2493 8.6356 -7.2383 24.1826
# 3 20.8851 28.2493 128.0741 16.4466 5.6611 7.3056
# 4 11.3846 8.6356 16.4466 34.6666 6.4743 3.5278
# 5 -3.0030 -7.2383 5.6611 6.4743 43.2583 -0.5689
# 6 15.2825 24.1826 7.3056 3.5278 -0.5689 33.7473
#
#
#
# Elastic Compliance Matrix: (Units=1/GPa)
#
#
# Indices 1 2 3 4 5 6 
#
# 1 0.010113 0.006916 -0.002343 -0.003538 0.002582 -0.008615
# 2 0.006916 0.039557 -0.007669 -0.007187 0.008798 -0.028917
# 3 -0.002343 -0.007669 0.009994 -0.002082 -0.002382 0.004571
# 4 -0.003538 -0.007187 -0.002082 0.033570 -0.006153 0.003590
# 5 0.002582 0.008798 -0.002382 -0.006153 0.025924 -0.005878
# 6 -0.008615 -0.028917 0.004571 0.003590 -0.005878 0.052791
#
#
# Mechanical properties :
#
#
# Convention : Reuss Voigt Hill
#
# Bulk Modulus (GPa) = 18.70188 43.90996 31.30592
# Shear Modulus (GPa) = 25.51494 39.59926 32.55710
#
# Velocity S-wave (km/s) = 3.14333 3.91595 3.55072
# Velocity P-wave (km/s) = 4.51844 6.11965 5.37896
#
# Compressibility (1/GPa) = 0.05347056
#
# Stress axis : x y z
#
# Youngs Moduli (GPa) = 98.88119 25.28028 100.06480
#
# Poissons Ratio (x) = -0.17484 0.23445
# Poissons Ratio (y) = -0.68385 0.76742
# Poissons Ratio (z) = 0.23168 0.19388
#
# Static dielectric constant tensor:
#      x y z
#    x 1.989060 0.023480 -0.001760 
#    y 0.023480 2.229330 -0.048530 
#    z -0.001760 -0.048530 2.067520 
# 
# From -- ./inp_files/510979.got.cif
#   From: 2010.05.17/outbox.cif.g08.bks.cpg/sg2_256_cif.got.tgz:510979.got - 2010.06.03 11:33:40.
