data_PCOD9040236
_publ_section_title
;
Structure prediction by ZEFSAII (Michael W. Deem and Ramdas Pophale) SiO2 
 PCOD9040236
Probable space group: P -1
;
_chemical_formula_sum "Si O2"
_cell_formula_units_Z 14
_cell_length_a 18.169172
_cell_length_b 8.918899
_cell_length_c 5.696487
_cell_angle_alpha 78.219929
_cell_angle_beta 102.609339
_cell_angle_gamma 145.416969
_cell_volume 510.822593
_symmetry_space_group_name_H-M "P -1"
_symmetry_group_IT_number 2
_symmetry_cell_setting 'triclinic'
loop_
_space_group_symop_operation_xyz
x,y,z
-x,-y,-z
loop_
_atom_site_type_symbol
_atom_site_label
_atom_site_fract_x
_atom_site_fract_y
_atom_site_fract_z
Si Si1 0.873561 0.835012 0.714885
Si Si2 0.862048 0.894007 0.191003
Si Si3 0.694698 0.190032 0.581538
Si Si4 0.056215 0.436442 0.672877
Si Si5 0.519288 0.615277 0.228393
Si Si6 0.217918 0.888391 0.961451
Si Si7 0.438007 0.793162 0.222460
O O1 0.984696 0.890411 0.740747
O O2 0.951596 0.128747 0.696757
O O3 0.799202 0.739850 0.445715
O O4 0.825605 0.740133 0.980856
O O5 0.832950 0.023999 0.092580
O O6 0.816533 0.411365 0.425857
O O7 0.680415 0.305599 0.721317
O O8 0.553011 0.956937 0.439866
O O9 0.718486 0.070783 0.771863
O O10 0.109632 0.586420 0.909524
O O11 0.000000 0.500000 0.500000
O O12 0.500000 0.500000 0.500000
O O13 0.422229 0.597669 0.172697
O O14 0.667886 0.920302 0.214244
O O15 0.500000 0.500000 0.000000
O O16 0.500000 0.000000 0.000000
#
# Coordination Sequence:
#
# PCOD9040236 Si02
#       7
#     2   2   2   2   2   2   2
#     4  10  23  43  65 101 138 199 242 295 356 443
#     4  10  23  44  68  93 149 189 241 297 367 437
#     4  11  24  42  77 104 148 192 256 309 383 433
#     4  12  24  41  73 108 147 191 253 299 372 440
#     4  12  28  48  75 109 147 193 251 314 390 451
#     4  12  25  45  70 107 146 195 244 312 374 445
#     4  11  23  49  76 102 144 197 251 321 372 450
#
# _framework density 27.406776000000001
#
# number of rings (size 3 to 8) (size 9 to 14) (size 15 to 20)
#    0.000    0.857    4.286    1.714    4.000    2.286 
#    2.571    0.000    0.000    0.000    0.000    0.000 
#    0.000    0.000    0.000    0.000    0.000    0.000 
#
# Total GULP energy -78485.781575 kJ/mol
# GULP energy per Si atom -5606.127255 kJ/mol
# Density = 2.734440 g / cm^3
# Si number density = 27.406776 Si / 1000 Ang^3
#
#
#
# Elastic Constant Matrix: (Units=GPa)
#
#
# Indices 1 2 3 4 5 6 
#
# 1 195.0599 3.3175 53.5539 3.6308 7.2058 -10.1656
# 2 3.3175 58.0479 31.0001 -2.1657 2.4339 -2.5274
# 3 53.5539 31.0001 202.2483 -1.9674 7.1855 -12.1947
# 4 3.6308 -2.1657 -1.9674 52.6778 -7.1703 -2.7288
# 5 7.2058 2.4339 7.1855 -7.1703 69.7169 -5.6404
# 6 -10.1656 -2.5274 -12.1947 -2.7288 -5.6404 47.1085
#
#
#
# Elastic Compliance Matrix: (Units=1/GPa)
#
#
# Indices 1 2 3 4 5 6 
#
# 1 0.005595 0.000518 -0.001504 -0.000438 -0.000424 0.000770
# 2 0.000518 0.018844 -0.002988 0.000603 -0.000313 0.000347
# 3 -0.001504 -0.002988 0.005873 0.000220 -0.000240 0.001019
# 4 -0.000438 0.000603 0.000220 0.019405 0.002108 0.001371
# 5 -0.000424 -0.000313 -0.000240 0.002108 0.014779 0.001721
# 6 0.000770 0.000347 0.001019 0.001371 0.001721 0.021962
#
#
# Mechanical properties :
#
#
# Convention : Reuss Voigt Hill
#
# Bulk Modulus (GPa) = 44.71289 70.12213 57.41751
# Shear Modulus (GPa) = 49.08809 58.39959 53.74384
#
# Velocity S-wave (km/s) = 4.23672 4.62112 4.43309
# Velocity P-wave (km/s) = 6.34689 7.35623 6.87012
#
# Compressibility (1/GPa) = 0.02236492
#
# Stress axis : x y z
#
# Youngs Moduli (GPa) = 178.74454 53.06790 170.28073
#
# Poissons Ratio (x) = -0.02750 0.25604
# Poissons Ratio (y) = -0.09263 0.50874
# Poissons Ratio (z) = 0.26876 0.15855
#
# Static dielectric constant tensor:
#      x y z
#    x 2.084320 0.031920 -0.049250 
#    y 0.031920 2.401850 0.066120 
#    z -0.049250 0.066120 2.171770 
# 
# From -- ./inp_files/106756.got.cif
#   From: 2010.05.17/outbox.cif.g08.bks.cpg/sg2_54_cif.got.tgz:106756.got - 2010.06.03 11:33:40.
