data_PCOD9040895
_publ_section_title
;
Structure prediction by ZEFSAII (Michael W. Deem and Ramdas Pophale) SiO2 
 PCOD9040895
Probable space group: P -1
;
_chemical_formula_sum "Si O2"
_cell_formula_units_Z 12
_cell_length_a 8.444141
_cell_length_b 12.083850
_cell_length_c 7.450582
_cell_angle_alpha 103.472706
_cell_angle_beta 55.621332
_cell_angle_gamma 66.284905
_cell_volume 455.702023
_symmetry_space_group_name_H-M "P -1"
_symmetry_group_IT_number 2
_symmetry_cell_setting 'triclinic'
loop_
_space_group_symop_operation_xyz
x,y,z
-x,-y,-z
loop_
_atom_site_type_symbol
_atom_site_label
_atom_site_fract_x
_atom_site_fract_y
_atom_site_fract_z
Si Si1 0.341257 0.348190 0.044940
Si Si2 0.585858 0.655565 0.392050
Si Si3 0.891326 0.201946 0.734820
Si Si4 0.225822 0.152890 0.169998
Si Si5 0.586058 0.510218 0.674746
Si Si6 0.206789 0.004296 0.790523
O O1 0.260367 0.386685 0.905351
O O2 0.654631 0.214430 0.822913
O O3 0.225151 0.288234 0.198541
O O4 0.294046 0.488316 0.220171
O O5 0.677270 0.560568 0.480250
O O6 0.387914 0.630819 0.449398
O O7 0.464217 0.827144 0.569233
O O8 0.031907 0.188622 0.461681
O O9 0.111695 0.069399 0.676462
O O10 0.718823 0.349925 0.035098
O O11 0.500000 0.000000 0.000000
O O12 0.202107 0.111559 0.968697
O O13 0.000000 0.000000 0.000000
#
# Coordination Sequence:
#
# PCOD9040895 Si02
#       6
#     2   2   2   2   2   2
#     4  10  23  43  69  95 127 176 215 268 323 380
#     4  11  20  39  69  95 129 172 220 261 325 391
#     4  10  24  43  67 100 130 168 222 267 322 387
#     4  12  25  41  66 101 134 169 216 270 327 384
#     4   9  22  41  68  96 124 176 218 267 322 381
#     4  12  23  40  67 101 129 173 213 266 330 382
#
# _framework density 26.332996999999999
#
# number of rings (size 3 to 8) (size 9 to 14) (size 15 to 20)
#    1.000    0.333    1.667    4.500    0.000    6.000 
#    0.000    0.833    0.000    6.000    0.000    0.000 
#    0.000    0.000    0.000    0.000    0.000    0.000 
#
# Total GULP energy -67072.020521 kJ/mol
# GULP energy per Si atom -5589.335043 kJ/mol
# Density = 2.627306 g / cm^3
# Si number density = 26.332997 Si / 1000 Ang^3
#
#
#
# Elastic Constant Matrix: (Units=GPa)
#
#
# Indices 1 2 3 4 5 6 
#
# 1 81.0666 28.2645 35.9460 -2.3049 19.4300 -2.2332
# 2 28.2645 117.1370 42.8502 -22.0156 -0.1280 -11.5536
# 3 35.9460 42.8502 131.5431 -21.4286 5.0170 -1.6400
# 4 -2.3049 -22.0156 -21.4286 53.3545 -2.9090 11.0294
# 5 19.4300 -0.1280 5.0170 -2.9090 36.7871 -1.4701
# 6 -2.2332 -11.5536 -1.6400 11.0294 -1.4701 50.2354
#
#
#
# Elastic Compliance Matrix: (Units=1/GPa)
#
#
# Indices 1 2 3 4 5 6 
#
# 1 0.017151 -0.003260 -0.003714 -0.002617 -0.008762 0.000209
# 2 -0.003260 0.010907 -0.002200 0.003266 0.002384 0.001644
# 3 -0.003714 -0.002200 0.009798 0.003121 0.000824 -0.001012
# 4 -0.002617 0.003266 0.003121 0.022211 0.002562 -0.004065
# 5 -0.008762 0.002384 0.000824 0.002562 0.031932 0.000558
# 6 0.000209 0.001644 -0.001012 -0.004065 0.000558 0.021170
#
#
# Mechanical properties :
#
#
# Convention : Reuss Voigt Hill
#
# Bulk Modulus (GPa) = 51.26618 60.42980 55.84799
# Shear Modulus (GPa) = 36.22650 42.92113 39.57381
#
# Velocity S-wave (km/s) = 3.71308 4.04163 3.88083
# Velocity P-wave (km/s) = 6.15575 6.69162 6.42927
#
# Compressibility (1/GPa) = 0.01950604
#
# Stress axis : x y z
#
# Youngs Moduli (GPa) = 58.30687 91.68100 102.05986
#
# Poissons Ratio (x) = 0.29893 0.37906
# Poissons Ratio (y) = 0.19011 0.22458
# Poissons Ratio (z) = 0.21656 0.20174
#
# Static dielectric constant tensor:
#      x y z
#    x 2.163610 -0.135370 -0.087340 
#    y -0.135370 2.232610 0.211200 
#    z -0.087340 0.211200 2.227680 
# 
# From -- ./inp_files/179686.got.cif
#   From: 2010.05.17/outbox.cif.g08.bks.cpg/sg2_90_cif.got.tgz:179686.got - 2010.06.03 11:33:40.
