data_PCOD9040307
_publ_section_title
;
Structure prediction by ZEFSAII (Michael W. Deem and Ramdas Pophale) SiO2 
 PCOD9040307
Probable space group: P -1
;
_chemical_formula_sum "Si O2"
_cell_formula_units_Z 12
_cell_length_a 12.028524
_cell_length_b 20.666245
_cell_length_c 5.468548
_cell_angle_alpha 77.904316
_cell_angle_beta 64.239261
_cell_angle_gamma 28.634053
_cell_volume 538.144326
_symmetry_space_group_name_H-M "P -1"
_symmetry_group_IT_number 2
_symmetry_cell_setting 'triclinic'
loop_
_space_group_symop_operation_xyz
x,y,z
-x,-y,-z
loop_
_atom_site_type_symbol
_atom_site_label
_atom_site_fract_x
_atom_site_fract_y
_atom_site_fract_z
Si Si1 0.815817 0.424272 0.272598
Si Si2 0.280447 0.659920 0.301420
Si Si3 0.380050 0.700699 0.790101
Si Si4 0.692796 0.663669 0.741199
Si Si5 0.968677 0.935166 0.618805
Si Si6 0.632393 0.767840 0.215618
O O1 0.592737 0.510700 0.216675
O O2 0.857161 0.341472 0.476375
O O3 0.643825 0.563113 0.472364
O O4 0.103006 0.311463 0.981934
O O5 0.298900 0.667756 0.993302
O O6 0.131784 0.796627 0.441838
O O7 0.497524 0.693994 0.884702
O O8 0.105397 0.862430 0.812126
O O9 0.595550 0.758184 0.535129
O O10 0.000000 0.500000 0.500000
O O11 0.696073 0.685348 0.000945
O O12 0.656750 0.067421 0.741720
O O13 0.000000 0.000000 0.500000
#
# Coordination Sequence:
#
# PCOD9040307 Si02
#       6
#     2   2   2   2   2   2
#     4  10  23  43  65  97 129 175 228 279 325 397
#     4  10  23  43  68  92 133 177 226 271 337 394
#     4  11  22  40  69  93 132 175 225 273 335 397
#     4  12  24  40  69 100 135 169 225 279 333 387
#     4  11  24  42  63  98 136 176 217 274 338 403
#     4  12  26  42  67 103 135 175 222 277 338 394
#
# _framework density 22.298850000000002
#
# number of rings (size 3 to 8) (size 9 to 14) (size 15 to 20)
#    0.000    1.000    3.333    3.000    4.667    2.000 
#    0.000    0.833    0.000    0.000    0.000    0.000 
#    0.000    0.000    0.000    0.000    0.000    0.000 
#
# Total GULP energy -66917.818281 kJ/mol
# GULP energy per Si atom -5576.484857 kJ/mol
# Density = 2.224810 g / cm^3
# Si number density = 22.298850 Si / 1000 Ang^3
#
#
#
# Elastic Constant Matrix: (Units=GPa)
#
#
# Indices 1 2 3 4 5 6 
#
# 1 68.0471 20.7114 4.8391 0.8427 -8.0448 8.2078
# 2 20.7114 119.9471 25.9048 0.5649 -21.0274 -6.4737
# 3 4.8391 25.9048 55.4508 -19.5767 -24.6275 12.4803
# 4 0.8427 0.5649 -19.5767 38.3230 1.8293 -3.9967
# 5 -8.0448 -21.0274 -24.6275 1.8293 34.7750 4.3090
# 6 8.2078 -6.4737 12.4803 -3.9967 4.3090 27.9157
#
#
#
# Elastic Compliance Matrix: (Units=1/GPa)
#
#
# Indices 1 2 3 4 5 6 
#
# 1 0.017326 -0.003536 0.005959 0.001382 0.007193 -0.009491
# 2 -0.003536 0.010889 -0.007394 -0.003185 -0.000100 0.006430
# 3 0.005959 -0.007394 0.050280 0.021042 0.034918 -0.028323
# 4 0.001382 -0.003185 0.021042 0.035501 0.012342 -0.007375
# 5 0.007193 -0.000100 0.034918 0.012342 0.057520 -0.024860
# 6 -0.009491 0.006430 -0.028323 -0.007375 -0.024860 0.055547
#
#
# Mechanical properties :
#
#
# Convention : Reuss Voigt Hill
#
# Bulk Modulus (GPa) = 14.58750 38.48398 26.53574
# Shear Modulus (GPa) = 19.24120 33.00206 26.12163
#
# Velocity S-wave (km/s) = 2.94067 3.85124 3.42633
# Velocity P-wave (km/s) = 4.25277 6.08866 5.25156
#
# Compressibility (1/GPa) = 0.06855186
#
# Stress axis : x y z
#
# Youngs Moduli (GPa) = 57.71547 91.83459 19.88859
#
# Poissons Ratio (x) = 0.32476 -0.11851
# Poissons Ratio (y) = 0.20411 0.14706
# Poissons Ratio (z) = -0.34391 0.67904
#
# Static dielectric constant tensor:
#      x y z
#    x 1.848540 0.039230 0.084690 
#    y 0.039230 1.829700 -0.041210 
#    z 0.084690 -0.041210 1.980650 
# 
# From -- ./inp_files/83120.got.cif
#   From: 2010.05.17/outbox.cif.g08.bks.cpg/sg2_42_cif.got.tgz:83120.got - 2010.06.03 11:33:40.
