data_PCOD9040599
_publ_section_title
;
Structure prediction by ZEFSAII (Michael W. Deem and Ramdas Pophale) SiO2 
 PCOD9040599
Probable space group: P -1
;
_chemical_formula_sum "Si O2"
_cell_formula_units_Z 16
_cell_length_a 10.863817
_cell_length_b 12.376013
_cell_length_c 5.516532
_cell_angle_alpha 89.930760
_cell_angle_beta 64.580582
_cell_angle_gamma 73.124358
_cell_volume 634.482541
_symmetry_space_group_name_H-M "P -1"
_symmetry_group_IT_number 2
_symmetry_cell_setting 'triclinic'
loop_
_space_group_symop_operation_xyz
x,y,z
-x,-y,-z
loop_
_atom_site_type_symbol
_atom_site_label
_atom_site_fract_x
_atom_site_fract_y
_atom_site_fract_z
Si Si1 0.650036 0.739693 0.990082
Si Si2 0.335448 0.801106 0.248972
Si Si3 0.682035 0.555838 0.326031
Si Si4 0.912355 0.613418 0.429261
Si Si5 0.064301 0.156545 0.594551
Si Si6 0.123612 0.988824 0.157874
Si Si7 0.630885 0.326286 0.266028
Si Si8 0.332064 0.067174 0.669109
O O1 0.781967 0.689863 0.703998
O O2 0.490080 0.813011 0.046025
O O3 0.633551 0.625137 0.120258
O O4 0.685492 0.819072 0.162454
O O5 0.209484 0.917663 0.316519
O O6 0.341227 0.755892 0.519660
O O7 0.312897 0.723833 0.044333
O O8 0.829903 0.574021 0.281540
O O9 0.693189 0.426267 0.286460
O O10 0.543487 0.616230 0.611910
O O11 0.990777 0.707684 0.309288
O O12 0.000000 0.500000 0.500000
O O13 0.233428 0.112500 0.519654
O O14 0.981030 0.084447 0.820467
O O15 0.052204 0.115450 0.329154
O O16 0.249904 0.991178 0.873172
O O17 0.500000 0.000000 0.500000
#
# Coordination Sequence:
#
# PCOD9040599 Si02
#       8
#     2   2   2   2   2   2   2   2
#     4  11  24  44  70 105 149 185 260 326 377 460
#     4  11  25  44  74 113 147 199 252 321 397 463
#     4  10  23  43  67  98 143 196 245 320 381 444
#     4  12  26  45  74 102 147 203 257 316 383 463
#     4  11  26  51  69 107 157 199 257 319 387 465
#     4  11  27  46  75 107 152 204 249 319 393 472
#     4  10  24  42  71 106 152 190 250 326 384 458
#     4  12  26  45  80 112 146 198 254 322 395 464
#
# _framework density 25.217396999999998
#
# number of rings (size 3 to 8) (size 9 to 14) (size 15 to 20)
#    0.000    1.000    3.750    1.125   10.500    3.000 
#    2.250    0.000    0.000    0.000    0.000    0.000 
#    0.000    0.000    0.000    0.000    0.000    0.000 
#
# Total GULP energy -89421.745734 kJ/mol
# GULP energy per Si atom -5588.859108 kJ/mol
# Density = 2.516000 g / cm^3
# Si number density = 25.217397 Si / 1000 Ang^3
#
#
#
# Elastic Constant Matrix: (Units=GPa)
#
#
# Indices 1 2 3 4 5 6 
#
# 1 128.1283 43.1752 16.7323 -2.2297 -9.5378 1.6146
# 2 43.1752 121.4732 19.1463 -9.1621 0.5409 20.2799
# 3 16.7323 19.1463 66.3393 1.4290 -4.4996 13.9521
# 4 -2.2297 -9.1621 1.4290 25.6284 10.8641 2.5885
# 5 -9.5378 0.5409 -4.4996 10.8641 44.8088 -2.0023
# 6 1.6146 20.2799 13.9521 2.5885 -2.0023 39.2113
#
#
#
# Elastic Compliance Matrix: (Units=1/GPa)
#
#
# Indices 1 2 3 4 5 6 
#
# 1 0.009338 -0.003575 -0.001605 -0.001605 0.002360 0.002262
# 2 -0.003575 0.011073 -0.001416 0.005387 -0.002592 -0.005564
# 3 -0.001605 -0.001416 0.017104 -0.001760 0.001592 -0.005090
# 4 -0.001605 0.005387 -0.001760 0.046639 -0.012150 -0.005793
# 5 0.002360 -0.002592 0.001592 -0.012150 0.026082 0.002810
# 6 0.002262 -0.005564 -0.005090 -0.005793 0.002810 0.030624
#
#
# Mechanical properties :
#
#
# Convention : Reuss Voigt Hill
#
# Bulk Modulus (GPa) = 41.11199 52.67203 46.89201
# Shear Modulus (GPa) = 30.83384 37.72217 34.27800
#
# Velocity S-wave (km/s) = 3.50054 3.87186 3.69087
# Velocity P-wave (km/s) = 5.71636 6.39694 6.06620
#
# Compressibility (1/GPa) = 0.02432381
#
# Stress axis : x y z
#
# Youngs Moduli (GPa) = 107.08642 90.31029 58.46681
#
# Poissons Ratio (x) = 0.32290 0.09381
# Poissons Ratio (y) = 0.38288 0.08277
# Poissons Ratio (z) = 0.17182 0.12784
#
# Static dielectric constant tensor:
#      x y z
#    x 2.084780 0.024120 -0.014810 
#    y 0.024120 2.016190 -0.015750 
#    z -0.014810 -0.015750 2.073570 
# 
# From -- ./inp_files/70369.got.cif
#   From: 2010.05.17/outbox.cif.g08.bks.cpg/sg2_36_cif.got.tgz:70369.got - 2010.06.03 11:33:40.
