data_PCOD9040393
_publ_section_title
;
Structure prediction by ZEFSAII (Michael W. Deem and Ramdas Pophale) SiO2 
 PCOD9040393
Probable space group: P -1
;
_chemical_formula_sum "Si O2"
_cell_formula_units_Z 14
_cell_length_a 13.958117
_cell_length_b 19.166287
_cell_length_c 11.343698
_cell_angle_alpha 137.499033
_cell_angle_beta 149.029148
_cell_angle_gamma 21.891120
_cell_volume 554.694324
_symmetry_space_group_name_H-M "P -1"
_symmetry_group_IT_number 2
_symmetry_cell_setting 'triclinic'
loop_
_space_group_symop_operation_xyz
x,y,z
-x,-y,-z
loop_
_atom_site_type_symbol
_atom_site_label
_atom_site_fract_x
_atom_site_fract_y
_atom_site_fract_z
Si Si1 0.180252 0.983329 0.900884
Si Si2 0.340041 0.066415 0.569372
Si Si3 0.239022 0.053753 0.717304
Si Si4 0.290830 0.649076 0.293380
Si Si5 0.598641 0.687644 0.765956
Si Si6 0.353681 0.842360 0.255378
Si Si7 0.437195 0.596910 0.937449
O O1 0.447070 0.925927 0.192406
O O2 0.375355 0.808360 0.804210
O O3 0.016701 0.146185 0.846183
O O4 0.841697 0.096654 0.752547
O O5 0.261274 0.073291 0.629805
O O6 0.974553 0.231384 0.316731
O O7 0.532705 0.869810 0.483471
O O8 0.864362 0.275927 0.645582
O O9 0.391416 0.869576 0.690514
O O10 0.500000 0.000000 0.000000
O O11 0.600925 0.584622 0.558237
O O12 0.378648 0.515211 0.133088
O O13 0.000000 0.500000 0.000000
O O14 0.564008 0.649661 0.179542
O O15 0.000000 0.000000 0.000000
O O16 0.500000 0.500000 0.000000
#
# Coordination Sequence:
#
# PCOD9040393 Si02
#       7
#     2   2   2   2   2   2   2
#     4  11  21  44  69  99 135 180 220 277 354 400
#     4  11  23  44  72  97 134 183 225 284 341 406
#     4  11  22  42  65  99 137 169 221 276 345 414
#     4  11  22  40  70  94 136 178 217 276 346 399
#     4  11  23  41  67 104 133 174 221 278 345 413
#     4  10  23  43  66  94 130 179 234 272 329 396
#     4  11  24  43  66  97 134 182 233 284 329 397
#
# _framework density 25.239127
#
# number of rings (size 3 to 8) (size 9 to 14) (size 15 to 20)
#    0.000    1.143    4.286    4.286    0.000    2.857 
#    5.143    0.714    0.000    0.000    0.000    0.000 
#    0.000    0.000    0.000    0.000    0.000    0.000 
#
# Total GULP energy -77987.201258 kJ/mol
# GULP energy per Si atom -5570.514376 kJ/mol
# Density = 2.518168 g / cm^3
# Si number density = 25.239127 Si / 1000 Ang^3
#
#
#
# Elastic Constant Matrix: (Units=GPa)
#
#
# Indices 1 2 3 4 5 6 
#
# 1 91.2516 19.1971 24.1665 8.8840 -31.9318 -11.4453
# 2 19.1971 101.7441 32.9707 21.4713 -13.2417 -22.3826
# 3 24.1665 32.9707 126.6671 15.4215 -28.6899 -2.7610
# 4 8.8840 21.4713 15.4215 53.6610 -2.0763 -12.9888
# 5 -31.9318 -13.2417 -28.6899 -2.0763 34.2644 -0.2704
# 6 -11.4453 -22.3826 -2.7610 -12.9888 -0.2704 32.8534
#
#
#
# Elastic Compliance Matrix: (Units=1/GPa)
#
#
# Indices 1 2 3 4 5 6 
#
# 1 0.017537 0.000231 0.000710 -0.001080 0.017009 0.006040
# 2 0.000231 0.013243 -0.002234 -0.002654 0.003365 0.007894
# 3 0.000710 -0.002234 0.010495 -0.002202 0.008443 -0.001194
# 4 -0.001080 -0.002654 -0.002202 0.021933 -0.002497 0.006281
# 5 0.017009 0.003365 0.008443 -0.002497 0.053320 0.008379
# 6 0.006040 0.007894 -0.001194 0.006281 0.008379 0.040372
#
#
# Mechanical properties :
#
#
# Convention : Reuss Voigt Hill
#
# Bulk Modulus (GPa) = 25.84705 52.48124 39.16415
# Shear Modulus (GPa) = 29.00523 40.37766 34.69145
#
# Velocity S-wave (km/s) = 3.39369 4.00409 3.71146
# Velocity P-wave (km/s) = 5.06155 6.49737 5.82387
#
# Compressibility (1/GPa) = 0.03868914
#
# Stress axis : x y z
#
# Youngs Moduli (GPa) = 57.02348 75.50883 95.28173
#
# Poissons Ratio (x) = -0.01748 -0.06760
# Poissons Ratio (y) = -0.01320 0.21286
# Poissons Ratio (z) = -0.04046 0.16869
#
# Static dielectric constant tensor:
#      x y z
#    x 1.851010 0.173830 -0.281410 
#    y 0.173830 1.964560 0.205490 
#    z -0.281410 0.205490 1.634110 
# 
# From -- ./inp_files/182841.got.cif
#   From: 2010.05.17/outbox.cif.g08.bks.cpg/sg2_92_cif.got.tgz:182841.got - 2010.06.03 11:33:40.
