data_PCOD9040105
_publ_section_title
;
Structure prediction by ZEFSAII (Michael W. Deem and Ramdas Pophale) SiO2 
 PCOD9040105
Probable space group: P -1
;
_chemical_formula_sum "Si O2"
_cell_formula_units_Z 16
_cell_length_a 15.901295
_cell_length_b 14.799550
_cell_length_c 13.660509
_cell_angle_alpha 124.535005
_cell_angle_beta 146.350175
_cell_angle_gamma 28.304821
_cell_volume 654.707729
_symmetry_space_group_name_H-M "P -1"
_symmetry_group_IT_number 2
_symmetry_cell_setting 'triclinic'
loop_
_space_group_symop_operation_xyz
x,y,z
-x,-y,-z
loop_
_atom_site_type_symbol
_atom_site_label
_atom_site_fract_x
_atom_site_fract_y
_atom_site_fract_z
Si Si1 0.276701 0.694721 0.817653
Si Si2 0.342317 0.166716 0.311931
Si Si3 0.860841 0.526692 0.224081
Si Si4 0.620703 0.403002 0.354749
Si Si5 0.992599 0.651556 0.545652
Si Si6 0.691675 0.980184 0.122237
Si Si7 0.636712 0.202627 0.582617
Si Si8 0.821849 0.446115 0.825969
O O1 0.438892 0.610453 0.817656
O O2 0.045250 0.734506 0.597531
O O3 0.500000 0.500000 0.000000
O O4 0.027818 0.948172 0.773350
O O5 0.548492 0.145626 0.514064
O O6 0.130517 0.281103 0.274120
O O7 0.607959 0.904873 0.371147
O O8 0.056934 0.367668 0.074871
O O9 0.031363 0.528647 0.432105
O O10 0.775536 0.520997 0.239688
O O11 0.574491 0.760498 0.018809
O O12 0.478712 0.618963 0.356797
O O13 0.414530 0.473322 0.282523
O O14 0.023540 0.147625 0.611791
O O15 0.914626 0.793045 0.131824
O O16 0.500000 0.000000 0.000000
O O17 0.424554 0.340651 0.360897
#
# Coordination Sequence:
#
# PCOD9040105 Si02
#       8
#     2   2   2   2   2   2   2   2
#     4  11  26  44  67  94 132 178 231 274 331 406
#     4  11  22  40  67 100 133 174 228 274 334 396
#     4  11  22  39  68  97 129 179 214 284 333 380
#     4  11  26  46  67  99 142 174 221 283 341 399
#     4  10  23  43  62  96 136 171 234 273 320 407
#     4  11  22  41  73 101 133 179 223 270 337 403
#     4  10  23  44  68  94 135 177 223 275 340 405
#     4  11  24  43  67 104 141 170 222 285 335 400
#
# _framework density 24.438385
#
# number of rings (size 3 to 8) (size 9 to 14) (size 15 to 20)
#    0.000    1.250    1.250    5.250    5.250    3.000 
#    0.000    0.000    0.000    0.000    0.000    0.000 
#    0.000    0.000    0.000    0.000    0.000    0.000 
#
# Total GULP energy -89529.591695 kJ/mol
# GULP energy per Si atom -5595.599481 kJ/mol
# Density = 2.438276 g / cm^3
# Si number density = 24.438385 Si / 1000 Ang^3
#
#
#
# Elastic Constant Matrix: (Units=GPa)
#
#
# Indices 1 2 3 4 5 6 
#
# 1 113.8050 24.6380 27.2005 -9.8817 8.2976 -11.4981
# 2 24.6380 74.9723 37.8978 -23.0481 -12.5154 -9.1025
# 3 27.2005 37.8978 93.9534 -18.4028 -16.8816 -20.2340
# 4 -9.8817 -23.0481 -18.4028 34.3655 -0.1120 -0.7892
# 5 8.2976 -12.5154 -16.8816 -0.1120 41.8176 5.5245
# 6 -11.4981 -9.1025 -20.2340 -0.7892 5.5245 39.9892
#
#
#
# Elastic Compliance Matrix: (Units=1/GPa)
#
#
# Indices 1 2 3 4 5 6 
#
# 1 0.010389 -0.002742 -0.002246 -0.000027 -0.004024 0.001782
# 2 -0.002742 0.020711 -0.004278 0.010857 0.004873 0.001302
# 3 -0.002246 -0.004278 0.016252 0.005343 0.004945 0.006026
# 4 -0.000027 0.010857 0.005343 0.039371 0.004820 0.005278
# 5 -0.004024 0.004873 0.004945 0.004820 0.028360 -0.001369
# 6 0.001782 0.001302 0.006026 0.005278 -0.001369 0.029158
#
#
# Mechanical properties :
#
#
# Convention : Reuss Voigt Hill
#
# Bulk Modulus (GPa) = 34.69877 51.35595 43.02736
# Shear Modulus (GPa) = 29.00588 36.10074 32.55331
#
# Velocity S-wave (km/s) = 3.44888 3.84762 3.65369
# Velocity P-wave (km/s) = 5.48534 6.38741 5.95349
#
# Compressibility (1/GPa) = 0.02881947
#
# Stress axis : x y z
#
# Youngs Moduli (GPa) = 96.25951 48.28356 61.53078
#
# Poissons Ratio (x) = 0.13241 0.13820
# Poissons Ratio (y) = 0.26398 0.26320
# Poissons Ratio (z) = 0.21621 0.20654
#
# Static dielectric constant tensor:
#      x y z
#    x 1.979060 -0.005860 0.046870 
#    y -0.005860 1.893990 0.013930 
#    z 0.046870 0.013930 2.041270 
# 
# From -- ./inp_files/455818.got.cif
#   From: 2010.05.17/outbox.cif.g08.bks.cpg/sg2_228_cif.got.tgz:455818.got - 2010.06.03 11:33:40.
