data_PCOD9040510
_publ_section_title
;
Structure prediction by ZEFSAII (Michael W. Deem and Ramdas Pophale) SiO2 
 PCOD9040510
Probable space group: P -1
;
_chemical_formula_sum "Si O2"
_cell_formula_units_Z 12
_cell_length_a 9.325161
_cell_length_b 11.101833
_cell_length_c 11.647534
_cell_angle_alpha 116.878291
_cell_angle_beta 90.753218
_cell_angle_gamma 139.730738
_cell_volume 544.860450
_symmetry_space_group_name_H-M "P -1"
_symmetry_group_IT_number 2
_symmetry_cell_setting 'triclinic'
loop_
_space_group_symop_operation_xyz
x,y,z
-x,-y,-z
loop_
_atom_site_type_symbol
_atom_site_label
_atom_site_fract_x
_atom_site_fract_y
_atom_site_fract_z
Si Si1 0.190133 0.722804 0.929045
Si Si2 0.127040 0.453821 0.516209
Si Si3 0.907176 0.730734 0.793304
Si Si4 0.254403 0.978855 0.220225
Si Si5 0.264557 0.273786 0.994667
Si Si6 0.203883 0.834110 0.397101
O O1 0.993048 0.669470 0.838835
O O2 0.042066 0.462464 0.785496
O O3 0.204875 0.787384 0.087779
O O4 0.500000 0.000000 0.000000
O O5 0.174095 0.392899 0.383841
O O6 0.000000 0.500000 0.500000
O O7 0.917125 0.218209 0.504808
O O8 0.434370 0.727955 0.690334
O O9 0.693922 0.635778 0.836126
O O10 0.178713 0.048242 0.912440
O O11 0.254241 0.979299 0.358023
O O12 0.019326 0.884779 0.124625
O O13 0.500000 0.500000 0.000000
O O14 0.500000 0.000000 0.500000
#
# Coordination Sequence:
#
# PCOD9040510 Si02
#       6
#     2   2   2   2   2   2
#     4  11  21  39  66  96 130 171 215 271 331 392
#     4  12  22  43  64  99 139 167 211 272 343 398
#     4  10  23  43  67  91 130 175 217 269 333 380
#     4  11  24  40  64  98 128 175 224 262 331 394
#     4  10  25  45  67  92 126 176 233 273 308 386
#     4  12  24  38  63  98 137 171 209 268 333 393
#
# _framework density 22.023987000000002
#
# number of rings (size 3 to 8) (size 9 to 14) (size 15 to 20)
#    0.000    1.000    5.000    0.500    2.333    6.000 
#    0.000    1.667    0.000    0.000    0.000    0.000 
#    0.000    0.000    0.000    0.000    0.000    0.000 
#
# Total GULP energy -66981.968088 kJ/mol
# GULP energy per Si atom -5581.830674 kJ/mol
# Density = 2.197386 g / cm^3
# Si number density = 22.023987 Si / 1000 Ang^3
#
#
#
# Elastic Constant Matrix: (Units=GPa)
#
#
# Indices 1 2 3 4 5 6 
#
# 1 23.1837 8.9534 9.1649 -1.9975 -7.1056 10.8775
# 2 8.9534 151.2194 31.0278 -15.7271 -10.4364 20.3595
# 3 9.1649 31.0278 88.5886 -12.6648 -13.9476 31.3763
# 4 -1.9975 -15.7271 -12.6648 46.6167 5.6938 3.5966
# 5 -7.1056 -10.4364 -13.9476 5.6938 41.4839 0.0981
# 6 10.8775 20.3595 31.3763 3.5966 0.0981 25.5281
#
#
#
# Elastic Compliance Matrix: (Units=1/GPa)
#
#
# Indices 1 2 3 4 5 6 
#
# 1 0.063680 0.001579 0.011986 0.008189 0.014315 -0.044333
# 2 0.001579 0.008004 0.000951 0.003436 0.002153 -0.008717
# 3 0.011986 0.000951 0.027195 0.010128 0.010142 -0.040756
# 4 0.008189 0.003436 0.010128 0.027207 0.001991 -0.022519
# 5 0.014315 0.002153 0.010142 0.001991 0.030285 -0.020679
# 6 -0.044333 -0.008717 -0.040756 -0.022519 -0.020679 0.118360
#
#
# Mechanical properties :
#
#
# Convention : Reuss Voigt Hill
#
# Bulk Modulus (GPa) = 7.81803 40.14266 23.98035
# Shear Modulus (GPa) = 17.34084 36.98211 27.16148
#
# Velocity S-wave (km/s) = 2.80904 4.10222 3.51560
# Velocity P-wave (km/s) = 3.75212 6.37996 5.23366
#
# Compressibility (1/GPa) = 0.12790941
#
# Stress axis : x y z
#
# Youngs Moduli (GPa) = 15.70358 124.93957 36.77163
#
# Poissons Ratio (x) = -0.19727 -0.44073
# Poissons Ratio (y) = -0.02479 -0.03497
# Poissons Ratio (z) = -0.18822 -0.11881
#
# Static dielectric constant tensor:
#      x y z
#    x 1.819250 0.022330 -0.045510 
#    y 0.022330 1.822240 -0.014890 
#    z -0.045510 -0.014890 1.826220 
# 
# From -- ./inp_files/60392.got.cif
#   From: 2010.05.17/outbox.cif.g08.bks.cpg/sg2_31_cif.got.tgz:60392.got - 2010.06.03 11:33:40.
