data_PCOD9040343
_publ_section_title
;
Structure prediction by ZEFSAII (Michael W. Deem and Ramdas Pophale) SiO2 
 PCOD9040343
Probable space group: P -1
;
_chemical_formula_sum "Si O2"
_cell_formula_units_Z 14
_cell_length_a 9.055173
_cell_length_b 15.071048
_cell_length_c 12.909633
_cell_angle_alpha 27.362157
_cell_angle_beta 128.468697
_cell_angle_gamma 138.555724
_cell_volume 530.416179
_symmetry_space_group_name_H-M "P -1"
_symmetry_group_IT_number 2
_symmetry_cell_setting 'triclinic'
loop_
_space_group_symop_operation_xyz
x,y,z
-x,-y,-z
loop_
_atom_site_type_symbol
_atom_site_label
_atom_site_fract_x
_atom_site_fract_y
_atom_site_fract_z
Si Si1 0.029750 0.784570 0.805424
Si Si2 0.657484 0.369055 0.960079
Si Si3 0.622825 0.797828 0.179868
Si Si4 0.724978 0.313433 0.681904
Si Si5 0.232835 0.511620 0.712920
Si Si6 0.079326 0.038820 0.222741
Si Si7 0.635324 0.978350 0.470692
O O1 0.151156 0.641747 0.012021
O O2 0.024170 0.890833 0.800512
O O3 0.187573 0.975625 0.591332
O O4 0.786244 0.598815 0.844935
O O5 0.484976 0.339488 0.829631
O O6 0.568163 0.153179 0.221831
O O7 0.132378 0.149133 0.741453
O O8 0.658628 0.049061 0.916952
O O9 0.449551 0.688939 0.312460
O O10 0.718560 0.399494 0.475792
O O11 0.983583 0.455082 0.685456
O O12 0.427328 0.717683 0.651656
O O13 0.218726 0.275414 0.973565
O O14 0.223073 0.959411 0.427218
#
# Coordination Sequence:
#
# PCOD9040343 Si02
#       7
#     2   2   2   2   2   2   2
#     4   9  19  35  55  77 106 142 180 224 255 320
#     4   9  18  34  59  73 109 137 184 220 264 306
#     4  10  17  33  56  81 100 140 183 229 252 312
#     4   9  17  29  51  80 107 130 185 226 257 298
#     4  10  18  29  50  80 112 136 171 223 267 310
#     4  11  21  31  56  84 111 134 180 217 274 311
#     4  10  19  35  52  78 111 144 170 223 266 319
#
# _framework density 26.394369999999999
#
# number of rings (size 3 to 8) (size 9 to 14) (size 15 to 20)
#    0.857    1.429    1.429    4.286    0.000    0.000 
#    0.000    1.429    0.000    0.000    0.000    4.000 
#    0.000    0.000    0.000    0.000    0.000    0.000 
#
# Total GULP energy -78494.313718 kJ/mol
# GULP energy per Si atom -5606.736694 kJ/mol
# Density = 2.633429 g / cm^3
# Si number density = 26.394370 Si / 1000 Ang^3
#
#
#
# Elastic Constant Matrix: (Units=GPa)
#
#
# Indices 1 2 3 4 5 6 
#
# 1 86.6836 17.7828 36.6864 2.8396 -8.2006 -3.7155
# 2 17.7828 183.6016 47.3749 14.3118 6.5569 44.5541
# 3 36.6864 47.3749 155.8971 17.8429 -13.3268 16.6375
# 4 2.8396 14.3118 17.8429 52.2830 3.4932 -1.7804
# 5 -8.2006 6.5569 -13.3268 3.4932 45.5495 1.8656
# 6 -3.7155 44.5541 16.6375 -1.7804 1.8656 23.4367
#
#
#
# Elastic Compliance Matrix: (Units=1/GPa)
#
#
# Indices 1 2 3 4 5 6 
#
# 1 0.014318 -0.003362 -0.003617 0.001665 0.001415 0.011243
# 2 -0.003362 0.011649 0.000032 -0.003727 -0.001049 -0.022901
# 3 -0.003617 0.000032 0.008584 -0.003145 0.002390 -0.007157
# 4 0.001665 -0.003727 -0.003145 0.021666 -0.002213 0.011404
# 5 0.001415 -0.001049 0.002390 -0.002213 0.023290 -0.001500
# 6 0.011243 -0.022901 -0.007157 0.011404 -0.001500 0.094053
#
#
# Mechanical properties :
#
#
# Convention : Reuss Voigt Hill
#
# Bulk Modulus (GPa) = 48.41002 69.98559 59.19780
# Shear Modulus (GPa) = 25.72792 45.87639 35.80216
#
# Velocity S-wave (km/s) = 3.12549 4.17359 3.68697
# Velocity P-wave (km/s) = 5.60408 7.05677 6.37196
#
# Compressibility (1/GPa) = 0.02065688
#
# Stress axis : x y z
#
# Youngs Moduli (GPa) = 69.84174 85.84220 116.49425
#
# Poissons Ratio (x) = 0.28861 0.42139
# Poissons Ratio (y) = 0.23482 -0.00374
# Poissons Ratio (z) = 0.25263 -0.00275
#
# Static dielectric constant tensor:
#      x y z
#    x 2.149890 0.066460 0.044370 
#    y 0.066460 1.983180 0.005070 
#    z 0.044370 0.005070 2.037930 
# 
# From -- ./inp_files/398429.got.cif
#   From: 2010.05.17/outbox.cif.g08.bks.cpg/sg2_200_cif.got.tgz:398429.got - 2010.06.03 11:33:40.
