data_PCOD9040304
_publ_section_title
;
Structure prediction by ZEFSAII (Michael W. Deem and Ramdas Pophale) SiO2 
 PCOD9040304
Probable space group: P -1
;
_chemical_formula_sum "Si O2"
_cell_formula_units_Z 14
_cell_length_a 23.596981
_cell_length_b 18.520655
_cell_length_c 9.489047
_cell_angle_alpha 35.711639
_cell_angle_beta 27.635410
_cell_angle_gamma 17.951229
_cell_volume 578.911491
_symmetry_space_group_name_H-M "P -1"
_symmetry_group_IT_number 2
_symmetry_cell_setting 'triclinic'
loop_
_space_group_symop_operation_xyz
x,y,z
-x,-y,-z
loop_
_atom_site_type_symbol
_atom_site_label
_atom_site_fract_x
_atom_site_fract_y
_atom_site_fract_z
Si Si1 0.288367 0.521760 0.658623
Si Si2 0.939365 0.756357 0.264017
Si Si3 0.707934 0.874613 0.146784
Si Si4 0.292450 0.519640 0.332058
Si Si5 0.055761 0.359508 0.267289
Si Si6 0.781868 0.015809 0.954415
Si Si7 0.813507 0.128660 0.089081
O O1 0.305763 0.457988 0.560358
O O2 0.551139 0.339316 0.397771
O O3 0.193470 0.521729 0.997966
O O4 0.056251 0.813428 0.695430
O O5 0.907174 0.695940 0.562211
O O6 0.764845 0.914109 0.264710
O O7 0.899000 0.928477 0.145783
O O8 0.933538 0.596773 0.136169
O O9 0.500000 0.000000 0.500000
O O10 0.747446 0.982436 0.932232
O O11 0.711371 0.857162 0.998577
O O12 0.131178 0.577837 0.489468
O O13 0.559884 0.291015 0.044662
O O14 0.204768 0.736665 0.184559
O O15 0.000000 0.000000 0.000000
#
# Coordination Sequence:
#
# PCOD9040304 Si02
#       7
#     2   2   2   2   2   2   2
#     4  10  23  44  65  92 137 175 217 264 324 391
#     4  10  24  44  62  97 135 170 218 265 331 382
#     4  11  23  42  71  98 125 174 221 265 336 388
#     4  12  22  42  69  94 138 173 218 268 318 395
#     4  11  23  43  67  97 133 167 217 279 320 386
#     4  10  23  43  65  96 130 172 219 265 327 383
#     4  12  25  41  66 100 135 173 220 266 325 384
#
# _framework density 24.183316999999999
#
# number of rings (size 3 to 8) (size 9 to 14) (size 15 to 20)
#    0.857    0.286    5.714    0.429    0.000    4.571 
#    2.571    0.714    0.000    0.000    0.000    0.000 
#    0.000    0.000    0.000    0.000    0.000    0.000 
#
# Total GULP energy -78079.736836 kJ/mol
# GULP energy per Si atom -5577.124060 kJ/mol
# Density = 2.412827 g / cm^3
# Si number density = 24.183317 Si / 1000 Ang^3
#
#
#
# Elastic Constant Matrix: (Units=GPa)
#
#
# Indices 1 2 3 4 5 6 
#
# 1 69.4146 24.7307 34.3473 14.6124 10.1387 -4.2359
# 2 24.7307 71.5185 31.0378 18.7457 2.5434 12.1150
# 3 34.3473 31.0378 123.0406 30.8397 23.6071 -6.9692
# 4 14.6124 18.7457 30.8397 44.4852 -6.4567 -0.5357
# 5 10.1387 2.5434 23.6071 -6.4567 56.3773 4.8510
# 6 -4.2359 12.1150 -6.9692 -0.5357 4.8510 29.3969
#
#
#
# Elastic Compliance Matrix: (Units=1/GPa)
#
#
# Indices 1 2 3 4 5 6 
#
# 1 0.018803 -0.005510 -0.002405 -0.002540 -0.002832 0.004831
# 2 -0.005510 0.020152 -0.003473 -0.004115 0.001953 -0.010320
# 3 -0.002405 -0.003473 0.013065 -0.007642 -0.006193 0.005065
# 4 -0.002540 -0.004115 -0.007642 0.031426 0.007541 -0.001153
# 5 -0.002832 0.001953 -0.006193 0.007541 0.022149 -0.006199
# 6 0.004831 -0.010320 0.005065 -0.001153 -0.006199 0.041169
#
#
# Mechanical properties :
#
#
# Convention : Reuss Voigt Hill
#
# Bulk Modulus (GPa) = 34.19552 49.35615 41.77583
# Shear Modulus (GPa) = 27.88800 37.64239 32.76520
#
# Velocity S-wave (km/s) = 3.39955 3.94959 3.68485
# Velocity P-wave (km/s) = 5.43876 6.42281 5.95116
#
# Compressibility (1/GPa) = 0.02924360
#
# Stress axis : x y z
#
# Youngs Moduli (GPa) = 53.18439 49.62221 76.53793
#
# Poissons Ratio (x) = 0.27341 0.18410
# Poissons Ratio (y) = 0.29304 0.26583
# Poissons Ratio (z) = 0.12792 0.17234
#
# Static dielectric constant tensor:
#      x y z
#    x 1.966120 0.023530 0.008330 
#    y 0.023530 1.911660 -0.007350 
#    z 0.008330 -0.007350 2.052770 
# 
# From -- ./inp_files/355002.got.cif
#   From: 2010.05.17/outbox.cif.g08.bks.cpg/sg2_178_cif.got.tgz:355002.got - 2010.06.03 11:33:40.
