data_PCOD9040021
_publ_section_title
;
Structure prediction by ZEFSAII (Michael W. Deem and Ramdas Pophale) SiO2 
 PCOD9040021
Probable space group: P -1
;
_chemical_formula_sum "Si O2"
_cell_formula_units_Z 16
_cell_length_a 9.659241
_cell_length_b 12.166991
_cell_length_c 12.069868
_cell_angle_alpha 116.379955
_cell_angle_beta 136.832949
_cell_angle_gamma 50.448675
_cell_volume 747.713230
_symmetry_space_group_name_H-M "P -1"
_symmetry_group_IT_number 2
_symmetry_cell_setting 'triclinic'
loop_
_space_group_symop_operation_xyz
x,y,z
-x,-y,-z
loop_
_atom_site_type_symbol
_atom_site_label
_atom_site_fract_x
_atom_site_fract_y
_atom_site_fract_z
Si Si1 0.877594 0.337703 0.631504
Si Si2 0.392805 0.845843 0.892122
Si Si3 0.610012 0.393627 0.914784
Si Si4 0.324715 0.042556 0.741634
Si Si5 0.524829 0.614210 0.412311
Si Si6 0.594474 0.885872 0.605468
Si Si7 0.072733 0.873602 0.901425
Si Si8 0.164438 0.453570 0.969659
O O1 0.702610 0.457890 0.497151
O O2 0.720711 0.339947 0.645679
O O3 0.059371 0.175081 0.629267
O O4 0.047906 0.396230 0.791599
O O5 0.151601 0.890263 0.833684
O O6 0.337800 0.921159 0.775403
O O7 0.528482 0.901591 0.075884
O O8 0.571595 0.676061 0.909413
O O9 0.476525 0.406744 0.729782
O O10 0.500000 0.500000 0.000000
O O11 0.694043 0.246609 0.957005
O O12 0.823751 0.413019 0.007967
O O13 0.452213 0.971885 0.670094
O O14 0.573414 0.744606 0.516709
O O15 0.866956 0.838462 0.757423
O O16 0.500000 0.000000 0.500000
O O17 0.000000 0.000000 0.000000
O O18 0.000000 0.500000 0.000000
#
# Coordination Sequence:
#
# PCOD9040021 Si02
#       8
#     2   2   2   2   2   2   2   2
#     4  10  24  45  73 104 142 184 235 298 351 420
#     4  10  23  42  74 107 134 178 251 295 336 415
#     4  12  26  45  73 103 136 185 240 294 349 428
#     4  10  24  44  71 104 137 186 237 292 346 418
#     4  11  26  46  70 106 145 184 235 295 363 421
#     4  12  28  46  69 105 151 188 228 290 368 429
#     4  12  25  45  73 101 143 188 238 292 353 419
#     4  11  22  42  74 104 138 182 243 291 349 415
#
# _framework density 21.398577
#
# number of rings (size 3 to 8) (size 9 to 14) (size 15 to 20)
#    0.000    1.000    3.750    1.500    7.000    1.500 
#    0.000    1.875    0.000    0.000    0.000    0.000 
#    0.000    0.000    0.000    0.000    0.000    0.000 
#
# Total GULP energy -89360.010434 kJ/mol
# GULP energy per Si atom -5585.000652 kJ/mol
# Density = 2.134987 g / cm^3
# Si number density = 21.398577 Si / 1000 Ang^3
#
#
#
# Elastic Constant Matrix: (Units=GPa)
#
#
# Indices 1 2 3 4 5 6 
#
# 1 123.8729 18.4187 28.9082 -6.6739 -26.1186 -10.4989
# 2 18.4187 73.4190 27.3863 -12.3832 -17.2159 -10.9572
# 3 28.9082 27.3863 76.0515 -2.2148 -17.3928 -2.7847
# 4 -6.6739 -12.3832 -2.2148 30.0072 5.7476 1.0902
# 5 -26.1186 -17.2159 -17.3928 5.7476 45.6342 3.7428
# 6 -10.4989 -10.9572 -2.7847 1.0902 3.7428 42.5070
#
#
#
# Elastic Compliance Matrix: (Units=1/GPa)
#
#
# Indices 1 2 3 4 5 6 
#
# 1 0.009816 -0.000005 -0.002642 0.001092 0.004321 0.001842
# 2 -0.000005 0.018106 -0.005353 0.006230 0.003689 0.003831
# 3 -0.002642 -0.005353 0.016708 -0.002134 0.003201 -0.001165
# 4 0.001092 0.006230 -0.002134 0.036425 -0.002510 0.001023
# 5 0.004321 0.003689 0.003201 -0.002510 0.027323 -0.000114
# 6 0.001842 0.003831 -0.001165 0.001023 -0.000114 0.024875
#
#
# Mechanical properties :
#
#
# Convention : Reuss Voigt Hill
#
# Bulk Modulus (GPa) = 34.92785 46.97441 40.95113
# Shear Modulus (GPa) = 31.48680 36.87168 34.17924
#
# Velocity S-wave (km/s) = 3.84010 4.15552 4.00092
# Velocity P-wave (km/s) = 6.00165 6.71001 6.36569
#
# Compressibility (1/GPa) = 0.02863045
#
# Stress axis : x y z
#
# Youngs Moduli (GPa) = 101.87398 55.23095 59.85145
#
# Poissons Ratio (x) = 0.00027 0.15813
# Poissons Ratio (y) = 0.00050 0.32037
# Poissons Ratio (z) = 0.26916 0.29564
#
# Static dielectric constant tensor:
#      x y z
#    x 1.691330 0.003690 0.051380 
#    y 0.003690 1.780960 -0.003580 
#    z 0.051380 -0.003580 1.776120 
# 
# From -- ./inp_files/392329.got.cif
#   From: 2010.05.17/outbox.cif.g08.bks.cpg/sg2_197_cif.got.tgz:392329.got - 2010.06.03 11:33:40.
