data_PCOD9040467
_publ_section_title
;
Structure prediction by ZEFSAII (Michael W. Deem and Ramdas Pophale) SiO2 
 PCOD9040467
Probable space group: P -1
;
_chemical_formula_sum "Si O2"
_cell_formula_units_Z 16
_cell_length_a 17.938047
_cell_length_b 8.991244
_cell_length_c 6.041175
_cell_angle_alpha 126.923168
_cell_angle_beta 89.653352
_cell_angle_gamma 112.088631
_cell_volume 689.245612
_symmetry_space_group_name_H-M "P -1"
_symmetry_group_IT_number 2
_symmetry_cell_setting 'triclinic'
loop_
_space_group_symop_operation_xyz
x,y,z
-x,-y,-z
loop_
_atom_site_type_symbol
_atom_site_label
_atom_site_fract_x
_atom_site_fract_y
_atom_site_fract_z
Si Si1 0.279104 0.399386 0.264789
Si Si2 0.106699 0.426545 0.880536
Si Si3 0.027500 0.671739 0.844084
Si Si4 0.700909 0.275467 0.767762
Si Si5 0.282031 0.146476 0.637399
Si Si6 0.862912 0.859934 0.678602
Si Si7 0.457203 0.977320 0.226869
Si Si8 0.417365 0.359137 0.518263
O O1 0.320198 0.630264 0.365503
O O2 0.193733 0.337418 0.341916
O O3 0.346378 0.368907 0.380193
O O4 0.254682 0.219388 0.921225
O O5 0.082543 0.597960 0.931130
O O6 0.085424 0.222104 0.549169
O O7 0.207095 0.543919 0.010289
O O8 0.053854 0.357145 0.043748
O O9 0.000000 0.500000 0.500000
O O10 0.080441 0.917823 0.006911
O O11 0.631260 0.232828 0.919889
O O12 0.707688 0.063498 0.528160
O O13 0.208058 0.107955 0.430465
O O14 0.374007 0.343398 0.747184
O O15 0.500000 0.000000 0.500000
O O16 0.427384 0.152208 0.358671
O O17 0.500000 0.000000 0.000000
O O18 0.500000 0.500000 0.500000
#
# Coordination Sequence:
#
# PCOD9040467 Si02
#       8
#     2   2   2   2   2   2   2   2
#     4  11  25  41  73 106 136 197 242 307 369 446
#     4  11  25  45  71 105 140 194 240 311 373 448
#     4  11  27  46  70 104 143 190 243 305 381 449
#     4  11  24  46  74 102 146 192 249 302 377 455
#     4  10  23  43  67 101 137 188 240 302 366 440
#     4  11  24  45  71 103 142 182 250 301 373 451
#     4  11  27  47  73 113 150 202 251 317 382 452
#     4  10  24  43  66 101 147 187 245 306 370 446
#
# _framework density 23.213788000000001
#
# number of rings (size 3 to 8) (size 9 to 14) (size 15 to 20)
#    0.000    1.250    2.500    1.125    8.750    2.000 
#    0.000    0.000    0.000    0.000    0.000    0.000 
#    0.000    0.000    0.000    0.000    0.000    0.000 
#
# Total GULP energy -89148.548508 kJ/mol
# GULP energy per Si atom -5571.784282 kJ/mol
# Density = 2.316095 g / cm^3
# Si number density = 23.213788 Si / 1000 Ang^3
#
#
#
# Elastic Constant Matrix: (Units=GPa)
#
#
# Indices 1 2 3 4 5 6 
#
# 1 97.4136 43.6572 29.8098 -7.8141 -8.9127 2.1136
# 2 43.6572 139.7137 34.4931 0.9429 -14.4304 -0.6284
# 3 29.8098 34.4931 83.5283 -4.7705 -34.3083 13.7655
# 4 -7.8141 0.9429 -4.7705 38.5832 -1.9219 -10.1045
# 5 -8.9127 -14.4304 -34.3083 -1.9219 27.9530 -0.9033
# 6 2.1136 -0.6284 13.7655 -10.1045 -0.9033 59.9200
#
#
#
# Elastic Compliance Matrix: (Units=1/GPa)
#
#
# Indices 1 2 3 4 5 6 
#
# 1 0.012998 -0.003262 -0.004481 0.002244 -0.002856 0.000872
# 2 -0.003262 0.008840 -0.002454 -0.000997 0.000463 0.000610
# 3 -0.004481 -0.002454 0.029408 0.002982 0.033423 -0.005617
# 4 0.002244 -0.000997 0.002982 0.028123 0.005926 0.004057
# 5 -0.002856 0.000463 0.033423 0.005926 0.076357 -0.005422
# 6 0.000872 0.000610 -0.005617 0.004057 -0.005422 0.018557
#
#
# Mechanical properties :
#
#
# Convention : Reuss Voigt Hill
#
# Bulk Modulus (GPa) = 32.41021 59.61954 46.01487
# Shear Modulus (GPa) = 24.39494 39.47094 31.93294
#
# Velocity S-wave (km/s) = 3.24525 4.12797 3.71293
# Velocity P-wave (km/s) = 5.29472 6.96123 6.18437
#
# Compressibility (1/GPa) = 0.03085447
#
# Stress axis : x y z
#
# Youngs Moduli (GPa) = 76.93391 113.12520 34.00389
#
# Poissons Ratio (x) = 0.36898 0.15236
# Poissons Ratio (y) = 0.25093 0.08343
# Poissons Ratio (z) = 0.34471 0.27757
#
# Static dielectric constant tensor:
#      x y z
#    x 1.854050 0.068630 0.050560 
#    y 0.068630 1.928960 -0.080360 
#    z 0.050560 -0.080360 1.924240 
# 
# From -- ./inp_files/107580.got.cif
#   From: 2010.05.17/outbox.cif.g08.bks.cpg/sg2_54_cif.got.tgz:107580.got - 2010.06.03 11:33:40.
