data_PCOD9040054
_publ_section_title
;
Structure prediction by ZEFSAII (Michael W. Deem and Ramdas Pophale) SiO2 
 PCOD9040054
Probable space group: P -1
;
_chemical_formula_sum "Si O2"
_cell_formula_units_Z 16
_cell_length_a 12.769516
_cell_length_b 11.608662
_cell_length_c 9.933417
_cell_angle_alpha 103.655416
_cell_angle_beta 134.067166
_cell_angle_gamma 43.345379
_cell_volume 608.012721
_symmetry_space_group_name_H-M "P -1"
_symmetry_group_IT_number 2
_symmetry_cell_setting 'triclinic'
loop_
_space_group_symop_operation_xyz
x,y,z
-x,-y,-z
loop_
_atom_site_type_symbol
_atom_site_label
_atom_site_fract_x
_atom_site_fract_y
_atom_site_fract_z
Si Si1 0.073547 0.980001 0.906507
Si Si2 0.149387 0.544140 0.365498
Si Si3 0.759472 0.572666 0.302571
Si Si4 0.453100 0.193961 0.362281
Si Si5 0.395498 0.189632 0.013684
Si Si6 0.290827 0.590222 0.985974
Si Si7 0.165861 0.146138 0.169872
Si Si8 0.178257 0.799586 0.516325
O O1 0.254903 0.753461 0.970447
O O2 0.850253 0.130456 0.642178
O O3 0.175507 0.046140 0.029510
O O4 0.000000 0.000000 0.000000
O O5 0.305244 0.392579 0.590190
O O6 0.311395 0.404375 0.343063
O O7 0.100302 0.713036 0.401156
O O8 0.267422 0.205080 0.229248
O O9 0.801098 0.416482 0.232314
O O10 0.000000 0.500000 0.500000
O O11 0.583633 0.740178 0.077326
O O12 0.107614 0.357606 0.837247
O O13 0.517095 0.150427 0.250244
O O14 0.676355 0.011375 0.608959
O O15 0.559047 0.384910 0.226790
O O16 0.500000 0.000000 0.000000
O O17 0.105846 0.669925 0.960462
O O18 0.000000 0.000000 0.500000
#
# Coordination Sequence:
#
# PCOD9040054 Si02
#       8
#     2   2   2   2   2   2   2   2
#     4  10  24  46  72 108 146 197 249 305 372 448
#     4  11  25  47  71 106 152 198 253 313 376 447
#     4  10  24  43  71 101 145 191 243 303 384 438
#     4  11  24  43  75 111 148 193 251 311 378 451
#     4  11  26  42  73 111 148 192 247 313 384 451
#     4  11  25  47  73 107 151 198 249 312 380 443
#     4  10  23  42  76 108 148 193 249 308 377 454
#     4  12  28  47  75 110 149 202 260 311 372 452
#
# _framework density 26.315238999999998
#
# number of rings (size 3 to 8) (size 9 to 14) (size 15 to 20)
#    0.000    1.250    0.000    4.125    8.750    9.000 
#    0.000    0.000    0.000    0.000    0.000    0.000 
#    0.000    0.000    0.000    0.000    0.000    0.000 
#
# Total GULP energy -89678.315071 kJ/mol
# GULP energy per Si atom -5604.894692 kJ/mol
# Density = 2.625534 g / cm^3
# Si number density = 26.315239 Si / 1000 Ang^3
#
#
#
# Elastic Constant Matrix: (Units=GPa)
#
#
# Indices 1 2 3 4 5 6 
#
# 1 65.0704 27.2232 43.4315 1.0518 -2.2649 -0.0980
# 2 27.2232 155.7394 61.6090 20.9355 4.8139 -5.7939
# 3 43.4315 61.6090 204.2625 15.3787 -17.0741 -7.0890
# 4 1.0518 20.9355 15.3787 46.5762 -0.3666 5.9885
# 5 -2.2649 4.8139 -17.0741 -0.3666 60.6094 7.8134
# 6 -0.0980 -5.7939 -7.0890 5.9885 7.8134 39.8538
#
#
#
# Elastic Compliance Matrix: (Units=1/GPa)
#
#
# Indices 1 2 3 4 5 6 
#
# 1 0.018560 -0.002166 -0.003469 0.001851 0.000051 -0.001174
# 2 -0.002166 0.008042 -0.001790 -0.003193 -0.001451 0.001610
# 3 -0.003469 -0.001790 0.006443 -0.001326 0.001724 0.000738
# 4 0.001851 -0.003193 -0.001326 0.023874 0.000663 -0.004413
# 5 0.000051 -0.001451 0.001724 0.000663 0.017550 -0.003444
# 6 -0.001174 0.001610 0.000738 -0.004413 -0.003444 0.026793
#
#
# Mechanical properties :
#
#
# Convention : Reuss Voigt Hill
#
# Bulk Modulus (GPa) = 54.96256 76.62219 65.79238
# Shear Modulus (GPa) = 40.92502 48.92847 44.92674
#
# Velocity S-wave (km/s) = 3.94786 4.31666 4.13637
# Velocity P-wave (km/s) = 6.45851 7.35017 6.91872
#
# Compressibility (1/GPa) = 0.01819420
#
# Stress axis : x y z
#
# Youngs Moduli (GPa) = 53.88070 124.35257 155.21561
#
# Poissons Ratio (x) = 0.26936 0.53841
# Poissons Ratio (y) = 0.11671 0.27782
# Poissons Ratio (z) = 0.18690 0.22258
#
# Static dielectric constant tensor:
#      x y z
#    x 2.165020 0.053640 0.036730 
#    y 0.053640 2.125120 0.020580 
#    z 0.036730 0.020580 2.044910 
# 
# From -- ./inp_files/307812.got.cif
#   From: 2010.05.17/outbox.cif.g08.bks.cpg/sg2_154_cif.got.tgz:307812.got - 2010.06.03 11:33:40.
