data_PCOD9040768
_publ_section_title
;
Structure prediction by ZEFSAII (Michael W. Deem and Ramdas Pophale) SiO2 
 PCOD9040768
Probable space group: P -1
;
_chemical_formula_sum "Si O2"
_cell_formula_units_Z 16
_cell_length_a 9.039722
_cell_length_b 10.788148
_cell_length_c 17.197536
_cell_angle_alpha 123.481153
_cell_angle_beta 28.998032
_cell_angle_gamma 118.514792
_cell_volume 678.076705
_symmetry_space_group_name_H-M "P -1"
_symmetry_group_IT_number 2
_symmetry_cell_setting 'triclinic'
loop_
_space_group_symop_operation_xyz
x,y,z
-x,-y,-z
loop_
_atom_site_type_symbol
_atom_site_label
_atom_site_fract_x
_atom_site_fract_y
_atom_site_fract_z
Si Si1 0.277599 0.864629 0.073847
Si Si2 0.771327 0.060533 0.312583
Si Si3 0.564541 0.387844 0.552927
Si Si4 0.840526 0.631365 0.404587
Si Si5 0.507998 0.608737 0.106144
Si Si6 0.344299 0.554518 0.861979
Si Si7 0.314465 0.138035 0.972620
Si Si8 0.346601 0.053756 0.370651
O O1 0.409184 0.814908 0.079836
O O2 0.334303 0.731379 0.940984
O O3 0.937108 0.935372 0.246628
O O4 0.500000 0.000000 0.000000
O O5 0.685036 0.218191 0.447693
O O6 0.486728 0.004193 0.372798
O O7 0.026777 0.100149 0.144040
O O8 0.776337 0.479879 0.427644
O O9 0.241201 0.385893 0.654641
O O10 0.523732 0.484323 0.682454
O O11 0.631500 0.767652 0.575948
O O12 0.177009 0.684338 0.285620
O O13 0.531821 0.519766 0.142696
O O14 0.751996 0.731665 0.014012
O O15 0.500000 0.500000 0.000000
O O16 0.000000 0.500000 0.000000
O O17 0.445711 0.004673 0.815009
O O18 0.000000 0.000000 0.500000
#
# Coordination Sequence:
#
# PCOD9040768 Si02
#       8
#     2   2   2   2   2   2   2   2
#     4  10  25  46  66 104 143 186 231 294 359 422
#     4  10  24  46  73 102 140 188 236 295 360 421
#     4  10  24  46  69 102 136 184 241 288 354 422
#     4  10  23  43  68  98 140 182 232 295 345 421
#     4  12  23  42  69  97 142 182 233 292 355 420
#     4  12  28  44  71 106 141 186 237 296 356 424
#     4  11  23  44  70 100 142 185 240 290 355 427
#     4  11  23  41  67 106 137 182 234 290 353 425
#
# _framework density 23.596152
#
# number of rings (size 3 to 8) (size 9 to 14) (size 15 to 20)
#    0.000    1.250    2.500    1.875    7.000    3.500 
#    0.000    1.250    0.000    0.000    0.000    0.000 
#    0.000    0.000    0.000    0.000    0.000    0.000 
#
# Total GULP energy -89452.598563 kJ/mol
# GULP energy per Si atom -5590.787410 kJ/mol
# Density = 2.354245 g / cm^3
# Si number density = 23.596152 Si / 1000 Ang^3
#
#
#
# Elastic Constant Matrix: (Units=GPa)
#
#
# Indices 1 2 3 4 5 6 
#
# 1 117.1793 37.8134 51.0268 23.5387 1.5129 6.3555
# 2 37.8134 89.1653 37.4944 15.7268 6.8424 4.5277
# 3 51.0268 37.4944 98.5786 31.5326 13.9458 1.5397
# 4 23.5387 15.7268 31.5326 44.9649 14.8042 4.7185
# 5 1.5129 6.8424 13.9458 14.8042 43.2884 2.5514
# 6 6.3555 4.5277 1.5397 4.7185 2.5514 35.0486
#
#
#
# Elastic Compliance Matrix: (Units=1/GPa)
#
#
# Indices 1 2 3 4 5 6 
#
# 1 0.012053 -0.002800 -0.004624 -0.002775 0.002545 -0.001432
# 2 -0.002800 0.014137 -0.003620 -0.000600 -0.000705 -0.001027
# 3 -0.004624 -0.003620 0.016559 -0.007392 -0.002175 0.001732
# 4 -0.002775 -0.000600 -0.007392 0.032093 -0.008236 -0.002815
# 5 0.002545 -0.000705 -0.002175 -0.008236 0.026706 -0.001110
# 6 -0.001432 -0.001027 0.001732 -0.002815 -0.001110 0.029308
#
#
# Mechanical properties :
#
#
# Convention : Reuss Voigt Hill
#
# Bulk Modulus (GPa) = 48.39816 61.95473 55.17644
# Shear Modulus (GPa) = 31.28274 36.56628 33.92451
#
# Velocity S-wave (km/s) = 3.64504 3.94086 3.79583
# Velocity P-wave (km/s) = 6.18633 6.85714 6.53036
#
# Compressibility (1/GPa) = 0.02066194
#
# Stress axis : x y z
#
# Youngs Moduli (GPa) = 82.96381 70.73684 60.38838
#
# Poissons Ratio (x) = 0.19808 0.27923
# Poissons Ratio (y) = 0.23232 0.21859
# Poissons Ratio (z) = 0.38362 0.25604
#
# Static dielectric constant tensor:
#      x y z
#    x 1.998480 -0.044420 -0.088480 
#    y -0.044420 1.924760 0.007330 
#    z -0.088480 0.007330 2.015010 
# 
# From -- ./inp_files/559890.got.cif
#   From: 2010.05.17/outbox.cif.g08.bks.cpg/sg2_280_cif.got.tgz:559890.got - 2010.06.03 11:33:40.
