data_PCOD9040879
_publ_section_title
;
Structure prediction by ZEFSAII (Michael W. Deem and Ramdas Pophale) SiO2 
 PCOD9040879
Probable space group: P -1
;
_chemical_formula_sum "Si O2"
_cell_formula_units_Z 14
_cell_length_a 5.164960
_cell_length_b 11.840309
_cell_length_c 26.883786
_cell_angle_alpha 28.957532
_cell_angle_beta 117.903966
_cell_angle_gamma 102.275393
_cell_volume 624.560322
_symmetry_space_group_name_H-M "P -1"
_symmetry_group_IT_number 2
_symmetry_cell_setting 'triclinic'
loop_
_space_group_symop_operation_xyz
x,y,z
-x,-y,-z
loop_
_atom_site_type_symbol
_atom_site_label
_atom_site_fract_x
_atom_site_fract_y
_atom_site_fract_z
Si Si1 0.398568 0.835248 0.094535
Si Si2 0.559361 0.897857 0.910002
Si Si3 0.349744 0.485999 0.544700
Si Si4 0.873591 0.921257 0.831177
Si Si5 0.850011 0.981766 0.633135
Si Si6 0.823984 0.370427 0.115196
Si Si7 0.277567 0.805603 0.640529
O O1 0.565804 0.516897 0.225238
O O2 0.499237 0.885126 0.139013
O O3 0.500000 0.000000 0.000000
O O4 0.000000 0.000000 0.000000
O O5 0.832217 0.842362 0.913298
O O6 0.726780 0.598319 0.060295
O O7 0.195310 0.960465 0.835523
O O8 0.500000 0.500000 0.500000
O O9 0.567974 0.199135 0.694709
O O10 0.000000 0.500000 0.500000
O O11 0.337997 0.705641 0.496723
O O12 0.886649 0.726801 0.863104
O O13 0.584671 0.872718 0.643927
O O14 0.056612 0.881239 0.741982
O O15 0.091849 0.891943 0.643065
O O16 0.500000 0.500000 0.000000
O O17 0.000000 0.000000 0.500000
#
# Coordination Sequence:
#
# PCOD9040879 Si02
#       7
#     2   2   2   2   2   2   2
#     4  12  26  48  75 106 144 191 258 319 373 438
#     4  11  24  41  69  97 138 181 231 293 360 428
#     4  12  25  44  70 104 144 184 237 292 364 444
#     4  11  24  40  66 100 141 176 232 282 359 445
#     4  12  27  47  76 105 151 197 241 307 380 439
#     4  10  23  43  69 106 144 185 232 291 367 456
#     4  12  29  50  77 109 150 201 261 315 376 442
#
# _framework density 22.415770999999999
#
# number of rings (size 3 to 8) (size 9 to 14) (size 15 to 20)
#    0.000    0.571    1.429    6.000    6.000    3.429 
#    0.000    0.000    0.000    0.000    0.000    0.000 
#    0.000    0.000    0.000    0.000    0.000    0.000 
#
# Total GULP energy -78019.388031 kJ/mol
# GULP energy per Si atom -5572.813431 kJ/mol
# Density = 2.236475 g / cm^3
# Si number density = 22.415771 Si / 1000 Ang^3
#
#
#
# Elastic Constant Matrix: (Units=GPa)
#
#
# Indices 1 2 3 4 5 6 
#
# 1 91.4322 38.7064 22.8911 -0.8613 0.8296 -12.8631
# 2 38.7064 109.5483 36.5083 -31.5864 8.0667 -15.3999
# 3 22.8911 36.5083 134.6946 -25.4911 22.5055 4.8415
# 4 -0.8613 -31.5864 -25.4911 60.0006 -5.6646 1.1390
# 5 0.8296 8.0667 22.5055 -5.6646 28.2721 -1.1484
# 6 -12.8631 -15.3999 4.8415 1.1390 -1.1484 42.7670
#
#
#
# Elastic Compliance Matrix: (Units=1/GPa)
#
#
# Indices 1 2 3 4 5 6 
#
# 1 0.013860 -0.004861 -0.002080 -0.003096 0.002129 0.002794
# 2 -0.004861 0.013792 -0.001665 0.006317 -0.001059 0.003496
# 3 -0.002080 -0.001665 0.010009 0.002735 -0.006989 -0.002619
# 4 -0.003096 0.006317 0.002735 0.021135 0.000365 0.000481
# 5 0.002129 -0.001059 -0.006989 0.000365 0.041335 0.002151
# 6 0.002794 0.003496 -0.002619 0.000481 0.002151 0.025823
#
#
# Mechanical properties :
#
#
# Convention : Reuss Voigt Hill
#
# Bulk Modulus (GPa) = 48.90360 59.09854 54.00107
# Shear Modulus (GPa) = 33.33759 42.04588 37.69174
#
# Velocity S-wave (km/s) = 3.86066 4.33567 4.10504
# Velocity P-wave (km/s) = 6.46041 7.17537 6.82725
#
# Compressibility (1/GPa) = 0.02044839
#
# Stress axis : x y z
#
# Youngs Moduli (GPa) = 72.15007 72.50835 99.91256
#
# Poissons Ratio (x) = 0.35243 0.20782
# Poissons Ratio (y) = 0.35069 0.16639
# Poissons Ratio (z) = 0.15008 0.12075
#
# Static dielectric constant tensor:
#      x y z
#    x 1.453110 0.309120 0.369020 
#    y 0.309120 1.886980 -0.239930 
#    z 0.369020 -0.239930 1.512920 
# 
# From -- ./inp_files/615407.got.cif
#   From: 2010.05.17/outbox.cif.g08.bks.cpg/sg2_308_cif.got.tgz:615407.got - 2010.06.03 11:33:40.
