data_PCOD9040182
_publ_section_title
;
Structure prediction by ZEFSAII (Michael W. Deem and Ramdas Pophale) SiO2 
 PCOD9040182
Probable space group: P -1
;
_chemical_formula_sum "Si O2"
_cell_formula_units_Z 16
_cell_length_a 7.947053
_cell_length_b 12.613752
_cell_length_c 10.238971
_cell_angle_alpha 101.977922
_cell_angle_beta 136.534844
_cell_angle_gamma 85.740918
_cell_volume 686.224375
_symmetry_space_group_name_H-M "P -1"
_symmetry_group_IT_number 2
_symmetry_cell_setting 'triclinic'
loop_
_space_group_symop_operation_xyz
x,y,z
-x,-y,-z
loop_
_atom_site_type_symbol
_atom_site_label
_atom_site_fract_x
_atom_site_fract_y
_atom_site_fract_z
Si Si1 0.808540 0.912827 0.588375
Si Si2 0.015088 0.374037 0.612919
Si Si3 0.404730 0.547904 0.731209
Si Si4 0.164033 0.484676 0.215549
Si Si5 0.694213 0.062038 0.804484
Si Si6 0.390587 0.273957 0.934747
Si Si7 0.735157 0.948885 0.072316
Si Si8 0.059341 0.748720 0.865805
O O1 0.579599 0.901067 0.357801
O O2 0.909693 0.806614 0.683786
O O3 0.726143 0.983980 0.682023
O O4 0.044948 0.993883 0.699766
O O5 0.220072 0.454081 0.670180
O O6 0.161768 0.274103 0.706899
O O7 0.770893 0.360118 0.384318
O O8 0.905994 0.430504 0.693000
O O9 0.559875 0.508071 0.687486
O O10 0.587561 0.607227 0.955288
O O11 0.083994 0.365481 0.201422
O O12 0.000000 0.500000 0.000000
O O13 0.885516 0.170435 0.958348
O O14 0.748114 0.992144 0.943341
O O15 0.312897 0.179145 0.968772
O O16 0.660868 0.263759 0.026375
O O17 0.500000 0.000000 0.000000
#
# Coordination Sequence:
#
# PCOD9040182 Si02
#       8
#     2   2   2   2   2   2   2   2
#     4  10  23  43  64  92 129 175 215 264 319 383
#     4  11  25  47  65  97 135 172 221 270 325 391
#     4  11  25  44  69  96 134 173 219 273 323 389
#     4  12  24  44  71  95 135 177 214 273 329 386
#     4  10  23  43  65  91 130 173 214 268 319 381
#     4  12  23  42  66  95 129 171 214 273 329 381
#     4  11  22  41  63  93 128 163 212 264 320 383
#     4  11  23  43  64  95 132 170 219 266 327 391
#
# _framework density 23.315989999999999
#
# number of rings (size 3 to 8) (size 9 to 14) (size 15 to 20)
#    0.000    1.000    5.000    3.000    3.500    2.500 
#    6.750    0.000    0.000    0.000    0.000    0.000 
#    0.000    0.000    0.000    0.000    0.000    0.000 
#
# Total GULP energy -89366.860334 kJ/mol
# GULP energy per Si atom -5585.428771 kJ/mol
# Density = 2.326292 g / cm^3
# Si number density = 23.315990 Si / 1000 Ang^3
#
#
#
# Elastic Constant Matrix: (Units=GPa)
#
#
# Indices 1 2 3 4 5 6 
#
# 1 104.5296 19.9387 14.0423 -16.0105 14.2779 -13.6189
# 2 19.9387 60.9597 10.1427 -21.2329 3.2986 -1.2126
# 3 14.0423 10.1427 110.5630 -29.9740 19.0855 -4.2461
# 4 -16.0105 -21.2329 -29.9740 34.1464 -14.2434 6.6034
# 5 14.2779 3.2986 19.0855 -14.2434 32.8147 -4.6506
# 6 -13.6189 -1.2126 -4.2461 6.6034 -4.6506 34.5430
#
#
#
# Elastic Compliance Matrix: (Units=1/GPa)
#
#
# Indices 1 2 3 4 5 6 
#
# 1 0.011287 -0.003008 -0.000092 0.001164 -0.003535 0.003635
# 2 -0.003008 0.022647 0.001954 0.016945 0.004863 -0.002735
# 3 -0.000092 0.001954 0.012290 0.011035 -0.002645 -0.000923
# 4 0.001164 0.016945 0.011035 0.057800 0.015533 -0.006548
# 5 -0.003535 0.004863 -0.002645 0.015533 0.039926 0.000858
# 6 0.003635 -0.002735 -0.000923 -0.006548 0.000858 0.031540
#
#
# Mechanical properties :
#
#
# Convention : Reuss Voigt Hill
#
# Bulk Modulus (GPa) = 22.76245 40.47774 31.62010
# Shear Modulus (GPa) = 25.98390 35.76274 30.87332
#
# Velocity S-wave (km/s) = 3.34192 3.92066 3.64280
# Velocity P-wave (km/s) = 4.96740 6.15578 5.59324
#
# Compressibility (1/GPa) = 0.04393200
#
# Stress axis : x y z
#
# Youngs Moduli (GPa) = 88.59408 44.15508 81.36806
#
# Poissons Ratio (x) = 0.13280 0.00752
# Poissons Ratio (y) = 0.26646 -0.15896
# Poissons Ratio (z) = 0.00819 -0.08626
#
# Static dielectric constant tensor:
#      x y z
#    x 1.952860 -0.025270 -0.001280 
#    y -0.025270 1.870000 -0.021300 
#    z -0.001280 -0.021300 1.895580 
# 
# From -- ./inp_files/313316.got.cif
#   From: 2010.05.17/outbox.cif.g08.bks.cpg/sg2_157_cif.got.tgz:313316.got - 2010.06.03 11:33:40.
