data_PCOD9040911
_publ_section_title
;
Structure prediction by ZEFSAII (Michael W. Deem and Ramdas Pophale) SiO2 
 PCOD9040911
Probable space group: P -1
;
_chemical_formula_sum "Si O2"
_cell_formula_units_Z 16
_cell_length_a 7.485001
_cell_length_b 9.062372
_cell_length_c 12.399267
_cell_angle_alpha 117.298033
_cell_angle_beta 63.146923
_cell_angle_gamma 114.720497
_cell_volume 642.748277
_symmetry_space_group_name_H-M "P -1"
_symmetry_group_IT_number 2
_symmetry_cell_setting 'triclinic'
loop_
_space_group_symop_operation_xyz
x,y,z
-x,-y,-z
loop_
_atom_site_type_symbol
_atom_site_label
_atom_site_fract_x
_atom_site_fract_y
_atom_site_fract_z
Si Si1 0.050975 0.253713 0.154595
Si Si2 0.392818 0.250344 0.642450
Si Si3 0.911601 0.151094 0.678296
Si Si4 0.475739 0.352909 0.210239
Si Si5 0.249350 0.127364 0.870195
Si Si6 0.950889 0.553043 0.410072
Si Si7 0.383479 0.839781 0.052530
Si Si8 0.366183 0.223047 0.419486
O O1 0.253934 0.280811 0.186481
O O2 0.948943 0.401131 0.274710
O O3 0.124563 0.249529 0.007708
O O4 0.901344 0.064222 0.150026
O O5 0.488007 0.448576 0.709054
O O6 0.354271 0.156401 0.734462
O O7 0.495448 0.212437 0.489346
O O8 0.156111 0.206929 0.649779
O O9 0.882176 0.281982 0.635257
O O10 0.818483 0.162750 0.826060
O O11 0.809429 0.956075 0.606568
O O12 0.485344 0.250874 0.283243
O O13 0.645511 0.323669 0.071057
O O14 0.447682 0.156333 0.901498
O O15 0.000000 0.500000 0.500000
O O16 0.741178 0.617123 0.496840
O O17 0.500000 0.000000 0.000000
#
# Coordination Sequence:
#
# PCOD9040911 Si02
#       8
#     2   2   2   2   2   2   2   2
#     4  10  23  43  69  96 139 176 231 279 346 406
#     4  11  25  41  71  99 138 181 230 279 352 409
#     4  11  26  46  71 101 144 186 232 284 347 411
#     4  11  23  43  70  98 143 180 229 289 343 407
#     4  10  25  44  69 101 134 184 227 284 349 409
#     4  11  23  39  73 102 134 180 235 280 345 405
#     4  11  25  44  72 101 135 183 234 287 344 410
#     4  11  23  47  69  96 143 189 227 283 349 409
#
# _framework density 24.893103
#
# number of rings (size 3 to 8) (size 9 to 14) (size 15 to 20)
#    0.000    1.250    2.500    2.625    8.750    3.500 
#    2.250    0.625    0.000    0.000    0.000    0.000 
#    0.000    0.000    0.000    0.000    0.000    0.000 
#
# Total GULP energy -89427.441247 kJ/mol
# GULP energy per Si atom -5589.215078 kJ/mol
# Density = 2.483644 g / cm^3
# Si number density = 24.893103 Si / 1000 Ang^3
#
#
#
# Elastic Constant Matrix: (Units=GPa)
#
#
# Indices 1 2 3 4 5 6 
#
# 1 32.6845 7.6749 32.4360 -2.7824 8.1086 -3.5689
# 2 7.6749 85.8161 35.9507 -6.9481 -0.6922 -5.0320
# 3 32.4360 35.9507 168.1111 -0.1682 4.3496 -19.2905
# 4 -2.7824 -6.9481 -0.1682 55.7730 -8.1014 11.5042
# 5 8.1086 -0.6922 4.3496 -8.1014 33.7090 -7.7506
# 6 -3.5689 -5.0320 -19.2905 11.5042 -7.7506 30.5071
#
#
#
# Elastic Compliance Matrix: (Units=1/GPa)
#
#
# Indices 1 2 3 4 5 6 
#
# 1 0.040522 -0.000499 -0.007828 0.001242 -0.009159 -0.003087
# 2 -0.000499 0.012983 -0.002708 0.001752 0.001158 0.000005
# 3 -0.007828 -0.002708 0.008573 -0.001517 0.001509 0.005014
# 4 0.001242 0.001752 -0.001517 0.020170 0.003091 -0.007345
# 5 -0.009159 0.001158 0.001509 0.003091 0.034187 0.007594
# 6 -0.003087 0.000005 0.005014 -0.007345 0.007594 0.040289
#
#
# Mechanical properties :
#
#
# Convention : Reuss Voigt Hill
#
# Bulk Modulus (GPa) = 24.99483 48.74833 36.87158
# Shear Modulus (GPa) = 26.02431 38.03449 32.02940
#
# Velocity S-wave (km/s) = 3.23684 3.91309 3.59092
# Velocity P-wave (km/s) = 4.90226 6.32787 5.66013
#
# Compressibility (1/GPa) = 0.04000828
#
# Stress axis : x y z
#
# Youngs Moduli (GPa) = 24.67809 77.02204 116.65078
#
# Poissons Ratio (x) = 0.03844 0.91311
# Poissons Ratio (y) = 0.01232 0.31588
# Poissons Ratio (z) = 0.19317 0.20857
#
# Static dielectric constant tensor:
#      x y z
#    x 2.054640 -0.039840 -0.077220 
#    y -0.039840 1.921260 0.036900 
#    z -0.077220 0.036900 1.884110 
# 
# From -- ./inp_files/184842.got.cif
#   From: 2010.05.17/outbox.cif.g08.bks.cpg/sg2_93_cif.got.tgz:184842.got - 2010.06.03 11:33:40.
