data_PCOD9040587
_publ_section_title
;
Structure prediction by ZEFSAII (Michael W. Deem and Ramdas Pophale) SiO2 
 PCOD9040587
Probable space group: P -1
;
_chemical_formula_sum "Si O2"
_cell_formula_units_Z 16
_cell_length_a 8.134871
_cell_length_b 24.222327
_cell_length_c 5.828599
_cell_angle_alpha 123.466199
_cell_angle_beta 122.860620
_cell_angle_gamma 50.210789
_cell_volume 703.227268
_symmetry_space_group_name_H-M "P -1"
_symmetry_group_IT_number 2
_symmetry_cell_setting 'triclinic'
loop_
_space_group_symop_operation_xyz
x,y,z
-x,-y,-z
loop_
_atom_site_type_symbol
_atom_site_label
_atom_site_fract_x
_atom_site_fract_y
_atom_site_fract_z
Si Si1 0.981865 0.688546 0.229839
Si Si2 0.894779 0.915401 0.668688
Si Si3 0.374152 0.520613 0.707702
Si Si4 0.162767 0.434796 0.148714
Si Si5 0.994380 0.799684 0.121975
Si Si6 0.326871 0.662015 0.804199
Si Si7 0.339829 0.162355 0.427511
Si Si8 0.825933 0.056039 0.682254
O O1 0.790312 0.749025 0.396450
O O2 0.966082 0.741188 0.129856
O O3 0.218404 0.661446 0.475359
O O4 0.944994 0.617569 0.987808
O O5 0.734450 0.883978 0.563000
O O6 0.031929 0.857673 0.436619
O O7 0.776525 0.000213 0.677527
O O8 0.053103 0.911449 0.987207
O O9 0.500000 0.500000 0.500000
O O10 0.224222 0.479504 0.488677
O O11 0.264315 0.610554 0.803500
O O12 0.500000 0.500000 0.000000
O O13 0.405964 0.376679 0.091420
O O14 0.000000 0.500000 0.000000
O O15 0.199630 0.747598 0.992198
O O16 0.765939 0.842641 0.904471
O O17 0.604284 0.121118 0.549130
O O18 0.000000 0.000000 0.500000
#
# Coordination Sequence:
#
# PCOD9040587 Si02
#       8
#     2   2   2   2   2   2   2   2
#     4  10  23  44  66  98 133 181 231 283 347 419
#     4  10  23  43  67  98 134 184 216 279 337 408
#     4  10  23  44  69  99 138 183 230 300 365 423
#     4  11  23  44  73 100 136 181 235 295 356 424
#     4  10  23  43  70  92 136 184 225 281 344 409
#     4  10  23  43  68  95 137 176 228 289 351 419
#     4  10  23  45  64  96 138 176 225 275 342 407
#     4  11  24  41  70 103 136 170 229 273 337 409
#
# _framework density 22.752247000000001
#
# number of rings (size 3 to 8) (size 9 to 14) (size 15 to 20)
#    0.000    1.750    1.250    1.125    3.500   10.000 
#    9.000    5.625    0.000    0.000    0.000    0.000 
#    0.000    0.000    0.000    0.000    0.000    0.000 
#
# Total GULP energy -89402.028038 kJ/mol
# GULP energy per Si atom -5587.626752 kJ/mol
# Density = 2.270046 g / cm^3
# Si number density = 22.752247 Si / 1000 Ang^3
#
#
#
# Elastic Constant Matrix: (Units=GPa)
#
#
# Indices 1 2 3 4 5 6 
#
# 1 71.6392 35.0587 38.6737 -6.6555 13.8169 -1.1029
# 2 35.0587 109.0399 55.4195 -13.2518 14.5433 -8.5807
# 3 38.6737 55.4195 155.5582 0.8278 0.9259 -24.0792
# 4 -6.6555 -13.2518 0.8278 52.3850 4.3925 6.9011
# 5 13.8169 14.5433 0.9259 4.3925 25.9370 -0.9525
# 6 -1.1029 -8.5807 -24.0792 6.9011 -0.9525 49.8526
#
#
#
# Elastic Compliance Matrix: (Units=1/GPa)
#
#
# Indices 1 2 3 4 5 6 
#
# 1 0.019667 -0.002732 -0.004295 0.003021 -0.009403 -0.002708
# 2 -0.002732 0.013465 -0.004159 0.003729 -0.006592 -0.000394
# 3 -0.004295 -0.004159 0.009631 -0.002729 0.004897 0.004312
# 4 0.003021 0.003729 -0.002729 0.021572 -0.007393 -0.003737
# 5 -0.009403 -0.006592 0.004897 -0.007393 0.048447 0.002972
# 6 -0.002708 -0.000394 0.004312 -0.003737 0.002972 0.022588
#
#
# Mechanical properties :
#
#
# Convention : Reuss Voigt Hill
#
# Bulk Modulus (GPa) = 49.04563 66.06012 57.55288
# Shear Modulus (GPa) = 30.38772 39.44059 34.91416
#
# Velocity S-wave (km/s) = 3.65854 4.16803 3.92157
# Velocity P-wave (km/s) = 6.28090 7.22917 6.77165
#
# Compressibility (1/GPa) = 0.02038918
#
# Stress axis : x y z
#
# Youngs Moduli (GPa) = 50.84629 74.26726 103.83100
#
# Poissons Ratio (x) = 0.20292 0.44599
# Poissons Ratio (y) = 0.13892 0.43187
# Poissons Ratio (z) = 0.21840 0.30891
#
# Static dielectric constant tensor:
#      x y z
#    x 1.924800 -0.013220 -0.048810 
#    y -0.013220 1.847990 0.037650 
#    z -0.048810 0.037650 1.843650 
# 
# From -- ./inp_files/55667.got.cif
#   From: 2010.05.17/outbox.cif.g08.bks.cpg/sg2_28_cif.got.tgz:55667.got - 2010.06.03 11:33:40.
