data_PCOD9040449
_publ_section_title
;
Structure prediction by ZEFSAII (Michael W. Deem and Ramdas Pophale) SiO2 
 PCOD9040449
Probable space group: P -1
;
_chemical_formula_sum "Si O2"
_cell_formula_units_Z 14
_cell_length_a 5.196379
_cell_length_b 17.613230
_cell_length_c 21.111681
_cell_angle_alpha 19.917925
_cell_angle_beta 86.511450
_cell_angle_gamma 85.414723
_cell_volume 655.575941
_symmetry_space_group_name_H-M "P -1"
_symmetry_group_IT_number 2
_symmetry_cell_setting 'triclinic'
loop_
_space_group_symop_operation_xyz
x,y,z
-x,-y,-z
loop_
_atom_site_type_symbol
_atom_site_label
_atom_site_fract_x
_atom_site_fract_y
_atom_site_fract_z
Si Si1 0.859160 0.318503 0.602110
Si Si2 0.269445 0.507711 0.667177
Si Si3 0.991001 0.936717 0.400308
Si Si4 0.239460 0.014093 0.031674
Si Si5 0.530068 0.402611 0.864995
Si Si6 0.461975 0.893984 0.515667
Si Si7 0.965382 0.865685 0.889366
O O1 0.709324 0.430530 0.455904
O O2 0.714651 0.180176 0.765085
O O3 0.000000 0.500000 0.500000
O O4 0.016086 0.105677 0.733172
O O5 0.519513 0.479102 0.731142
O O6 0.088724 0.697096 0.556059
O O7 0.177772 0.260160 0.866988
O O8 0.709041 0.934717 0.436063
O O9 0.200495 0.982969 0.414582
O O10 0.005276 0.102135 0.211308
O O11 0.500000 0.000000 0.000000
O O12 0.000000 0.000000 0.000000
O O13 0.451453 0.626072 0.729931
O O14 0.811265 0.307442 0.954122
O O15 0.318486 0.220728 0.024603
O O16 0.500000 0.000000 0.500000
#
# Coordination Sequence:
#
# PCOD9040449 Si02
#       7
#     2   2   2   2   2   2   2
#     4  11  24  46  67 100 135 180 232 286 341 389
#     4  10  23  43  69  94 133 180 229 276 335 398
#     4  10  23  43  67 100 136 174 228 269 334 405
#     4  12  27  44  65  95 137 173 230 288 344 391
#     4  11  23  43  70  96 132 174 226 268 344 399
#     4  11  23  43  70 101 136 176 218 273 342 407
#     4  11  24  44  68  99 131 180 226 283 322 406
#
# _framework density 21.355267000000001
#
# number of rings (size 3 to 8) (size 9 to 14) (size 15 to 20)
#    0.000    1.143    2.857    3.000    2.000    1.714 
#    5.143    4.286    0.000    0.000    0.000    0.000 
#    0.000    0.000    0.000    0.000    0.000    0.000 
#
# Total GULP energy -78160.087181 kJ/mol
# GULP energy per Si atom -5582.863370 kJ/mol
# Density = 2.130666 g / cm^3
# Si number density = 21.355267 Si / 1000 Ang^3
#
#
#
# Elastic Constant Matrix: (Units=GPa)
#
#
# Indices 1 2 3 4 5 6 
#
# 1 80.1199 5.6207 14.2236 13.5844 -9.4482 12.0468
# 2 5.6207 134.2918 50.2359 1.9535 -13.4357 23.0006
# 3 14.2236 50.2359 114.0087 22.1999 -6.7168 7.7434
# 4 13.5844 1.9535 22.1999 29.1020 -7.9114 -8.9347
# 5 -9.4482 -13.4357 -6.7168 -7.9114 28.8882 5.7859
# 6 12.0468 23.0006 7.7434 -8.9347 5.7859 28.3815
#
#
#
# Elastic Compliance Matrix: (Units=1/GPa)
#
#
# Indices 1 2 3 4 5 6 
#
# 1 0.016964 0.002394 0.000260 -0.010773 0.006564 -0.013941
# 2 0.002394 0.011470 -0.004209 0.000037 0.007279 -0.010636
# 3 0.000260 -0.004209 0.012916 -0.011085 -0.001211 -0.003466
# 4 -0.010773 0.000037 -0.011085 0.056580 0.004513 0.024459
# 5 0.006564 0.007279 -0.001211 0.004513 0.044300 -0.015965
# 6 -0.013941 -0.010636 -0.003466 0.024459 -0.015965 0.061671
#
#
# Mechanical properties :
#
#
# Convention : Reuss Voigt Hill
#
# Bulk Modulus (GPa) = 26.15025 52.06456 39.10741
# Shear Modulus (GPa) = 22.75233 34.49703 28.62468
#
# Velocity S-wave (km/s) = 3.26762 4.02355 3.66512
# Velocity P-wave (km/s) = 5.14863 6.78368 6.02191
#
# Compressibility (1/GPa) = 0.03824055
#
# Stress axis : x y z
#
# Youngs Moduli (GPa) = 58.94823 87.18417 77.42439
#
# Poissons Ratio (x) = -0.20870 -0.02014
# Poissons Ratio (y) = -0.14111 0.32585
# Poissons Ratio (z) = -0.01534 0.36693
#
# Static dielectric constant tensor:
#      x y z
#    x 1.759520 0.005550 -0.017240 
#    y 0.005550 1.847490 0.009530 
#    z -0.017240 0.009530 1.796730 
# 
# From -- ./inp_files/583734.got.cif
#   From: 2010.05.17/outbox.cif.g08.bks.cpg/sg2_292_cif.got.tgz:583734.got - 2010.06.03 11:33:40.
