data_PCOD9040803
_publ_section_title
;
Structure prediction by ZEFSAII (Michael W. Deem and Ramdas Pophale) SiO2 
 PCOD9040803
Probable space group: P -1
;
_chemical_formula_sum "Si O2"
_cell_formula_units_Z 14
_cell_length_a 8.638752
_cell_length_b 8.879066
_cell_length_c 11.770707
_cell_angle_alpha 120.157216
_cell_angle_beta 102.725526
_cell_angle_gamma 51.499231
_cell_volume 605.213384
_symmetry_space_group_name_H-M "P -1"
_symmetry_group_IT_number 2
_symmetry_cell_setting 'triclinic'
loop_
_space_group_symop_operation_xyz
x,y,z
-x,-y,-z
loop_
_atom_site_type_symbol
_atom_site_label
_atom_site_fract_x
_atom_site_fract_y
_atom_site_fract_z
Si Si1 0.083668 0.576021 0.305635
Si Si2 0.621181 0.974516 0.399568
Si Si3 0.536771 0.213942 0.849697
Si Si4 0.813088 0.184740 0.460119
Si Si5 0.213716 0.856730 0.823428
Si Si6 0.916378 0.826810 0.892645
Si Si7 0.372069 0.501336 0.146000
O O1 0.203737 0.600454 0.431707
O O2 0.115498 0.351438 0.208748
O O3 0.165155 0.610500 0.217000
O O4 0.850578 0.758809 0.361251
O O5 0.532041 0.924372 0.262087
O O6 0.500000 0.000000 0.500000
O O7 0.635120 0.173129 0.461736
O O8 0.576744 0.331253 0.804449
O O9 0.744801 0.048464 0.884352
O O10 0.386068 0.395662 0.986708
O O11 0.841936 0.136819 0.313153
O O12 0.000000 0.000000 0.500000
O O13 0.451132 0.696927 0.822519
O O14 0.121450 0.762788 0.850028
O O15 0.117151 0.095169 0.952742
#
# Coordination Sequence:
#
# PCOD9040803 Si02
#       7
#     2   2   2   2   2   2   2
#     4  11  25  44  68 105 134 177 234 288 342 404
#     4  11  25  44  68  95 139 186 232 279 352 408
#     4  10  23  43  69 100 140 188 223 285 342 411
#     4  10  25  44  66  99 136 186 225 287 341 410
#     4  10  23  45  70  97 145 180 230 278 352 404
#     4  10  24  42  72 105 135 183 226 293 337 404
#     4  10  23  43  69 103 140 178 236 280 341 409
#
# _framework density 23.132335000000001
#
# number of rings (size 3 to 8) (size 9 to 14) (size 15 to 20)
#    0.000    1.714    0.000    1.714   12.000    4.000 
#    2.571    0.000    0.000    0.000    0.000    0.000 
#    0.000    0.000    0.000    0.000    0.000    0.000 
#
# Total GULP energy -78302.547392 kJ/mol
# GULP energy per Si atom -5593.039099 kJ/mol
# Density = 2.307969 g / cm^3
# Si number density = 23.132335 Si / 1000 Ang^3
#
#
#
# Elastic Constant Matrix: (Units=GPa)
#
#
# Indices 1 2 3 4 5 6 
#
# 1 134.5280 25.2326 78.5210 6.6533 2.7497 10.9829
# 2 25.2326 55.4754 43.6404 -2.6380 -1.4641 0.2378
# 3 78.5210 43.6404 163.7409 -5.2520 12.9400 16.6232
# 4 6.6533 -2.6380 -5.2520 27.9121 3.0444 7.4186
# 5 2.7497 -1.4641 12.9400 3.0444 60.6736 11.8564
# 6 10.9829 0.2378 16.6232 7.4186 11.8564 17.1211
#
#
#
# Elastic Compliance Matrix: (Units=1/GPa)
#
#
# Indices 1 2 3 4 5 6 
#
# 1 0.010768 -0.001173 -0.004897 -0.003344 0.000960 -0.001353
# 2 -0.001173 0.023605 -0.006450 -0.000477 0.000781 0.006354
# 3 -0.004897 -0.006450 0.011381 0.005335 -0.000751 -0.009611
# 4 -0.003344 -0.000477 0.005335 0.043491 0.001265 -0.022749
# 5 0.000960 0.000781 -0.000751 0.001265 0.019245 -0.013774
# 6 -0.001353 0.006354 -0.009611 -0.022749 -0.013774 0.087914
#
#
# Mechanical properties :
#
#
# Convention : Reuss Voigt Hill
#
# Bulk Modulus (GPa) = 48.28120 72.05914 60.17017
# Shear Modulus (GPa) = 21.89633 34.89805 28.39719
#
# Velocity S-wave (km/s) = 3.07997 3.88832 3.50751
# Velocity P-wave (km/s) = 5.79356 7.16779 6.51700
#
# Compressibility (1/GPa) = 0.02071199
#
# Stress axis : x y z
#
# Youngs Moduli (GPa) = 92.86967 42.36428 87.86758
#
# Poissons Ratio (x) = 0.04971 0.43026
# Poissons Ratio (y) = 0.10898 0.56679
# Poissons Ratio (z) = 0.45475 0.27327
#
# Static dielectric constant tensor:
#      x y z
#    x 1.851860 -0.017810 0.009560 
#    y -0.017810 1.916790 0.034940 
#    z 0.009560 0.034940 1.895480 
# 
# From -- ./inp_files/377117.got.cif
#   From: 2010.05.17/outbox.cif.g08.bks.cpg/sg2_189_cif.got.tgz:377117.got - 2010.06.03 11:33:40.
