data_PCOD9040776
_publ_section_title
;
Structure prediction by ZEFSAII (Michael W. Deem and Ramdas Pophale) SiO2 
 PCOD9040776
Probable space group: P -1
;
_chemical_formula_sum "Si O2"
_cell_formula_units_Z 16
_cell_length_a 12.194497
_cell_length_b 6.447913
_cell_length_c 25.249288
_cell_angle_alpha 63.474438
_cell_angle_beta 153.306468
_cell_angle_gamma 123.345490
_cell_volume 739.763885
_symmetry_space_group_name_H-M "P -1"
_symmetry_group_IT_number 2
_symmetry_cell_setting 'triclinic'
loop_
_space_group_symop_operation_xyz
x,y,z
-x,-y,-z
loop_
_atom_site_type_symbol
_atom_site_label
_atom_site_fract_x
_atom_site_fract_y
_atom_site_fract_z
Si Si1 0.342232 0.255652 0.031909
Si Si2 0.918948 0.570435 0.514279
Si Si3 0.673415 0.290139 0.542923
Si Si4 0.375877 0.655326 0.262189
Si Si5 0.475605 0.820574 0.770628
Si Si6 0.779181 0.486295 0.678637
Si Si7 0.679217 0.256045 0.074941
Si Si8 0.100053 0.303412 0.095828
O O1 0.517855 0.275599 0.156944
O O2 0.511177 0.269594 0.051516
O O3 0.270904 0.501753 0.968377
O O4 0.106807 0.982855 0.962916
O O5 0.835999 0.366363 0.549687
O O6 0.666773 0.646078 0.389956
O O7 0.000000 0.500000 0.500000
O O8 0.187239 0.772834 0.629694
O O9 0.820680 0.371750 0.653778
O O10 0.466540 0.428341 0.439054
O O11 0.500000 0.000000 0.500000
O O12 0.296952 0.699482 0.282723
O O13 0.181683 0.402364 0.179492
O O14 0.372044 0.882553 0.199308
O O15 0.633839 0.694401 0.817405
O O16 0.038624 0.715426 0.782908
O O17 0.500000 0.000000 0.000000
O O18 0.000000 0.500000 0.000000
#
# Coordination Sequence:
#
# PCOD9040776 Si02
#       8
#     2   2   2   2   2   2   2   2
#     4  11  26  42  66 101 136 181 237 280 345 423
#     4  11  24  45  67 105 136 180 234 286 355 414
#     4  10  24  45  70  98 136 177 231 288 348 412
#     4  11  24  43  72 101 141 185 227 294 354 423
#     4  12  25  43  69  99 141 179 232 293 351 420
#     4  10  23  43  68  99 131 180 233 279 349 418
#     4  11  25  44  68  97 139 185 230 289 344 413
#     4  12  25  43  67 103 139 182 231 286 355 419
#
# _framework density 21.628522
#
# number of rings (size 3 to 8) (size 9 to 14) (size 15 to 20)
#    0.000    1.000    2.500    3.000    5.250    5.000 
#    4.500    0.000    0.000    0.000    0.000    0.000 
#    0.000    0.000    0.000    0.000    0.000    0.000 
#
# Total GULP energy -89340.230467 kJ/mol
# GULP energy per Si atom -5583.764404 kJ/mol
# Density = 2.157929 g / cm^3
# Si number density = 21.628522 Si / 1000 Ang^3
#
#
#
# Elastic Constant Matrix: (Units=GPa)
#
#
# Indices 1 2 3 4 5 6 
#
# 1 139.7106 41.5847 39.3025 4.0432 -25.5506 2.3863
# 2 41.5847 82.6491 23.9276 9.8193 -16.3497 15.7250
# 3 39.3025 23.9276 115.6733 15.0803 -15.8647 -2.8529
# 4 4.0432 9.8193 15.0803 34.6684 -1.4162 -1.5636
# 5 -25.5506 -16.3497 -15.8647 -1.4162 41.4452 1.6786
# 6 2.3863 15.7250 -2.8529 -1.5636 1.6786 25.8196
#
#
#
# Elastic Compliance Matrix: (Units=1/GPa)
#
#
# Indices 1 2 3 4 5 6 
#
# 1 0.009464 -0.003787 -0.002058 0.001056 0.003547 0.001038
# 2 -0.003787 0.018010 -0.001539 -0.004318 0.004493 -0.011343
# 3 -0.002058 -0.001539 0.010457 -0.003707 0.001922 0.001934
# 4 0.001056 -0.004318 -0.003707 0.031680 -0.001557 0.004142
# 5 0.003547 0.004493 0.001922 -0.001557 0.028965 -0.004829
# 6 0.001038 -0.011343 0.001934 0.004142 -0.004829 0.046321
#
#
# Mechanical properties :
#
#
# Convention : Reuss Voigt Hill
#
# Bulk Modulus (GPa) = 43.17281 60.85138 52.01209
# Shear Modulus (GPa) = 29.87065 35.93451 32.90258
#
# Velocity S-wave (km/s) = 3.72032 4.08050 3.90456
# Velocity P-wave (km/s) = 6.20151 7.09905 6.66540
#
# Compressibility (1/GPa) = 0.02316273
#
# Stress axis : x y z
#
# Youngs Moduli (GPa) = 105.66086 55.52346 95.62758
#
# Poissons Ratio (x) = 0.21029 0.19678
# Poissons Ratio (y) = 0.40018 0.14720
# Poissons Ratio (z) = 0.21743 0.08547
#
# Static dielectric constant tensor:
#      x y z
#    x 1.817450 0.001740 -0.020000 
#    y 0.001740 1.784610 0.006800 
#    z -0.020000 0.006800 1.828250 
# 
# From -- ./inp_files/72218.got.cif
#   From: 2010.05.17/outbox.cif.g08.bks.cpg/sg2_37_cif.got.tgz:72218.got - 2010.06.03 11:33:40.
