data_PCOD9040849
_publ_section_title
;
Structure prediction by ZEFSAII (Michael W. Deem and Ramdas Pophale) SiO2 
 PCOD9040849
Probable space group: P -1
;
_chemical_formula_sum "Si O2"
_cell_formula_units_Z 15
_cell_length_a 26.880798
_cell_length_b 8.464965
_cell_length_c 24.263837
_cell_angle_alpha 144.408364
_cell_angle_beta 169.521747
_cell_angle_gamma 34.770082
_cell_volume 571.825655
_symmetry_space_group_name_H-M "P -1"
_symmetry_group_IT_number 2
_symmetry_cell_setting 'triclinic'
loop_
_space_group_symop_operation_xyz
x,y,z
-x,-y,-z
loop_
_atom_site_type_symbol
_atom_site_label
_atom_site_fract_x
_atom_site_fract_y
_atom_site_fract_z
Si Si1 0.120407 0.849868 0.775867
Si Si2 0.676704 0.990717 0.133575
Si Si3 0.875058 0.372656 0.166297
Si Si4 0.603614 0.105057 0.708838
Si Si5 0.639522 0.047745 0.450859
Si Si6 0.819240 0.232867 0.808593
Si Si7 0.828365 0.367484 0.645792
Si Si8 0.500000 0.500000 0.000000
O O1 0.046238 0.660848 0.692307
O O2 0.243343 0.681430 0.809372
O O3 0.888706 0.132094 0.597346
O O4 0.367120 0.978964 0.107760
O O5 0.717849 0.677938 0.067165
O O6 0.542650 0.243470 0.019696
O O7 0.000000 0.000000 0.500000
O O8 0.500000 0.000000 0.000000
O O9 0.684008 0.166375 0.876720
O O10 0.159909 0.258658 0.410795
O O11 0.442493 0.397138 0.593246
O O12 0.379836 0.910231 0.411504
O O13 0.886543 0.962359 0.946103
O O14 0.652609 0.248632 0.573487
O O15 0.782772 0.195590 0.601028
O O16 0.920793 0.476282 0.020985
#
# Coordination Sequence:
#
# PCOD9040849 Si02
#       8
#     2   2   2   2   2   2   2   1
#     4  11  24  47  70 106 150 191 262 318 383 469
#     4  12  28  51  82 113 157 201 262 333 399 467
#     4  10  23  47  70 103 149 202 245 318 393 453
#     4  11  25  43  71 105 149 196 249 302 381 455
#     4  10  23  43  69 102 145 195 250 305 380 453
#     4  11  24  45  70 103 149 200 246 306 376 456
#     4  11  26  40  69 108 146 195 251 316 370 458
#     4  12  28  50  82 120 152 210 268 326 402 480
#
# _framework density 26.231771999999999
#
# number of rings (size 3 to 8) (size 9 to 14) (size 15 to 20)
#    0.000    1.067    2.667    2.000    5.600    3.200 
#    2.400    0.000    0.000    0.000    0.000    0.000 
#    0.000    0.000    0.000    0.000    0.000    0.000 
#
# Total GULP energy -83699.135338 kJ/mol
# GULP energy per Si atom -5579.942356 kJ/mol
# Density = 2.617207 g / cm^3
# Si number density = 26.231772 Si / 1000 Ang^3
#
#
#
# Elastic Constant Matrix: (Units=GPa)
#
#
# Indices 1 2 3 4 5 6 
#
# 1 264.0411 116.3530 -8.4430 61.2035 98.9100 -7.1625
# 2 116.3530 200.2400 22.7098 13.0892 66.8257 -7.2785
# 3 -8.4430 22.7098 97.9287 -1.0161 13.6205 -10.7295
# 4 61.2035 13.0892 -1.0161 66.2493 32.7251 5.9698
# 5 98.9100 66.8257 13.6205 32.7251 82.8746 0.1202
# 6 -7.1625 -7.2785 -10.7295 5.9698 0.1202 49.9608
#
#
#
# Elastic Compliance Matrix: (Units=1/GPa)
#
#
# Indices 1 2 3 4 5 6 
#
# 1 0.008664 -0.002650 0.002497 -0.004172 -0.006970 0.001908
# 2 -0.002650 0.007879 -0.001443 0.002878 -0.004090 0.000124
# 3 0.002497 -0.001443 0.011551 -0.000309 -0.003597 0.002674
# 4 -0.004172 0.002878 -0.000309 0.021476 -0.005768 -0.002797
# 5 -0.006970 -0.004090 -0.003597 -0.005768 0.026555 -0.001742
# 6 0.001908 0.000124 0.002674 -0.002797 -0.001742 0.021220
#
#
# Mechanical properties :
#
#
# Convention : Reuss Voigt Hill
#
# Bulk Modulus (GPa) = 40.15681 91.49438 65.82559
# Shear Modulus (GPa) = 45.93971 68.58962 57.26466
#
# Velocity S-wave (km/s) = 4.18939 5.11901 4.67736
# Velocity P-wave (km/s) = 6.22439 8.36026 7.37011
#
# Compressibility (1/GPa) = 0.02490238
#
# Stress axis : x y z
#
# Youngs Moduli (GPa) = 115.41373 126.92534 86.56934
#
# Poissons Ratio (x) = 0.33630 -0.21613
# Poissons Ratio (y) = 0.30580 0.12493
# Poissons Ratio (z) = -0.28815 0.18317
#
# Static dielectric constant tensor:
#      x y z
#    x 2.064410 0.008470 -0.007420 
#    y 0.008470 2.073450 -0.019620 
#    z -0.007420 -0.019620 2.380240 
# 
# From -- ./inp_files/621474.got.cif
#   From: 2010.05.17/outbox.cif.g08.bks.cpg/sg2_311_cif.got.tgz:621474.got - 2010.06.03 11:33:40.
