data_PCOD9040889
_publ_section_title
;
Structure prediction by ZEFSAII (Michael W. Deem and Ramdas Pophale) SiO2 
 PCOD9040889
Probable space group: P -1
;
_chemical_formula_sum "Si O2"
_cell_formula_units_Z 14
_cell_length_a 25.343138
_cell_length_b 15.064444
_cell_length_c 16.266989
_cell_angle_alpha 152.544301
_cell_angle_beta 163.855091
_cell_angle_gamma 21.049068
_cell_volume 617.672356
_symmetry_space_group_name_H-M "P -1"
_symmetry_group_IT_number 2
_symmetry_cell_setting 'triclinic'
loop_
_space_group_symop_operation_xyz
x,y,z
-x,-y,-z
loop_
_atom_site_type_symbol
_atom_site_label
_atom_site_fract_x
_atom_site_fract_y
_atom_site_fract_z
Si Si1 0.743789 0.125865 0.263521
Si Si2 0.502347 0.927702 0.701065
Si Si3 0.469866 0.567932 0.106358
Si Si4 0.990257 0.230316 0.147679
Si Si5 0.213725 0.307052 0.226208
Si Si6 0.439432 0.566380 0.597718
Si Si7 0.026887 0.119614 0.926104
O O1 0.532864 0.337041 0.061166
O O2 0.714935 0.265560 0.416881
O O3 0.690009 0.936429 0.040529
O O4 0.000000 0.000000 0.500000
O O5 0.221087 0.169795 0.490994
O O6 0.581421 0.899098 0.700197
O O7 0.533001 0.682242 0.564775
O O8 0.663627 0.600330 0.460530
O O9 0.500000 0.500000 0.000000
O O10 0.203173 0.823693 0.936841
O O11 0.711368 0.476829 0.940679
O O12 0.053366 0.193177 0.115498
O O13 0.000000 0.000000 0.000000
O O14 0.116252 0.211376 0.065307
O O15 0.000000 0.500000 0.000000
O O16 0.261920 0.739411 0.400263
#
# Coordination Sequence:
#
# PCOD9040889 Si02
#       7
#     2   2   2   2   2   2   2
#     4  12  25  42  69 103 137 179 225 283 353 412
#     4  11  22  43  70  99 135 182 226 279 348 413
#     4  12  24  38  61 105 143 170 222 289 348 416
#     4  10  23  43  69  93 131 188 235 273 337 407
#     4  12  22  41  68  99 137 179 223 280 358 411
#     4  11  23  45  67  97 137 181 230 283 335 412
#     4  12  23  41  71  96 136 176 229 285 349 408
#
# _framework density 22.665738999999999
#
# number of rings (size 3 to 8) (size 9 to 14) (size 15 to 20)
#    0.000    0.571    4.286    5.143    2.000    0.571 
#    0.000    0.000    0.000    5.143    0.000    0.000 
#    0.000    0.000    0.000    0.000    0.000    0.000 
#
# Total GULP energy -78258.190488 kJ/mol
# GULP energy per Si atom -5589.870749 kJ/mol
# Density = 2.261415 g / cm^3
# Si number density = 22.665739 Si / 1000 Ang^3
#
#
#
# Elastic Constant Matrix: (Units=GPa)
#
#
# Indices 1 2 3 4 5 6 
#
# 1 45.1361 8.7955 -3.8743 -8.3520 -3.5979 9.3473
# 2 8.7955 90.8731 55.1342 -14.8413 7.3229 -16.9303
# 3 -3.8743 55.1342 143.8286 -20.8268 7.2614 -8.5613
# 4 -8.3520 -14.8413 -20.8268 46.2006 -9.7602 6.1258
# 5 -3.5979 7.3229 7.2614 -9.7602 36.9886 -3.5006
# 6 9.3473 -16.9303 -8.5613 6.1258 -3.5006 23.3072
#
#
#
# Elastic Compliance Matrix: (Units=1/GPa)
#
#
# Indices 1 2 3 4 5 6 
#
# 1 0.029072 -0.007121 0.003401 0.007591 0.003966 -0.016982
# 2 -0.007121 0.018113 -0.006307 -0.000508 -0.001893 0.013546
# 3 0.003401 -0.006307 0.009759 0.003475 0.000275 -0.003233
# 4 0.007591 -0.000508 0.003475 0.026878 0.006470 -0.008229
# 5 0.003966 -0.001893 0.000275 0.006470 0.029436 -0.000144
# 6 -0.016982 0.013546 -0.003233 -0.008229 -0.000144 0.060510
#
#
# Mechanical properties :
#
#
# Convention : Reuss Voigt Hill
#
# Bulk Modulus (GPa) = 27.10728 44.43873 35.77301
# Shear Modulus (GPa) = 24.25784 35.95144 30.10464
#
# Velocity S-wave (km/s) = 3.27501 3.98698 3.64840
# Velocity P-wave (km/s) = 5.12703 6.39088 5.79352
#
# Compressibility (1/GPa) = 0.03689046
#
# Stress axis : x y z
#
# Youngs Moduli (GPa) = 34.39691 55.20775 102.47139
#
# Poissons Ratio (x) = 0.39314 -0.34850
# Poissons Ratio (y) = 0.24494 0.64628
# Poissons Ratio (z) = -0.11698 0.34819
#
# Static dielectric constant tensor:
#      x y z
#    x 1.884790 -0.023170 -0.059320 
#    y -0.023170 1.884780 0.017500 
#    z -0.059320 0.017500 2.005730 
# 
# From -- ./inp_files/272429.got.cif
#   From: 2010.05.17/outbox.cif.g08.bks.cpg/sg2_137_cif.got.tgz:272429.got - 2010.06.03 11:33:40.
