data_PCOD9040871
_publ_section_title
;
Structure prediction by ZEFSAII (Michael W. Deem and Ramdas Pophale) SiO2 
 PCOD9040871
Probable space group: P -1
;
_chemical_formula_sum "Si O2"
_cell_formula_units_Z 16
_cell_length_a 17.084188
_cell_length_b 19.183765
_cell_length_c 11.024358
_cell_angle_alpha 35.265812
_cell_angle_beta 152.221980
_cell_angle_gamma 156.610494
_cell_volume 668.275554
_symmetry_space_group_name_H-M "P -1"
_symmetry_group_IT_number 2
_symmetry_cell_setting 'triclinic'
loop_
_space_group_symop_operation_xyz
x,y,z
-x,-y,-z
loop_
_atom_site_type_symbol
_atom_site_label
_atom_site_fract_x
_atom_site_fract_y
_atom_site_fract_z
Si Si1 0.288042 0.134408 0.730216
Si Si2 0.770568 0.618752 0.244401
Si Si3 0.597017 0.050398 0.701298
Si Si4 0.630465 0.195621 0.933356
Si Si5 0.175018 0.991270 0.191584
Si Si6 0.359182 0.291827 0.846037
Si Si7 0.023121 0.497344 0.218473
Si Si8 0.095446 0.444162 0.797605
O O1 0.432683 0.190774 0.720533
O O2 0.328008 0.263065 0.700067
O O3 0.000000 0.000000 0.500000
O O4 0.380329 0.059871 0.032778
O O5 0.789026 0.688902 0.304692
O O6 0.805572 0.496346 0.475705
O O7 0.979511 0.781188 0.213029
O O8 0.500000 0.500000 0.000000
O O9 0.872041 0.238649 0.801675
O O10 0.500000 0.000000 0.500000
O O11 0.405056 0.049386 0.493110
O O12 0.795155 0.327279 0.860126
O O13 0.843166 0.314901 0.157589
O O14 0.500000 0.000000 0.000000
O O15 0.281808 0.121803 0.039381
O O16 0.000000 0.000000 0.000000
O O17 0.643123 0.464274 0.016383
O O18 0.858389 0.483277 0.106057
O O19 0.000000 0.500000 0.500000
#
# Coordination Sequence:
#
# PCOD9040871 Si02
#       8
#     2   2   2   2   2   2   2   2
#     4  12  27  48  72 107 148 200 256 312 375 456
#     4  11  26  42  70 105 151 190 235 308 381 446
#     4  12  25  44  76 109 145 199 247 314 390 448
#     4  11  26  52  77 102 143 199 258 311 370 452
#     4  10  23  43  69 104 148 187 244 302 374 444
#     4  11  24  45  67 106 148 194 245 312 375 451
#     4  11  26  47  75 107 141 197 253 302 379 453
#     4  12  23  43  74 108 149 186 247 317 381 454
#
# _framework density 23.942219000000001
#
# number of rings (size 3 to 8) (size 9 to 14) (size 15 to 20)
#    0.000    0.750    3.750    2.250    7.000    2.000 
#    0.000    1.250    0.000    0.000    0.000    0.000 
#    0.000    0.000    0.000    0.000    0.000    0.000 
#
# Total GULP energy -89279.826303 kJ/mol
# GULP energy per Si atom -5579.989144 kJ/mol
# Density = 2.388773 g / cm^3
# Si number density = 23.942219 Si / 1000 Ang^3
#
#
#
# Elastic Constant Matrix: (Units=GPa)
#
#
# Indices 1 2 3 4 5 6 
#
# 1 138.3783 32.0558 25.3255 10.8731 17.2399 4.8066
# 2 32.0558 137.1256 15.4879 28.2915 -4.5384 14.5412
# 3 25.3255 15.4879 93.5103 26.5947 18.6079 8.0475
# 4 10.8731 28.2915 26.5947 40.4705 0.7722 0.5478
# 5 17.2399 -4.5384 18.6079 0.7722 37.2078 14.1904
# 6 4.8066 14.5412 8.0475 0.5478 14.1904 39.4244
#
#
#
# Elastic Compliance Matrix: (Units=1/GPa)
#
#
# Indices 1 2 3 4 5 6 
#
# 1 0.008403 -0.002142 -0.001274 0.000135 -0.004091 0.001497
# 2 -0.002142 0.009719 0.000462 -0.006532 0.003885 -0.004725
# 3 -0.001274 0.000462 0.015075 -0.009755 -0.006447 -0.000636
# 4 0.000135 -0.006532 -0.009755 0.035568 0.002084 0.003140
# 5 -0.004091 0.003885 -0.006447 0.002084 0.037430 -0.013120
# 6 0.001497 -0.004725 -0.000636 0.003140 -0.013120 0.031734
#
#
# Mechanical properties :
#
#
# Convention : Reuss Voigt Hill
#
# Bulk Modulus (GPa) = 36.64732 57.19473 46.92102
# Shear Modulus (GPa) = 32.69408 43.16356 37.92882
#
# Velocity S-wave (km/s) = 3.69933 4.25057 3.98450
# Velocity P-wave (km/s) = 5.79539 6.93039 6.38815
#
# Compressibility (1/GPa) = 0.02728713
#
# Stress axis : x y z
#
# Youngs Moduli (GPa) = 119.00280 102.89574 66.33652
#
# Poissons Ratio (x) = 0.22045 0.08452
# Poissons Ratio (y) = 0.25496 -0.03064
# Poissons Ratio (z) = 0.15162 -0.04753
#
# Static dielectric constant tensor:
#      x y z
#    x 1.979490 -0.074750 -0.074570 
#    y -0.074750 1.932060 -0.051300 
#    z -0.074570 -0.051300 1.873450 
# 
# From -- ./inp_files/467100.got.cif
#   From: 2010.05.17/outbox.cif.g08.bks.cpg/sg2_234_cif.got.tgz:467100.got - 2010.06.03 11:33:40.
