data_PCOD9040335
_publ_section_title
;
Structure prediction by ZEFSAII (Michael W. Deem and Ramdas Pophale) SiO2 
 PCOD9040335
Probable space group: P -1
;
_chemical_formula_sum "Si O2"
_cell_formula_units_Z 12
_cell_length_a 12.808416
_cell_length_b 12.639834
_cell_length_c 10.849250
_cell_angle_alpha 45.736574
_cell_angle_beta 49.086828
_cell_angle_gamma 22.692347
_cell_volume 484.878308
_symmetry_space_group_name_H-M "P -1"
_symmetry_group_IT_number 2
_symmetry_cell_setting 'triclinic'
loop_
_space_group_symop_operation_xyz
x,y,z
-x,-y,-z
loop_
_atom_site_type_symbol
_atom_site_label
_atom_site_fract_x
_atom_site_fract_y
_atom_site_fract_z
Si Si1 0.087299 0.531052 0.090650
Si Si2 0.435880 0.888745 0.604252
Si Si3 0.701951 0.626724 0.360453
Si Si4 0.076173 0.754570 0.146440
Si Si5 0.601208 0.098553 0.891590
Si Si6 0.229549 0.756527 0.421615
O O1 0.940336 0.526574 0.268582
O O2 0.065065 0.687754 0.074760
O O3 0.392489 0.237538 0.044587
O O4 0.884311 0.752350 0.953791
O O5 0.479016 0.846941 0.458900
O O6 0.639075 0.573653 0.755841
O O7 0.500000 0.000000 0.500000
O O8 0.148944 0.112919 0.700747
O O9 0.554872 0.768886 0.225068
O O10 0.824029 0.351595 0.505857
O O11 0.000000 0.000000 0.000000
O O12 0.698982 0.175682 0.778416
O O13 0.500000 0.500000 0.500000
O O14 0.000000 0.000000 0.500000
#
# Coordination Sequence:
#
# PCOD9040335 Si02
#       6
#     2   2   2   2   2   2
#     4  12  26  45  73 103 150 187 243 299 366 442
#     4  12  27  51  78 108 147 198 253 312 363 442
#     4  11  26  45  76 105 148 188 249 301 371 436
#     4  12  29  50  77 108 149 199 253 305 375 437
#     4  11  25  45  70 107 142 191 233 301 371 433
#     4  10  23  43  65  99 139 181 236 289 355 430
#
# _framework density 24.748480000000001
#
# number of rings (size 3 to 8) (size 9 to 14) (size 15 to 20)
#    0.000    0.667    1.667    5.000    4.667    6.667 
#    0.000    0.000    0.000    0.000    0.000    0.000 
#    0.000    0.000    0.000    0.000    0.000    0.000 
#
# Total GULP energy -67180.791853 kJ/mol
# GULP energy per Si atom -5598.399321 kJ/mol
# Density = 2.469215 g / cm^3
# Si number density = 24.748480 Si / 1000 Ang^3
#
#
#
# Elastic Constant Matrix: (Units=GPa)
#
#
# Indices 1 2 3 4 5 6 
#
# 1 108.9055 18.5808 32.6872 -0.7533 -11.1485 28.2835
# 2 18.5808 136.9711 7.6936 12.2922 6.7036 -1.2008
# 3 32.6872 7.6936 85.3171 3.5349 -14.8944 3.0543
# 4 -0.7533 12.2922 3.5349 51.8718 10.3229 0.4335
# 5 -11.1485 6.7036 -14.8944 10.3229 55.6048 -4.4067
# 6 28.2835 -1.2008 3.0543 0.4335 -4.4067 44.0373
#
#
#
# Elastic Compliance Matrix: (Units=1/GPa)
#
#
# Indices 1 2 3 4 5 6 
#
# 1 0.012962 -0.001693 -0.004413 0.000789 0.000841 -0.007989
# 2 -0.001693 0.007747 -0.000184 -0.001676 -0.000913 0.001236
# 3 -0.004413 -0.000184 0.014007 -0.001665 0.003374 0.002212
# 4 0.000789 -0.001676 -0.001665 0.020604 -0.003993 -0.001040
# 5 0.000841 -0.000913 0.003374 -0.003993 0.020006 0.001242
# 6 -0.007989 0.001236 0.002212 -0.001040 0.001242 0.027854
#
#
# Mechanical properties :
#
#
# Convention : Reuss Voigt Hill
#
# Bulk Modulus (GPa) = 45.17643 49.90189 47.53916
# Shear Modulus (GPa) = 40.60466 48.45157 44.52812
#
# Velocity S-wave (km/s) = 4.05494 4.42946 4.24633
# Velocity P-wave (km/s) = 6.34171 6.80937 6.57969
#
# Compressibility (1/GPa) = 0.02213544
#
# Stress axis : x y z
#
# Youngs Moduli (GPa) = 77.14904 129.08648 71.39164
#
# Poissons Ratio (x) = 0.21848 0.31507
# Poissons Ratio (y) = 0.13057 0.01317
# Poissons Ratio (z) = 0.34048 0.02381
#
# Static dielectric constant tensor:
#      x y z
#    x 1.994030 0.014720 0.011720 
#    y 0.014720 1.903410 -0.081060 
#    z 0.011720 -0.081060 2.075830 
# 
# From -- ./inp_files/322844.got.cif
#   From: 2010.05.17/outbox.cif.g08.bks.cpg/sg2_162_cif.got.tgz:322844.got - 2010.06.03 11:33:40.
