data_PCOD9040146
_publ_section_title
;
Structure prediction by ZEFSAII (Michael W. Deem and Ramdas Pophale) SiO2 
 PCOD9040146
Probable space group: P -1
;
_chemical_formula_sum "Si O2"
_cell_formula_units_Z 15
_cell_length_a 12.903228
_cell_length_b 17.020488
_cell_length_c 5.931042
_cell_angle_alpha 134.131168
_cell_angle_beta 60.724812
_cell_angle_gamma 139.300279
_cell_volume 607.546447
_symmetry_space_group_name_H-M "P -1"
_symmetry_group_IT_number 2
_symmetry_cell_setting 'triclinic'
loop_
_space_group_symop_operation_xyz
x,y,z
-x,-y,-z
loop_
_atom_site_type_symbol
_atom_site_label
_atom_site_fract_x
_atom_site_fract_y
_atom_site_fract_z
Si Si1 0.868514 0.799139 0.815974
Si Si2 0.635959 0.776861 0.773544
Si Si3 0.000000 0.000000 0.500000
Si Si4 0.658799 0.170095 0.176642
Si Si5 0.400202 0.646436 0.131686
Si Si6 0.167768 0.590093 0.882258
Si Si7 0.680629 0.504198 0.684541
Si Si8 0.837583 0.098497 0.088430
O O1 0.738135 0.639106 0.744797
O O2 0.800473 0.808787 0.674077
O O3 0.033702 0.831592 0.706043
O O4 0.901533 0.913765 0.194050
O O5 0.567531 0.731701 0.007003
O O6 0.495734 0.642523 0.501888
O O7 0.683379 0.929458 0.972010
O O8 0.922390 0.077365 0.763110
O O9 0.602602 0.251492 0.498324
O O10 0.749992 0.255018 0.015802
O O11 0.782123 0.182287 0.232805
O O12 0.500000 0.000000 0.000000
O O13 0.341249 0.502912 0.038705
O O14 0.283848 0.610542 0.985681
O O15 0.179670 0.501317 0.505589
O O16 0.000000 0.500000 0.000000
#
# Coordination Sequence:
#
# PCOD9040146 Si02
#       8
#     2   2   1   2   2   2   2   2
#     4  10  23  43  65  97 130 178 219 275 326 395
#     4  11  23  44  66  98 133 173 225 272 328 402
#     4   8  24  40  64  94 128 176 214 270 336 372
#     4  11  24  42  67  97 135 175 221 270 337 400
#     4  10  24  42  67  96 133 171 210 279 329 392
#     4  10  24  41  65  99 132 171 222 274 327 403
#     4  10  23  43  67  96 135 171 221 272 338 394
#     4  10  23  43  63  97 134 171 222 276 322 395
#
# _framework density 24.689468999999999
#
# number of rings (size 3 to 8) (size 9 to 14) (size 15 to 20)
#    0.800    1.067    0.000    3.200    7.467    3.733 
#    7.200    0.000    0.000    0.000    0.000    0.000 
#    0.000    0.000    0.000    0.000    0.000    0.000 
#
# Total GULP energy -83523.857827 kJ/mol
# GULP energy per Si atom -5568.257188 kJ/mol
# Density = 2.463327 g / cm^3
# Si number density = 24.689469 Si / 1000 Ang^3
#
#
#
# Elastic Constant Matrix: (Units=GPa)
#
#
# Indices 1 2 3 4 5 6 
#
# 1 137.9753 37.6565 3.6601 12.2167 6.1895 -4.1477
# 2 37.6565 133.9141 3.0159 12.5163 4.2547 -1.4210
# 3 3.6601 3.0159 21.3962 1.2102 -8.6049 5.0218
# 4 12.2167 12.5163 1.2102 25.7637 4.6442 -3.2838
# 5 6.1895 4.2547 -8.6049 4.6442 37.4215 -2.5676
# 6 -4.1477 -1.4210 5.0218 -3.2838 -2.5676 46.2204
#
#
#
# Elastic Compliance Matrix: (Units=1/GPa)
#
#
# Indices 1 2 3 4 5 6 
#
# 1 0.008120 -0.001969 -0.001558 -0.002543 -0.001121 0.000594
# 2 -0.001969 0.008334 -0.000831 -0.003005 -0.000445 -0.000068
# 3 -0.001558 -0.000831 0.053881 -0.004431 0.012906 -0.005617
# 4 -0.002543 -0.003005 -0.004431 0.043033 -0.005397 0.002918
# 5 -0.001121 -0.000445 0.012906 -0.005397 0.030582 -0.000201
# 6 0.000594 -0.000068 -0.005617 0.002918 -0.000201 0.022493
#
#
# Mechanical properties :
#
#
# Convention : Reuss Voigt Hill
#
# Bulk Modulus (GPa) = 16.22870 42.43894 29.33382
# Shear Modulus (GPa) = 25.54970 38.47798 32.01384
#
# Velocity S-wave (km/s) = 3.22039 3.95204 3.60482
# Velocity P-wave (km/s) = 4.51832 6.16857 5.40678
#
# Compressibility (1/GPa) = 0.06161922
#
# Stress axis : x y z
#
# Youngs Moduli (GPa) = 123.15927 119.99055 18.55958
#
# Poissons Ratio (x) = 0.23621 0.02892
# Poissons Ratio (y) = 0.24244 0.01542
# Poissons Ratio (z) = 0.19189 0.09969
#
# Static dielectric constant tensor:
#      x y z
#    x 2.057810 0.077110 0.009860 
#    y 0.077110 2.085960 -0.023520 
#    z 0.009860 -0.023520 2.010980 
# 
# From -- ./inp_files/76688.got.cif
#   From: 2010.05.17/outbox.cif.g08.bks.cpg/sg2_39_cif.got.tgz:76688.got - 2010.06.03 11:33:40.
