data_PCOD9040342
_publ_section_title
;
Structure prediction by ZEFSAII (Michael W. Deem and Ramdas Pophale) SiO2 
 PCOD9040342
Probable space group: P -1
;
_chemical_formula_sum "Si O2"
_cell_formula_units_Z 16
_cell_length_a 19.774280
_cell_length_b 7.682409
_cell_length_c 6.227150
_cell_angle_alpha 120.596469
_cell_angle_beta 115.326721
_cell_angle_gamma 97.514993
_cell_volume 658.044350
_symmetry_space_group_name_H-M "P -1"
_symmetry_group_IT_number 2
_symmetry_cell_setting 'triclinic'
loop_
_space_group_symop_operation_xyz
x,y,z
-x,-y,-z
loop_
_atom_site_type_symbol
_atom_site_label
_atom_site_fract_x
_atom_site_fract_y
_atom_site_fract_z
Si Si1 0.519351 0.343918 0.197475
Si Si2 0.182583 0.985008 0.387095
Si Si3 0.003902 0.601886 0.814797
Si Si4 0.359775 0.333333 0.735403
Si Si5 0.322769 0.710666 0.166045
Si Si6 0.434794 0.018390 0.203596
Si Si7 0.168457 0.414672 0.550825
Si Si8 0.269636 0.743384 0.572844
O O1 0.598625 0.573157 0.380387
O O2 0.537725 0.156851 0.980620
O O3 0.434193 0.323602 0.965806
O O4 0.498845 0.264858 0.366257
O O5 0.273082 0.105888 0.465877
O O6 0.166587 0.203626 0.546895
O O7 0.202506 0.838454 0.498888
O O8 0.095174 0.812235 0.060984
O O9 0.000000 0.500000 0.500000
O O10 0.922072 0.641665 0.699792
O O11 0.000000 0.500000 0.000000
O O12 0.340117 0.516636 0.954302
O O13 0.314534 0.710931 0.405621
O O14 0.404252 0.940092 0.353047
O O15 0.225804 0.638017 0.911365
O O16 0.342475 0.937494 0.927748
O O17 0.226014 0.498235 0.469143
#
# Coordination Sequence:
#
# PCOD9040342 Si02
#       8
#     2   2   2   2   2   2   2   2
#     4   9  16  33  59  84 124 173 222 286 341 413
#     4  11  22  43  69  98 133 183 229 282 356 423
#     4  12  26  49  78 111 148 187 235 294 358 427
#     4   9  18  35  61  88 125 174 226 282 350 410
#     4   9  20  37  60  91 129 170 225 282 341 417
#     4   9  18  33  59  85 121 176 219 279 351 402
#     4  10  23  43  66 100 136 178 228 281 345 422
#     4  11  20  40  63  92 136 173 228 283 347 412
#
# _framework density 24.314471999999999
#
# number of rings (size 3 to 8) (size 9 to 14) (size 15 to 20)
#    0.000    2.000    2.500    1.875    0.000    0.000 
#    6.750    7.500    0.000    0.000    0.000    0.000 
#    0.000    0.000    0.000    0.000    0.000    0.000 
#
# Total GULP energy -89093.924324 kJ/mol
# GULP energy per Si atom -5568.370270 kJ/mol
# Density = 2.425913 g / cm^3
# Si number density = 24.314472 Si / 1000 Ang^3
#
#
#
# Elastic Constant Matrix: (Units=GPa)
#
#
# Indices 1 2 3 4 5 6 
#
# 1 88.6281 26.5751 38.2217 -3.5052 20.1932 5.5994
# 2 26.5751 89.3963 33.6461 7.7283 5.0060 10.5667
# 3 38.2217 33.6461 116.2792 11.2415 21.0255 12.6467
# 4 -3.5052 7.7283 11.2415 39.6376 12.2302 13.5113
# 5 20.1932 5.0060 21.0255 12.2302 51.9845 -8.5772
# 6 5.5994 10.5667 12.6467 13.5113 -8.5772 53.2860
#
#
#
# Elastic Compliance Matrix: (Units=1/GPa)
#
#
# Indices 1 2 3 4 5 6 
#
# 1 0.015461 -0.003187 -0.003315 0.005726 -0.006142 -0.002646
# 2 -0.003187 0.013395 -0.002782 -0.002267 0.001466 -0.000850
# 3 -0.003315 -0.002782 0.011391 -0.001378 -0.003048 -0.001945
# 4 0.005726 -0.002267 -0.001378 0.033376 -0.010959 -0.010052
# 5 -0.006142 0.001466 -0.003048 -0.010959 0.026636 0.008144
# 6 -0.002646 -0.000850 -0.001945 -0.010052 0.008144 0.023535
#
#
# Mechanical properties :
#
#
# Convention : Reuss Voigt Hill
#
# Bulk Modulus (GPa) = 46.12753 54.57660 50.35207
# Shear Modulus (GPa) = 33.42527 42.03900 37.73214
#
# Velocity S-wave (km/s) = 3.71173 4.16260 3.94361
# Velocity P-wave (km/s) = 6.11405 6.75262 6.44125
#
# Compressibility (1/GPa) = 0.02167903
#
# Stress axis : x y z
#
# Youngs Moduli (GPa) = 64.67687 74.65547 87.79212
#
# Poissons Ratio (x) = 0.23791 0.29106
# Poissons Ratio (y) = 0.20611 0.24423
# Poissons Ratio (z) = 0.21443 0.20768
#
# Static dielectric constant tensor:
#      x y z
#    x 2.002410 -0.051440 -0.004360 
#    y -0.051440 2.128410 -0.091850 
#    z -0.004360 -0.091850 1.949180 
# 
# From -- ./inp_files/117256.got.cif
#   From: 2010.05.17/outbox.cif.g08.bks.cpg/sg2_59_cif.got.tgz:117256.got - 2010.06.03 11:33:40.
