data_PCOD9040640
_publ_section_title
;
Structure prediction by ZEFSAII (Michael W. Deem and Ramdas Pophale) SiO2 
 PCOD9040640
Probable space group: P -1
;
_chemical_formula_sum "Si O2"
_cell_formula_units_Z 16
_cell_length_a 5.449307
_cell_length_b 4.945467
_cell_length_c 22.322213
_cell_angle_alpha 104.409243
_cell_angle_beta 93.553321
_cell_angle_gamma 91.964665
_cell_volume 580.756603
_symmetry_space_group_name_H-M "P -1"
_symmetry_group_IT_number 2
_symmetry_cell_setting 'triclinic'
loop_
_space_group_symop_operation_xyz
x,y,z
-x,-y,-z
loop_
_atom_site_type_symbol
_atom_site_label
_atom_site_fract_x
_atom_site_fract_y
_atom_site_fract_z
Si Si1 0.945076 0.661323 0.102224
Si Si2 0.666201 0.645279 0.458970
Si Si3 0.258924 0.013414 0.413057
Si Si4 0.299458 0.277647 0.011560
Si Si5 0.553797 0.217782 0.127836
Si Si6 0.609662 0.730115 0.691014
Si Si7 0.905404 0.545674 0.341860
Si Si8 0.620346 0.208530 0.807644
O O1 0.773241 0.428889 0.120627
O O2 0.120089 0.468128 0.055983
O O3 0.837242 0.843383 0.056065
O O4 0.115334 0.833919 0.160510
O O5 0.500000 0.500000 0.500000
O O6 0.476611 0.808982 0.423095
O O7 0.853450 0.493106 0.409653
O O8 0.812992 0.854840 0.518244
O O9 0.027333 0.858955 0.366852
O O10 0.382284 0.220614 0.377437
O O11 0.413996 0.110306 0.058779
O O12 0.500000 0.500000 0.000000
O O13 0.569217 0.957396 0.158360
O O14 0.404767 0.458011 0.174442
O O15 0.877258 0.605708 0.697514
O O16 0.596601 0.032685 0.737635
O O17 0.361603 0.545455 0.694212
#
# Coordination Sequence:
#
# PCOD9040640 Si02
#       8
#     2   2   2   2   2   2   2   2
#     4   9  19  40  69 102 139 187 232 297 368 424
#     4  11  23  47  74 110 145 179 235 298 369 445
#     4  11  25  45  76 105 143 189 230 300 372 433
#     4   8  16  37  67 102 141 178 231 297 362 438
#     4  10  23  43  68 101 140 181 244 294 368 426
#     4  12  30  47  72 102 145 189 249 296 361 436
#     4  12  26  49  70 107 140 186 238 298 361 438
#     4  11  27  45  68 101 137 192 243 299 352 435
#
# _framework density 27.550267999999999
#
# number of rings (size 3 to 8) (size 9 to 14) (size 15 to 20)
#    0.000    1.500    2.500    0.375    5.250    5.500 
#    0.000   21.250    0.000    0.000    0.000    0.000 
#    0.000    0.000    0.000    0.000    0.000    0.000 
#
# Total GULP energy -89446.276135 kJ/mol
# GULP energy per Si atom -5590.392258 kJ/mol
# Density = 2.748756 g / cm^3
# Si number density = 27.550268 Si / 1000 Ang^3
#
#
#
# Elastic Constant Matrix: (Units=GPa)
#
#
# Indices 1 2 3 4 5 6 
#
# 1 116.3113 25.8038 9.1222 -4.5895 -0.4637 25.9222
# 2 25.8038 110.7007 2.7996 8.7582 -3.2479 13.1219
# 3 9.1222 2.7996 99.1016 16.2559 6.5048 14.0316
# 4 -4.5895 8.7582 16.2559 40.0965 8.7039 6.0463
# 5 -0.4637 -3.2479 6.5048 8.7039 38.4913 -4.0531
# 6 25.9222 13.1219 14.0316 6.0463 -4.0531 44.3789
#
#
#
# Elastic Compliance Matrix: (Units=1/GPa)
#
#
# Indices 1 2 3 4 5 6 
#
# 1 0.010515 -0.002012 -0.000483 0.003006 -0.001264 -0.005919
# 2 -0.002012 0.009902 0.000461 -0.002619 0.001175 -0.001434
# 3 -0.000483 0.000461 0.011287 -0.004001 -0.001285 -0.002995
# 4 0.003006 -0.002619 -0.004001 0.029579 -0.006656 -0.004354
# 5 -0.001264 0.001175 -0.001285 -0.006656 0.028237 0.004283
# 6 -0.005919 -0.001434 -0.002995 -0.004354 0.004283 0.028346
#
#
# Mechanical properties :
#
#
# Convention : Reuss Voigt Hill
#
# Bulk Modulus (GPa) = 36.18481 44.61830 40.40156
# Shear Modulus (GPa) = 38.12537 43.81921 40.97229
#
# Velocity S-wave (km/s) = 3.72405 3.99246 3.86058
# Velocity P-wave (km/s) = 5.62619 6.12236 5.87951
#
# Compressibility (1/GPa) = 0.02763590
#
# Stress axis : x y z
#
# Youngs Moduli (GPa) = 95.10572 100.98594 88.59879
#
# Poissons Ratio (x) = 0.20318 0.04279
# Poissons Ratio (y) = 0.19135 -0.04085
# Poissons Ratio (z) = 0.04594 -0.04656
#
# Static dielectric constant tensor:
#      x y z
#    x 2.387550 -0.067510 0.009320 
#    y -0.067510 2.207320 0.069630 
#    z 0.009320 0.069630 2.156520 
# 
# From -- ./inp_files/603370.got.cif
#   From: 2010.05.17/outbox.cif.g08.bks.cpg/sg2_302_cif.got.tgz:603370.got - 2010.06.03 11:33:40.
