data_PCOD9040257
_publ_section_title
;
Structure prediction by ZEFSAII (Michael W. Deem and Ramdas Pophale) SiO2 
 PCOD9040257
Probable space group: P -1
;
_chemical_formula_sum "Si O2"
_cell_formula_units_Z 12
_cell_length_a 8.471989
_cell_length_b 8.815452
_cell_length_c 9.661825
_cell_angle_alpha 68.725357
_cell_angle_beta 129.645021
_cell_angle_gamma 111.601247
_cell_volume 508.291039
_symmetry_space_group_name_H-M "P -1"
_symmetry_group_IT_number 2
_symmetry_cell_setting 'triclinic'
loop_
_space_group_symop_operation_xyz
x,y,z
-x,-y,-z
loop_
_atom_site_type_symbol
_atom_site_label
_atom_site_fract_x
_atom_site_fract_y
_atom_site_fract_z
Si Si1 0.816328 0.489514 0.079303
Si Si2 0.555914 0.196964 0.454346
Si Si3 0.833890 0.980116 0.224434
Si Si4 0.467689 0.828871 0.873059
Si Si5 0.835792 0.689864 0.739273
Si Si6 0.978794 0.667601 0.357530
O O1 0.810518 0.612151 0.162275
O O2 0.632027 0.330276 0.036929
O O3 0.029934 0.415925 0.241389
O O4 0.826640 0.593217 0.911703
O O5 0.528250 0.228510 0.263916
O O6 0.796481 0.256765 0.605925
O O7 0.500000 0.000000 0.500000
O O8 0.399191 0.285266 0.425942
O O9 0.912668 0.812583 0.363143
O O10 0.023031 0.126039 0.238718
O O11 0.678636 0.931055 0.023305
O O12 0.300236 0.951090 0.755506
O O13 0.000000 0.500000 0.500000
#
# Coordination Sequence:
#
# PCOD9040257 Si02
#       6
#     2   2   2   2   2   2
#     4  10  23  43  65  90 122 161 207 254 299 358
#     4  12  25  40  62  93 126 163 201 250 309 364
#     4  10  23  43  66  89 120 165 208 248 300 364
#     4  10  23  43  66  89 120 165 208 248 300 364
#     4  10  23  43  65  90 122 161 207 254 299 358
#     4  12  25  40  62  93 126 163 201 250 309 364
#
# _framework density 23.608522000000001
#
# number of rings (size 3 to 8) (size 9 to 14) (size 15 to 20)
#    0.000    1.333    3.333    1.000    4.667    5.333 
#    0.000    0.000    0.000    0.000    0.000    0.000 
#    0.000    0.000    0.000    0.000    0.000    0.000 
#
# Total GULP energy -67114.865444 kJ/mol
# GULP energy per Si atom -5592.905454 kJ/mol
# Density = 2.355479 g / cm^3
# Si number density = 23.608522 Si / 1000 Ang^3
#
#
#
# Elastic Constant Matrix: (Units=GPa)
#
#
# Indices 1 2 3 4 5 6 
#
# 1 121.8189 29.4028 -10.1215 -9.3918 33.0063 -17.8713
# 2 29.4028 121.0481 4.8683 -21.5480 6.3423 -7.2284
# 3 -10.1215 4.8683 33.7475 -9.5489 -4.2380 -0.0637
# 4 -9.3918 -21.5480 -9.5489 45.9415 -1.3780 3.6723
# 5 33.0063 6.3423 -4.2380 -1.3780 39.3011 -5.1315
# 6 -17.8713 -7.2284 -0.0637 3.6723 -5.1315 34.4599
#
#
#
# Elastic Compliance Matrix: (Units=1/GPa)
#
#
# Indices 1 2 3 4 5 6 
#
# 1 0.012157 -0.002077 0.003283 0.001577 -0.008893 0.004383
# 2 -0.002077 0.009496 -0.000872 0.003813 0.000324 0.000555
# 3 0.003283 -0.000872 0.032907 0.007059 0.001313 0.001024
# 4 0.001577 0.003813 0.007059 0.025423 -0.000436 -0.001144
# 5 -0.008893 0.000324 0.001313 -0.000436 0.033043 0.000425
# 6 0.004383 0.000555 0.001024 -0.001144 0.000425 0.031596
#
#
# Mechanical properties :
#
#
# Convention : Reuss Voigt Hill
#
# Bulk Modulus (GPa) = 18.10659 36.10153 27.10406
# Shear Modulus (GPa) = 30.79548 40.77149 35.78348
#
# Velocity S-wave (km/s) = 3.61560 4.16021 3.89743
# Velocity P-wave (km/s) = 5.01161 6.19688 5.63549
#
# Compressibility (1/GPa) = 0.05522850
#
# Stress axis : x y z
#
# Youngs Moduli (GPa) = 82.25686 105.31106 30.38909
#
# Poissons Ratio (x) = 0.21870 -0.09977
# Poissons Ratio (y) = 0.17082 0.02650
# Poissons Ratio (z) = -0.27007 0.09182
#
# Static dielectric constant tensor:
#      x y z
#    x 1.932050 -0.029640 0.049970 
#    y -0.029640 1.833860 -0.011350 
#    z 0.049970 -0.011350 1.917800 
# 
# From -- ./inp_files/378412.got.cif
#   From: 2010.05.17/outbox.cif.g08.bks.cpg/sg2_190_cif.got.tgz:378412.got - 2010.06.03 11:33:40.
