data_PCOD9040203
_publ_section_title
;
Structure prediction by ZEFSAII (Michael W. Deem and Ramdas Pophale) SiO2 
 PCOD9040203
Probable space group: P -1
;
_chemical_formula_sum "Si O2"
_cell_formula_units_Z 16
_cell_length_a 5.101620
_cell_length_b 26.393913
_cell_length_c 6.488255
_cell_angle_alpha 133.752837
_cell_angle_beta 74.604710
_cell_angle_gamma 101.781134
_cell_volume 608.156490
_symmetry_space_group_name_H-M "P -1"
_symmetry_group_IT_number 2
_symmetry_cell_setting 'triclinic'
loop_
_space_group_symop_operation_xyz
x,y,z
-x,-y,-z
loop_
_atom_site_type_symbol
_atom_site_label
_atom_site_fract_x
_atom_site_fract_y
_atom_site_fract_z
Si Si1 0.790004 0.805780 0.512702
Si Si2 0.106092 0.008490 0.248878
Si Si3 0.537361 0.615720 0.818495
Si Si4 0.080729 0.702194 0.945719
Si Si5 0.957702 0.764879 0.761135
Si Si6 0.554810 0.855144 0.340530
Si Si7 0.408790 0.889549 0.042354
Si Si8 0.302008 0.507444 0.871253
O O1 0.525717 0.811813 0.439662
O O2 0.851751 0.748064 0.510371
O O3 0.720004 0.870324 0.862733
O O4 0.038242 0.784822 0.250852
O O5 0.225135 0.087243 0.457625
O O6 0.329058 0.949395 0.067625
O O7 0.000000 0.000000 0.500000
O O8 0.000000 0.000000 0.000000
O O9 0.334478 0.665339 0.880640
O O10 0.376592 0.579199 0.937147
O O11 0.637908 0.554353 0.475997
O O12 0.805752 0.660260 0.945221
O O13 0.075537 0.704256 0.704755
O O14 0.192174 0.825579 0.880879
O O15 0.690546 0.795022 0.009233
O O16 0.403652 0.901154 0.326119
O O17 0.500000 0.500000 0.000000
O O18 0.000000 0.500000 0.000000
#
# Coordination Sequence:
#
# PCOD9040203 Si02
#       8
#     2   2   2   2   2   2   2   2
#     4  10  25  41  66  98 134 191 241 304 381 459
#     4  12  26  44  71 100 138 186 249 323 401 484
#     4  11  26  47  71 115 150 196 252 312 367 451
#     4  11  26  44  71 103 155 191 250 308 376 446
#     4  10  23  43  64  96 137 186 241 305 374 455
#     4  10  23  43  65  95 132 178 244 303 396 450
#     4  11  24  42  70  94 137 183 245 313 383 468
#     4  11  24  47  78 108 153 199 247 307 375 438
#
# _framework density 26.309018999999999
#
# number of rings (size 3 to 8) (size 9 to 14) (size 15 to 20)
#    0.000    1.250    1.250    2.625   10.500    6.500 
#    0.000    0.000    0.000    0.000    0.000    0.000 
#    0.000    0.000    0.000    0.000    0.000    0.000 
#
# Total GULP energy -89068.759285 kJ/mol
# GULP energy per Si atom -5566.797455 kJ/mol
# Density = 2.624914 g / cm^3
# Si number density = 26.309019 Si / 1000 Ang^3
#
#
#
# Elastic Constant Matrix: (Units=GPa)
#
#
# Indices 1 2 3 4 5 6 
#
# 1 122.8767 52.9789 34.7256 -7.4844 10.2891 -12.6980
# 2 52.9789 164.0702 46.1166 -23.0379 13.8087 -19.3590
# 3 34.7256 46.1166 105.1455 -32.4587 13.8045 -13.3936
# 4 -7.4844 -23.0379 -32.4587 53.2201 -8.0225 7.3774
# 5 10.2891 13.8087 13.8045 -8.0225 53.8601 -7.7671
# 6 -12.6980 -19.3590 -13.3936 7.3774 -7.7671 48.3283
#
#
#
# Elastic Compliance Matrix: (Units=1/GPa)
#
#
# Indices 1 2 3 4 5 6 
#
# 1 0.010003 -0.002576 -0.002386 -0.001413 -0.000700 0.001038
# 2 -0.002576 0.007914 -0.001830 0.001631 -0.000588 0.001642
# 3 -0.002386 -0.001830 0.013508 0.006747 -0.001369 0.001134
# 4 -0.001413 0.001631 0.006747 0.023809 0.001490 -0.001243
# 5 -0.000700 -0.000588 -0.001369 0.001490 0.019733 0.002145
# 6 0.001038 0.001642 0.001134 -0.001243 0.002145 0.022471
#
#
# Mechanical properties :
#
#
# Convention : Reuss Voigt Hill
#
# Bulk Modulus (GPa) = 56.05262 73.30383 64.67822
# Shear Modulus (GPa) = 42.74603 48.29980 45.52291
#
# Velocity S-wave (km/s) = 4.03521 4.28935 4.16422
# Velocity P-wave (km/s) = 6.56219 7.24254 6.91074
#
# Compressibility (1/GPa) = 0.01784038
#
# Stress axis : x y z
#
# Youngs Moduli (GPa) = 99.96873 126.36516 74.02863
#
# Poissons Ratio (x) = 0.32558 0.17661
# Poissons Ratio (y) = 0.25757 0.13548
# Poissons Ratio (z) = 0.23849 0.23127
#
# Static dielectric constant tensor:
#      x y z
#    x 2.205110 0.000990 -0.041820 
#    y 0.000990 2.196310 -0.044800 
#    z -0.041820 -0.044800 2.226090 
# 
# From -- ./inp_files/13668.got.cif
#   From: 2010.05.17/outbox.cif.g08.bks.cpg/sg2_7_cif.got.tgz:13668.got - 2010.06.03 11:33:40.
