data_PCOD9040292
_publ_section_title
;
Structure prediction by ZEFSAII (Michael W. Deem and Ramdas Pophale) SiO2 
 PCOD9040292
Probable space group: P -1
;
_chemical_formula_sum "Si O2"
_cell_formula_units_Z 16
_cell_length_a 14.440183
_cell_length_b 8.507809
_cell_length_c 18.867995
_cell_angle_alpha 135.962626
_cell_angle_beta 139.935819
_cell_angle_gamma 31.935558
_cell_volume 772.635616
_symmetry_space_group_name_H-M "P -1"
_symmetry_group_IT_number 2
_symmetry_cell_setting 'triclinic'
loop_
_space_group_symop_operation_xyz
x,y,z
-x,-y,-z
loop_
_atom_site_type_symbol
_atom_site_label
_atom_site_fract_x
_atom_site_fract_y
_atom_site_fract_z
Si Si1 0.785769 0.621020 0.416785
Si Si2 0.670963 0.648746 0.969690
Si Si3 0.073213 0.378972 0.083209
Si Si4 0.498294 0.669231 0.486819
Si Si5 0.778378 0.647434 0.262003
Si Si6 0.693882 0.330786 0.013182
Si Si7 0.598204 0.647422 0.762000
Si Si8 0.880324 0.351256 0.530306
O O1 0.742795 0.586234 0.300525
O O2 0.790942 0.445998 0.429222
O O3 0.000000 0.500000 0.500000
O O4 0.641591 0.976032 0.465562
O O5 0.650258 0.599743 0.859893
O O6 0.655094 0.459048 0.953112
O O7 0.878492 0.554000 0.070776
O O8 0.500000 0.000000 0.000000
O O9 0.227982 0.413743 0.199473
O O10 0.000000 0.500000 0.000000
O O11 0.186481 0.023964 0.034423
O O12 0.500000 0.500000 0.500000
O O13 0.430122 0.576571 0.353677
O O14 0.707903 0.540955 0.546874
O O15 0.799325 0.423475 0.146323
O O16 0.969791 0.599742 0.359894
O O17 0.595680 0.000010 0.250005
O O18 0.500000 0.500000 0.000000
O O19 0.000000 0.000000 0.500000
#
# Coordination Sequence:
#
# PCOD9040292 Si02
#       8
#     2   2   2   2   2   2   2   2
#     4  10  23  43  65  95 131 169 218 268 318 385
#     4  11  23  42  65  94 132 170 215 269 320 383
#     4  10  23  43  65  95 131 169 218 268 318 385
#     4  12  23  42  69  95 132 172 215 269 323 383
#     4  11  22  44  67  96 133 171 217 267 327 385
#     4  12  23  42  69  95 132 172 215 269 323 383
#     4  11  22  44  67  96 133 171 217 267 327 385
#     4  11  23  42  65  94 132 170 215 269 320 383
#
# _framework density 20.708338999999999
#
# number of rings (size 3 to 8) (size 9 to 14) (size 15 to 20)
#    0.000    1.000    5.000    2.250    0.000    6.000 
#    0.000    0.000    0.000    0.000    0.000    0.000 
#    0.000    0.000    0.000    0.000    0.000    0.000 
#
# Total GULP energy -89442.629385 kJ/mol
# GULP energy per Si atom -5590.164337 kJ/mol
# Density = 2.066121 g / cm^3
# Si number density = 20.708339 Si / 1000 Ang^3
#
#
#
# Elastic Constant Matrix: (Units=GPa)
#
#
# Indices 1 2 3 4 5 6 
#
# 1 151.2369 60.7539 22.1261 -16.5236 0.2816 2.2391
# 2 60.7539 136.0504 5.2927 0.7092 2.9519 -1.1562
# 3 22.1261 5.2927 80.6022 -5.9566 0.2251 -1.4495
# 4 -16.5236 0.7092 -5.9566 27.1216 -1.1779 2.0285
# 5 0.2816 2.9519 0.2251 -1.1779 35.5747 -16.0995
# 6 2.2391 -1.1562 -1.4495 2.0285 -16.0995 54.2642
#
#
#
# Elastic Compliance Matrix: (Units=1/GPa)
#
#
# Indices 1 2 3 4 5 6 
#
# 1 0.009086 -0.004022 -0.001852 0.005290 0.000148 -0.000664
# 2 -0.004022 0.009165 0.000311 -0.002672 -0.000701 0.000262
# 3 -0.001852 0.000311 0.013027 0.001701 0.000149 0.000412
# 4 0.005290 -0.002672 0.001701 0.040686 0.000836 -0.001503
# 5 0.000148 -0.000701 0.000149 0.000836 0.032541 0.009606
# 6 -0.000664 0.000262 0.000412 -0.001503 0.009606 0.021379
#
#
# Mechanical properties :
#
#
# Convention : Reuss Voigt Hill
#
# Bulk Modulus (GPa) = 49.61613 60.47051 55.04332
# Shear Modulus (GPa) = 34.78828 42.03989 38.41408
#
# Velocity S-wave (km/s) = 4.10312 4.51055 4.31165
# Velocity P-wave (km/s) = 6.81609 7.50940 7.17113
#
# Compressibility (1/GPa) = 0.02015473
#
# Stress axis : x y z
#
# Youngs Moduli (GPa) = 110.05659 109.10536 76.76313
#
# Poissons Ratio (x) = 0.43881 0.14213
# Poissons Ratio (y) = 0.44264 -0.02391
# Poissons Ratio (z) = 0.20378 -0.03398
#
# Static dielectric constant tensor:
#      x y z
#    x 1.820540 0.002640 -0.007900 
#    y 0.002640 1.749760 -0.127850 
#    z -0.007900 -0.127850 1.894020 
# 
# From -- ./inp_files/217639.got.cif
#   From: 2010.05.17/outbox.cif.g08.bks.cpg/sg2_109_cif.got.tgz:217639.got - 2010.06.03 11:33:40.
