data_PCOD9040564
_publ_section_title
;
Structure prediction by ZEFSAII (Michael W. Deem and Ramdas Pophale) SiO2 
 PCOD9040564
Probable space group: P -1
;
_chemical_formula_sum "Si O2"
_cell_formula_units_Z 16
_cell_length_a 8.718365
_cell_length_b 21.401727
_cell_length_c 11.467676
_cell_angle_alpha 142.029506
_cell_angle_beta 144.813653
_cell_angle_gamma 36.703881
_cell_volume 679.693241
_symmetry_space_group_name_H-M "P -1"
_symmetry_group_IT_number 2
_symmetry_cell_setting 'triclinic'
loop_
_space_group_symop_operation_xyz
x,y,z
-x,-y,-z
loop_
_atom_site_type_symbol
_atom_site_label
_atom_site_fract_x
_atom_site_fract_y
_atom_site_fract_z
Si Si1 0.564372 0.246972 0.166155
Si Si2 0.659650 0.443479 0.154470
Si Si3 0.967426 0.519626 0.871157
Si Si4 0.989595 0.085914 0.337481
Si Si5 0.073794 0.651666 0.571542
Si Si6 0.699232 0.080177 0.366159
Si Si7 0.468795 0.684315 0.292343
Si Si8 0.568298 0.015512 0.754180
O O1 0.247658 0.354137 0.118558
O O2 0.762250 0.270505 0.228111
O O3 0.773138 0.217673 0.367142
O O4 0.539996 0.132438 0.960873
O O5 0.819793 0.402303 0.315080
O O6 0.656209 0.561711 0.289199
O O7 0.752109 0.339416 0.966434
O O8 0.307141 0.481994 0.994498
O O9 0.837745 0.442815 0.613043
O O10 0.000000 0.500000 0.000000
O O11 0.274462 0.052374 0.546774
O O12 0.773389 0.050862 0.231743
O O13 0.154406 0.035090 0.239984
O O14 0.719707 0.709643 0.421427
O O15 0.666233 0.207968 0.549621
O O16 0.454405 0.059734 0.261157
O O17 0.000000 0.000000 0.500000
#
# Coordination Sequence:
#
# PCOD9040564 Si02
#       8
#     2   2   2   2   2   2   2   2
#     4  12  25  39  71  98 136 186 229 291 350 423
#     4  10  23  43  68  98 135 184 229 291 356 424
#     4  11  25  41  64 101 139 177 233 292 356 418
#     4  10  24  44  70 100 139 184 234 289 348 420
#     4  11  24  41  67 100 135 182 235 287 357 424
#     4  10  23  44  70 102 140 184 233 290 350 416
#     4  10  23  43  67  96 139 180 232 289 354 419
#     4  10  24  46  69 101 140 185 236 287 358 412
#
# _framework density 23.540032
#
# number of rings (size 3 to 8) (size 9 to 14) (size 15 to 20)
#    0.000    1.500    1.250    1.875    7.000    3.500 
#    0.000    0.000    0.000    0.000    0.000    0.000 
#    0.000    0.000    0.000    0.000    0.000    0.000 
#
# Total GULP energy -89098.890731 kJ/mol
# GULP energy per Si atom -5568.680671 kJ/mol
# Density = 2.348645 g / cm^3
# Si number density = 23.540032 Si / 1000 Ang^3
#
#
#
# Elastic Constant Matrix: (Units=GPa)
#
#
# Indices 1 2 3 4 5 6 
#
# 1 142.2308 30.9547 39.7287 9.2721 -6.1747 14.5479
# 2 30.9547 76.2291 43.2178 3.6640 -18.3312 7.3286
# 3 39.7287 43.2178 107.2483 15.2737 -15.0678 12.4590
# 4 9.2721 3.6640 15.2737 45.1025 9.5503 -0.7427
# 5 -6.1747 -18.3312 -15.0678 9.5503 34.0899 -6.2371
# 6 14.5479 7.3286 12.4590 -0.7427 -6.2371 39.1422
#
#
#
# Elastic Compliance Matrix: (Units=1/GPa)
#
#
# Indices 1 2 3 4 5 6 
#
# 1 0.008289 -0.002203 -0.001922 -0.000758 -0.000720 -0.002186
# 2 -0.002203 0.019104 -0.005737 -0.000761 0.007600 0.000264
# 3 -0.001922 -0.005737 0.013742 -0.004576 0.003537 -0.002109
# 4 -0.000758 -0.000761 -0.004576 0.026007 -0.009704 0.000828
# 5 -0.000720 0.007600 0.003537 -0.009704 0.038236 0.003628
# 6 -0.002186 0.000264 -0.002109 0.000828 0.003628 0.027576
#
#
# Mechanical properties :
#
#
# Convention : Reuss Voigt Hill
#
# Bulk Modulus (GPa) = 46.70606 61.50116 54.10361
# Shear Modulus (GPa) = 31.28639 37.78740 34.53690
#
# Velocity S-wave (km/s) = 3.64960 4.01089 3.83450
# Velocity P-wave (km/s) = 6.13544 6.90164 6.52979
#
# Compressibility (1/GPa) = 0.02141050
#
# Stress axis : x y z
#
# Youngs Moduli (GPa) = 120.64428 52.34477 72.77175
#
# Poissons Ratio (x) = 0.11530 0.13989
# Poissons Ratio (y) = 0.26575 0.41749
# Poissons Ratio (z) = 0.23191 0.30030
#
# Static dielectric constant tensor:
#      x y z
#    x 2.078370 0.008910 -0.025300 
#    y 0.008910 1.920450 0.046420 
#    z -0.025300 0.046420 1.912760 
# 
# From -- ./inp_files/404979.got.cif
#   From: 2010.05.17/outbox.cif.g08.bks.cpg/sg2_203_cif.got.tgz:404979.got - 2010.06.03 11:33:40.
