data_PCOD9040018
_publ_section_title
;
Structure prediction by ZEFSAII (Michael W. Deem and Ramdas Pophale) SiO2 
 PCOD9040018
Probable space group: P -1
;
_chemical_formula_sum "Si O2"
_cell_formula_units_Z 13
_cell_length_a 7.759610
_cell_length_b 12.527435
_cell_length_c 22.467294
_cell_angle_alpha 23.654064
_cell_angle_beta 147.447695
_cell_angle_gamma 146.421595
_cell_volume 452.240510
_symmetry_space_group_name_H-M "P -1"
_symmetry_group_IT_number 2
_symmetry_cell_setting 'triclinic'
loop_
_space_group_symop_operation_xyz
x,y,z
-x,-y,-z
loop_
_atom_site_type_symbol
_atom_site_label
_atom_site_fract_x
_atom_site_fract_y
_atom_site_fract_z
Si Si1 0.771004 0.037226 0.638948
Si Si2 0.500000 0.500000 0.500000
Si Si3 0.144674 0.819741 0.227111
Si Si4 0.762352 0.700720 0.604332
Si Si5 0.512987 0.413882 0.912810
Si Si6 0.846056 0.171747 0.237978
Si Si7 0.167202 0.903643 0.915500
O O1 0.559797 0.739013 0.759474
O O2 0.869037 0.934545 0.656806
O O3 0.111959 0.094897 0.747523
O O4 0.559732 0.244607 0.485817
O O5 0.120744 0.530769 0.400097
O O6 0.668468 0.518363 0.611368
O O7 0.854774 0.765694 0.121856
O O8 0.559225 0.879150 0.318235
O O9 0.103301 0.065338 0.131374
O O10 0.989062 0.634814 0.757817
O O11 0.000000 0.000000 0.500000
O O12 0.622542 0.301888 0.063124
O O13 0.766788 0.357764 0.965023
O O14 0.500000 0.000000 0.000000
#
# Coordination Sequence:
#
# PCOD9040018 Si02
#       7
#     2   1   2   2   2   2   2
#     4  11  22  45  70 106 143 187 234 296 361 429
#     4  12  24  44  72 100 138 194 242 278 370 410
#     4  11  22  42  69 103 144 187 243 292 346 431
#     4  12  24  46  74 100 147 191 242 299 352 429
#     4  10  23  42  74 104 143 189 235 290 367 422
#     4  11  23  43  71 108 145 183 239 298 359 424
#     4   9  18  37  64  97 134 184 226 287 346 411
#
# _framework density 28.745766
#
# number of rings (size 3 to 8) (size 9 to 14) (size 15 to 20)
#    0.000    1.231    3.077    3.692    0.000    0.000 
#    0.000   25.385    0.000    0.000    0.000    0.000 
#    0.000    0.000    0.000    0.000    0.000    0.000 
#
# Total GULP energy -72502.373789 kJ/mol
# GULP energy per Si atom -5577.105676 kJ/mol
# Density = 2.868034 g / cm^3
# Si number density = 28.745766 Si / 1000 Ang^3
#
#
#
# Elastic Constant Matrix: (Units=GPa)
#
#
# Indices 1 2 3 4 5 6 
#
# 1 104.1370 39.4769 37.1987 12.3279 27.2602 -9.1808
# 2 39.4769 200.1566 68.3411 44.8639 -6.1080 -50.3181
# 3 37.1987 68.3411 131.1157 15.0536 28.7926 -11.9659
# 4 12.3279 44.8639 15.0536 60.3636 -1.8974 -20.0390
# 5 27.2602 -6.1080 28.7926 -1.8974 52.0110 2.0111
# 6 -9.1808 -50.3181 -11.9659 -20.0390 2.0111 42.6262
#
#
#
# Elastic Compliance Matrix: (Units=1/GPa)
#
#
# Indices 1 2 3 4 5 6 
#
# 1 0.012515 -0.002207 -0.000927 -0.000996 -0.006329 -0.000340
# 2 -0.002207 0.009755 -0.004312 -0.002836 0.004265 0.008295
# 3 -0.000927 -0.004312 0.011365 -0.000279 -0.006247 -0.001936
# 4 -0.000996 -0.002836 -0.000279 0.021035 0.000871 0.006207
# 5 -0.006329 0.004265 -0.006247 0.000871 0.026493 0.001078
# 6 -0.000340 0.008295 -0.001936 0.006207 0.001078 0.035501
#
#
# Mechanical properties :
#
#
# Convention : Reuss Voigt Hill
#
# Bulk Modulus (GPa) = 53.35725 80.60474 66.98100
# Shear Modulus (GPa) = 36.28308 50.35966 43.32137
#
# Velocity S-wave (km/s) = 3.55661 4.19011 3.88629
# Velocity P-wave (km/s) = 5.95550 7.17710 6.59465
#
# Compressibility (1/GPa) = 0.01874160
#
# Stress axis : x y z
#
# Youngs Moduli (GPa) = 79.90268 102.51206 87.99083
#
# Poissons Ratio (x) = 0.22625 0.08158
# Poissons Ratio (y) = 0.17635 0.37945
# Poissons Ratio (z) = 0.07409 0.44208
#
# Static dielectric constant tensor:
#      x y z
#    x 2.426490 0.057930 -0.054360 
#    y 0.057930 2.315230 -0.034330 
#    z -0.054360 -0.034330 2.272080 
# 
# From -- ./inp_files/607232.got.cif
#   From: 2010.05.17/outbox.cif.g08.bks.cpg/sg2_304_cif.got.tgz:607232.got - 2010.06.03 11:33:40.
