data_PCOD9040436
_publ_section_title
;
Structure prediction by ZEFSAII (Michael W. Deem and Ramdas Pophale) SiO2 
 PCOD9040436
Probable space group: P -1
;
_chemical_formula_sum "Si O2"
_cell_formula_units_Z 16
_cell_length_a 24.432338
_cell_length_b 4.967230
_cell_length_c 5.416401
_cell_angle_alpha 95.459382
_cell_angle_beta 72.739817
_cell_angle_gamma 85.627529
_cell_volume 621.105972
_symmetry_space_group_name_H-M "P -1"
_symmetry_group_IT_number 2
_symmetry_cell_setting 'triclinic'
loop_
_space_group_symop_operation_xyz
x,y,z
-x,-y,-z
loop_
_atom_site_type_symbol
_atom_site_label
_atom_site_fract_x
_atom_site_fract_y
_atom_site_fract_z
Si Si1 0.986405 0.774220 0.802212
Si Si2 0.181671 0.807278 0.932828
Si Si3 0.588939 0.088738 0.285976
Si Si4 0.364520 0.352287 0.168359
Si Si5 0.877717 0.665619 0.166373
Si Si6 0.523966 0.766027 0.750665
Si Si7 0.313850 0.587189 0.733570
Si Si8 0.906113 0.122448 0.549450
O O1 0.049206 0.677334 0.600340
O O2 0.946889 0.949033 0.675038
O O3 0.941745 0.583810 0.958864
O O4 0.000000 0.000000 0.000000
O O5 0.152788 0.603408 0.766149
O O6 0.249038 0.724211 0.841798
O O7 0.164123 0.127301 0.933911
O O8 0.149234 0.740845 0.222054
O O9 0.535613 0.306207 0.296859
O O10 0.641231 0.198747 0.364522
O O11 0.559774 0.887300 0.490554
O O12 0.616957 0.948434 0.989644
O O13 0.427651 0.429287 0.184984
O O14 0.323620 0.386229 0.466334
O O15 0.334477 0.484752 0.971795
O O16 0.887451 0.885017 0.380493
O O17 0.500000 0.000000 0.000000
#
# Coordination Sequence:
#
# PCOD9040436 Si02
#       8
#     2   2   2   2   2   2   2   2
#     4   8  16  37  67 102 135 176 224 291 353 428
#     4  11  27  44  66 100 134 189 238 294 342 426
#     4  10  23  46  69 103 142 179 225 300 359 432
#     4  11  25  46  67 103 136 180 234 290 354 431
#     4  10  23  43  66  99 138 176 240 287 359 417
#     4   9  20  43  72 102 142 173 225 296 364 430
#     4  12  29  43  71  99 136 192 241 286 361 423
#     4   9  19  40  69  98 139 181 227 289 361 413
#
# _framework density 25.760497000000001
#
# number of rings (size 3 to 8) (size 9 to 14) (size 15 to 20)
#    0.000    2.000    1.250    0.000    7.000    4.500 
#    0.000   21.250    0.000    0.000    0.000    0.000 
#    0.000    0.000    0.000    0.000    0.000    0.000 
#
# Total GULP energy -89393.848434 kJ/mol
# GULP energy per Si atom -5587.115527 kJ/mol
# Density = 2.570186 g / cm^3
# Si number density = 25.760497 Si / 1000 Ang^3
#
#
#
# Elastic Constant Matrix: (Units=GPa)
#
#
# Indices 1 2 3 4 5 6 
#
# 1 152.2879 29.4114 57.4920 26.6095 -29.1715 -5.2241
# 2 29.4114 95.5683 32.3398 9.4532 -4.6904 -6.2399
# 3 57.4920 32.3398 155.1584 11.2103 -15.8064 -20.7624
# 4 26.6095 9.4532 11.2103 36.2172 -14.3890 0.8563
# 5 -29.1715 -4.6904 -15.8064 -14.3890 42.8855 8.0522
# 6 -5.2241 -6.2399 -20.7624 0.8563 8.0522 29.2866
#
#
#
# Elastic Compliance Matrix: (Units=1/GPa)
#
#
# Indices 1 2 3 4 5 6 
#
# 1 0.009272 -0.001473 -0.002629 -0.003929 0.004150 -0.001550
# 2 -0.001473 0.011718 -0.001689 -0.001998 -0.001285 0.001448
# 3 -0.002629 -0.001689 0.008498 -0.000354 0.000066 0.005188
# 4 -0.003929 -0.001998 -0.000354 0.035107 0.009710 -0.005074
# 5 0.004150 -0.001285 0.000066 0.009710 0.030831 -0.008248
# 6 -0.001550 0.001448 0.005188 -0.005074 -0.008248 0.040271
#
#
# Mechanical properties :
#
#
# Convention : Reuss Voigt Hill
#
# Bulk Modulus (GPa) = 55.85190 71.27789 63.56489
# Shear Modulus (GPa) = 32.62701 40.59594 36.61148
#
# Velocity S-wave (km/s) = 3.56273 3.97407 3.77400
# Velocity P-wave (km/s) = 6.21710 6.98478 6.61209
#
# Compressibility (1/GPa) = 0.01790449
#
# Stress axis : x y z
#
# Youngs Moduli (GPa) = 107.85486 85.34050 117.67532
#
# Poissons Ratio (x) = 0.12567 0.30942
# Poissons Ratio (y) = 0.15882 0.19881
# Poissons Ratio (z) = 0.28360 0.14418
#
# Static dielectric constant tensor:
#      x y z
#    x 1.998500 0.012150 0.081890 
#    y 0.012150 2.128890 -0.035370 
#    z 0.081890 -0.035370 2.189170 
# 
# From -- ./inp_files/120993.got.cif
#   From: 2010.05.17/outbox.cif.g08.bks.cpg/sg2_61_cif.got.tgz:120993.got - 2010.06.03 11:33:40.
