data_PCOD9040279
_publ_section_title
;
Structure prediction by ZEFSAII (Michael W. Deem and Ramdas Pophale) SiO2 
 PCOD9040279
Probable space group: P -1
;
_chemical_formula_sum "Si O2"
_cell_formula_units_Z 12
_cell_length_a 16.183077
_cell_length_b 8.911626
_cell_length_c 9.766208
_cell_angle_alpha 148.631511
_cell_angle_beta 59.377684
_cell_angle_gamma 107.462844
_cell_volume 601.653866
_symmetry_space_group_name_H-M "P -1"
_symmetry_group_IT_number 2
_symmetry_cell_setting 'triclinic'
loop_
_space_group_symop_operation_xyz
x,y,z
-x,-y,-z
loop_
_atom_site_type_symbol
_atom_site_label
_atom_site_fract_x
_atom_site_fract_y
_atom_site_fract_z
Si Si1 0.229954 0.379523 0.636842
Si Si2 0.478293 0.353103 0.765215
Si Si3 0.078288 0.822226 0.607282
Si Si4 0.250997 0.689518 0.139113
Si Si5 0.950699 0.457995 0.299180
Si Si6 0.556395 0.639203 0.672656
O O1 0.135315 0.462534 0.679830
O O2 0.327778 0.423786 0.515040
O O3 0.255504 0.026437 0.373373
O O4 0.212024 0.567886 0.939826
O O5 0.543894 0.465077 0.684968
O O6 0.500000 0.000000 0.500000
O O7 0.500000 0.500000 0.000000
O O8 0.362892 0.480493 0.913523
O O9 0.177695 0.709781 0.345316
O O10 0.087273 0.659388 0.620139
O O11 0.991997 0.730635 0.523537
O O12 0.041773 0.178881 0.947070
O O13 0.500000 0.500000 0.500000
O O14 0.500000 0.000000 0.000000
#
# Coordination Sequence:
#
# PCOD9040279 Si02
#       6
#     2   2   2   2   2   2
#     4  12  24  42  68  98 127 174 217 260 327 388
#     4  12  26  44  66  99 131 173 219 269 327 385
#     4  10  23  44  64  93 133 165 210 272 316 386
#     4  12  25  43  66  98 132 166 219 270 321 381
#     4  10  23  43  65  94 127 171 214 257 330 385
#     4  12  23  46  67  93 137 173 211 271 325 389
#
# _framework density 19.945022000000002
#
# number of rings (size 3 to 8) (size 9 to 14) (size 15 to 20)
#    0.000    0.667    3.333    4.000    2.333    4.000 
#    6.000    0.000    0.000    0.000    0.000    0.000 
#    0.000    0.000    0.000    0.000    0.000    0.000 
#
# Total GULP energy -67125.760605 kJ/mol
# GULP energy per Si atom -5593.813384 kJ/mol
# Density = 1.989963 g / cm^3
# Si number density = 19.945022 Si / 1000 Ang^3
#
#
#
# Elastic Constant Matrix: (Units=GPa)
#
#
# Indices 1 2 3 4 5 6 
#
# 1 59.8365 9.1118 6.0761 -6.8532 15.1070 -1.7661
# 2 9.1118 99.6598 54.1128 0.8169 2.3722 4.3327
# 3 6.0761 54.1128 110.9245 -0.3872 21.9917 1.6799
# 4 -6.8532 0.8169 -0.3872 39.6995 5.3324 4.3529
# 5 15.1070 2.3722 21.9917 5.3324 47.4820 -6.2041
# 6 -1.7661 4.3327 1.6799 4.3529 -6.2041 19.8627
#
#
#
# Elastic Compliance Matrix: (Units=1/GPa)
#
#
# Indices 1 2 3 4 5 6 
#
# 1 0.019283 -0.002472 0.001660 0.004528 -0.007446 -0.001205
# 2 -0.002472 0.014338 -0.007538 -0.001116 0.003508 -0.001370
# 3 0.001660 -0.007538 0.014049 0.001754 -0.007117 -0.002004
# 4 0.004528 -0.001116 0.001754 0.027682 -0.006291 -0.007534
# 5 -0.007446 0.003508 -0.007117 -0.006291 0.028493 0.009453
# 6 -0.001205 -0.001370 -0.002004 -0.007534 0.009453 0.055310
#
#
# Mechanical properties :
#
#
# Convention : Reuss Voigt Hill
#
# Bulk Modulus (GPa) = 32.28842 45.44690 38.86766
# Shear Modulus (GPa) = 26.85595 34.81683 30.83639
#
# Velocity S-wave (km/s) = 3.67345 4.18262 3.93627
# Velocity P-wave (km/s) = 5.84946 6.79421 6.33946
#
# Compressibility (1/GPa) = 0.03097085
#
# Stress axis : x y z
#
# Youngs Moduli (GPa) = 51.85875 69.74371 71.17942
#
# Poissons Ratio (x) = 0.17240 -0.11816
# Poissons Ratio (y) = 0.12819 0.53654
# Poissons Ratio (z) = -0.08608 0.52572
#
# Static dielectric constant tensor:
#      x y z
#    x 1.654700 0.020810 -0.003990 
#    y 0.020810 1.640620 -0.004320 
#    z -0.003990 -0.004320 1.683620 
# 
# From -- ./inp_files/36031.got.cif
#   From: 2010.05.17/outbox.cif.g08.bks.cpg/sg2_19_cif.got.tgz:36031.got - 2010.06.03 11:33:40.
