data_PCOD9040652
_publ_section_title
;
Structure prediction by ZEFSAII (Michael W. Deem and Ramdas Pophale) SiO2 
 PCOD9040652
Probable space group: P -1
;
_chemical_formula_sum "Si O2"
_cell_formula_units_Z 14
_cell_length_a 9.239223
_cell_length_b 15.381310
_cell_length_c 8.004419
_cell_angle_alpha 59.119437
_cell_angle_beta 85.866990
_cell_angle_gamma 40.014803
_cell_volume 510.581882
_symmetry_space_group_name_H-M "P -1"
_symmetry_group_IT_number 2
_symmetry_cell_setting 'triclinic'
loop_
_space_group_symop_operation_xyz
x,y,z
-x,-y,-z
loop_
_atom_site_type_symbol
_atom_site_label
_atom_site_fract_x
_atom_site_fract_y
_atom_site_fract_z
Si Si1 0.191577 0.147185 0.819922
Si Si2 0.213963 0.746274 0.644711
Si Si3 0.425843 0.790930 0.099404
Si Si4 0.775820 0.891322 0.643220
Si Si5 0.501527 0.222134 0.514410
Si Si6 0.990742 0.412339 0.269956
Si Si7 0.718276 0.338691 0.881788
O O1 0.087464 0.284366 0.546343
O O2 0.931352 0.290746 0.828290
O O3 0.500000 0.000000 0.000000
O O4 0.249506 0.997307 0.909096
O O5 0.314916 0.798869 0.558865
O O6 0.405137 0.567950 0.678646
O O7 0.894100 0.908470 0.495662
O O8 0.245055 0.697483 0.886063
O O9 0.545721 0.720229 0.347756
O O10 0.267534 0.780299 0.085222
O O11 0.687965 0.634837 0.108418
O O12 0.990257 0.672142 0.809768
O O13 0.500000 0.000000 0.500000
O O14 0.679366 0.012883 0.690648
O O15 0.219728 0.364179 0.301753
#
# Coordination Sequence:
#
# PCOD9040652 Si02
#       7
#     2   2   2   2   2   2   2
#     4  12  27  45  75 107 150 188 242 308 361 429
#     4  11  24  46  71 103 151 193 238 302 365 436
#     4  12  25  48  75 108 144 192 245 299 368 431
#     4  10  23  43  68 102 143 191 235 294 360 431
#     4  11  24  42  74 104 143 190 243 295 361 431
#     4  11  25  47  73 110 143 191 246 298 364 435
#     4  11  27  46  68 109 149 189 244 303 366 433
#
# _framework density 27.419699999999999
#
# number of rings (size 3 to 8) (size 9 to 14) (size 15 to 20)
#    0.000    0.857    2.857    3.000    8.000    1.143 
#    0.000    0.714    0.000    0.000    0.000    0.000 
#    0.000    0.000    0.000    0.000    0.000    0.000 
#
# Total GULP energy -78383.734766 kJ/mol
# GULP energy per Si atom -5598.838198 kJ/mol
# Density = 2.735729 g / cm^3
# Si number density = 27.419700 Si / 1000 Ang^3
#
#
#
# Elastic Constant Matrix: (Units=GPa)
#
#
# Indices 1 2 3 4 5 6 
#
# 1 200.5853 66.9026 26.0662 23.1237 -11.3079 -17.4099
# 2 66.9026 191.2460 27.8439 -2.3328 -10.7325 -6.7399
# 3 26.0662 27.8439 57.6097 -1.0069 -20.3806 6.3669
# 4 23.1237 -2.3328 -1.0069 30.6452 0.2441 12.5647
# 5 -11.3079 -10.7325 -20.3806 0.2441 33.6370 4.7376
# 6 -17.4099 -6.7399 6.3669 12.5647 4.7376 65.4641
#
#
#
# Elastic Compliance Matrix: (Units=1/GPa)
#
#
# Indices 1 2 3 4 5 6 
#
# 1 0.007116 -0.002064 -0.002859 -0.006981 -0.000417 0.003328
# 2 -0.002064 0.006271 -0.002022 0.002008 0.000081 -0.000098
# 3 -0.002859 -0.002022 0.025468 0.004959 0.014556 -0.005451
# 4 -0.006981 0.002008 0.004959 0.042486 0.002464 -0.010465
# 5 -0.000417 0.000081 0.014556 0.002464 0.039095 -0.004821
# 6 0.003328 -0.000098 -0.005451 -0.010465 -0.004821 0.019038
#
#
# Mechanical properties :
#
#
# Convention : Reuss Voigt Hill
#
# Bulk Modulus (GPa) = 40.05944 76.78516 58.42230
# Shear Modulus (GPa) = 30.92384 47.85783 39.39083
#
# Velocity S-wave (km/s) = 3.36191 4.18231 3.79435
# Velocity P-wave (km/s) = 5.45081 7.16845 6.36781
#
# Compressibility (1/GPa) = 0.02496291
#
# Stress axis : x y z
#
# Youngs Moduli (GPa) = 140.53529 159.46398 39.26486
#
# Poissons Ratio (x) = 0.32917 0.11227
# Poissons Ratio (y) = 0.29010 0.07941
# Poissons Ratio (z) = 0.40183 0.32250
#
# Static dielectric constant tensor:
#      x y z
#    x 2.201090 -0.019830 0.097540 
#    y -0.019830 2.144170 0.012100 
#    z 0.097540 0.012100 2.285520 
# 
# From -- ./inp_files/205879.got.cif
#   From: 2010.05.17/outbox.cif.g08.bks.cpg/sg2_103_cif.got.tgz:205879.got - 2010.06.03 11:33:40.
