data_PCOD9040176
_publ_section_title
;
Structure prediction by ZEFSAII (Michael W. Deem and Ramdas Pophale) SiO2 
 PCOD9040176
Probable space group: P -1
;
_chemical_formula_sum "Si O2"
_cell_formula_units_Z 16
_cell_length_a 16.094872
_cell_length_b 12.134921
_cell_length_c 15.640478
_cell_angle_alpha 27.745272
_cell_angle_beta 37.590605
_cell_angle_gamma 53.951766
_cell_volume 796.114158
_symmetry_space_group_name_H-M "P -1"
_symmetry_group_IT_number 2
_symmetry_cell_setting 'triclinic'
loop_
_space_group_symop_operation_xyz
x,y,z
-x,-y,-z
loop_
_atom_site_type_symbol
_atom_site_label
_atom_site_fract_x
_atom_site_fract_y
_atom_site_fract_z
Si Si1 0.349764 0.759243 0.614313
Si Si2 0.441404 0.889668 0.941857
Si Si3 0.838788 0.419339 0.726080
Si Si4 0.588676 0.384714 0.570398
Si Si5 0.125212 0.007979 0.671139
Si Si6 0.873163 0.594847 0.075544
Si Si7 0.135269 0.934667 0.902247
Si Si8 0.437949 0.410702 0.358653
O O1 0.242528 0.479332 0.857265
O O2 0.439677 0.710410 0.652114
O O3 0.468491 0.922128 0.335882
O O4 0.252968 0.926289 0.588684
O O5 0.486835 0.079835 0.855504
O O6 0.276276 0.758230 0.128764
O O7 0.485797 0.654021 0.090449
O O8 0.820819 0.686344 0.574197
O O9 0.000000 0.500000 0.500000
O O10 0.834798 0.263930 0.923006
O O11 0.500000 0.500000 0.500000
O O12 0.755609 0.457570 0.344049
O O13 0.589928 0.498262 0.585926
O O14 0.093361 0.861503 0.888803
O O15 0.974043 0.882811 0.825480
O O16 0.000000 0.500000 0.000000
O O17 0.284263 0.192418 0.603973
O O18 0.000000 0.000000 0.000000
#
# Coordination Sequence:
#
# PCOD9040176 Si02
#       8
#     2   2   2   2   2   2   2   2
#     4  10  23  43  64  91 131 166 211 265 312 374
#     4  11  23  41  61  96 128 160 214 260 312 374
#     4  12  24  40  63  91 127 165 206 263 313 376
#     4  11  20  37  68  92 124 167 206 267 316 362
#     4  11  24  41  66  92 126 175 206 255 327 378
#     4   9  20  41  65  91 126 166 207 257 319 372
#     4  12  23  42  62  92 128 163 211 259 314 380
#     4  12  22  40  65  95 126 165 214 264 308 377
#
# _framework density 20.097619999999999
#
# number of rings (size 3 to 8) (size 9 to 14) (size 15 to 20)
#    0.000    1.000    6.250    1.125    1.750    2.000 
#    0.000    2.500    0.000    9.000    0.000    0.000 
#    0.000    0.000    0.000    0.000    0.000    0.000 
#
# Total GULP energy -89137.094589 kJ/mol
# GULP energy per Si atom -5571.068412 kJ/mol
# Density = 2.005188 g / cm^3
# Si number density = 20.097620 Si / 1000 Ang^3
#
#
#
# Elastic Constant Matrix: (Units=GPa)
#
#
# Indices 1 2 3 4 5 6 
#
# 1 72.0200 11.7711 32.5336 -7.4266 -2.7423 -21.1117
# 2 11.7711 60.2179 28.5222 -9.0712 -15.6298 -7.1384
# 3 32.5336 28.5222 88.5623 -16.9589 -17.2900 -13.8004
# 4 -7.4266 -9.0712 -16.9589 26.2655 -8.8713 3.9969
# 5 -2.7423 -15.6298 -17.2900 -8.8713 48.2436 -2.4568
# 6 -21.1117 -7.1384 -13.8004 3.9969 -2.4568 26.6756
#
#
#
# Elastic Compliance Matrix: (Units=1/GPa)
#
#
# Indices 1 2 3 4 5 6 
#
# 1 0.020175 0.000214 -0.005355 0.000320 0.000029 0.013209
# 2 0.000214 0.021689 -0.003760 0.006988 0.007162 0.003641
# 3 -0.005355 -0.003760 0.018563 0.011144 0.007351 0.003366
# 4 0.000320 0.006988 0.011144 0.052989 0.016093 0.001431
# 5 0.000029 0.007162 0.007351 0.016093 0.028949 0.005997
# 6 0.013209 0.003641 0.003366 0.001431 0.005997 0.050995
#
#
# Mechanical properties :
#
#
# Convention : Reuss Voigt Hill
#
# Bulk Modulus (GPa) = 23.46047 40.71711 32.08879
# Shear Modulus (GPa) = 22.18569 30.10183 26.14376
#
# Velocity S-wave (km/s) = 3.32610 3.87432 3.61063
# Velocity P-wave (km/s) = 5.14288 6.34960 5.77783
#
# Compressibility (1/GPa) = 0.04262490
#
# Stress axis : x y z
#
# Youngs Moduli (GPa) = 49.56587 46.10738 53.86985
#
# Poissons Ratio (x) = -0.00988 0.28848
# Poissons Ratio (y) = -0.01062 0.20255
# Poissons Ratio (z) = 0.26544 0.17336
#
# Static dielectric constant tensor:
#      x y z
#    x 1.707120 0.054790 0.005010 
#    y 0.054790 1.731230 -0.042560 
#    z 0.005010 -0.042560 1.687690 
# 
# From -- ./inp_files/428456.got.cif
#   From: 2010.05.17/outbox.cif.g08.bks.cpg/sg2_215_cif.got.tgz:428456.got - 2010.06.03 11:33:40.
