data_PCOD9040775
_publ_section_title
;
Structure prediction by ZEFSAII (Michael W. Deem and Ramdas Pophale) SiO2 
 PCOD9040775
Probable space group: P -1
;
_chemical_formula_sum "Si O2"
_cell_formula_units_Z 16
_cell_length_a 9.743039
_cell_length_b 15.606735
_cell_length_c 11.961794
_cell_angle_alpha 151.763615
_cell_angle_beta 116.425633
_cell_angle_gamma 62.436313
_cell_volume 759.822478
_symmetry_space_group_name_H-M "P -1"
_symmetry_group_IT_number 2
_symmetry_cell_setting 'triclinic'
loop_
_space_group_symop_operation_xyz
x,y,z
-x,-y,-z
loop_
_atom_site_type_symbol
_atom_site_label
_atom_site_fract_x
_atom_site_fract_y
_atom_site_fract_z
Si Si1 0.806497 0.353805 0.197796
Si Si2 0.526222 0.823037 0.886192
Si Si3 0.986542 0.666161 0.533445
Si Si4 0.522412 0.408393 0.598521
Si Si5 0.516908 0.061926 0.359171
Si Si6 0.218495 0.042004 0.345619
Si Si7 0.204977 0.414771 0.163758
Si Si8 0.134065 0.111250 0.642393
O O1 0.917589 0.301987 0.284945
O O2 0.638771 0.454153 0.293465
O O3 0.883259 0.507876 0.338044
O O4 0.791528 0.173377 0.913875
O O5 0.463446 0.909917 0.081010
O O6 0.457821 0.677576 0.618274
O O7 0.700599 0.723454 0.867618
O O8 0.500000 0.000000 0.000000
O O9 0.104738 0.582509 0.383671
O O10 0.878551 0.849732 0.665462
O O11 0.515639 0.247224 0.500238
O O12 0.665369 0.515503 0.786008
O O13 0.394358 0.078019 0.433255
O O14 0.693609 0.991054 0.377076
O O15 0.144955 0.125705 0.530132
O O16 0.108378 0.300014 0.918908
O O17 0.000000 0.000000 0.500000
#
# Coordination Sequence:
#
# PCOD9040775 Si02
#       8
#     2   2   2   2   2   2   2   2
#     4  11  23  43  67 101 139 173 216 279 336 405
#     4   9  19  36  66  97 133 172 216 273 330 398
#     4  11  25  42  66 103 141 169 223 273 342 402
#     4  11  21  41  67 101 135 173 223 277 332 402
#     4  10  23  43  68  99 130 179 229 270 334 401
#     4  12  25  46  69  95 136 186 221 271 339 397
#     4  11  23  41  66  98 131 176 224 280 334 392
#     4  11  26  48  68  94 132 175 232 284 329 394
#
# _framework density 21.057551
#
# number of rings (size 3 to 8) (size 9 to 14) (size 15 to 20)
#    0.000    1.250    2.500    3.375    3.500    0.500 
#    4.500    1.250    0.000    0.000    0.000    0.000 
#    0.000    0.000    0.000    0.000    0.000    0.000 
#
# Total GULP energy -89396.262051 kJ/mol
# GULP energy per Si atom -5587.266378 kJ/mol
# Density = 2.100962 g / cm^3
# Si number density = 21.057551 Si / 1000 Ang^3
#
#
#
# Elastic Constant Matrix: (Units=GPa)
#
#
# Indices 1 2 3 4 5 6 
#
# 1 92.6018 -0.4345 -7.3856 -2.4785 11.6129 5.1956
# 2 -0.4345 59.1856 3.0633 12.7167 3.1657 5.2358
# 3 -7.3856 3.0633 58.4309 -0.9058 15.0059 0.9140
# 4 -2.4785 12.7167 -0.9058 30.0741 -2.6258 -7.9730
# 5 11.6129 3.1657 15.0059 -2.6258 30.3295 4.6984
# 6 5.1956 5.2358 0.9140 -7.9730 4.6984 24.5996
#
#
#
# Elastic Compliance Matrix: (Units=1/GPa)
#
#
# Indices 1 2 3 4 5 6 
#
# 1 0.011858 0.000391 0.002997 -0.000029 -0.005819 -0.001597
# 2 0.000391 0.019936 -0.000608 -0.010523 -0.001696 -0.007390
# 3 0.002997 -0.000608 0.020420 0.000404 -0.011312 0.001029
# 4 -0.000029 -0.010523 0.000404 0.041989 0.002155 0.015428
# 5 -0.005819 -0.001696 -0.011312 0.002155 0.041982 -0.005310
# 6 -0.001597 -0.007390 0.001029 0.015428 -0.005310 0.048538
#
#
# Mechanical properties :
#
#
# Convention : Reuss Voigt Hill
#
# Bulk Modulus (GPa) = 17.30844 22.30053 19.80448
# Shear Modulus (GPa) = 25.19898 31.33232 28.26565
#
# Velocity S-wave (km/s) = 3.46305 3.86156 3.66772
# Velocity P-wave (km/s) = 4.92216 5.52227 5.23083
#
# Compressibility (1/GPa) = 0.05777529
#
# Stress axis : x y z
#
# Youngs Moduli (GPa) = 84.32803 50.16108 48.97110
#
# Poissons Ratio (x) = -0.01960 -0.14679
# Poissons Ratio (y) = -0.03295 0.02976
# Poissons Ratio (z) = -0.25277 0.03049
#
# Static dielectric constant tensor:
#      x y z
#    x 1.752220 0.007330 -0.003970 
#    y 0.007330 1.758000 -0.005410 
#    z -0.003970 -0.005410 1.745970 
# 
# From -- ./inp_files/400134.got.cif
#   From: 2010.05.17/outbox.cif.g08.bks.cpg/sg2_201_cif.got.tgz:400134.got - 2010.06.03 11:33:40.
