data_PCOD9040163
_publ_section_title
;
Structure prediction by ZEFSAII (Michael W. Deem and Ramdas Pophale) SiO2 
 PCOD9040163
Probable space group: P -1
;
_chemical_formula_sum "Si O2"
_cell_formula_units_Z 12
_cell_length_a 19.914175
_cell_length_b 10.408580
_cell_length_c 10.131302
_cell_angle_alpha 47.541380
_cell_angle_beta 153.644285
_cell_angle_gamma 145.569442
_cell_volume 509.684379
_symmetry_space_group_name_H-M "P -1"
_symmetry_group_IT_number 2
_symmetry_cell_setting 'triclinic'
loop_
_space_group_symop_operation_xyz
x,y,z
-x,-y,-z
loop_
_atom_site_type_symbol
_atom_site_label
_atom_site_fract_x
_atom_site_fract_y
_atom_site_fract_z
Si Si1 0.232688 0.126255 0.844718
Si Si2 0.917461 0.905220 0.773924
Si Si3 0.421166 0.905003 0.747290
Si Si4 0.853178 0.230382 0.883968
Si Si5 0.839377 0.223888 0.383307
Si Si6 0.506670 0.587987 0.156270
O O1 0.358919 0.275019 0.834593
O O2 0.345367 0.315904 0.029579
O O3 0.000000 0.000000 0.500000
O O4 0.233764 0.927917 0.028694
O O5 0.674669 0.676028 0.500732
O O6 0.935932 0.111781 0.595681
O O7 0.025832 0.830568 0.939068
O O8 0.000000 0.000000 0.000000
O O9 0.322207 0.840586 0.474611
O O10 0.283807 0.905901 0.607263
O O11 0.401057 0.692162 0.914729
O O12 0.659272 0.134564 0.025890
O O13 0.000000 0.500000 0.000000
O O14 0.000000 0.500000 0.500000
#
# Coordination Sequence:
#
# PCOD9040163 Si02
#       6
#     2   2   2   2   2   2
#     4  11  23  44  70  98 138 183 229 281 345 407
#     4  11  23  46  68 100 139 179 227 285 340 412
#     4  10  23  43  64 102 138 170 232 284 336 409
#     4  12  26  43  71 102 142 180 229 287 343 408
#     4  10  23  43  71  96 136 184 226 278 345 409
#     4  10  24  43  71  99 135 184 232 280 344 411
#
# _framework density 23.543983000000001
#
# number of rings (size 3 to 8) (size 9 to 14) (size 15 to 20)
#    0.000    1.333    3.333    1.000    4.667    4.667 
#    0.000    1.667    0.000    0.000    0.000    0.000 
#    0.000    0.000    0.000    0.000    0.000    0.000 
#
# Total GULP energy -67102.700528 kJ/mol
# GULP energy per Si atom -5591.891711 kJ/mol
# Density = 2.349040 g / cm^3
# Si number density = 23.543983 Si / 1000 Ang^3
#
#
#
# Elastic Constant Matrix: (Units=GPa)
#
#
# Indices 1 2 3 4 5 6 
#
# 1 96.7540 31.4017 53.0246 13.3809 0.7479 -18.6075
# 2 31.4017 169.9800 74.5449 36.1428 -7.1439 -32.8153
# 3 53.0246 74.5449 180.8706 25.4867 -29.4826 -12.8247
# 4 13.3809 36.1428 25.4867 35.8147 -17.1278 -5.4911
# 5 0.7479 -7.1439 -29.4826 -17.1278 50.7069 -0.5997
# 6 -18.6075 -32.8153 -12.8247 -5.4911 -0.5997 37.5509
#
#
#
# Elastic Compliance Matrix: (Units=1/GPa)
#
#
# Indices 1 2 3 4 5 6 
#
# 1 0.014009 0.001130 -0.004179 -0.004369 -0.003884 0.005801
# 2 0.001130 0.010268 -0.003368 -0.008974 -0.003477 0.007015
# 3 -0.004179 -0.003368 0.008692 0.000836 0.004902 -0.001845
# 4 -0.004369 -0.008974 0.000836 0.044362 0.014235 -0.003008
# 5 -0.003884 -0.003477 0.004902 0.014235 0.026938 -0.000777
# 6 0.005801 0.007015 -0.001845 -0.003008 -0.000777 0.034553
#
#
# Mechanical properties :
#
#
# Convention : Reuss Voigt Hill
#
# Bulk Modulus (GPa) = 49.66224 85.06077 67.36151
# Shear Modulus (GPa) = 31.57230 44.05672 37.81451
#
# Velocity S-wave (km/s) = 3.66593 4.33049 4.01199
# Velocity P-wave (km/s) = 6.24963 7.82375 7.08057
#
# Compressibility (1/GPa) = 0.02013602
#
# Stress axis : x y z
#
# Youngs Moduli (GPa) = 71.38394 97.39444 115.04295
#
# Poissons Ratio (x) = -0.11010 0.48075
# Poissons Ratio (y) = -0.08069 0.38745
# Poissons Ratio (z) = 0.29831 0.32801
#
# Static dielectric constant tensor:
#      x y z
#    x 2.020910 -0.031580 0.013130 
#    y -0.031580 1.870980 -0.015830 
#    z 0.013130 -0.015830 1.911930 
# 
# From -- ./inp_files/23846.got.cif
#   From: 2010.05.17/outbox.cif.g08.bks.cpg/sg2_12_cif.got.tgz:23846.got - 2010.06.03 11:33:40.
