data_PCOD9040607
_publ_section_title
;
Structure prediction by ZEFSAII (Michael W. Deem and Ramdas Pophale) SiO2 
 PCOD9040607
Probable space group: P -1
;
_chemical_formula_sum "Si O2"
_cell_formula_units_Z 14
_cell_length_a 13.067925
_cell_length_b 9.146281
_cell_length_c 10.123330
_cell_angle_alpha 43.303488
_cell_angle_beta 54.543377
_cell_angle_gamma 48.182072
_cell_volume 607.733732
_symmetry_space_group_name_H-M "P -1"
_symmetry_group_IT_number 2
_symmetry_cell_setting 'triclinic'
loop_
_space_group_symop_operation_xyz
x,y,z
-x,-y,-z
loop_
_atom_site_type_symbol
_atom_site_label
_atom_site_fract_x
_atom_site_fract_y
_atom_site_fract_z
Si Si1 0.448745 0.304665 0.468274
Si Si2 0.995645 0.835734 0.367709
Si Si3 0.234351 0.845599 0.309400
Si Si4 0.377830 0.560338 0.944056
Si Si5 0.800243 0.706991 0.466723
Si Si6 0.839801 0.012040 0.017481
Si Si7 0.589220 0.944597 0.833614
O O1 0.342139 0.569174 0.423160
O O2 0.575668 0.331575 0.286027
O O3 0.359553 0.239401 0.468486
O O4 0.497412 0.120311 0.671698
O O5 0.076407 0.869768 0.411127
O O6 0.107194 0.573395 0.409021
O O7 0.848655 0.828736 0.466931
O O8 0.012695 0.010454 0.131951
O O9 0.280520 0.996452 0.272419
O O10 0.245280 0.932136 0.094452
O O11 0.242818 0.758287 0.982912
O O12 0.500000 0.500000 0.000000
O O13 0.366817 0.324178 0.065504
O O14 0.842296 0.794531 0.241176
O O15 0.500000 0.000000 0.000000
#
# Coordination Sequence:
#
# PCOD9040607 Si02
#       7
#     2   2   2   2   2   2   2
#     4  11  22  34  57  85 115 142 188 225 279 329
#     4   8  19  34  57  85 107 136 195 230 268 324
#     4   9  19  38  53  83 111 140 188 227 269 334
#     4  12  22  37  52  84 120 145 183 226 276 343
#     4  10  17  33  56  84 109 142 180 239 273 310
#     4  10  20  36  55  84 115 140 183 230 278 326
#     4  12  23  37  56  79 117 155 182 225 281 330
#
# _framework density 23.036404999999998
#
# number of rings (size 3 to 8) (size 9 to 14) (size 15 to 20)
#    0.857    0.857    2.857    2.571    0.000    3.429 
#    0.000    0.000    0.000    0.857    0.000    9.000 
#    0.000    0.000    0.000    0.000    0.000    0.000 
#
# Total GULP energy -78190.412137 kJ/mol
# GULP energy per Si atom -5585.029438 kJ/mol
# Density = 2.298397 g / cm^3
# Si number density = 23.036405 Si / 1000 Ang^3
#
#
#
# Elastic Constant Matrix: (Units=GPa)
#
#
# Indices 1 2 3 4 5 6 
#
# 1 178.2092 45.1290 15.7571 -8.9841 -5.2647 30.0940
# 2 45.1290 50.5286 20.0812 12.2836 -0.1784 14.1329
# 3 15.7571 20.0812 110.7027 -5.3025 4.0607 -7.5822
# 4 -8.9841 12.2836 -5.3025 24.1037 4.9756 3.0680
# 5 -5.2647 -0.1784 4.0607 4.9756 34.1788 -17.9781
# 6 30.0940 14.1329 -7.5822 3.0680 -17.9781 22.6642
#
#
#
# Elastic Compliance Matrix: (Units=1/GPa)
#
#
# Indices 1 2 3 4 5 6 
#
# 1 0.011510 -0.006808 -0.000892 0.012873 -0.011858 -0.022485
# 2 -0.006808 0.041115 -0.008783 -0.020296 -0.009725 -0.024504
# 3 -0.000892 -0.008783 0.011720 0.003765 0.005447 0.014393
# 4 0.012873 -0.020296 0.003765 0.066774 -0.025254 -0.032249
# 5 -0.011858 -0.009725 0.005447 -0.025254 0.076599 0.087811
# 6 -0.022485 -0.024504 0.014393 -0.032249 0.087811 0.168094
#
#
# Mechanical properties :
#
#
# Convention : Reuss Voigt Hill
#
# Bulk Modulus (GPa) = 31.86791 55.70835 43.78813
# Shear Modulus (GPa) = 11.92646 33.42089 22.67368
#
# Velocity S-wave (km/s) = 2.27782 3.81305 3.14069
# Velocity P-wave (km/s) = 4.55869 6.60462 5.67463
#
# Compressibility (1/GPa) = 0.03137953
#
# Stress axis : x y z
#
# Youngs Moduli (GPa) = 86.88234 24.32210 85.32658
#
# Poissons Ratio (x) = 0.16558 0.07610
# Poissons Ratio (y) = 0.59147 0.74941
# Poissons Ratio (z) = 0.07749 0.21362
#
# Static dielectric constant tensor:
#      x y z
#    x 1.959250 0.009570 -0.038200 
#    y 0.009570 1.815510 0.007710 
#    z -0.038200 0.007710 1.908940 
# 
# From -- ./inp_files/291517.got.cif
#   From: 2010.05.17/outbox.cif.g08.bks.cpg/sg2_146_cif.got.tgz:291517.got - 2010.06.03 11:33:40.
