data_PCOD9040031
_publ_section_title
;
Structure prediction by ZEFSAII (Michael W. Deem and Ramdas Pophale) SiO2 
 PCOD9040031
Probable space group: P -1
;
_chemical_formula_sum "Si O2"
_cell_formula_units_Z 12
_cell_length_a 14.141425
_cell_length_b 9.696617
_cell_length_c 14.114356
_cell_angle_alpha 38.310459
_cell_angle_beta 149.273503
_cell_angle_gamma 152.087913
_cell_volume 460.366467
_symmetry_space_group_name_H-M "P -1"
_symmetry_group_IT_number 2
_symmetry_cell_setting 'triclinic'
loop_
_space_group_symop_operation_xyz
x,y,z
-x,-y,-z
loop_
_atom_site_type_symbol
_atom_site_label
_atom_site_fract_x
_atom_site_fract_y
_atom_site_fract_z
Si Si1 0.199053 0.086281 0.449344
Si Si2 0.846032 0.211615 0.087499
Si Si3 0.621225 0.839652 0.917037
Si Si4 0.032095 0.866911 0.224626
Si Si5 0.539063 0.216170 0.529186
Si Si6 0.890158 0.355180 0.251448
O O1 0.037481 0.835126 0.360864
O O2 0.234175 0.948788 0.639116
O O3 0.448326 0.315508 0.479360
O O4 0.033384 0.159121 0.298026
O O5 0.784200 0.283106 0.093349
O O6 0.000000 0.500000 0.000000
O O7 0.645229 0.950614 0.984752
O O8 0.896547 0.996179 0.029847
O O9 0.517683 0.955737 0.700807
O O10 0.500000 0.500000 0.000000
O O11 0.324704 0.083826 0.338239
O O12 0.892594 0.572975 0.202522
O O13 0.816101 0.466975 0.600499
#
# Coordination Sequence:
#
# PCOD9040031 Si02
#       6
#     2   2   2   2   2   2
#     4   9  23  43  68 100 139 185 233 279 347 432
#     4  11  24  46  68 103 148 180 231 301 348 416
#     4  11  23  45  72  98 141 191 228 291 350 413
#     4   9  23  43  68 103 139 180 238 283 337 432
#     4  10  23  42  75 100 140 184 237 284 356 408
#     4  12  21  42  76 101 141 185 233 293 357 407
#
# _framework density 26.066189000000001
#
# number of rings (size 3 to 8) (size 9 to 14) (size 15 to 20)
#    1.000    0.667    1.667    2.500    4.667    1.333 
#    0.000    3.333    7.333    0.000    0.000    0.000 
#    0.000    0.000    0.000    0.000    0.000    0.000 
#
# Total GULP energy -67109.813316 kJ/mol
# GULP energy per Si atom -5592.484443 kJ/mol
# Density = 2.600686 g / cm^3
# Si number density = 26.066189 Si / 1000 Ang^3
#
#
#
# Elastic Constant Matrix: (Units=GPa)
#
#
# Indices 1 2 3 4 5 6 
#
# 1 124.3779 15.7151 23.3444 -0.3624 -2.5921 -38.3362
# 2 15.7151 80.6550 4.9628 23.0469 5.2275 -14.6000
# 3 23.3444 4.9628 102.4030 13.6410 21.8528 -5.5115
# 4 -0.3624 23.0469 13.6410 34.7437 8.0937 3.6612
# 5 -2.5921 5.2275 21.8528 8.0937 47.1717 5.4292
# 6 -38.3362 -14.6000 -5.5115 3.6612 5.4292 52.5201
#
#
#
# Elastic Compliance Matrix: (Units=1/GPa)
#
#
# Indices 1 2 3 4 5 6 
#
# 1 0.010854 -0.000888 -0.002296 0.000646 0.000807 0.007306
# 2 -0.000888 0.016960 0.001522 -0.012136 -0.001148 0.005191
# 3 -0.002296 0.001522 0.011976 -0.004627 -0.005148 0.000858
# 4 0.000646 -0.012136 -0.004627 0.039893 -0.002642 -0.005896
# 5 0.000807 -0.001148 -0.005148 -0.002642 0.024510 -0.002620
# 6 0.007306 0.005191 0.000858 -0.005896 -0.002620 0.026589
#
#
# Mechanical properties :
#
#
# Convention : Reuss Voigt Hill
#
# Bulk Modulus (GPa) = 27.42361 43.94229 35.68295
# Shear Modulus (GPa) = 34.18536 44.44800 39.31668
#
# Velocity S-wave (km/s) = 3.62537 4.13388 3.88795
# Velocity P-wave (km/s) = 5.29792 6.29920 5.82013
#
# Compressibility (1/GPa) = 0.03646493
#
# Stress axis : x y z
#
# Youngs Moduli (GPa) = 92.13297 58.96284 83.49965
#
# Poissons Ratio (x) = 0.05234 0.19174
# Poissons Ratio (y) = 0.08179 -0.12705
# Poissons Ratio (z) = 0.21156 -0.08971
#
# Static dielectric constant tensor:
#      x y z
#    x 2.088840 0.016340 0.037970 
#    y 0.016340 2.194330 0.071900 
#    z 0.037970 0.071900 2.005820 
# 
# From -- ./inp_files/380673.got.cif
#   From: 2010.05.17/outbox.cif.g08.bks.cpg/sg2_191_cif.got.tgz:380673.got - 2010.06.03 11:33:40.
