data_PCOD9040339
_publ_section_title
;
Structure prediction by ZEFSAII (Michael W. Deem and Ramdas Pophale) SiO2 
 PCOD9040339
Probable space group: P -1
;
_chemical_formula_sum "Si O2"
_cell_formula_units_Z 14
_cell_length_a 14.325750
_cell_length_b 12.113086
_cell_length_c 11.696475
_cell_angle_alpha 101.989530
_cell_angle_beta 88.109774
_cell_angle_gamma 160.110949
_cell_volume 589.591227
_symmetry_space_group_name_H-M "P -1"
_symmetry_group_IT_number 2
_symmetry_cell_setting 'triclinic'
loop_
_space_group_symop_operation_xyz
x,y,z
-x,-y,-z
loop_
_atom_site_type_symbol
_atom_site_label
_atom_site_fract_x
_atom_site_fract_y
_atom_site_fract_z
Si Si1 0.935907 0.463430 0.125613
Si Si2 0.217077 0.257267 0.937863
Si Si3 0.737410 0.429283 0.000803
Si Si4 0.774549 0.923033 0.512508
Si Si5 0.050017 0.071462 0.361447
Si Si6 0.146277 0.505721 0.240722
Si Si7 0.810180 0.168613 0.409488
O O1 0.919697 0.578553 0.130691
O O2 0.176827 0.675339 0.243556
O O3 0.000000 0.500000 0.000000
O O4 0.596979 0.023369 0.084899
O O5 0.316896 0.501706 0.965918
O O6 0.500000 0.500000 0.000000
O O7 0.016991 0.988197 0.779765
O O8 0.000000 0.000000 0.000000
O O9 0.906870 0.607509 0.908662
O O10 0.409933 0.518362 0.471685
O O11 0.966478 0.079560 0.636123
O O12 0.885337 0.166414 0.505279
O O13 0.808954 0.869241 0.398537
O O14 0.900779 0.220186 0.293427
O O15 0.451546 0.794869 0.336887
O O16 0.000000 0.500000 0.500000
#
# Coordination Sequence:
#
# PCOD9040339 Si02
#       7
#     2   2   2   2   2   2   2
#     4   9  20  41  69  94 128 180 224 257 332 418
#     4  12  29  41  67 107 141 173 228 280 338 400
#     4  10  23  43  66 100 134 184 219 268 346 409
#     4  10  23  45  72  89 129 180 228 266 341 386
#     4  10  23  46  67  95 128 180 225 277 319 402
#     4  11  23  41  67  94 137 175 209 276 343 404
#     4  12  26  41  66 102 127 166 226 285 339 390
#
# _framework density 23.745266000000001
#
# number of rings (size 3 to 8) (size 9 to 14) (size 15 to 20)
#    0.000    1.429    1.429    2.143   10.000    1.143 
#    0.000    1.429    0.000    0.000    0.000    0.000 
#    0.000    0.000    0.000    0.000    0.000    0.000 
#
# Total GULP energy -78236.215249 kJ/mol
# GULP energy per Si atom -5588.301089 kJ/mol
# Density = 2.369122 g / cm^3
# Si number density = 23.745266 Si / 1000 Ang^3
#
#
#
# Elastic Constant Matrix: (Units=GPa)
#
#
# Indices 1 2 3 4 5 6 
#
# 1 159.5552 44.8895 9.5880 3.1493 28.8807 -17.1958
# 2 44.8895 93.7563 9.0454 -22.7117 3.2401 7.5658
# 3 9.5880 9.0454 38.2024 -16.8886 12.3839 1.0768
# 4 3.1493 -22.7117 -16.8886 24.9207 -2.2676 1.7039
# 5 28.8807 3.2401 12.3839 -2.2676 42.3686 -6.8177
# 6 -17.1958 7.5658 1.0768 1.7039 -6.8177 53.7937
#
#
#
# Elastic Compliance Matrix: (Units=1/GPa)
#
#
# Indices 1 2 3 4 5 6 
#
# 1 0.010271 -0.007554 -0.004591 -0.012039 -0.005054 0.004178
# 2 -0.007554 0.020027 0.007867 0.025101 0.001701 -0.005968
# 3 -0.004591 0.007867 0.045692 0.038235 -0.009736 -0.005934
# 4 -0.012039 0.025101 0.038235 0.091039 -0.001828 -0.011259
# 5 -0.005054 0.001701 -0.009736 -0.001828 0.030020 0.002203
# 6 0.004178 -0.005968 -0.005934 -0.011259 0.002203 0.021519
#
#
# Mechanical properties :
#
#
# Convention : Reuss Voigt Hill
#
# Bulk Modulus (GPa) = 14.82906 46.50666 30.66786
# Shear Modulus (GPa) = 20.03193 39.41600 29.72397
#
# Velocity S-wave (km/s) = 2.90766 4.07867 3.54190
# Velocity P-wave (km/s) = 4.18704 6.46598 5.44703
#
# Compressibility (1/GPa) = 0.06743514
#
# Stress axis : x y z
#
# Youngs Moduli (GPa) = 97.35945 49.93301 21.88565
#
# Poissons Ratio (x) = 0.37718 0.10048
# Poissons Ratio (y) = 0.73542 -0.17218
# Poissons Ratio (z) = 0.44698 -0.39284
#
# Static dielectric constant tensor:
#      x y z
#    x 1.969290 -0.022530 0.015330 
#    y -0.022530 1.911550 0.038760 
#    z 0.015330 0.038760 1.982030 
# 
# From -- ./inp_files/364835.got.cif
#   From: 2010.05.17/outbox.cif.g08.bks.cpg/sg2_183_cif.got.tgz:364835.got - 2010.06.03 11:33:40.
