data_PCOD9040106
_publ_section_title
;
Structure prediction by ZEFSAII (Michael W. Deem and Ramdas Pophale) SiO2 
 PCOD9040106
Probable space group: P -1
;
_chemical_formula_sum "Si O2"
_cell_formula_units_Z 11
_cell_length_a 9.058152
_cell_length_b 15.472760
_cell_length_c 5.177812
_cell_angle_alpha 128.679512
_cell_angle_beta 56.781380
_cell_angle_gamma 126.761690
_cell_volume 435.976385
_symmetry_space_group_name_H-M "P -1"
_symmetry_group_IT_number 2
_symmetry_cell_setting 'triclinic'
loop_
_space_group_symop_operation_xyz
x,y,z
-x,-y,-z
loop_
_atom_site_type_symbol
_atom_site_label
_atom_site_fract_x
_atom_site_fract_y
_atom_site_fract_z
Si Si1 0.351549 0.864573 0.863229
Si Si2 0.321073 0.625275 0.572820
Si Si3 0.042911 0.129967 0.580247
Si Si4 0.140861 0.665203 0.327772
Si Si5 0.210432 0.266008 0.174304
Si Si6 0.500000 0.500000 0.500000
O O1 0.434892 0.770123 0.714013
O O2 0.273629 0.805237 0.544891
O O3 0.157454 0.851742 0.175139
O O4 0.500000 0.000000 0.000000
O O5 0.194863 0.595349 0.377783
O O6 0.433159 0.543413 0.377117
O O7 0.184496 0.616306 0.930177
O O8 0.131069 0.159585 0.265255
O O9 0.179988 0.220494 0.828475
O O10 0.000000 0.000000 0.500000
O O11 0.927688 0.661188 0.519063
O O12 0.420677 0.358540 0.211395
#
# Coordination Sequence:
#
# PCOD9040106 Si02
#       6
#     2   2   2   2   2   1
#     4   9  21  40  67  95 130 172 224 271 333 401
#     4  10  23  43  62  97 127 176 220 270 340 378
#     4  11  24  44  71 101 137 178 222 289 337 405
#     4   9  20  44  65  90 128 176 220 268 338 400
#     4  11  24  47  65 102 136 181 231 269 352 388
#     4  12  30  42  72 100 142 178 230 292 316 420
#
# _framework density 25.230727999999999
#
# number of rings (size 3 to 8) (size 9 to 14) (size 15 to 20)
#    1.091    0.727    1.818    0.545    2.545    8.000 
#    0.000    0.000    0.000    0.000    0.000    0.000 
#    0.000    0.000    0.000    0.000    0.000    0.000 
#
# Total GULP energy -61254.857651 kJ/mol
# GULP energy per Si atom -5568.623423 kJ/mol
# Density = 2.517330 g / cm^3
# Si number density = 25.230728 Si / 1000 Ang^3
#
#
#
# Elastic Constant Matrix: (Units=GPa)
#
#
# Indices 1 2 3 4 5 6 
#
# 1 81.7076 38.6277 19.5322 -12.0874 -2.5685 -25.0146
# 2 38.6277 113.4553 15.7078 21.3098 -3.1686 -16.6026
# 3 19.5322 15.7078 68.3978 -13.7753 0.8458 3.0397
# 4 -12.0874 21.3098 -13.7753 49.5264 -5.8445 8.2650
# 5 -2.5685 -3.1686 0.8458 -5.8445 41.4088 13.4365
# 6 -25.0146 -16.6026 3.0397 8.2650 13.4365 59.2523
#
#
#
# Elastic Compliance Matrix: (Units=1/GPa)
#
#
# Indices 1 2 3 4 5 6 
#
# 1 0.018239 -0.005971 -0.003028 0.005218 -0.000321 0.005527
# 2 -0.005971 0.013326 -0.003230 -0.008753 -0.001472 0.002934
# 3 -0.003028 -0.003230 0.017706 0.006481 0.001527 -0.004342
# 4 0.005218 -0.008753 0.006481 0.028647 0.005451 -0.005814
# 5 -0.000321 -0.001472 0.001527 0.005451 0.027207 -0.007556
# 6 0.005527 0.002934 -0.004342 -0.005814 -0.007556 0.022780
#
#
# Mechanical properties :
#
#
# Convention : Reuss Voigt Hill
#
# Bulk Modulus (GPa) = 40.30100 45.69959 43.00029
# Shear Modulus (GPa) = 31.12627 42.68369 36.90498
#
# Velocity S-wave (km/s) = 3.51617 4.11753 3.82868
# Velocity P-wave (km/s) = 5.70020 6.38415 6.05185
#
# Compressibility (1/GPa) = 0.02481328
#
# Stress axis : x y z
#
# Youngs Moduli (GPa) = 54.82625 75.03877 56.47730
#
# Poissons Ratio (x) = 0.44805 0.17102
# Poissons Ratio (y) = 0.32736 0.18245
# Poissons Ratio (z) = 0.16602 0.24241
#
# Static dielectric constant tensor:
#      x y z
#    x 2.033360 0.019700 -0.034030 
#    y 0.019700 2.074910 -0.005670 
#    z -0.034030 -0.005670 1.973420 
# 
# From -- ./inp_files/33855.got.cif
#   From: 2010.05.17/outbox.cif.g08.bks.cpg/sg2_17_cif.got.tgz:33855.got - 2010.06.03 11:33:40.
