data_PCOD9040405
_publ_section_title
;
Structure prediction by ZEFSAII (Michael W. Deem and Ramdas Pophale) SiO2 
 PCOD9040405
Probable space group: P -1
;
_chemical_formula_sum "Si O2"
_cell_formula_units_Z 16
_cell_length_a 13.744531
_cell_length_b 8.178502
_cell_length_c 8.017004
_cell_angle_alpha 53.814336
_cell_angle_beta 91.595279
_cell_angle_gamma 76.893457
_cell_volume 693.255462
_symmetry_space_group_name_H-M "P -1"
_symmetry_group_IT_number 2
_symmetry_cell_setting 'triclinic'
loop_
_space_group_symop_operation_xyz
x,y,z
-x,-y,-z
loop_
_atom_site_type_symbol
_atom_site_label
_atom_site_fract_x
_atom_site_fract_y
_atom_site_fract_z
Si Si1 0.338490 0.980344 0.399791
Si Si2 0.858678 0.124361 0.665161
Si Si3 0.091429 0.301211 0.154581
Si Si4 0.722294 0.570494 0.959422
Si Si5 0.580858 0.128713 0.901132
Si Si6 0.554775 0.460989 0.201759
Si Si7 0.792785 0.125107 0.036510
Si Si8 0.959339 0.723526 0.459849
O O1 0.230200 0.923957 0.422307
O O2 0.412798 0.790039 0.619930
O O3 0.334758 0.224770 0.285194
O O4 0.377961 0.931164 0.244420
O O5 0.930280 0.244099 0.513262
O O6 0.935955 0.888981 0.821007
O O7 0.818867 0.186169 0.812416
O O8 0.186369 0.339734 0.040084
O O9 0.099580 0.284093 0.365866
O O10 0.000000 0.500000 0.000000
O O11 0.654093 0.538772 0.128429
O O12 0.768019 0.343301 0.010056
O O13 0.683468 0.075317 0.051053
O O14 0.520416 0.379129 0.770797
O O15 0.500000 0.000000 0.000000
O O16 0.500000 0.500000 0.000000
O O17 0.882304 0.920958 0.233539
O O18 0.000000 0.500000 0.500000
#
# Coordination Sequence:
#
# PCOD9040405 Si02
#       8
#     2   2   2   2   2   2   2   2
#     4  10  25  44  71 101 135 181 231 273 347 401
#     4  10  23  43  66  95 135 174 220 277 336 405
#     4  11  24  41  66  98 136 177 223 273 338 405
#     4  11  24  43  70  99 139 178 227 283 335 399
#     4  11  23  46  68 101 135 183 226 284 338 397
#     4  12  25  45  69 101 138 180 233 283 334 399
#     4  11  24  44  68  99 140 172 229 283 335 407
#     4  12  25  42  70 104 134 180 224 276 348 403
#
# _framework density 23.079516000000002
#
# number of rings (size 3 to 8) (size 9 to 14) (size 15 to 20)
#    0.000    1.000    2.500    3.375    5.250    1.500 
#    2.250    0.000    0.000    0.000    0.000    0.000 
#    0.000    0.000    0.000    0.000    0.000    0.000 
#
# Total GULP energy -89220.023011 kJ/mol
# GULP energy per Si atom -5576.251438 kJ/mol
# Density = 2.302699 g / cm^3
# Si number density = 23.079516 Si / 1000 Ang^3
#
#
#
# Elastic Constant Matrix: (Units=GPa)
#
#
# Indices 1 2 3 4 5 6 
#
# 1 87.5745 6.7904 21.3253 -5.0168 -14.0042 -12.1952
# 2 6.7904 122.6685 23.4824 -23.8249 4.4442 -23.5425
# 3 21.3253 23.4824 84.2726 -27.9941 19.4563 -4.5941
# 4 -5.0168 -23.8249 -27.9941 39.1646 -5.5210 -0.6078
# 5 -14.0042 4.4442 19.4563 -5.5210 31.1708 -5.3188
# 6 -12.1952 -23.5425 -4.5941 -0.6078 -5.3188 34.1465
#
#
#
# Elastic Compliance Matrix: (Units=1/GPa)
#
#
# Indices 1 2 3 4 5 6 
#
# 1 0.016145 0.001462 -0.007072 -0.000178 0.012760 0.007807
# 2 0.001462 0.011139 -0.001478 0.006403 0.002578 0.008519
# 3 -0.007072 -0.001478 0.020958 0.011079 -0.014563 -0.002796
# 4 -0.000178 0.006403 0.011079 0.037400 -0.000178 0.006479
# 5 0.012760 0.002578 -0.014563 -0.000178 0.048541 0.011933
# 6 0.007807 0.008519 -0.002796 0.006479 0.011933 0.039545
#
#
# Mechanical properties :
#
#
# Convention : Reuss Voigt Hill
#
# Bulk Modulus (GPa) = 29.35569 44.19021 36.77295
# Shear Modulus (GPa) = 25.09279 37.09087 31.09183
#
# Velocity S-wave (km/s) = 3.30090 4.01320 3.67435
# Velocity P-wave (km/s) = 5.22254 6.37675 5.82828
#
# Compressibility (1/GPa) = 0.03406495
#
# Stress axis : x y z
#
# Youngs Moduli (GPa) = 61.93803 89.77399 47.71493
#
# Poissons Ratio (x) = -0.13121 0.33746
# Poissons Ratio (y) = -0.09052 0.07051
# Poissons Ratio (z) = 0.43805 0.13266
#
# Static dielectric constant tensor:
#      x y z
#    x 1.825380 0.055700 -0.059800 
#    y 0.055700 1.851090 0.012740 
#    z -0.059800 0.012740 1.905790 
# 
# From -- ./inp_files/208107.got.cif
#   From: 2010.05.17/outbox.cif.g08.bks.cpg/sg2_105_cif.got.tgz:208107.got - 2010.06.03 11:33:40.
