data_PCOD9040990
_publ_section_title
;
Structure prediction by ZEFSAII (Michael W. Deem and Ramdas Pophale) SiO2 
 PCOD9040990
Probable space group: P -1
;
_chemical_formula_sum "Si O2"
_cell_formula_units_Z 12
_cell_length_a 12.701272
_cell_length_b 9.736023
_cell_length_c 12.022959
_cell_angle_alpha 121.124142
_cell_angle_beta 41.459854
_cell_angle_gamma 145.464258
_cell_volume 537.704445
_symmetry_space_group_name_H-M "P -1"
_symmetry_group_IT_number 2
_symmetry_cell_setting 'triclinic'
loop_
_space_group_symop_operation_xyz
x,y,z
-x,-y,-z
loop_
_atom_site_type_symbol
_atom_site_label
_atom_site_fract_x
_atom_site_fract_y
_atom_site_fract_z
Si Si1 0.292497 0.712455 0.876923
Si Si2 0.621301 0.671698 0.583592
Si Si3 0.191021 0.642602 0.164013
Si Si4 0.055929 0.257977 0.468935
Si Si5 0.338674 0.921788 0.704839
Si Si6 0.433133 0.626379 0.146369
O O1 0.412697 0.633643 0.773868
O O2 0.408416 0.864301 0.732720
O O3 0.292760 0.790879 0.030202
O O4 0.000000 0.500000 0.000000
O O5 0.500000 0.500000 0.500000
O O6 0.718231 0.624393 0.580414
O O7 0.867689 0.964463 0.479546
O O8 0.389428 0.699262 0.102729
O O9 0.089735 0.712949 0.343994
O O10 0.949311 0.340775 0.205380
O O11 0.171502 0.408828 0.326731
O O12 0.500000 0.000000 0.500000
O O13 0.390686 0.139170 0.807382
O O14 0.500000 0.500000 0.000000
#
# Coordination Sequence:
#
# PCOD9040990 Si02
#       6
#     2   2   2   2   2   2
#     4  10  23  43  70 102 134 183 235 282 342 419
#     4  11  24  41  67  97 139 178 225 288 346 407
#     4  11  24  45  71  99 138 183 236 282 348 414
#     4  11  25  42  67 104 134 182 237 282 346 418
#     4  11  24  43  73  99 137 186 229 278 349 414
#     4  12  27  43  69 104 142 180 233 293 347 412
#
# _framework density 22.317094000000001
#
# number of rings (size 3 to 8) (size 9 to 14) (size 15 to 20)
#    0.000    1.000    1.667    4.500    2.333    8.667 
#    0.000    0.000    0.000    0.000    0.000    0.000 
#    0.000    0.000    0.000    0.000    0.000    0.000 
#
# Total GULP energy -66997.000032 kJ/mol
# GULP energy per Si atom -5583.083336 kJ/mol
# Density = 2.226630 g / cm^3
# Si number density = 22.317094 Si / 1000 Ang^3
#
#
#
# Elastic Constant Matrix: (Units=GPa)
#
#
# Indices 1 2 3 4 5 6 
#
# 1 131.0399 48.7485 50.8403 -3.4872 10.8001 1.5737
# 2 48.7485 126.7856 20.3982 16.8239 16.7695 30.3812
# 3 50.8403 20.3982 121.2469 19.5889 28.3362 -6.2081
# 4 -3.4872 16.8239 19.5889 31.3697 -7.6010 0.5126
# 5 10.8001 16.7695 28.3362 -7.6010 50.6369 -3.4768
# 6 1.5737 30.3812 -6.2081 0.5126 -3.4768 50.4338
#
#
#
# Elastic Compliance Matrix: (Units=1/GPa)
#
#
# Indices 1 2 3 4 5 6 
#
# 1 0.012507 -0.006429 -0.006857 0.010295 0.005042 0.002882
# 2 -0.006429 0.014539 0.003729 -0.012643 -0.008013 -0.008523
# 3 -0.006857 0.003729 0.015360 -0.014925 -0.010658 -0.000725
# 4 0.010295 -0.012643 -0.014925 0.053579 0.018812 0.006210
# 5 0.005042 -0.008013 -0.010658 0.018812 0.030477 0.005268
# 6 0.002882 -0.008523 -0.000725 0.006210 0.005268 0.025083
#
#
# Mechanical properties :
#
#
# Convention : Reuss Voigt Hill
#
# Bulk Modulus (GPa) = 42.93191 68.78294 55.85742
# Shear Modulus (GPa) = 28.02316 43.76045 35.89181
#
# Velocity S-wave (km/s) = 3.54740 4.43295 4.01467
# Velocity P-wave (km/s) = 6.00481 7.55573 6.82447
#
# Compressibility (1/GPa) = 0.02329270
#
# Stress axis : x y z
#
# Youngs Moduli (GPa) = 79.95502 68.77940 65.10246
#
# Poissons Ratio (x) = 0.44219 0.44639
# Poissons Ratio (y) = 0.51404 -0.24276
# Poissons Ratio (z) = 0.54823 -0.25647
#
# Static dielectric constant tensor:
#      x y z
#    x 1.874960 -0.033730 0.031370 
#    y -0.033730 1.956470 0.010420 
#    z 0.031370 0.010420 1.769430 
# 
# From -- ./inp_files/261266.got.cif
#   From: 2010.05.17/outbox.cif.g08.bks.cpg/sg2_131_cif.got.tgz:261266.got - 2010.06.03 11:33:40.
