data_PCOD9040410
_publ_section_title
;
Structure prediction by ZEFSAII (Michael W. Deem and Ramdas Pophale) SiO2 
 PCOD9040410
Probable space group: P -1
;
_chemical_formula_sum "Si O2"
_cell_formula_units_Z 14
_cell_length_a 11.736470
_cell_length_b 8.702646
_cell_length_c 9.167450
_cell_angle_alpha 49.604347
_cell_angle_beta 77.474085
_cell_angle_gamma 60.147270
_cell_volume 610.515507
_symmetry_space_group_name_H-M "P -1"
_symmetry_group_IT_number 2
_symmetry_cell_setting 'triclinic'
loop_
_space_group_symop_operation_xyz
x,y,z
-x,-y,-z
loop_
_atom_site_type_symbol
_atom_site_label
_atom_site_fract_x
_atom_site_fract_y
_atom_site_fract_z
Si Si1 0.289751 0.095248 0.910401
Si Si2 0.646422 0.552538 0.236019
Si Si3 0.390517 0.582290 0.274455
Si Si4 0.910517 0.975809 0.169760
Si Si5 0.870828 0.732252 0.849023
Si Si6 0.860844 0.203829 0.565392
Si Si7 0.714883 0.517634 0.912599
O O1 0.375462 0.227457 0.796646
O O2 0.177318 0.137086 0.796401
O O3 0.215621 0.181592 0.032273
O O4 0.373819 0.823068 0.068023
O O5 0.542405 0.462352 0.359992
O O6 0.799651 0.369193 0.343370
O O7 0.638078 0.588938 0.042674
O O8 0.265258 0.670265 0.364459
O O9 0.629634 0.552872 0.770247
O O10 0.009711 0.833745 0.359382
O O11 0.812233 0.242815 0.068994
O O12 0.000000 0.000000 0.000000
O O13 0.889360 0.949276 0.670078
O O14 0.796199 0.658129 0.796837
O O15 0.000000 0.500000 0.000000
#
# Coordination Sequence:
#
# PCOD9040410 Si02
#       7
#     2   2   2   2   2   2   2
#     4   9  20  34  59  82 105 151 185 223 269 334
#     4  11  23  37  52  90 117 139 183 234 282 310
#     4  10  20  40  61  75 110 159 190 212 261 348
#     4  11  17  37  61  82 107 144 194 221 271 339
#     4  10  17  33  56  82 105 144 187 219 272 339
#     4  11  22  35  60  83 115 144 179 238 276 322
#     4  10  20  35  60  82 106 148 189 227 269 325
#
# _framework density 22.931441
#
# number of rings (size 3 to 8) (size 9 to 14) (size 15 to 20)
#    0.000    1.714    5.714    1.286    0.000    1.143 
#    0.000    3.571    0.000    0.000    0.000    0.000 
#    0.000    0.000    0.000    0.000    0.000    0.000 
#
# Total GULP energy -78157.260087 kJ/mol
# GULP energy per Si atom -5582.661435 kJ/mol
# Density = 2.287925 g / cm^3
# Si number density = 22.931441 Si / 1000 Ang^3
#
#
#
# Elastic Constant Matrix: (Units=GPa)
#
#
# Indices 1 2 3 4 5 6 
#
# 1 131.3281 44.6851 -0.9122 9.9088 16.5392 39.0191
# 2 44.6851 81.6775 3.4115 3.2623 -0.1795 24.8824
# 3 -0.9122 3.4115 27.8868 -0.1186 6.7433 9.8535
# 4 9.9088 3.2623 -0.1186 22.5661 1.4026 -2.2970
# 5 16.5392 -0.1795 6.7433 1.4026 27.7100 -2.3065
# 6 39.0191 24.8824 9.8535 -2.2970 -2.3065 49.5542
#
#
#
# Elastic Compliance Matrix: (Units=1/GPa)
#
#
# Indices 1 2 3 4 5 6 
#
# 1 0.014507 -0.004538 0.007781 -0.006146 -0.011228 -0.011499
# 2 -0.004538 0.016090 -0.001341 -0.000940 0.002841 -0.004151
# 3 0.007781 -0.001341 0.045838 -0.003510 -0.016922 -0.015519
# 4 -0.006146 -0.000940 -0.003510 0.047807 0.002792 0.008355
# 5 -0.011228 0.002841 -0.016922 0.002792 0.047878 0.013137
# 6 -0.011499 -0.004151 -0.015519 0.008355 0.013137 0.035403
#
#
# Mechanical properties :
#
#
# Convention : Reuss Voigt Hill
#
# Bulk Modulus (GPa) = 12.46257 37.25125 24.85691
# Shear Modulus (GPa) = 21.69533 32.87993 27.28763
#
# Velocity S-wave (km/s) = 3.07920 3.79071 3.45333
# Velocity P-wave (km/s) = 4.25306 5.95308 5.17338
#
# Compressibility (1/GPa) = 0.08024026
#
# Stress axis : x y z
#
# Youngs Moduli (GPa) = 68.93398 62.14990 21.81588
#
# Poissons Ratio (x) = 0.28202 -0.16976
# Poissons Ratio (y) = 0.31280 0.02926
# Poissons Ratio (z) = -0.53640 0.08335
#
# Static dielectric constant tensor:
#      x y z
#    x 1.941980 -0.026600 -0.015050 
#    y -0.026600 1.848350 0.017430 
#    z -0.015050 0.017430 1.915830 
# 
# From -- ./inp_files/169400.got.cif
#   From: 2010.05.17/outbox.cif.g08.bks.cpg/sg2_85_cif.got.tgz:169400.got - 2010.06.03 11:33:40.
