data_PCOD9040448
_publ_section_title
;
Structure prediction by ZEFSAII (Michael W. Deem and Ramdas Pophale) SiO2 
 PCOD9040448
Probable space group: P -1
;
_chemical_formula_sum "Si O2"
_cell_formula_units_Z 16
_cell_length_a 9.669756
_cell_length_b 5.925107
_cell_length_c 15.504632
_cell_angle_alpha 50.954768
_cell_angle_beta 89.991550
_cell_angle_gamma 74.075761
_cell_volume 645.465089
_symmetry_space_group_name_H-M "P -1"
_symmetry_group_IT_number 2
_symmetry_cell_setting 'triclinic'
loop_
_space_group_symop_operation_xyz
x,y,z
-x,-y,-z
loop_
_atom_site_type_symbol
_atom_site_label
_atom_site_fract_x
_atom_site_fract_y
_atom_site_fract_z
Si Si1 0.915555 0.656818 0.211536
Si Si2 0.972305 0.677956 0.547235
Si Si3 0.708928 0.293734 0.080913
Si Si4 0.351951 0.553810 0.768267
Si Si5 0.647577 0.315911 0.891980
Si Si6 0.769585 0.841308 0.726386
Si Si7 0.656081 0.045723 0.498099
Si Si8 0.153625 0.212319 0.073751
O O1 0.782695 0.568609 0.193605
O O2 0.918634 0.572348 0.331348
O O3 0.071036 0.417892 0.236177
O O4 0.867476 0.024609 0.124832
O O5 0.000000 0.500000 0.500000
O O6 0.799895 0.746230 0.549067
O O7 0.000000 0.000000 0.500000
O O8 0.660886 0.254568 0.187553
O O9 0.614524 0.275955 0.001350
O O10 0.731662 0.617224 0.990535
O O11 0.340411 0.721798 0.635587
O O12 0.663525 0.645328 0.791132
O O13 0.514712 0.299834 0.837367
O O14 0.805928 0.062219 0.928743
O O15 0.807422 0.948403 0.793600
O O16 0.696439 0.083804 0.590347
O O17 0.500000 0.000000 0.500000
O O18 0.000000 0.500000 0.000000
#
# Coordination Sequence:
#
# PCOD9040448 Si02
#       8
#     2   2   2   2   2   2   2   2
#     4  11  24  41  69 101 138 185 236 297 359 443
#     4  11  24  48  75 109 148 200 256 309 372 454
#     4  11  24  41  68  97 136 184 232 298 362 436
#     4  12  24  43  68 100 139 182 238 295 372 435
#     4  11  24  43  66 100 137 180 236 297 362 440
#     4  10  23  43  67 100 135 183 235 288 362 440
#     4  11  23  48  72 104 150 193 248 310 382 453
#     4  11  23  44  69  98 138 181 235 293 362 434
#
# _framework density 24.788328
#
# number of rings (size 3 to 8) (size 9 to 14) (size 15 to 20)
#    0.000    1.000    2.500    4.125    0.000    6.000 
#    9.000    1.250    0.000    0.000    0.000    0.000 
#    0.000    0.000    0.000    0.000    0.000    0.000 
#
# Total GULP energy -89225.542456 kJ/mol
# GULP energy per Si atom -5576.596404 kJ/mol
# Density = 2.473191 g / cm^3
# Si number density = 24.788328 Si / 1000 Ang^3
#
#
#
# Elastic Constant Matrix: (Units=GPa)
#
#
# Indices 1 2 3 4 5 6 
#
# 1 129.6033 15.8433 19.0685 4.2009 12.6952 -4.9707
# 2 15.8433 92.5231 60.6540 29.2935 1.7077 -10.0168
# 3 19.0685 60.6540 171.4732 35.5614 11.5693 6.7267
# 4 4.2009 29.2935 35.5614 48.1747 -0.5927 -0.2347
# 5 12.6952 1.7077 11.5693 -0.5927 39.9764 -1.0948
# 6 -4.9707 -10.0168 6.7267 -0.2347 -1.0948 31.5608
#
#
#
# Elastic Compliance Matrix: (Units=1/GPa)
#
#
# Indices 1 2 3 4 5 6 
#
# 1 0.008173 -0.001008 -0.000478 0.000228 -0.002384 0.000988
# 2 -0.001008 0.016865 -0.004805 -0.006577 0.001062 0.006206
# 3 -0.000478 -0.004805 0.008586 -0.003420 -0.002275 -0.003534
# 4 0.000228 -0.006577 -0.003420 0.027276 0.001573 -0.001065
# 5 -0.002384 0.001062 -0.002275 0.001573 0.026446 0.001376
# 6 0.000988 0.006206 -0.003534 -0.001065 0.001376 0.034603
#
#
# Mechanical properties :
#
#
# Convention : Reuss Voigt Hill
#
# Bulk Modulus (GPa) = 47.51880 64.97014 56.24447
# Shear Modulus (GPa) = 35.32472 43.81130 39.56801
#
# Velocity S-wave (km/s) = 3.77909 4.20863 3.99963
# Velocity P-wave (km/s) = 6.18494 7.06283 6.63841
#
# Compressibility (1/GPa) = 0.02104430
#
# Stress axis : x y z
#
# Youngs Moduli (GPa) = 122.34910 59.29447 116.47090
#
# Poissons Ratio (x) = 0.05975 0.05564
# Poissons Ratio (y) = 0.12328 0.55959
# Poissons Ratio (z) = 0.05845 0.28488
#
# Static dielectric constant tensor:
#      x y z
#    x 2.015710 0.028770 -0.006700 
#    y 0.028770 2.116110 0.033250 
#    z -0.006700 0.033250 1.978030 
# 
# From -- ./inp_files/434118.got.cif
#   From: 2010.05.17/outbox.cif.g08.bks.cpg/sg2_218_cif.got.tgz:434118.got - 2010.06.03 11:33:40.
