data_PCOD9040184
_publ_section_title
;
Structure prediction by ZEFSAII (Michael W. Deem and Ramdas Pophale) SiO2 
 PCOD9040184
Probable space group: P -1
;
_chemical_formula_sum "Si O2"
_cell_formula_units_Z 16
_cell_length_a 6.479180
_cell_length_b 22.684379
_cell_length_c 9.721670
_cell_angle_alpha 147.027723
_cell_angle_beta 58.380922
_cell_angle_gamma 112.083759
_cell_volume 655.874481
_symmetry_space_group_name_H-M "P -1"
_symmetry_group_IT_number 2
_symmetry_cell_setting 'triclinic'
loop_
_space_group_symop_operation_xyz
x,y,z
-x,-y,-z
loop_
_atom_site_type_symbol
_atom_site_label
_atom_site_fract_x
_atom_site_fract_y
_atom_site_fract_z
Si Si1 0.254452 0.078164 0.282964
Si Si2 0.261105 0.487354 0.817244
Si Si3 0.730419 0.067806 0.542813
Si Si4 0.641167 0.722879 0.517984
Si Si5 0.282396 0.422900 0.069646
Si Si6 0.649787 0.794243 0.218957
Si Si7 0.172234 0.784149 0.957280
Si Si8 0.758860 0.421647 0.260174
O O1 0.222933 0.174261 0.366161
O O2 0.314231 0.136074 0.519418
O O3 0.998898 0.030540 0.308884
O O4 0.500000 0.000000 0.000000
O O5 0.289961 0.354949 0.524962
O O6 0.225754 0.593446 0.937685
O O7 0.513112 0.500457 0.831102
O O8 0.000000 0.500000 0.000000
O O9 0.605544 0.167546 0.687659
O O10 0.500000 0.000000 0.500000
O O11 0.772442 0.113965 0.769952
O O12 0.680076 0.644249 0.216940
O O13 0.357107 0.766817 0.732630
O O14 0.320094 0.330317 0.990331
O O15 0.004457 0.480517 0.302214
O O16 0.885882 0.804599 0.062229
O O17 0.214817 0.678912 0.841974
O O18 0.500000 0.500000 0.500000
#
# Coordination Sequence:
#
# PCOD9040184 Si02
#       8
#     2   2   2   2   2   2   2   2
#     4  10  25  45  69  93 136 168 217 280 326 389
#     4  12  24  40  67  94 135 173 218 270 320 390
#     4  11  25  44  70  97 125 173 219 267 339 395
#     4  11  23  43  65  97 127 176 217 269 329 382
#     4  10  23  43  64  92 133 172 221 263 326 392
#     4   9  22  44  66  92 129 174 213 267 329 391
#     4  10  23  44  64  96 136 165 217 272 322 397
#     4  11  22  42  63  96 132 177 216 266 329 381
#
# _framework density 24.394911
#
# number of rings (size 3 to 8) (size 9 to 14) (size 15 to 20)
#    0.000    1.500    2.500    1.875    5.250    2.000 
#    4.500    0.000    0.000    0.000    0.000    0.000 
#    0.000    0.000    0.000    0.000    0.000    0.000 
#
# Total GULP energy -89119.959676 kJ/mol
# GULP energy per Si atom -5569.997480 kJ/mol
# Density = 2.433939 g / cm^3
# Si number density = 24.394911 Si / 1000 Ang^3
#
#
#
# Elastic Constant Matrix: (Units=GPa)
#
#
# Indices 1 2 3 4 5 6 
#
# 1 82.7606 31.2000 30.1193 -10.4309 -29.1646 29.1445
# 2 31.2000 146.1671 44.5148 -5.8359 -11.7179 32.4915
# 3 30.1193 44.5148 101.7508 -25.3963 -30.7383 27.9245
# 4 -10.4309 -5.8359 -25.3963 45.5398 5.5722 -16.4842
# 5 -29.1646 -11.7179 -30.7383 5.5722 39.1227 -7.2329
# 6 29.1445 32.4915 27.9245 -16.4842 -7.2329 48.5029
#
#
#
# Elastic Compliance Matrix: (Units=1/GPa)
#
#
# Indices 1 2 3 4 5 6 
#
# 1 0.020743 -0.001504 0.001711 0.000024 0.014454 -0.010278
# 2 -0.001504 0.008894 -0.003365 -0.002400 -0.001529 -0.004160
# 3 0.001711 -0.003365 0.017372 0.006435 0.012116 -0.004782
# 4 0.000024 -0.002400 0.006435 0.027775 0.001804 0.007597
# 5 0.014454 -0.001529 0.012116 0.001804 0.043754 -0.007499
# 6 -0.010278 -0.004160 -0.004782 0.007597 -0.007499 0.033797
#
#
# Mechanical properties :
#
#
# Convention : Reuss Voigt Hill
#
# Bulk Modulus (GPa) = 24.57429 60.26075 42.41752
# Shear Modulus (GPa) = 29.03338 41.62271 35.32805
#
# Velocity S-wave (km/s) = 3.45358 4.13510 3.80961
# Velocity P-wave (km/s) = 5.09886 6.89598 6.06436
#
# Compressibility (1/GPa) = 0.04069294
#
# Stress axis : x y z
#
# Youngs Moduli (GPa) = 48.20814 112.43872 57.56308
#
# Poissons Ratio (x) = 0.16916 -0.09848
# Poissons Ratio (y) = 0.07253 0.19368
# Poissons Ratio (z) = -0.08248 0.37831
#
# Static dielectric constant tensor:
#      x y z
#    x 1.684110 0.184760 0.091130 
#    y 0.184760 1.908570 -0.081620 
#    z 0.091130 -0.081620 2.017890 
# 
# From -- ./inp_files/355982.got.cif
#   From: 2010.05.17/outbox.cif.g08.bks.cpg/sg2_178_cif.got.tgz:355982.got - 2010.06.03 11:33:40.
