data_PCOD9040885
_publ_section_title
;
Structure prediction by ZEFSAII (Michael W. Deem and Ramdas Pophale) SiO2 
 PCOD9040885
Probable space group: P -1
;
_chemical_formula_sum "Si O2"
_cell_formula_units_Z 16
_cell_length_a 8.430096
_cell_length_b 9.430764
_cell_length_c 14.358870
_cell_angle_alpha 104.539330
_cell_angle_beta 114.829226
_cell_angle_gamma 120.672119
_cell_volume 715.522972
_symmetry_space_group_name_H-M "P -1"
_symmetry_group_IT_number 2
_symmetry_cell_setting 'triclinic'
loop_
_space_group_symop_operation_xyz
x,y,z
-x,-y,-z
loop_
_atom_site_type_symbol
_atom_site_label
_atom_site_fract_x
_atom_site_fract_y
_atom_site_fract_z
Si Si1 0.996500 0.671500 0.518888
Si Si2 0.471181 0.111010 0.675177
Si Si3 0.546633 0.468455 0.111427
Si Si4 0.811450 0.997835 0.005152
Si Si5 0.005633 0.422503 0.773025
Si Si6 0.453912 0.419763 0.677254
Si Si7 0.763912 0.285282 0.953587
Si Si8 0.924085 0.683652 0.712191
O O1 0.761247 0.592268 0.393263
O O2 0.966012 0.731933 0.622166
O O3 0.000000 0.500000 0.500000
O O4 0.256093 0.869414 0.572094
O O5 0.738570 0.230794 0.717740
O O6 0.379095 0.206572 0.621577
O O7 0.535060 0.170663 0.810264
O O8 0.443231 0.502618 0.178831
O O9 0.840254 0.629022 0.223795
O O10 0.500000 0.500000 0.000000
O O11 0.417998 0.238636 0.066841
O O12 0.902236 0.119853 0.145292
O O13 0.776013 0.119196 0.950936
O O14 0.000000 0.000000 0.000000
O O15 0.965164 0.532973 0.711344
O O16 0.200807 0.610248 0.924107
O O17 0.659232 0.561413 0.672175
O O18 0.000000 0.500000 0.000000
#
# Coordination Sequence:
#
# PCOD9040885 Si02
#       8
#     2   2   2   2   2   2   2   2
#     4  12  27  45  72 103 133 184 243 293 343 416
#     4  10  23  43  69  92 134 186 229 283 354 410
#     4  12  26  40  68 109 149 180 236 291 355 425
#     4  11  24  40  70 109 144 181 230 291 362 428
#     4   9  21  41  64  97 137 180 224 285 344 417
#     4  11  24  48  66  99 143 182 232 291 347 426
#     4   9  20  38  67  96 136 180 227 278 360 415
#     4  10  23  45  71  98 140 183 228 290 356 410
#
# _framework density 22.361269
#
# number of rings (size 3 to 8) (size 9 to 14) (size 15 to 20)
#    0.000    1.500    1.250    3.000   10.500    1.000 
#    0.000    6.875    0.000    0.000    0.000    0.000 
#    0.000    0.000    0.000    0.000    0.000    0.000 
#
# Total GULP energy -89236.855133 kJ/mol
# GULP energy per Si atom -5577.303446 kJ/mol
# Density = 2.231037 g / cm^3
# Si number density = 22.361269 Si / 1000 Ang^3
#
#
#
# Elastic Constant Matrix: (Units=GPa)
#
#
# Indices 1 2 3 4 5 6 
#
# 1 102.7156 43.6328 16.0403 -8.4280 11.7379 7.0414
# 2 43.6328 124.8023 15.6844 19.9752 11.0290 -3.4405
# 3 16.0403 15.6844 42.0074 -8.6482 4.9827 -0.3527
# 4 -8.4280 19.9752 -8.6482 42.1354 4.9564 -3.9871
# 5 11.7379 11.0290 4.9827 4.9564 39.4854 -7.9598
# 6 7.0414 -3.4405 -0.3527 -3.9871 -7.9598 32.2490
#
#
#
# Elastic Compliance Matrix: (Units=1/GPa)
#
#
# Indices 1 2 3 4 5 6 
#
# 1 0.013156 -0.004893 -0.001838 0.004650 -0.003650 -0.003741
# 2 -0.004893 0.011368 -0.003797 -0.007009 -0.000089 0.001351
# 3 -0.001838 -0.003797 0.027800 0.007512 -0.002732 0.000555
# 4 0.004650 -0.007009 0.007512 0.030091 -0.003934 0.001068
# 5 -0.003650 -0.000089 -0.002732 -0.003934 0.028760 0.007370
# 6 -0.003741 0.001351 0.000555 0.001068 0.007370 0.033927
#
#
# Mechanical properties :
#
#
# Convention : Reuss Voigt Hill
#
# Bulk Modulus (GPa) = 31.98180 46.69334 39.33757
# Shear Modulus (GPa) = 28.31559 35.71847 32.01703
#
# Velocity S-wave (km/s) = 3.56234 4.00101 3.78803
# Velocity P-wave (km/s) = 5.59050 6.50159 6.06319
#
# Compressibility (1/GPa) = 0.03126778
#
# Stress axis : x y z
#
# Youngs Moduli (GPa) = 76.00877 87.96948 35.97124
#
# Poissons Ratio (x) = 0.43047 0.06611
# Poissons Ratio (y) = 0.37195 0.13658
# Poissons Ratio (z) = 0.13969 0.33400
#
# Static dielectric constant tensor:
#      x y z
#    x 4.289650 -3.660760 0.739290 
#    y -3.660760 7.576120 -1.283700 
#    z 0.739290 -1.283700 2.143130 
# 
# From -- ./inp_files/495285.got.cif
#   From: 2010.05.17/outbox.cif.g08.bks.cpg/sg2_248_cif.got.tgz:495285.got - 2010.06.03 11:33:40.
