data_PCOD9040777
_publ_section_title
;
Structure prediction by ZEFSAII (Michael W. Deem and Ramdas Pophale) SiO2 
 PCOD9040777
Probable space group: P -1
;
_chemical_formula_sum "Si O2"
_cell_formula_units_Z 14
_cell_length_a 7.066026
_cell_length_b 12.840190
_cell_length_c 20.900450
_cell_angle_alpha 34.391644
_cell_angle_beta 147.553563
_cell_angle_gamma 127.973753
_cell_volume 553.712468
_symmetry_space_group_name_H-M "P -1"
_symmetry_group_IT_number 2
_symmetry_cell_setting 'triclinic'
loop_
_space_group_symop_operation_xyz
x,y,z
-x,-y,-z
loop_
_atom_site_type_symbol
_atom_site_label
_atom_site_fract_x
_atom_site_fract_y
_atom_site_fract_z
Si Si1 0.147525 0.417917 0.856362
Si Si2 0.631437 0.663534 0.828111
Si Si3 0.605100 0.383721 0.463714
Si Si4 0.890331 0.991801 0.807234
Si Si5 0.656598 0.175408 0.467336
Si Si6 0.505710 0.012345 0.824400
Si Si7 0.393186 0.732379 0.157861
O O1 0.381631 0.569096 0.849621
O O2 0.766666 0.498368 0.665800
O O3 0.960141 0.357742 0.896790
O O4 0.405743 0.209885 0.016767
O O5 0.705442 0.859323 0.777281
O O6 0.412820 0.703184 0.678412
O O7 0.000000 0.500000 0.000000
O O8 0.444817 0.270673 0.421252
O O9 0.702172 0.541384 0.362596
O O10 0.864374 0.206088 0.665682
O O11 0.693942 0.026914 0.802516
O O12 0.303262 0.860935 0.004608
O O13 0.500000 0.000000 0.500000
O O14 0.078679 0.105549 0.642954
O O15 0.627995 0.131530 0.855471
#
# Coordination Sequence:
#
# PCOD9040777 Si02
#       7
#     2   2   2   2   2   2   2
#     4   9  22  42  67  96 133 171 223 269 334 392
#     4  12  25  41  68 102 135 174 225 274 341 394
#     4  10  23  43  68  99 133 179 218 278 331 397
#     4  11  22  42  71  96 134 175 222 276 332 398
#     4  12  25  43  66  98 140 168 222 278 334 391
#     4  11  24  44  71  96 133 180 219 281 324 399
#     4   9  23  46  68  97 135 173 231 268 330 395
#
# _framework density 25.283881000000001
#
# number of rings (size 3 to 8) (size 9 to 14) (size 15 to 20)
#    0.857    0.571    1.429    4.286    2.000    4.571 
#    2.571    0.714    0.000    0.000    0.000    0.000 
#    0.000    0.000    0.000    0.000    0.000    0.000 
#
# Total GULP energy -77971.795325 kJ/mol
# GULP energy per Si atom -5569.413952 kJ/mol
# Density = 2.522633 g / cm^3
# Si number density = 25.283881 Si / 1000 Ang^3
#
#
#
# Elastic Constant Matrix: (Units=GPa)
#
#
# Indices 1 2 3 4 5 6 
#
# 1 67.7456 10.5658 16.8422 1.5954 -18.2161 2.1286
# 2 10.5658 90.3469 45.1307 -17.5380 -22.9910 8.7870
# 3 16.8422 45.1307 237.7122 -12.3496 -13.6489 4.6729
# 4 1.5954 -17.5380 -12.3496 47.5206 4.7168 -7.4774
# 5 -18.2161 -22.9910 -13.6489 4.7168 24.0446 -7.2494
# 6 2.1286 8.7870 4.6729 -7.4774 -7.2494 41.5181
#
#
#
# Elastic Compliance Matrix: (Units=1/GPa)
#
#
# Indices 1 2 3 4 5 6 
#
# 1 0.019131 0.001999 -0.000889 -0.001578 0.016605 0.001311
# 2 0.001999 0.016620 -0.002208 0.003971 0.015383 0.000030
# 3 -0.000889 -0.002208 0.004701 0.000461 -0.000197 0.000032
# 4 -0.001578 0.003971 0.000461 0.023265 -0.000720 0.003253
# 5 0.016605 0.015383 -0.000197 -0.000720 0.071395 0.008252
# 6 0.001311 0.000030 0.000032 0.003253 0.008252 0.026035
#
#
# Mechanical properties :
#
#
# Convention : Reuss Voigt Hill
#
# Bulk Modulus (GPa) = 26.14041 60.09799 43.11920
# Shear Modulus (GPa) = 28.39348 44.16775 36.28061
#
# Velocity S-wave (km/s) = 3.35474 4.18410 3.79216
# Velocity P-wave (km/s) = 5.03655 6.86754 6.02204
#
# Compressibility (1/GPa) = 0.03825495
#
# Stress axis : x y z
#
# Youngs Moduli (GPa) = 52.27042 60.16816 212.72129
#
# Poissons Ratio (x) = -0.12025 0.18916
# Poissons Ratio (y) = -0.10447 0.46970
# Poissons Ratio (z) = 0.04648 0.13285
#
# Static dielectric constant tensor:
#      x y z
#    x 2.067660 -0.032570 -0.044160 
#    y -0.032570 1.959950 -0.103980 
#    z -0.044160 -0.103980 1.980870 
# 
# From -- ./inp_files/237399.got.cif
#   From: 2010.05.17/outbox.cif.g08.bks.cpg/sg2_119_cif.got.tgz:237399.got - 2010.06.03 11:33:40.
