data_PCOD9040684
_publ_section_title
;
Structure prediction by ZEFSAII (Michael W. Deem and Ramdas Pophale) SiO2 
 PCOD9040684
Probable space group: P -1
;
_chemical_formula_sum "Si O2"
_cell_formula_units_Z 14
_cell_length_a 5.729383
_cell_length_b 14.058305
_cell_length_c 10.103140
_cell_angle_alpha 69.043757
_cell_angle_beta 91.883201
_cell_angle_gamma 57.341337
_cell_volume 612.819372
_symmetry_space_group_name_H-M "P -1"
_symmetry_group_IT_number 2
_symmetry_cell_setting 'triclinic'
loop_
_space_group_symop_operation_xyz
x,y,z
-x,-y,-z
loop_
_atom_site_type_symbol
_atom_site_label
_atom_site_fract_x
_atom_site_fract_y
_atom_site_fract_z
Si Si1 0.256727 0.956722 0.692759
Si Si2 0.645796 0.867844 0.995526
Si Si3 0.104644 0.806429 0.861807
Si Si4 0.605687 0.568571 0.549382
Si Si5 0.866175 0.194588 0.414056
Si Si6 0.678986 0.553981 0.025844
Si Si7 0.764315 0.628620 0.255250
O O1 0.035254 0.944389 0.782702
O O2 0.282351 0.872876 0.609566
O O3 0.510288 0.906535 0.826182
O O4 0.117465 0.094841 0.566972
O O5 0.629866 0.767641 0.126595
O O6 0.982185 0.794309 0.999753
O O7 0.500000 0.000000 0.000000
O O8 0.009629 0.787205 0.726855
O O9 0.450323 0.701760 0.912630
O O10 0.500000 0.500000 0.500000
O O11 0.364455 0.675969 0.585927
O O12 0.675504 0.631948 0.403071
O O13 0.888080 0.462452 0.687766
O O14 0.694499 0.557275 0.183820
O O15 0.500000 0.500000 0.000000
O O16 0.000000 0.500000 0.000000
#
# Coordination Sequence:
#
# PCOD9040684 Si02
#       7
#     2   2   2   2   2   2   2
#     4   9  22  44  65 104 134 189 246 304 378 440
#     4  12  27  43  73 108 149 197 247 318 392 457
#     4  10  23  43  68 106 138 191 250 303 383 446
#     4  11  27  46  73 100 145 203 248 320 389 447
#     4   9  21  45  69  94 143 183 250 311 367 459
#     4  12  26  44  79 108 151 201 249 322 386 461
#     4  11  27  47  64 111 145 188 266 305 385 471
#
# _framework density 22.845231999999999
#
# number of rings (size 3 to 8) (size 9 to 14) (size 15 to 20)
#    0.857    0.571    1.429    1.714   10.000    1.143 
#    2.571    0.000    0.000    0.000    0.000    0.000 
#    0.000    0.000    0.000    0.000    0.000    0.000 
#
# Total GULP energy -78002.033799 kJ/mol
# GULP energy per Si atom -5571.573843 kJ/mol
# Density = 2.279324 g / cm^3
# Si number density = 22.845232 Si / 1000 Ang^3
#
#
#
# Elastic Constant Matrix: (Units=GPa)
#
#
# Indices 1 2 3 4 5 6 
#
# 1 70.8053 50.8033 27.4870 6.9816 6.2472 -0.7985
# 2 50.8033 146.7277 51.7801 6.0465 1.0651 -4.0882
# 3 27.4870 51.7801 103.1390 -12.3408 16.6580 -8.4416
# 4 6.9816 6.0465 -12.3408 36.0572 -5.0534 2.3317
# 5 6.2472 1.0651 16.6580 -5.0534 39.5375 8.1544
# 6 -0.7985 -4.0882 -8.4416 2.3317 8.1544 22.4774
#
#
#
# Elastic Compliance Matrix: (Units=1/GPa)
#
#
# Indices 1 2 3 4 5 6 
#
# 1 0.019878 -0.005831 -0.002452 -0.004061 -0.002479 0.000045
# 2 -0.005831 0.010387 -0.004297 -0.001713 0.002358 -0.000609
# 3 -0.002452 -0.004297 0.014648 0.004900 -0.006369 0.006435
# 4 -0.004061 -0.001713 0.004900 0.031131 0.003224 -0.003015
# 5 -0.002479 0.002358 -0.006369 0.003224 0.031570 -0.013839
# 6 0.000045 -0.000609 0.006435 -0.003015 -0.013839 0.052130
#
#
# Mechanical properties :
#
#
# Convention : Reuss Voigt Hill
#
# Bulk Modulus (GPa) = 50.62207 64.53476 57.57841
# Shear Modulus (GPa) = 26.11127 32.32120 29.21624
#
# Velocity S-wave (km/s) = 3.38444 3.76545 3.58002
# Velocity P-wave (km/s) = 6.12204 6.87130 6.50747
#
# Compressibility (1/GPa) = 0.01975423
#
# Stress axis : x y z
#
# Youngs Moduli (GPa) = 50.30567 96.27443 68.26939
#
# Poissons Ratio (x) = 0.56136 0.16741
# Poissons Ratio (y) = 0.29332 0.29332
# Poissons Ratio (z) = 0.12336 0.41365
#
# Static dielectric constant tensor:
#      x y z
#    x 1.908350 0.045250 0.125950 
#    y 0.045250 1.834610 -0.041060 
#    z 0.125950 -0.041060 1.751320 
# 
# From -- ./inp_files/133015.got.cif
#   From: 2010.05.17/outbox.cif.g08.bks.cpg/sg2_67_cif.got.tgz:133015.got - 2010.06.03 11:33:40.
