data_PCOD9040773
_publ_section_title
;
Structure prediction by ZEFSAII (Michael W. Deem and Ramdas Pophale) SiO2 
 PCOD9040773
Probable space group: P -1
;
_chemical_formula_sum "Si O2"
_cell_formula_units_Z 16
_cell_length_a 11.947808
_cell_length_b 14.126881
_cell_length_c 5.834682
_cell_angle_alpha 74.892761
_cell_angle_beta 96.822330
_cell_angle_gamma 49.753294
_cell_volume 668.319754
_symmetry_space_group_name_H-M "P -1"
_symmetry_group_IT_number 2
_symmetry_cell_setting 'triclinic'
loop_
_space_group_symop_operation_xyz
x,y,z
-x,-y,-z
loop_
_atom_site_type_symbol
_atom_site_label
_atom_site_fract_x
_atom_site_fract_y
_atom_site_fract_z
Si Si1 0.236241 0.684601 0.288866
Si Si2 0.731417 0.017100 0.889435
Si Si3 0.978245 0.097720 0.246934
Si Si4 0.498963 0.584664 0.756509
Si Si5 0.938097 0.806264 0.429538
Si Si6 0.840802 0.647002 0.455226
Si Si7 0.616975 0.881648 0.908837
Si Si8 0.561880 0.757729 0.612842
O O1 0.334450 0.675833 0.520252
O O2 0.356601 0.532192 0.305448
O O3 0.077178 0.731885 0.319767
O O4 0.178905 0.797315 0.011253
O O5 0.723996 0.910103 0.853816
O O6 0.868923 0.995711 0.820096
O O7 0.562009 0.163473 0.680545
O O8 0.789559 0.962133 0.198031
O O9 0.988899 0.191990 0.329313
O O10 0.000000 0.000000 0.500000
O O11 0.526401 0.678726 0.785332
O O12 0.500000 0.500000 0.000000
O O13 0.882493 0.730509 0.497314
O O14 0.738920 0.653963 0.617699
O O15 0.000000 0.500000 0.500000
O O16 0.726291 0.735689 0.155221
O O17 0.540333 0.868909 0.690047
O O18 0.500000 0.000000 0.000000
#
# Coordination Sequence:
#
# PCOD9040773 Si02
#       8
#     2   2   2   2   2   2   2   2
#     4  10  24  46  66  99 141 182 243 291 354 421
#     4  10  24  40  67 104 139 179 232 292 352 432
#     4  11  25  40  69 101 140 186 233 290 360 424
#     4  11  26  46  70  98 142 190 239 300 349 422
#     4  10  23  43  68  98 145 179 227 298 359 421
#     4  11  25  45  72 104 140 185 238 297 362 433
#     4  11  24  45  70 106 145 181 237 301 360 434
#     4  12  26  42  76 103 140 189 246 289 367 432
#
# _framework density 23.940636000000001
#
# number of rings (size 3 to 8) (size 9 to 14) (size 15 to 20)
#    0.000    1.250    1.250    2.625    8.750    5.500 
#    0.000    0.000    0.000    0.000    0.000    0.000 
#    0.000    0.000    0.000    0.000    0.000    0.000 
#
# Total GULP energy -89539.272979 kJ/mol
# GULP energy per Si atom -5596.204561 kJ/mol
# Density = 2.388615 g / cm^3
# Si number density = 23.940636 Si / 1000 Ang^3
#
#
#
# Elastic Constant Matrix: (Units=GPa)
#
#
# Indices 1 2 3 4 5 6 
#
# 1 117.3168 22.0786 49.2342 -12.4468 -6.1921 5.2238
# 2 22.0786 72.4436 24.6438 -8.5784 8.8606 -12.6269
# 3 49.2342 24.6438 119.3486 -20.2874 15.3189 6.1299
# 4 -12.4468 -8.5784 -20.2874 29.3235 4.1926 4.5728
# 5 -6.1921 8.8606 15.3189 4.1926 41.7193 -5.4848
# 6 5.2238 -12.6269 6.1299 4.5728 -5.4848 45.6487
#
#
#
# Elastic Compliance Matrix: (Units=1/GPa)
#
#
# Indices 1 2 3 4 5 6 
#
# 1 0.011124 -0.002435 -0.004392 0.000611 0.003590 -0.000986
# 2 -0.002435 0.016599 -0.001930 0.002173 -0.002795 0.004576
# 3 -0.004392 -0.001930 0.012897 0.007896 -0.006205 -0.003300
# 4 0.000611 0.002173 0.007896 0.042551 -0.008307 -0.005790
# 5 0.003590 -0.002795 -0.006205 -0.008307 0.028727 0.003933
# 6 -0.000986 0.004576 -0.003300 -0.005790 0.003933 0.024781
#
#
# Mechanical properties :
#
#
# Convention : Reuss Voigt Hill
#
# Bulk Modulus (GPa) = 43.27811 55.66913 49.47362
# Shear Modulus (GPa) = 30.88439 37.54845 34.21642
#
# Velocity S-wave (km/s) = 3.59561 3.96460 3.78460
# Velocity P-wave (km/s) = 5.94596 6.65288 6.30933
#
# Compressibility (1/GPa) = 0.02310637
#
# Stress axis : x y z
#
# Youngs Moduli (GPa) = 89.89849 60.24404 77.53542
#
# Poissons Ratio (x) = 0.14667 0.34056
# Poissons Ratio (y) = 0.21887 0.14964
# Poissons Ratio (z) = 0.39486 0.11627
#
# Static dielectric constant tensor:
#      x y z
#    x 1.927470 -0.008610 -0.008600 
#    y -0.008610 1.934420 0.022210 
#    z -0.008600 0.022210 1.940820 
# 
# From -- ./inp_files/77394.got.cif
#   From: 2010.05.17/outbox.cif.g08.bks.cpg/sg2_39_cif.got.tgz:77394.got - 2010.06.03 11:33:40.
