data_PCOD9040228
_publ_section_title
;
Structure prediction by ZEFSAII (Michael W. Deem and Ramdas Pophale) SiO2 
 PCOD9040228
Probable space group: P -1
;
_chemical_formula_sum "Si O2"
_cell_formula_units_Z 16
_cell_length_a 5.179775
_cell_length_b 12.723105
_cell_length_c 12.059268
_cell_angle_alpha 60.798539
_cell_angle_beta 83.251711
_cell_angle_gamma 75.537445
_cell_volume 671.743408
_symmetry_space_group_name_H-M "P -1"
_symmetry_group_IT_number 2
_symmetry_cell_setting 'triclinic'
loop_
_space_group_symop_operation_xyz
x,y,z
-x,-y,-z
loop_
_atom_site_type_symbol
_atom_site_label
_atom_site_fract_x
_atom_site_fract_y
_atom_site_fract_z
Si Si1 0.084094 0.630409 0.921336
Si Si2 0.076747 0.007618 0.803034
Si Si3 0.636459 0.853459 0.925631
Si Si4 0.668444 0.542346 0.372606
Si Si5 0.794846 0.933875 0.482458
Si Si6 0.677379 0.433112 0.841100
Si Si7 0.051067 0.350038 0.320482
Si Si8 0.833509 0.762994 0.189407
O O1 0.134328 0.650340 0.779301
O O2 0.831600 0.738121 0.914216
O O3 0.323288 0.615422 0.007415
O O4 0.000000 0.500000 0.000000
O O5 0.334693 0.900122 0.876865
O O6 0.805078 0.959617 0.847469
O O7 0.144323 0.049808 0.657047
O O8 0.065018 0.124124 0.822739
O O9 0.631903 0.819623 0.072733
O O10 0.500000 0.500000 0.500000
O O11 0.539139 0.565263 0.243833
O O12 0.910157 0.427163 0.393268
O O13 0.726433 0.676092 0.327235
O O14 0.835904 0.790377 0.583289
O O15 0.500000 0.000000 0.500000
O O16 0.000000 0.000000 0.500000
O O17 0.740614 0.568631 0.768132
O O18 0.932949 0.336195 0.830069
#
# Coordination Sequence:
#
# PCOD9040228 Si02
#       8
#     2   2   2   2   2   2   2   2
#     4   9  19  44  68  98 134 174 236 288 358 410
#     4  12  26  44  74  99 144 192 235 294 352 420
#     4  11  25  46  70 108 140 185 238 298 350 418
#     4  11  26  41  69 105 143 180 236 292 359 434
#     4  12  28  47  70 103 143 189 244 289 354 427
#     4   9  22  41  68  98 135 175 230 293 355 417
#     4  10  23  43  65 100 137 184 231 292 355 420
#     4  10  25  43  68 102 138 182 238 290 357 429
#
# _framework density 23.818618000000001
#
# number of rings (size 3 to 8) (size 9 to 14) (size 15 to 20)
#    0.000    1.500    0.000    3.750   10.500    1.500 
#    4.500    0.000    0.000    0.000    0.000    0.000 
#    0.000    0.000    0.000    0.000    0.000    0.000 
#
# Total GULP energy -89512.154644 kJ/mol
# GULP energy per Si atom -5594.509665 kJ/mol
# Density = 2.376441 g / cm^3
# Si number density = 23.818618 Si / 1000 Ang^3
#
#
#
# Elastic Constant Matrix: (Units=GPa)
#
#
# Indices 1 2 3 4 5 6 
#
# 1 71.7233 7.3034 14.8383 -8.5319 0.2871 -3.9451
# 2 7.3034 104.4542 45.0246 -30.0138 -7.5092 8.8140
# 3 14.8383 45.0246 118.4788 -18.0045 -7.2067 -6.1052
# 4 -8.5319 -30.0138 -18.0045 42.4512 1.4800 -0.6672
# 5 0.2871 -7.5092 -7.2067 1.4800 37.6079 2.5718
# 6 -3.9451 8.8140 -6.1052 -0.6672 2.5718 27.0194
#
#
#
# Elastic Compliance Matrix: (Units=1/GPa)
#
#
# Indices 1 2 3 4 5 6 
#
# 1 0.014628 0.000097 -0.001435 0.002451 -0.000593 0.001897
# 2 0.000097 0.014466 -0.004428 0.008206 0.002106 -0.005703
# 3 -0.001435 -0.004428 0.010718 0.001152 0.000889 0.003601
# 4 0.002451 0.008206 0.001152 0.030292 0.000743 -0.001382
# 5 -0.000593 0.002106 0.000889 0.000743 0.027372 -0.003160
# 6 0.001897 -0.005703 0.003601 -0.001382 -0.003160 0.040228
#
#
# Mechanical properties :
#
#
# Convention : Reuss Voigt Hill
#
# Bulk Modulus (GPa) = 35.36164 47.66546 41.51355
# Shear Modulus (GPa) = 31.51346 36.58171 34.04758
#
# Velocity S-wave (km/s) = 3.64133 3.92324 3.78491
# Velocity P-wave (km/s) = 5.70592 6.37006 6.04712
#
# Compressibility (1/GPa) = 0.02827923
#
# Stress axis : x y z
#
# Youngs Moduli (GPa) = 68.36374 69.12632 93.30477
#
# Poissons Ratio (x) = -0.00671 0.13388
# Poissons Ratio (y) = -0.00664 0.41319
# Poissons Ratio (z) = 0.09809 0.30612
#
# Static dielectric constant tensor:
#      x y z
#    x 2.007910 0.060930 0.097600 
#    y 0.060930 1.946190 0.082940 
#    z 0.097600 0.082940 1.995270 
# 
# From -- ./inp_files/78785.got.cif
#   From: 2010.05.17/outbox.cif.g08.bks.cpg/sg2_40_cif.got.tgz:78785.got - 2010.06.03 11:33:40.
