data_PCOD9040521
_publ_section_title
;
Structure prediction by ZEFSAII (Michael W. Deem and Ramdas Pophale) SiO2 
 PCOD9040521
Probable space group: P -1
;
_chemical_formula_sum "Si O2"
_cell_formula_units_Z 16
_cell_length_a 12.726682
_cell_length_b 9.535450
_cell_length_c 14.873247
_cell_angle_alpha 73.507838
_cell_angle_beta 29.134301
_cell_angle_gamma 74.078972
_cell_volume 841.253206
_symmetry_space_group_name_H-M "P -1"
_symmetry_group_IT_number 2
_symmetry_cell_setting 'triclinic'
loop_
_space_group_symop_operation_xyz
x,y,z
-x,-y,-z
loop_
_atom_site_type_symbol
_atom_site_label
_atom_site_fract_x
_atom_site_fract_y
_atom_site_fract_z
Si Si1 0.505457 0.711972 0.725197
Si Si2 0.589924 0.830546 0.450144
Si Si3 0.170900 0.059315 0.481587
Si Si4 0.048211 0.349813 0.042803
Si Si5 0.966353 0.164467 0.962081
Si Si6 0.319710 0.918537 0.206427
Si Si7 0.281238 0.749097 0.545154
Si Si8 0.527877 0.372123 0.754439
O O1 0.515871 0.736194 0.605732
O O2 0.689265 0.809083 0.612067
O O3 0.533475 0.538796 0.754430
O O4 0.266005 0.782280 0.913421
O O5 0.846673 0.815946 0.253379
O O6 0.495491 0.767696 0.440510
O O7 0.500000 0.000000 0.500000
O O8 0.913471 0.093603 0.664127
O O9 0.261967 0.010884 0.323868
O O10 0.207854 0.914579 0.541499
O O11 0.887819 0.320471 0.249667
O O12 0.010863 0.241522 0.009044
O O13 0.287324 0.345415 0.904876
O O14 0.000000 0.500000 0.000000
O O15 0.000000 0.000000 0.000000
O O16 0.405719 0.755839 0.201512
O O17 0.500000 0.000000 0.000000
O O18 0.323720 0.656393 0.439937
#
# Coordination Sequence:
#
# PCOD9040521 Si02
#       8
#     2   2   2   2   2   2   2   2
#     4  12  25  40  60  98 133 165 210 258 312 377
#     4  12  21  37  59  91 130 170 209 248 303 369
#     4  10  23  43  67  93 121 158 217 267 318 378
#     4  12  23  38  57  90 133 173 210 251 305 373
#     4  12  23  36  57  87 131 173 212 248 296 367
#     4  10  23  47  71  92 114 161 215 270 328 382
#     4  11  21  39  62  88 127 174 210 256 305 374
#     4  11  25  40  64  93 128 170 213 260 321 370
#
# _framework density 19.019242999999999
#
# number of rings (size 3 to 8) (size 9 to 14) (size 15 to 20)
#    0.000    0.750    6.250    0.750    3.500    2.500 
#    0.000    0.625    0.000    0.000    0.000    0.000 
#    0.000    0.000    0.000    0.000    0.000    0.000 
#
# Total GULP energy -89355.616754 kJ/mol
# GULP energy per Si atom -5584.726047 kJ/mol
# Density = 1.897595 g / cm^3
# Si number density = 19.019243 Si / 1000 Ang^3
#
#
#
# Elastic Constant Matrix: (Units=GPa)
#
#
# Indices 1 2 3 4 5 6 
#
# 1 78.4805 50.8730 40.4647 -2.6301 -25.7284 -5.9781
# 2 50.8730 158.0235 59.6003 -4.9048 -17.0514 -0.5287
# 3 40.4647 59.6003 155.3034 -2.3128 -9.1412 -13.1645
# 4 -2.6301 -4.9048 -2.3128 21.2556 -5.1308 -3.9854
# 5 -25.7284 -17.0514 -9.1412 -5.1308 40.2067 -1.3936
# 6 -5.9781 -0.5287 -13.1645 -3.9854 -1.3936 27.1337
#
#
#
# Elastic Compliance Matrix: (Units=1/GPa)
#
#
# Indices 1 2 3 4 5 6 
#
# 1 0.021501 -0.004416 -0.002720 0.005146 0.012087 0.004708
# 2 -0.004416 0.008682 -0.002292 0.000975 0.000399 -0.001752
# 3 -0.002720 -0.002292 0.008287 0.000522 -0.000643 0.003420
# 4 0.005146 0.000975 0.000522 0.052394 0.010846 0.009659
# 5 0.012087 0.000399 -0.000643 0.010846 0.034211 0.005709
# 6 0.004708 -0.001752 0.003420 0.009659 0.005709 0.041229
#
#
# Mechanical properties :
#
#
# Convention : Reuss Voigt Hill
#
# Bulk Modulus (GPa) = 50.98505 77.07592 64.03048
# Shear Modulus (GPa) = 26.08284 33.77716 29.93000
#
# Velocity S-wave (km/s) = 3.70725 4.21877 3.97125
# Velocity P-wave (km/s) = 6.72237 8.02147 7.40048
#
# Compressibility (1/GPa) = 0.01961359
#
# Stress axis : x y z
#
# Youngs Moduli (GPa) = 46.51002 115.18613 120.67029
#
# Poissons Ratio (x) = 0.50868 0.32824
# Poissons Ratio (y) = 0.20540 0.27653
# Poissons Ratio (z) = 0.12651 0.26396
#
# Static dielectric constant tensor:
#      x y z
#    x 1.645340 -0.003680 -0.019850 
#    y -0.003680 1.640310 0.047520 
#    z -0.019850 0.047520 1.607220 
# 
# From -- ./inp_files/306221.got.cif
#   From: 2010.05.17/outbox.cif.g08.bks.cpg/sg2_154_cif.got.tgz:306221.got - 2010.06.03 11:33:40.
