data_PCOD9040714
_publ_section_title
;
Structure prediction by ZEFSAII (Michael W. Deem and Ramdas Pophale) SiO2 
 PCOD9040714
Probable space group: P -1
;
_chemical_formula_sum "Si O2"
_cell_formula_units_Z 16
_cell_length_a 15.587032
_cell_length_b 28.030954
_cell_length_c 9.101292
_cell_angle_alpha 145.266356
_cell_angle_beta 133.663274
_cell_angle_gamma 19.337458
_cell_volume 669.725315
_symmetry_space_group_name_H-M "P -1"
_symmetry_group_IT_number 2
_symmetry_cell_setting 'triclinic'
loop_
_space_group_symop_operation_xyz
x,y,z
-x,-y,-z
loop_
_atom_site_type_symbol
_atom_site_label
_atom_site_fract_x
_atom_site_fract_y
_atom_site_fract_z
Si Si1 0.585066 0.344392 0.336261
Si Si2 0.609546 0.006071 0.548044
Si Si3 0.217082 0.536846 0.099195
Si Si4 0.400742 0.608507 0.007323
Si Si5 0.744231 0.085047 0.057979
Si Si6 0.133251 0.411007 0.594394
Si Si7 0.267921 0.168595 0.278995
Si Si8 0.232024 0.000840 0.815646
O O1 0.373148 0.454266 0.230059
O O2 0.470650 0.500139 0.679544
O O3 0.910013 0.144655 0.148991
O O4 0.624865 0.247434 0.261159
O O5 0.578966 0.115710 0.860699
O O6 0.951922 0.769338 0.338392
O O7 0.500000 0.000000 0.500000
O O8 0.435832 0.107725 0.451202
O O9 0.438212 0.411570 0.908654
O O10 0.083229 0.529817 0.919756
O O11 0.500000 0.500000 0.000000
O O12 0.058211 0.843251 0.210009
O O13 0.711250 0.089601 0.201892
O O14 0.044659 0.380502 0.487571
O O15 0.000000 0.500000 0.500000
O O16 0.482423 0.184417 0.414093
O O17 0.170506 0.138575 0.135284
O O18 0.500000 0.000000 0.000000
#
# Coordination Sequence:
#
# PCOD9040714 Si02
#       8
#     2   2   2   2   2   2   2   2
#     4  11  25  46  70 101 142 181 230 289 344 414
#     4  12  24  43  70 100 135 183 233 280 347 420
#     4  12  25  47  71 100 143 184 231 289 353 409
#     4  12  28  43  72 106 139 186 232 290 350 415
#     4  11  23  44  72  99 139 182 229 287 347 408
#     4  11  27  45  70 103 143 182 233 290 347 413
#     4  10  23  43  68  94 135 182 223 280 346 401
#     4  11  24  45  70 100 140 179 234 289 344 415
#
# _framework density 23.890391000000001
#
# number of rings (size 3 to 8) (size 9 to 14) (size 15 to 20)
#    0.000    0.750    3.750    3.375    7.000    2.500 
#    0.000    1.250    0.000    0.000    0.000    0.000 
#    0.000    0.000    0.000    0.000    0.000    0.000 
#
# Total GULP energy -89594.790859 kJ/mol
# GULP energy per Si atom -5599.674429 kJ/mol
# Density = 2.383602 g / cm^3
# Si number density = 23.890391 Si / 1000 Ang^3
#
#
#
# Elastic Constant Matrix: (Units=GPa)
#
#
# Indices 1 2 3 4 5 6 
#
# 1 104.7104 12.4934 5.2918 -0.4897 9.1296 17.7801
# 2 12.4934 82.0424 -9.7831 -5.1250 -7.3379 12.7230
# 3 5.2918 -9.7831 58.3433 -5.1797 15.3842 2.6661
# 4 -0.4897 -5.1250 -5.1797 39.4667 -1.2006 -10.1223
# 5 9.1296 -7.3379 15.3842 -1.2006 42.2537 2.9036
# 6 17.7801 12.7230 2.6661 -10.1223 2.9036 52.3221
#
#
#
# Elastic Compliance Matrix: (Units=1/GPa)
#
#
# Indices 1 2 3 4 5 6 
#
# 1 0.010482 -0.001410 -0.000574 -0.001032 -0.002105 -0.003273
# 2 -0.001410 0.013343 0.002056 0.001350 0.002099 -0.002726
# 3 -0.000574 0.002056 0.019498 0.002505 -0.006516 -0.000452
# 4 -0.001032 0.001350 0.002505 0.027148 -0.000037 0.005149
# 5 -0.002105 0.002099 -0.006516 -0.000037 0.026923 -0.000964
# 6 -0.003273 -0.002726 -0.000452 0.005149 -0.000964 0.021960
#
#
# Mechanical properties :
#
#
# Convention : Reuss Voigt Hill
#
# Bulk Modulus (GPa) = 23.00553 29.01114 26.00834
# Shear Modulus (GPa) = 37.39728 42.61477 40.00603
#
# Velocity S-wave (km/s) = 3.96077 4.22804 4.09659
# Velocity P-wave (km/s) = 5.52878 6.00041 5.76942
#
# Compressibility (1/GPa) = 0.04346781
#
# Stress axis : x y z
#
# Youngs Moduli (GPa) = 95.40358 74.94309 51.28758
#
# Poissons Ratio (x) = 0.10566 0.02944
# Poissons Ratio (y) = 0.13450 -0.10546
# Poissons Ratio (z) = 0.05477 -0.15410
#
# Static dielectric constant tensor:
#      x y z
#    x 1.899740 -0.042140 0.011670 
#    y -0.042140 1.881600 0.026990 
#    z 0.011670 0.026990 1.934190 
# 
# From -- ./inp_files/320750.got.cif
#   From: 2010.05.17/outbox.cif.g08.bks.cpg/sg2_161_cif.got.tgz:320750.got - 2010.06.03 11:33:40.
