data_PCOD9040761
_publ_section_title
;
Structure prediction by ZEFSAII (Michael W. Deem and Ramdas Pophale) SiO2 
 PCOD9040761
Probable space group: P -1
;
_chemical_formula_sum "Si O2"
_cell_formula_units_Z 16
_cell_length_a 11.639148
_cell_length_b 8.701701
_cell_length_c 19.122373
_cell_angle_alpha 147.646660
_cell_angle_beta 43.971031
_cell_angle_gamma 123.605287
_cell_volume 711.793751
_symmetry_space_group_name_H-M "P -1"
_symmetry_group_IT_number 2
_symmetry_cell_setting 'triclinic'
loop_
_space_group_symop_operation_xyz
x,y,z
-x,-y,-z
loop_
_atom_site_type_symbol
_atom_site_label
_atom_site_fract_x
_atom_site_fract_y
_atom_site_fract_z
Si Si1 0.073347 0.589201 0.662746
Si Si2 0.478669 0.836208 0.019198
Si Si3 0.627347 0.835913 0.669091
Si Si4 0.247253 0.694786 0.307822
Si Si5 0.713602 0.344013 0.269087
Si Si6 0.445897 0.002114 0.444029
Si Si7 0.751786 0.604671 0.096841
Si Si8 0.916020 0.200221 0.991208
O O1 0.237281 0.453255 0.496198
O O2 0.150507 0.640748 0.724653
O O3 0.943344 0.359315 0.629712
O O4 0.972051 0.903855 0.809670
O O5 0.425501 0.053321 0.188482
O O6 0.646118 0.615603 0.876662
O O7 0.339454 0.624815 0.992081
O O8 0.500000 0.000000 0.000000
O O9 0.455017 0.784032 0.687960
O O10 0.708392 0.069016 0.676837
O O11 0.316643 0.794470 0.390528
O O12 0.642742 0.675369 0.408426
O O13 0.803125 0.177199 0.099208
O O14 0.616943 0.879006 0.281439
O O15 0.500000 0.000000 0.500000
O O16 0.910541 0.692787 0.021939
O O17 0.818648 0.442727 0.076600
#
# Coordination Sequence:
#
# PCOD9040761 Si02
#       8
#     2   2   2   2   2   2   2   2
#     4  12  26  45  69 105 147 175 239 287 352 419
#     4  11  25  45  72  99 143 186 240 282 355 415
#     4  12  26  44  72 102 141 189 234 291 349 421
#     4  11  26  46  72 103 143 183 234 292 353 418
#     4  12  25  43  72 101 142 184 237 282 359 411
#     4  11  23  44  74 101 138 182 234 290 350 417
#     4  10  23  43  68  98 137 180 238 281 350 419
#     4  11  24  43  66 101 139 185 227 293 345 414
#
# _framework density 22.47842
#
# number of rings (size 3 to 8) (size 9 to 14) (size 15 to 20)
#    0.000    0.750    2.500    4.500    7.000    0.000 
#    0.000    1.250    0.000    0.000    0.000    0.000 
#    0.000    0.000    0.000    0.000    0.000    0.000 
#
# Total GULP energy -89531.614392 kJ/mol
# GULP energy per Si atom -5595.725900 kJ/mol
# Density = 2.242726 g / cm^3
# Si number density = 22.478420 Si / 1000 Ang^3
#
#
#
# Elastic Constant Matrix: (Units=GPa)
#
#
# Indices 1 2 3 4 5 6 
#
# 1 97.5752 40.8155 45.7050 -15.9767 3.9915 18.0594
# 2 40.8155 81.4564 33.0336 -4.9449 -2.1089 25.2346
# 3 45.7050 33.0336 152.4600 -0.2115 1.5662 -3.6876
# 4 -15.9767 -4.9449 -0.2115 28.6880 -1.7254 -13.6099
# 5 3.9915 -2.1089 1.5662 -1.7254 41.0657 -4.9123
# 6 18.0594 25.2346 -3.6876 -13.6099 -4.9123 43.4192
#
#
#
# Elastic Compliance Matrix: (Units=1/GPa)
#
#
# Indices 1 2 3 4 5 6 
#
# 1 0.015723 -0.005573 -0.003519 0.006909 -0.001583 -0.001613
# 2 -0.005573 0.019159 -0.002744 -0.004811 0.000167 -0.010539
# 3 -0.003519 -0.002744 0.008292 -0.000651 0.000287 0.003591
# 4 0.006909 -0.004811 -0.000651 0.044772 0.002687 0.014205
# 5 -0.001583 0.000167 0.000287 0.002687 0.025126 0.004270
# 6 -0.001613 -0.010539 0.003591 0.014205 0.004270 0.035068
#
#
# Mechanical properties :
#
#
# Convention : Reuss Voigt Hill
#
# Bulk Modulus (GPa) = 51.27827 63.39996 57.33912
# Shear Modulus (GPa) = 28.04085 36.76375 32.40230
#
# Velocity S-wave (km/s) = 3.53577 4.04854 3.80081
# Velocity P-wave (km/s) = 6.28734 7.07956 6.69518
#
# Compressibility (1/GPa) = 0.01950144
#
# Stress axis : x y z
#
# Youngs Moduli (GPa) = 63.60293 52.19526 120.60468
#
# Poissons Ratio (x) = 0.29088 0.42441
# Poissons Ratio (y) = 0.35445 0.33091
# Poissons Ratio (z) = 0.22382 0.14321
#
# Static dielectric constant tensor:
#      x y z
#    x 1.841390 0.008510 -0.011280 
#    y 0.008510 1.842960 0.013730 
#    z -0.011280 0.013730 1.818600 
# 
# From -- ./inp_files/594301.got.cif
#   From: 2010.05.17/outbox.cif.g08.bks.cpg/sg2_298_cif.got.tgz:594301.got - 2010.06.03 11:33:40.
