data_PCOD9040563
_publ_section_title
;
Structure prediction by ZEFSAII (Michael W. Deem and Ramdas Pophale) SiO2 
 PCOD9040563
Probable space group: P -1
;
_chemical_formula_sum "Si O2"
_cell_formula_units_Z 14
_cell_length_a 11.945794
_cell_length_b 7.963365
_cell_length_c 10.503007
_cell_angle_alpha 93.983876
_cell_angle_beta 134.455442
_cell_angle_gamma 68.254707
_cell_volume 634.648299
_symmetry_space_group_name_H-M "P -1"
_symmetry_group_IT_number 2
_symmetry_cell_setting 'triclinic'
loop_
_space_group_symop_operation_xyz
x,y,z
-x,-y,-z
loop_
_atom_site_type_symbol
_atom_site_label
_atom_site_fract_x
_atom_site_fract_y
_atom_site_fract_z
Si Si1 0.730680 0.212109 0.883466
Si Si2 0.650575 0.796152 0.068509
Si Si3 0.963378 0.266591 0.563437
Si Si4 0.445954 0.368721 0.242318
Si Si5 0.626560 0.577173 0.272556
Si Si6 0.654129 0.048525 0.581020
Si Si7 0.975142 0.899649 0.672224
O O1 0.696342 0.421237 0.822141
O O2 0.536878 0.250149 0.782198
O O3 0.765710 0.070937 0.788192
O O4 0.870452 0.153959 0.104554
O O5 0.841413 0.779127 0.244223
O O6 0.636693 0.642218 0.142786
O O7 0.630060 0.748565 0.904498
O O8 0.500000 0.000000 0.000000
O O9 0.961288 0.229669 0.408615
O O10 0.819356 0.481304 0.483024
O O11 0.923742 0.111445 0.594959
O O12 0.567553 0.412510 0.240468
O O13 0.554657 0.249274 0.441065
O O14 0.500000 0.000000 0.500000
O O15 0.799291 0.905412 0.592534
#
# Coordination Sequence:
#
# PCOD9040563 Si02
#       7
#     2   2   2   2   2   2   2
#     4  10  24  43  70  90 136 181 220 263 330 399
#     4  12  24  38  67 105 135 168 220 277 332 394
#     4  11  24  39  70 100 139 165 216 278 341 398
#     4  10  24  43  66  94 134 177 216 266 340 389
#     4  10  23  43  67  96 139 174 212 266 350 393
#     4  12  26  45  69  97 129 180 234 274 315 386
#     4  11  23  43  67 101 130 176 216 276 341 389
#
# _framework density 22.059463000000001
#
# number of rings (size 3 to 8) (size 9 to 14) (size 15 to 20)
#    0.857    0.286    1.429    4.286   10.000    0.000 
#    0.000    0.714    0.000    0.000    0.000    0.000 
#    0.000    0.000    0.000    0.000    0.000    0.000 
#
# Total GULP energy -78172.935871 kJ/mol
# GULP energy per Si atom -5583.781134 kJ/mol
# Density = 2.200925 g / cm^3
# Si number density = 22.059463 Si / 1000 Ang^3
#
#
#
# Elastic Constant Matrix: (Units=GPa)
#
#
# Indices 1 2 3 4 5 6 
#
# 1 102.3607 22.2252 22.7403 -7.7184 13.8948 2.7394
# 2 22.2252 53.5214 25.7864 -7.3183 6.9369 -0.6691
# 3 22.7403 25.7864 97.4677 -1.2934 14.2879 2.9817
# 4 -7.7184 -7.3183 -1.2934 38.1674 -5.5874 6.1442
# 5 13.8948 6.9369 14.2879 -5.5874 20.9304 -6.5088
# 6 2.7394 -0.6691 2.9817 6.1442 -6.5088 22.6468
#
#
#
# Elastic Compliance Matrix: (Units=1/GPa)
#
#
# Indices 1 2 3 4 5 6 
#
# 1 0.011849 -0.003563 -0.000647 0.001270 -0.007098 -0.003838
# 2 -0.003563 0.023217 -0.005189 0.003344 -0.000678 0.000698
# 3 -0.000647 -0.005189 0.013106 -0.001283 -0.008337 -0.003849
# 4 0.001270 0.003344 -0.001283 0.028755 0.004623 -0.006359
# 5 -0.007098 -0.000678 -0.008337 0.004623 0.065726 0.019572
# 6 -0.003838 0.000698 -0.003849 -0.006359 0.019572 0.052498
#
#
# Mechanical properties :
#
#
# Convention : Reuss Voigt Hill
#
# Bulk Modulus (GPa) = 34.04283 43.87263 38.95773
# Shear Modulus (GPa) = 22.34732 28.52210 25.43471
#
# Velocity S-wave (km/s) = 3.18630 3.59968 3.39928
# Velocity P-wave (km/s) = 5.38539 6.09988 5.75373
#
# Compressibility (1/GPa) = 0.02937476
#
# Stress axis : x y z
#
# Youngs Moduli (GPa) = 84.39786 43.07112 76.29865
#
# Poissons Ratio (x) = 0.15346 0.04937
# Poissons Ratio (y) = 0.30070 0.39590
# Poissons Ratio (z) = 0.05461 0.22349
#
# Static dielectric constant tensor:
#      x y z
#    x 1.850790 0.000970 0.022770 
#    y 0.000970 1.789570 -0.003890 
#    z 0.022770 -0.003890 1.780840 
# 
# From -- ./inp_files/244758.got.cif
#   From: 2010.05.17/outbox.cif.g08.bks.cpg/sg2_123_cif.got.tgz:244758.got - 2010.06.03 11:33:40.
