data_PCOD9040055
_publ_section_title
;
Structure prediction by ZEFSAII (Michael W. Deem and Ramdas Pophale) SiO2 
 PCOD9040055
Probable space group: P -1
;
_chemical_formula_sum "Si O2"
_cell_formula_units_Z 12
_cell_length_a 10.553626
_cell_length_b 5.154977
_cell_length_c 13.273678
_cell_angle_alpha 95.459739
_cell_angle_beta 44.962049
_cell_angle_gamma 112.043304
_cell_volume 456.698534
_symmetry_space_group_name_H-M "P -1"
_symmetry_group_IT_number 2
_symmetry_cell_setting 'triclinic'
loop_
_space_group_symop_operation_xyz
x,y,z
-x,-y,-z
loop_
_atom_site_type_symbol
_atom_site_label
_atom_site_fract_x
_atom_site_fract_y
_atom_site_fract_z
Si Si1 0.235515 0.626228 0.888368
Si Si2 0.131206 0.945349 0.648002
Si Si3 0.531384 0.709885 0.895913
Si Si4 0.400237 0.197671 0.691171
Si Si5 0.103911 0.723112 0.263732
Si Si6 0.226838 0.320011 0.431233
O O1 0.309215 0.422009 0.777440
O O2 0.334184 0.950755 0.802979
O O3 0.000000 0.500000 0.000000
O O4 0.998907 0.872116 0.256609
O O5 0.977337 0.611687 0.727085
O O6 0.303487 0.042762 0.636595
O O7 0.227291 0.059076 0.488800
O O8 0.672482 0.647774 0.731726
O O9 0.666495 0.052827 0.852148
O O10 0.500000 0.500000 0.000000
O O11 0.327291 0.641333 0.948519
O O12 0.635279 0.396705 0.570482
O O13 0.998569 0.726612 0.430859
#
# Coordination Sequence:
#
# PCOD9040055 Si02
#       6
#     2   2   2   2   2   2
#     4  11  27  48  76 105 154 202 252 309 375 448
#     4  10  23  42  76 110 151 185 249 305 385 435
#     4  11  26  51  75 111 153 202 254 307 375 455
#     4  11  23  45  75 112 148 191 258 311 375 440
#     4  10  24  43  75 107 155 189 246 306 384 440
#     4   9  24  43  76 110 148 196 248 312 371 446
#
# _framework density 26.275538999999998
#
# number of rings (size 3 to 8) (size 9 to 14) (size 15 to 20)
#    1.000    0.667    0.000    2.500    7.000    4.000 
#    6.000    4.167    0.000    0.000    0.000    0.000 
#    0.000    0.000    0.000    0.000    0.000    0.000 
#
# Total GULP energy -67249.908810 kJ/mol
# GULP energy per Si atom -5604.159068 kJ/mol
# Density = 2.621573 g / cm^3
# Si number density = 26.275539 Si / 1000 Ang^3
#
#
#
# Elastic Constant Matrix: (Units=GPa)
#
#
# Indices 1 2 3 4 5 6 
#
# 1 152.6337 62.0266 49.4823 -39.5213 -0.7255 40.1023
# 2 62.0266 196.4632 43.8064 -44.0557 -0.6829 16.2192
# 3 49.4823 43.8064 139.2634 -47.1290 -11.6874 20.4405
# 4 -39.5213 -44.0557 -47.1290 46.7822 2.9650 -1.8794
# 5 -0.7255 -0.6829 -11.6874 2.9650 46.3875 10.3222
# 6 40.1023 16.2192 20.4405 -1.8794 10.3222 53.4458
#
#
#
# Elastic Compliance Matrix: (Units=1/GPa)
#
#
# Indices 1 2 3 4 5 6 
#
# 1 0.011227 -0.001037 0.000656 0.008730 0.001630 -0.008368
# 2 -0.001037 0.006734 0.000409 0.005823 0.000089 -0.001235
# 3 0.000656 0.000409 0.012282 0.012867 0.003521 -0.005542
# 4 0.008730 0.005823 0.012867 0.046502 0.003212 -0.012224
# 5 0.001630 0.000089 0.003521 0.003212 0.023844 -0.007089
# 6 -0.008368 -0.001235 -0.005542 -0.012224 -0.007089 0.028423
#
#
# Mechanical properties :
#
#
# Convention : Reuss Voigt Hill
#
# Bulk Modulus (GPa) = 33.00226 88.77675 60.88950
# Shear Modulus (GPa) = 35.95727 51.52612 43.74169
#
# Velocity S-wave (km/s) = 3.70330 4.43311 4.08454
# Velocity P-wave (km/s) = 5.55637 7.75007 6.74302
#
# Compressibility (1/GPa) = 0.03030096
#
# Stress axis : x y z
#
# Youngs Moduli (GPa) = 89.07148 148.49946 81.41960
#
# Poissons Ratio (x) = 0.15396 -0.05344
# Poissons Ratio (y) = 0.09234 -0.03333
# Poissons Ratio (z) = -0.05847 -0.06078
#
# Static dielectric constant tensor:
#      x y z
#    x 2.062610 -0.005220 -0.060580 
#    y -0.005220 2.047110 0.117110 
#    z -0.060580 0.117110 2.175550 
# 
# From -- ./inp_files/525977.got.cif
#   From: 2010.05.17/outbox.cif.g08.bks.cpg/sg2_263_cif.got.tgz:525977.got - 2010.06.03 11:33:40.
