data_PCOD9040486
_publ_section_title
;
Structure prediction by ZEFSAII (Michael W. Deem and Ramdas Pophale) SiO2 
 PCOD9040486
Probable space group: P -1
;
_chemical_formula_sum "Si O2"
_cell_formula_units_Z 12
_cell_length_a 7.020880
_cell_length_b 9.539322
_cell_length_c 19.185799
_cell_angle_alpha 144.661799
_cell_angle_beta 51.274232
_cell_angle_gamma 106.837869
_cell_volume 505.764701
_symmetry_space_group_name_H-M "P -1"
_symmetry_group_IT_number 2
_symmetry_cell_setting 'triclinic'
loop_
_space_group_symop_operation_xyz
x,y,z
-x,-y,-z
loop_
_atom_site_type_symbol
_atom_site_label
_atom_site_fract_x
_atom_site_fract_y
_atom_site_fract_z
Si Si1 0.507112 0.412309 0.601621
Si Si2 0.303316 0.119652 0.756495
Si Si3 0.177075 0.729558 0.165520
Si Si4 0.876605 0.616421 0.844317
Si Si5 0.546896 0.927709 0.771424
Si Si6 0.716464 0.275318 0.654106
O O1 0.629277 0.610741 0.631553
O O2 0.625264 0.290669 0.601486
O O3 0.169464 0.605882 0.760604
O O4 0.570980 0.165770 0.433292
O O5 0.475648 0.269582 0.753295
O O6 0.985363 0.277993 0.868238
O O7 0.351434 0.048681 0.797309
O O8 0.052998 0.638609 0.221153
O O9 0.197037 0.010481 0.275133
O O10 0.500000 0.500000 0.000000
O O11 0.761185 0.533772 0.769496
O O12 0.637646 0.892929 0.047720
O O13 0.000000 0.000000 0.500000
#
# Coordination Sequence:
#
# PCOD9040486 Si02
#       6
#     2   2   2   2   2   2
#     4  12  26  44  71 102 139 180 230 289 341 403
#     4  12  24  44  74 100 137 185 229 282 343 410
#     4  10  23  43  67 103 136 177 227 277 340 406
#     4  11  23  45  71  99 136 183 232 278 340 412
#     4  11  27  44  67 105 142 176 229 286 349 403
#     4  12  24  43  74 102 135 181 237 281 335 416
#
# _framework density 23.726447
#
# number of rings (size 3 to 8) (size 9 to 14) (size 15 to 20)
#    0.000    0.667    5.000    2.500    0.000    8.000 
#    0.000    0.000    0.000    0.000    0.000    0.000 
#    0.000    0.000    0.000    0.000    0.000    0.000 
#
# Total GULP energy -67226.787189 kJ/mol
# GULP energy per Si atom -5602.232266 kJ/mol
# Density = 2.367244 g / cm^3
# Si number density = 23.726447 Si / 1000 Ang^3
#
#
#
# Elastic Constant Matrix: (Units=GPa)
#
#
# Indices 1 2 3 4 5 6 
#
# 1 117.6991 -2.9747 19.7681 -1.1048 -1.8122 6.1189
# 2 -2.9747 60.7053 -6.6534 12.8125 -8.3744 27.7919
# 3 19.7681 -6.6534 66.0389 -6.5367 3.2038 -4.5835
# 4 -1.1048 12.8125 -6.5367 24.0641 -1.2010 4.0245
# 5 -1.8122 -8.3744 3.2038 -1.2010 43.6898 -3.5553
# 6 6.1189 27.7919 -4.5835 4.0245 -3.5553 38.6461
#
#
#
# Elastic Compliance Matrix: (Units=1/GPa)
#
#
# Indices 1 2 3 4 5 6 
#
# 1 0.009176 0.001703 -0.002882 -0.000753 0.000663 -0.002880
# 2 0.001703 0.028199 -0.000320 -0.011658 0.003629 -0.019038
# 3 -0.002882 -0.000320 0.016583 0.004133 -0.001111 0.002121
# 4 -0.000753 -0.011658 0.004133 0.048153 -0.000928 0.003893
# 5 0.000663 0.003629 -0.001111 -0.000928 0.023621 -0.000577
# 6 -0.002880 -0.019038 0.002121 0.003893 -0.000577 0.039816
#
#
# Mechanical properties :
#
#
# Convention : Reuss Voigt Hill
#
# Bulk Modulus (GPa) = 19.62344 29.41370 24.51857
# Shear Modulus (GPa) = 26.94942 36.90024 31.92483
#
# Velocity S-wave (km/s) = 3.37388 3.94793 3.67214
# Velocity P-wave (km/s) = 4.84418 5.76241 5.32313
#
# Compressibility (1/GPa) = 0.05095947
#
# Stress axis : x y z
#
# Youngs Moduli (GPa) = 108.97824 35.46271 60.30221
#
# Poissons Ratio (x) = -0.06038 0.17378
# Poissons Ratio (y) = -0.18555 0.01930
# Poissons Ratio (z) = 0.31406 0.01135
#
# Static dielectric constant tensor:
#      x y z
#    x 1.871080 0.015500 0.026910 
#    y 0.015500 1.861940 0.025880 
#    z 0.026910 0.025880 1.973670 
# 
# From -- ./inp_files/38161.got.cif
#   From: 2010.05.17/outbox.cif.g08.bks.cpg/sg2_20_cif.got.tgz:38161.got - 2010.06.03 11:33:40.
