data_PCOD9040383
_publ_section_title
;
Structure prediction by ZEFSAII (Michael W. Deem and Ramdas Pophale) SiO2 
 PCOD9040383
Probable space group: P -1
;
_chemical_formula_sum "Si O2"
_cell_formula_units_Z 12
_cell_length_a 9.180427
_cell_length_b 4.905119
_cell_length_c 14.854907
_cell_angle_alpha 109.315427
_cell_angle_beta 133.088442
_cell_angle_gamma 81.301525
_cell_volume 458.305964
_symmetry_space_group_name_H-M "P -1"
_symmetry_group_IT_number 2
_symmetry_cell_setting 'triclinic'
loop_
_space_group_symop_operation_xyz
x,y,z
-x,-y,-z
loop_
_atom_site_type_symbol
_atom_site_label
_atom_site_fract_x
_atom_site_fract_y
_atom_site_fract_z
Si Si1 0.222755 0.120718 0.137943
Si Si2 0.903652 0.671129 0.197711
Si Si3 0.264889 0.254526 0.569654
Si Si4 0.310086 0.760632 0.302880
Si Si5 0.188455 0.842256 0.657520
Si Si6 0.696778 0.033683 0.027033
O O1 0.247731 0.465986 0.188137
O O2 0.277554 0.019457 0.249118
O O3 0.354276 0.987587 0.102062
O O4 0.000000 0.000000 0.000000
O O5 0.827088 0.335481 0.139119
O O6 0.144403 0.737632 0.308932
O O7 0.796148 0.877389 0.241428
O O8 0.827945 0.774444 0.080119
O O9 0.452458 0.236724 0.580956
O O10 0.300095 0.552613 0.676049
O O11 0.047007 0.273500 0.437363
O O12 0.233252 0.978059 0.592250
O O13 0.500000 0.000000 0.000000
#
# Coordination Sequence:
#
# PCOD9040383 Si02
#       6
#     2   2   2   2   2   2
#     4  12  23  43  62  89 131 169 205 258 306 375
#     4  12  24  43  63  95 128 164 210 264 309 368
#     4  10  23  43  66  95 121 167 208 255 323 376
#     4  12  24  40  68  93 124 170 212 252 315 373
#     4  10  23  43  66  92 130 158 207 266 313 374
#     4  12  27  41  61  94 128 169 211 256 312 365
#
# _framework density 26.183385000000001
#
# number of rings (size 3 to 8) (size 9 to 14) (size 15 to 20)
#    0.000    0.667    3.333    4.000    7.000    0.667 
#    0.000    0.000    0.000   10.000    0.000    0.000 
#    0.000    0.000    0.000    0.000    0.000    0.000 
#
# Total GULP energy -67199.079727 kJ/mol
# GULP energy per Si atom -5599.923311 kJ/mol
# Density = 2.612379 g / cm^3
# Si number density = 26.183385 Si / 1000 Ang^3
#
#
#
# Elastic Constant Matrix: (Units=GPa)
#
#
# Indices 1 2 3 4 5 6 
#
# 1 156.3059 35.4809 3.2786 1.4428 29.7652 -17.8257
# 2 35.4809 114.7913 5.8792 10.8240 16.8421 1.4226
# 3 3.2786 5.8792 37.0446 9.5185 20.3765 -1.3388
# 4 1.4428 10.8240 9.5185 34.7293 -7.9851 2.7557
# 5 29.7652 16.8421 20.3765 -7.9851 50.3409 0.0235
# 6 -17.8257 1.4226 -1.3388 2.7557 0.0235 41.3836
#
#
#
# Elastic Compliance Matrix: (Units=1/GPa)
#
#
# Indices 1 2 3 4 5 6 
#
# 1 0.008389 -0.001648 0.003876 -0.002686 -0.006406 0.003978
# 2 -0.001648 0.010111 0.001732 -0.004376 -0.003804 -0.000708
# 3 0.003876 0.001732 0.044446 -0.018704 -0.023831 0.004307
# 4 -0.002686 -0.004376 -0.018704 0.039622 0.016910 -0.004260
# 5 -0.006406 -0.003804 -0.023831 0.016910 0.037255 -0.004547
# 6 0.003978 -0.000708 0.004307 -0.004260 -0.004547 0.026328
#
#
# Mechanical properties :
#
#
# Convention : Reuss Voigt Hill
#
# Bulk Modulus (GPa) = 14.11070 44.15772 29.13421
# Shear Modulus (GPa) = 27.49499 42.85764 35.17632
#
# Velocity S-wave (km/s) = 3.24403 4.05016 3.66930
# Velocity P-wave (km/s) = 4.40823 6.22681 5.39470
#
# Compressibility (1/GPa) = 0.07086820
#
# Stress axis : x y z
#
# Youngs Moduli (GPa) = 119.20815 98.89760 22.49914
#
# Poissons Ratio (x) = 0.16294 -0.08722
# Poissons Ratio (y) = 0.19641 -0.03897
# Poissons Ratio (z) = -0.46210 -0.17130
#
# Static dielectric constant tensor:
#      x y z
#    x 2.138990 -0.015010 -0.020470 
#    y -0.015010 1.954140 -0.039640 
#    z -0.020470 -0.039640 2.230600 
# 
# From -- ./inp_files/132451.got.cif
#   From: 2010.05.17/outbox.cif.g08.bks.cpg/sg2_67_cif.got.tgz:132451.got - 2010.06.03 11:33:40.
