data_PCOD9040598
_publ_section_title
;
Structure prediction by ZEFSAII (Michael W. Deem and Ramdas Pophale) SiO2 
 PCOD9040598
Probable space group: P -1
;
_chemical_formula_sum "Si O2"
_cell_formula_units_Z 14
_cell_length_a 22.128778
_cell_length_b 6.318582
_cell_length_c 5.366936
_cell_angle_alpha 104.482080
_cell_angle_beta 102.446464
_cell_angle_gamma 120.098128
_cell_volume 574.188490
_symmetry_space_group_name_H-M "P -1"
_symmetry_group_IT_number 2
_symmetry_cell_setting 'triclinic'
loop_
_space_group_symop_operation_xyz
x,y,z
-x,-y,-z
loop_
_atom_site_type_symbol
_atom_site_label
_atom_site_fract_x
_atom_site_fract_y
_atom_site_fract_z
Si Si1 0.688036 0.979409 0.420316
Si Si2 0.203740 0.544429 0.666799
Si Si3 0.169808 0.016187 0.279194
Si Si4 0.457431 0.071093 0.169459
Si Si5 0.090700 0.690294 0.612613
Si Si6 0.312723 0.598229 0.155161
Si Si7 0.403086 0.411638 0.356935
O O1 0.731794 0.140670 0.252334
O O2 0.759328 0.002485 0.622615
O O3 0.669844 0.185815 0.559765
O O4 0.617172 0.703429 0.410258
O O5 0.125917 0.518031 0.595879
O O6 0.197409 0.324779 0.411408
O O7 0.232932 0.491015 0.928468
O O8 0.116348 0.857033 0.425708
O O9 0.127821 0.881226 0.944014
O O10 0.425091 0.252282 0.154252
O O11 0.524396 0.275501 0.484884
O O12 0.380361 0.783453 0.075079
O O13 0.500000 0.000000 0.000000
O O14 0.000000 0.500000 0.500000
O O15 0.329961 0.389846 0.187447
#
# Coordination Sequence:
#
# PCOD9040598 Si02
#       7
#     2   2   2   2   2   2   2
#     4  10  23  43  67  98 142 179 236 294 352 415
#     4  11  26  44  71 107 143 184 238 290 357 427
#     4  11  25  43  76 105 147 190 237 290 362 420
#     4  10  24  43  62  97 130 183 235 290 358 422
#     4  11  26  49  74 110 150 188 237 293 352 434
#     4  11  23  43  69  97 138 180 237 297 355 420
#     4  10  23  45  66  92 137 178 236 299 349 413
#
# _framework density 24.382238000000001
#
# number of rings (size 3 to 8) (size 9 to 14) (size 15 to 20)
#    0.000    1.429    1.429    1.714    8.000    2.857 
#    0.000    0.000    0.000    0.000    0.000    0.000 
#    0.000    0.000    0.000    0.000    0.000    0.000 
#
# Total GULP energy -78145.336651 kJ/mol
# GULP energy per Si atom -5581.809761 kJ/mol
# Density = 2.432674 g / cm^3
# Si number density = 24.382238 Si / 1000 Ang^3
#
#
#
# Elastic Constant Matrix: (Units=GPa)
#
#
# Indices 1 2 3 4 5 6 
#
# 1 153.7876 49.3745 11.8193 -4.5899 5.9567 -17.7563
# 2 49.3745 119.0647 40.5421 -7.8661 -2.1707 -7.0777
# 3 11.8193 40.5421 47.5458 -10.7090 -4.4033 -27.1206
# 4 -4.5899 -7.8661 -10.7090 38.7138 -7.2678 -14.2576
# 5 5.9567 -2.1707 -4.4033 -7.2678 40.6918 2.6882
# 6 -17.7563 -7.0777 -27.1206 -14.2576 2.6882 54.2567
#
#
#
# Elastic Compliance Matrix: (Units=1/GPa)
#
#
# Indices 1 2 3 4 5 6 
#
# 1 0.008633 -0.005418 0.007488 0.004522 -0.000402 0.007070
# 2 -0.005418 0.016983 -0.022611 -0.008507 -0.001407 -0.013026
# 3 0.007488 -0.022611 0.072046 0.034068 0.008670 0.044037
# 4 0.004522 -0.008507 0.034068 0.046485 0.008946 0.029171
# 5 -0.000402 -0.001407 0.008670 0.008946 0.026762 0.005043
# 6 0.007070 -0.013026 0.044037 0.029171 0.005043 0.048473
#
#
# Mechanical properties :
#
#
# Convention : Reuss Voigt Hill
#
# Bulk Modulus (GPa) = 17.67404 58.20777 37.94091
# Shear Modulus (GPa) = 17.90040 41.30995 29.60518
#
# Velocity S-wave (km/s) = 2.71247 4.12061 3.48833
# Velocity P-wave (km/s) = 4.13213 6.82379 5.64086
#
# Compressibility (1/GPa) = 0.05658015
#
# Stress axis : x y z
#
# Youngs Moduli (GPa) = 115.83079 58.88391 13.87999
#
# Poissons Ratio (x) = 0.31903 -0.10393
# Poissons Ratio (y) = 0.62757 0.31383
# Poissons Ratio (z) = -0.86730 1.33140
#
# Static dielectric constant tensor:
#      x y z
#    x 1.934910 0.019340 0.029390 
#    y 0.019340 2.019940 -0.096810 
#    z 0.029390 -0.096810 2.190460 
# 
# From -- ./inp_files/7861.got.cif
#   From: 2010.05.17/outbox.cif.g08.bks.cpg/sg2_4_cif.got.tgz:7861.got - 2010.06.03 11:33:40.
