data_PCOD9040379
_publ_section_title
;
Structure prediction by ZEFSAII (Michael W. Deem and Ramdas Pophale) SiO2 
 PCOD9040379
Probable space group: P -1
;
_chemical_formula_sum "Si O2"
_cell_formula_units_Z 15
_cell_length_a 12.196464
_cell_length_b 14.536552
_cell_length_c 11.933020
_cell_angle_alpha 149.464651
_cell_angle_beta 122.189234
_cell_angle_gamma 46.379486
_cell_volume 767.198621
_symmetry_space_group_name_H-M "P -1"
_symmetry_group_IT_number 2
_symmetry_cell_setting 'triclinic'
loop_
_space_group_symop_operation_xyz
x,y,z
-x,-y,-z
loop_
_atom_site_type_symbol
_atom_site_label
_atom_site_fract_x
_atom_site_fract_y
_atom_site_fract_z
Si Si1 0.555512 0.918599 0.319088
Si Si2 0.883727 0.145707 0.688631
Si Si3 0.352430 0.765439 0.934610
Si Si4 0.646086 0.262343 0.343786
Si Si5 0.085191 0.457149 0.881360
Si Si6 0.435405 0.741028 0.467272
Si Si7 0.000000 0.000000 0.000000
Si Si8 0.043133 0.774506 0.556584
O O1 0.738228 0.742345 0.226141
O O2 0.500000 0.000000 0.500000
O O3 0.520234 0.118810 0.433090
O O4 0.461986 0.818480 0.116338
O O5 0.711539 0.241692 0.653493
O O6 0.912964 0.333154 0.927966
O O7 0.000000 0.000000 0.500000
O O8 0.920839 0.992707 0.654209
O O9 0.337537 0.843965 0.879159
O O10 0.431351 0.508604 0.712253
O O11 0.181126 0.888140 0.015630
O O12 0.500000 0.500000 0.500000
O O13 0.618987 0.166155 0.339111
O O14 0.793529 0.279710 0.459784
O O15 0.996298 0.399061 0.682665
O O16 0.000000 0.500000 0.000000
O O17 0.951468 0.182198 0.264826
#
# Coordination Sequence:
#
# PCOD9040379 Si02
#       8
#     2   2   2   2   2   2   1   2
#     4  12  26  41  64 102 136 171 222 276 343 408
#     4  12  21  38  66 103 133 166 220 283 344 390
#     4  10  23  43  66  91 132 174 221 266 329 400
#     4   9  20  39  63  90 125 172 215 264 320 383
#     4  12  23  39  68 104 136 171 219 284 336 394
#     4  11  21  41  66  95 132 169 214 277 338 388
#     4  10  24  48  66  88 138 192 212 270 330 406
#     4  11  22  41  66  96 134 173 223 268 331 401
#
# _framework density 19.551652000000001
#
# number of rings (size 3 to 8) (size 9 to 14) (size 15 to 20)
#    0.000    1.067    5.333    0.800    1.867    2.133 
#    0.000    9.333    0.000    0.000    0.000    0.000 
#    0.000    0.000    0.000    0.000    0.000    0.000 
#
# Total GULP energy -83509.456283 kJ/mol
# GULP energy per Si atom -5567.297086 kJ/mol
# Density = 1.950715 g / cm^3
# Si number density = 19.551652 Si / 1000 Ang^3
#
#
#
# Elastic Constant Matrix: (Units=GPa)
#
#
# Indices 1 2 3 4 5 6 
#
# 1 44.5487 38.2486 30.8771 21.0993 -21.5529 -24.9743
# 2 38.2486 66.2105 20.1344 -4.9970 -4.4160 -5.5464
# 3 30.8771 20.1344 99.1632 -6.3817 4.0502 12.8901
# 4 21.0993 -4.9970 -6.3817 30.4385 0.2677 4.1300
# 5 -21.5529 -4.4160 4.0502 0.2677 19.8090 8.9081
# 6 -24.9743 -5.5464 12.8901 4.1300 8.9081 37.8212
#
#
#
# Elastic Compliance Matrix: (Units=1/GPa)
#
#
# Indices 1 2 3 4 5 6 
#
# 1 -0.026833 0.011217 0.010852 0.025279 -0.021388 -0.017495
# 2 0.011217 0.012147 -0.008356 -0.009018 0.012177 0.010153
# 3 0.010852 -0.008356 0.007264 -0.007785 0.007409 0.002570
# 4 0.025279 -0.009018 -0.007785 0.010428 0.021645 0.011787
# 5 -0.021388 0.012177 0.007409 0.021645 0.040114 -0.026674
# 6 -0.017495 0.010153 0.002570 0.011787 -0.026674 0.020496
#
#
# Mechanical properties :
#
#
# Convention : Reuss Voigt Hill
#
# Bulk Modulus (GPa) = 49.99210 43.16028 46.57619
# Shear Modulus (GPa) = 116.66469 25.65790 71.16129
#
# Velocity S-wave (km/s) = 7.73302 3.62652 6.03950
# Velocity P-wave (km/s) = 10.26438 6.29749 8.51516
#
# Compressibility (1/GPa) = 0.02000316
#
# Stress axis : x y z
#
# Youngs Moduli (GPa) = -37.26709 82.32597 137.66111
#
# Poissons Ratio (x) = -0.92343 -1.49395
# Poissons Ratio (y) = 0.41801 1.15034
# Poissons Ratio (z) = 0.40444 0.68794
#
# Static dielectric constant tensor:
#      x y z
#    x 1.701940 0.014260 -0.027780 
#    y 0.014260 1.685030 -0.019360 
#    z -0.027780 -0.019360 1.680570 
# 
# From -- ./inp_files/433536.got.cif
#   From: 2010.05.17/outbox.cif.g08.bks.cpg/sg2_217_cif.got.tgz:433536.got - 2010.06.03 11:33:40.
