data_PCOD9040422
_publ_section_title
;
Structure prediction by ZEFSAII (Michael W. Deem and Ramdas Pophale) SiO2 
 PCOD9040422
Probable space group: P -1
;
_chemical_formula_sum "Si O2"
_cell_formula_units_Z 16
_cell_length_a 7.468215
_cell_length_b 6.949485
_cell_length_c 18.476827
_cell_angle_alpha 56.721368
_cell_angle_beta 105.388628
_cell_angle_gamma 75.218582
_cell_volume 670.653969
_symmetry_space_group_name_H-M "P -1"
_symmetry_group_IT_number 2
_symmetry_cell_setting 'triclinic'
loop_
_space_group_symop_operation_xyz
x,y,z
-x,-y,-z
loop_
_atom_site_type_symbol
_atom_site_label
_atom_site_fract_x
_atom_site_fract_y
_atom_site_fract_z
Si Si1 0.019566 0.694924 0.277750
Si Si2 0.510583 0.418372 0.602274
Si Si3 0.896588 0.271205 0.975727
Si Si4 0.188169 0.228452 0.609817
Si Si5 0.188403 0.337732 0.241558
Si Si6 0.371599 0.659844 0.691925
Si Si7 0.452404 0.304660 0.915474
Si Si8 0.950836 0.231265 0.142863
O O1 0.260401 0.618458 0.341497
O O2 0.048701 0.476255 0.268219
O O3 0.874178 0.731355 0.321915
O O4 0.909577 0.987106 0.172781
O O5 0.500000 0.500000 0.500000
O O6 0.415635 0.217233 0.628198
O O7 0.363619 0.599176 0.618272
O O8 0.896723 0.475347 0.876669
O O9 0.656181 0.335808 0.952302
O O10 0.023100 0.251358 0.065877
O O11 0.000000 0.000000 0.000000
O O12 0.000000 0.500000 0.500000
O O13 0.198094 0.959143 0.636842
O O14 0.412295 0.320449 0.282029
O O15 0.129736 0.125800 0.247817
O O16 0.403491 0.427410 0.801227
O O17 0.256673 0.515046 0.900093
O O18 0.500000 0.000000 0.000000
#
# Coordination Sequence:
#
# PCOD9040422 Si02
#       8
#     2   2   2   2   2   2   2   2
#     4  11  24  45  69 101 142 179 235 293 347 426
#     4  11  25  48  72 107 144 183 238 299 357 425
#     4  11  22  42  64  98 138 181 236 283 340 421
#     4  12  25  46  75 105 139 187 236 292 360 425
#     4  10  23  43  66  97 137 189 230 286 349 413
#     4  10  25  48  70 102 146 184 237 290 355 425
#     4  11  25  43  68 102 141 187 233 287 348 419
#     4  12  23  42  69  95 139 183 230 287 353 406
#
# _framework density 23.857313000000001
#
# number of rings (size 3 to 8) (size 9 to 14) (size 15 to 20)
#    0.000    1.000    3.750    2.250    1.750    1.000 
#    6.750    0.000    0.000    0.000    0.000    0.000 
#    0.000    0.000    0.000    0.000    0.000    0.000 
#
# Total GULP energy -89128.743026 kJ/mol
# GULP energy per Si atom -5570.546439 kJ/mol
# Density = 2.380301 g / cm^3
# Si number density = 23.857313 Si / 1000 Ang^3
#
#
#
# Elastic Constant Matrix: (Units=GPa)
#
#
# Indices 1 2 3 4 5 6 
#
# 1 93.2534 -1.2927 3.4385 1.7266 2.4021 -7.8270
# 2 -1.2927 105.5245 58.5233 41.5818 -12.9111 -0.9238
# 3 3.4385 58.5233 93.8118 18.6148 -17.2316 -11.9010
# 4 1.7266 41.5818 18.6148 32.6103 -3.9807 -4.7799
# 5 2.4021 -12.9111 -17.2316 -3.9807 48.7778 4.5897
# 6 -7.8270 -0.9238 -11.9010 -4.7799 4.5897 30.3714
#
#
#
# Elastic Compliance Matrix: (Units=1/GPa)
#
#
# Indices 1 2 3 4 5 6 
#
# 1 0.011011 0.000641 -0.000451 -0.000855 -0.000853 0.002675
# 2 0.000641 0.028604 -0.012713 -0.030389 0.001410 -0.008942
# 3 -0.000451 -0.012713 0.018741 0.007016 0.003147 0.007469
# 4 -0.000855 -0.030389 0.007016 0.067117 -0.001208 0.012350
# 5 -0.000853 0.001410 0.003147 -0.001208 0.022163 -0.002483
# 6 0.002675 -0.008942 0.007469 0.012350 -0.002483 0.038589
#
#
# Mechanical properties :
#
#
# Convention : Reuss Voigt Hill
#
# Bulk Modulus (GPa) = 30.02192 45.99199 38.00695
# Shear Modulus (GPa) = 22.48459 37.81328 30.14894
#
# Velocity S-wave (km/s) = 3.07328 3.98550 3.55874
# Velocity P-wave (km/s) = 5.02043 6.36386 5.73164
#
# Compressibility (1/GPa) = 0.03330900
#
# Stress axis : x y z
#
# Youngs Moduli (GPa) = 90.81564 34.96043 53.36011
#
# Poissons Ratio (x) = -0.02241 0.02408
# Poissons Ratio (y) = -0.05822 0.67837
# Poissons Ratio (z) = 0.04099 0.44446
#
# Static dielectric constant tensor:
#      x y z
#    x 1.831640 -0.091270 -0.008410 
#    y -0.091270 1.795380 -0.187070 
#    z -0.008410 -0.187070 1.926990 
# 
# From -- ./inp_files/553368.got.cif
#   From: 2010.05.17/outbox.cif.g08.bks.cpg/sg2_277_cif.got.tgz:553368.got - 2010.06.03 11:33:40.
