data_PCOD9040264
_publ_section_title
;
Structure prediction by ZEFSAII (Michael W. Deem and Ramdas Pophale) SiO2 
 PCOD9040264
Probable space group: P -1
;
_chemical_formula_sum "Si O2"
_cell_formula_units_Z 12
_cell_length_a 14.875456
_cell_length_b 11.670309
_cell_length_c 7.545989
_cell_angle_alpha 94.429159
_cell_angle_beta 78.498009
_cell_angle_gamma 28.452211
_cell_volume 514.375242
_symmetry_space_group_name_H-M "P -1"
_symmetry_group_IT_number 2
_symmetry_cell_setting 'triclinic'
loop_
_space_group_symop_operation_xyz
x,y,z
-x,-y,-z
loop_
_atom_site_type_symbol
_atom_site_label
_atom_site_fract_x
_atom_site_fract_y
_atom_site_fract_z
Si Si1 0.620144 0.802117 0.596817
Si Si2 0.003975 0.777136 0.169609
Si Si3 0.485060 0.175494 0.893986
Si Si4 0.915813 0.813556 0.813522
Si Si5 0.488161 0.728089 0.482182
Si Si6 0.951934 0.084903 0.323972
O O1 0.509587 0.802808 0.631827
O O2 0.885874 0.478281 0.409207
O O3 0.500000 0.000000 0.500000
O O4 0.566446 0.954196 0.788561
O O5 0.768629 0.024091 0.394315
O O6 0.029739 0.884888 0.158877
O O7 0.977213 0.745680 0.988145
O O8 0.239744 0.461042 0.119767
O O9 0.455205 0.278088 0.729525
O O10 0.680015 0.021822 0.896902
O O11 0.920892 0.941723 0.771261
O O12 0.685654 0.412610 0.420989
O O13 0.000000 0.000000 0.500000
#
# Coordination Sequence:
#
# PCOD9040264 Si02
#       6
#     2   2   2   2   2   2
#     4   9  18  43  66  90 131 170 202 260 319 365
#     4  12  24  41  66  97 128 163 218 258 313 377
#     4  11  23  43  67  94 129 170 208 259 317 377
#     4  11  23  41  68  94 128 169 211 260 315 375
#     4  10  23  43  65  91 133 165 210 265 313 372
#     4  11  24  44  66  92 129 171 209 262 322 372
#
# _framework density 23.329270999999999
#
# number of rings (size 3 to 8) (size 9 to 14) (size 15 to 20)
#    0.000    1.333    5.000    2.500    2.333    1.333 
#    0.000    0.833    0.000    0.000    0.000    0.000 
#    0.000    0.000    0.000    0.000    0.000    0.000 
#
# Total GULP energy -67143.795245 kJ/mol
# GULP energy per Si atom -5595.316270 kJ/mol
# Density = 2.327617 g / cm^3
# Si number density = 23.329271 Si / 1000 Ang^3
#
#
#
# Elastic Constant Matrix: (Units=GPa)
#
#
# Indices 1 2 3 4 5 6 
#
# 1 101.6555 43.9621 45.5607 39.6191 23.1051 -32.7793
# 2 43.9621 111.6456 47.9215 25.1028 6.3027 -12.7585
# 3 45.5607 47.9215 103.6488 25.2513 10.5341 -5.6056
# 4 39.6191 25.1028 25.2513 46.7725 11.5377 2.5955
# 5 23.1051 6.3027 10.5341 11.5377 25.3242 7.3793
# 6 -32.7793 -12.7585 -5.6056 2.5955 7.3793 46.1144
#
#
#
# Elastic Compliance Matrix: (Units=1/GPa)
#
#
# Indices 1 2 3 4 5 6 
#
# 1 0.043454 -0.002592 -0.006135 -0.025366 -0.035540 0.036540
# 2 -0.002592 0.012328 -0.004034 -0.002781 0.001974 0.000918
# 3 -0.006135 -0.004034 0.013868 -0.000449 0.002238 -0.004124
# 4 -0.025366 -0.002781 -0.000449 0.043147 0.011083 -0.023057
# 5 -0.035540 0.001974 0.002238 0.011083 0.076305 -0.037279
# 6 0.036540 0.000918 -0.004124 -0.023057 -0.037279 0.054675
#
#
# Mechanical properties :
#
#
# Convention : Reuss Voigt Hill
#
# Bulk Modulus (GPa) = 22.66067 65.75984 44.21026
# Shear Modulus (GPa) = 17.60511 35.60926 26.60719
#
# Velocity S-wave (km/s) = 2.75004 3.91113 3.38080
# Velocity P-wave (km/s) = 4.45176 6.97458 5.85077
#
# Compressibility (1/GPa) = 0.04412931
#
# Stress axis : x y z
#
# Youngs Moduli (GPa) = 23.01277 81.11767 72.10606
#
# Poissons Ratio (x) = 0.21027 0.44235
# Poissons Ratio (y) = 0.05965 0.29086
# Poissons Ratio (z) = 0.14118 0.32721
#
# Static dielectric constant tensor:
#      x y z
#    x 1.823620 -0.037110 -0.020060 
#    y -0.037110 1.749250 -0.060080 
#    z -0.020060 -0.060080 1.916010 
# 
# From -- ./inp_files/270347.got.cif
#   From: 2010.05.17/outbox.cif.g08.bks.cpg/sg2_136_cif.got.tgz:270347.got - 2010.06.03 11:33:40.
