data_PCOD9040832
_publ_section_title
;
Structure prediction by ZEFSAII (Michael W. Deem and Ramdas Pophale) SiO2 
 PCOD9040832
Probable space group: P -1
;
_chemical_formula_sum "Si O2"
_cell_formula_units_Z 16
_cell_length_a 5.178871
_cell_length_b 17.161257
_cell_length_c 8.755808
_cell_angle_alpha 91.203704
_cell_angle_beta 80.097875
_cell_angle_gamma 51.213943
_cell_volume 589.091486
_symmetry_space_group_name_H-M "P -1"
_symmetry_group_IT_number 2
_symmetry_cell_setting 'triclinic'
loop_
_space_group_symop_operation_xyz
x,y,z
-x,-y,-z
loop_
_atom_site_type_symbol
_atom_site_label
_atom_site_fract_x
_atom_site_fract_y
_atom_site_fract_z
Si Si1 0.719869 0.445165 0.624725
Si Si2 0.941237 0.829992 0.737391
Si Si3 0.928641 0.044258 0.178478
Si Si4 0.398810 0.363880 0.232578
Si Si5 0.598692 0.563591 0.058841
Si Si6 0.742080 0.786545 0.452325
Si Si7 0.824831 0.154307 0.713087
Si Si8 0.609488 0.769711 0.938292
O O1 0.500000 0.500000 0.500000
O O2 0.766583 0.523669 0.692471
O O3 0.526471 0.421576 0.756632
O O4 0.066635 0.332805 0.555618
O O5 0.725737 0.831212 0.619844
O O6 0.772339 0.823549 0.905528
O O7 0.844293 0.939599 0.744847
O O8 0.313623 0.717114 0.680303
O O9 0.704425 0.161969 0.146096
O O10 0.934066 0.962642 0.265665
O O11 0.000000 0.000000 0.000000
O O12 0.169639 0.336585 0.184146
O O13 0.573294 0.348735 0.047301
O O14 0.500000 0.500000 0.000000
O O15 0.000000 0.500000 0.000000
O O16 0.382212 0.834006 0.414978
O O17 0.962895 0.807120 0.332691
O O18 0.528109 0.219143 0.877699
#
# Coordination Sequence:
#
# PCOD9040832 Si02
#       8
#     2   2   2   2   2   2   2   2
#     4  11  24  47  71 103 149 197 239 301 364 431
#     4  11  25  44  74 109 144 191 246 298 365 440
#     4   9  23  46  75 108 141 189 243 300 370 432
#     4  10  23  43  69 101 148 187 248 292 357 418
#     4  10  24  42  68 100 133 187 249 291 348 414
#     4  12  29  48  69 111 150 195 241 299 374 433
#     4  11  28  49  76 104 152 187 244 306 366 436
#     4  10  24  43  77 105 142 193 247 299 357 437
#
# _framework density 27.160468000000002
#
# number of rings (size 3 to 8) (size 9 to 14) (size 15 to 20)
#    0.000    1.500    1.250    0.750   15.750    5.000 
#    0.000    3.750    0.000    0.000    0.000    0.000 
#    0.000    0.000    0.000    0.000    0.000    0.000 
#
# Total GULP energy -89202.687773 kJ/mol
# GULP energy per Si atom -5575.167986 kJ/mol
# Density = 2.709865 g / cm^3
# Si number density = 27.160468 Si / 1000 Ang^3
#
#
#
# Elastic Constant Matrix: (Units=GPa)
#
#
# Indices 1 2 3 4 5 6 
#
# 1 96.9684 32.2723 5.4800 1.2558 -1.4559 22.8678
# 2 32.2723 134.0299 30.3647 -6.1431 31.9794 16.9843
# 3 5.4800 30.3647 103.2192 -14.1228 -3.3429 10.6742
# 4 1.2558 -6.1431 -14.1228 50.8980 8.6475 20.0833
# 5 -1.4559 31.9794 -3.3429 8.6475 45.0686 -1.6956
# 6 22.8678 16.9843 10.6742 20.0833 -1.6956 49.6184
#
#
#
# Elastic Compliance Matrix: (Units=1/GPa)
#
#
# Indices 1 2 3 4 5 6 
#
# 1 0.012564 -0.003015 0.001050 0.001417 0.002145 -0.005485
# 2 -0.003015 0.011750 -0.002653 0.003951 -0.009540 -0.003987
# 3 0.001050 -0.002653 0.011370 0.003881 0.001882 -0.003529
# 4 0.001417 0.003951 0.003881 0.028369 -0.008463 -0.014612
# 5 0.002145 -0.009540 0.001882 -0.008463 0.031029 0.006358
# 6 -0.005485 -0.003987 -0.003529 -0.014612 0.006358 0.030937
#
#
# Mechanical properties :
#
#
# Convention : Reuss Voigt Hill
#
# Bulk Modulus (GPa) = 37.80773 52.27239 45.04006
# Shear Modulus (GPa) = 34.70505 46.85704 40.78104
#
# Velocity S-wave (km/s) = 3.57848 4.15805 3.87910
# Velocity P-wave (km/s) = 5.56995 6.50692 6.05658
#
# Compressibility (1/GPa) = 0.02644962
#
# Stress axis : x y z
#
# Youngs Moduli (GPa) = 79.59256 85.10281 87.95358
#
# Poissons Ratio (x) = 0.25658 -0.09239
# Poissons Ratio (y) = 0.23997 0.23332
# Poissons Ratio (z) = -0.08361 0.22576
#
# Static dielectric constant tensor:
#      x y z
#    x 7.750510 -0.434100 0.183480 
#    y -0.434100 2.296040 0.066240 
#    z 0.183480 0.066240 2.266820 
# 
# From -- ./inp_files/139149.got.cif
#   From: 2010.05.17/outbox.cif.g08.bks.cpg/sg2_70_cif.got.tgz:139149.got - 2010.06.03 11:33:40.
