data_PCOD9040533
_publ_section_title
;
Structure prediction by ZEFSAII (Michael W. Deem and Ramdas Pophale) SiO2 
 PCOD9040533
Probable space group: P -1
;
_chemical_formula_sum "Si O2"
_cell_formula_units_Z 14
_cell_length_a 9.810463
_cell_length_b 12.972568
_cell_length_c 13.136905
_cell_angle_alpha 146.483109
_cell_angle_beta 53.249546
_cell_angle_gamma 136.916395
_cell_volume 630.350657
_symmetry_space_group_name_H-M "P -1"
_symmetry_group_IT_number 2
_symmetry_cell_setting 'triclinic'
loop_
_space_group_symop_operation_xyz
x,y,z
-x,-y,-z
loop_
_atom_site_type_symbol
_atom_site_label
_atom_site_fract_x
_atom_site_fract_y
_atom_site_fract_z
Si Si1 0.936747 0.490084 0.775252
Si Si2 0.211051 0.786088 0.074866
Si Si3 0.552802 0.707941 0.579169
Si Si4 0.386223 0.612813 0.009187
Si Si5 0.860666 0.533287 0.511091
Si Si6 0.145310 0.236962 0.680368
Si Si7 0.178497 0.243341 0.104863
O O1 0.895567 0.634683 0.835164
O O2 0.011250 0.364668 0.565623
O O3 0.734135 0.355860 0.820373
O O4 0.114580 0.650761 0.904001
O O5 0.027370 0.712301 0.175189
O O6 0.318791 0.048522 0.229780
O O7 0.353065 0.719122 0.010710
O O8 0.500000 0.500000 0.500000
O O9 0.345823 0.679028 0.607062
O O10 0.678042 0.684118 0.413683
O O11 0.274924 0.349729 0.819153
O O12 0.620068 0.719735 0.004250
O O13 0.785121 0.660937 0.718066
O O14 0.000000 0.500000 0.500000
O O15 0.000000 0.000000 0.500000
O O16 0.000000 0.000000 0.000000
#
# Coordination Sequence:
#
# PCOD9040533 Si02
#       7
#     2   2   2   2   2   2   2
#     4  10  23  43  67  94 133 173 218 268 330 390
#     4  10  24  40  67  99 130 168 222 275 331 388
#     4  11  24  39  67  94 131 173 220 270 335 391
#     4  11  22  43  69  96 132 175 220 272 329 390
#     4  10  24  43  64  91 135 168 219 270 324 378
#     4   9  19  40  61  93 129 168 210 269 322 384
#     4  11  25  44  67  95 134 178 221 268 325 392
#
# _framework density 22.209859999999999
#
# number of rings (size 3 to 8) (size 9 to 14) (size 15 to 20)
#    0.000    1.714    1.429    2.143   10.000    0.571 
#    0.000    0.714    0.000    0.000    0.000    0.000 
#    0.000    0.000    0.000    0.000    0.000    0.000 
#
# Total GULP energy -77934.023373 kJ/mol
# GULP energy per Si atom -5566.715955 kJ/mol
# Density = 2.215931 g / cm^3
# Si number density = 22.209860 Si / 1000 Ang^3
#
#
#
# Elastic Constant Matrix: (Units=GPa)
#
#
# Indices 1 2 3 4 5 6 
#
# 1 100.1019 36.7965 6.0590 -0.1278 3.0539 7.7982
# 2 36.7965 99.1629 35.3540 -14.8057 5.0382 23.9784
# 3 6.0590 35.3540 73.5251 -19.6537 16.4367 -3.9170
# 4 -0.1278 -14.8057 -19.6537 42.8285 -0.2729 2.4575
# 5 3.0539 5.0382 16.4367 -0.2729 20.1776 0.7513
# 6 7.7982 23.9784 -3.9170 2.4575 0.7513 30.1971
#
#
#
# Elastic Compliance Matrix: (Units=1/GPa)
#
#
# Indices 1 2 3 4 5 6 
#
# 1 0.011849 -0.005591 0.001979 -0.001105 -0.002090 0.001778
# 2 -0.005591 0.019905 -0.010209 0.003132 0.004833 -0.016061
# 3 0.001979 -0.010209 0.024947 0.007194 -0.018374 0.010704
# 4 -0.001105 0.003132 0.007194 0.027886 -0.005971 -0.003389
# 5 -0.002090 0.004833 -0.018374 -0.005971 0.063808 -0.006783
# 6 0.001778 -0.016061 0.010704 -0.003389 -0.006783 0.047243
#
#
# Mechanical properties :
#
#
# Convention : Reuss Voigt Hill
#
# Bulk Modulus (GPa) = 34.41405 47.68988 41.05196
# Shear Modulus (GPa) = 21.46220 31.61266 26.53743
#
# Velocity S-wave (km/s) = 3.11197 3.77684 3.46041
# Velocity P-wave (km/s) = 5.33301 6.36697 5.87279
#
# Compressibility (1/GPa) = 0.02905790
#
# Stress axis : x y z
#
# Youngs Moduli (GPa) = 84.39457 50.23936 40.08447
#
# Poissons Ratio (x) = 0.28089 -0.07931
# Poissons Ratio (y) = 0.47186 0.40923
# Poissons Ratio (z) = -0.16699 0.51290
#
# Static dielectric constant tensor:
#      x y z
#    x 1.831930 -0.018340 -0.017880 
#    y -0.018340 1.842210 0.013400 
#    z -0.017880 0.013400 1.868710 
# 
# From -- ./inp_files/177586.got.cif
#   From: 2010.05.17/outbox.cif.g08.bks.cpg/sg2_89_cif.got.tgz:177586.got - 2010.06.03 11:33:40.
