data_PCOD9040136
_publ_section_title
;
Structure prediction by ZEFSAII (Michael W. Deem and Ramdas Pophale) SiO2 
 PCOD9040136
Probable space group: P -1
;
_chemical_formula_sum "Si O2"
_cell_formula_units_Z 14
_cell_length_a 16.846658
_cell_length_b 7.273424
_cell_length_c 8.359041
_cell_angle_alpha 73.098057
_cell_angle_beta 140.603469
_cell_angle_gamma 120.195510
_cell_volume 552.846698
_symmetry_space_group_name_H-M "P -1"
_symmetry_group_IT_number 2
_symmetry_cell_setting 'triclinic'
loop_
_space_group_symop_operation_xyz
x,y,z
-x,-y,-z
loop_
_atom_site_type_symbol
_atom_site_label
_atom_site_fract_x
_atom_site_fract_y
_atom_site_fract_z
Si Si1 0.526048 0.910431 0.731336
Si Si2 0.756491 0.308979 0.502258
Si Si3 0.548606 0.561146 0.377258
Si Si4 0.266154 0.467596 0.875486
Si Si5 0.952158 0.886479 0.215373
Si Si6 0.814543 0.191481 0.289637
Si Si7 0.132936 0.313901 0.210296
O O1 0.393750 0.879438 0.638357
O O2 0.497046 0.665798 0.723620
O O3 0.500000 0.000000 0.500000
O O4 0.674121 0.035199 0.018135
O O5 0.751882 0.508213 0.345820
O O6 0.804003 0.198374 0.465340
O O7 0.836305 0.443317 0.749747
O O8 0.500000 0.500000 0.500000
O O9 0.714625 0.688507 0.570738
O O10 0.430986 0.626628 0.117941
O O11 0.201679 0.231554 0.911634
O O12 0.176416 0.575286 0.793404
O O13 0.054552 0.856051 0.511952
O O14 0.931108 0.758866 0.046809
O O15 0.024778 0.134161 0.208486
#
# Coordination Sequence:
#
# PCOD9040136 Si02
#       7
#     2   2   2   2   2   2   2
#     4  11  24  42  66 100 127 168 218 266 321 381
#     4   9  24  41  65  93 127 168 212 271 310 383
#     4  11  22  42  71  92 129 166 216 274 313 377
#     4  10  23  43  63  96 126 172 213 263 324 373
#     4  11  23  43  65  93 135 172 213 262 318 390
#     4  10  24  41  65  94 133 169 210 268 321 378
#     4  10  24  42  66  97 126 172 219 259 321 382
#
# _framework density 25.323475999999999
#
# number of rings (size 3 to 8) (size 9 to 14) (size 15 to 20)
#    0.857    0.857    1.429    1.714    6.000    3.429 
#    0.000    0.000    0.000    0.000    0.000    0.000 
#    0.000    0.000    0.000    0.000    0.000    0.000 
#
# Total GULP energy -78041.854733 kJ/mol
# GULP energy per Si atom -5574.418195 kJ/mol
# Density = 2.526584 g / cm^3
# Si number density = 25.323476 Si / 1000 Ang^3
#
#
#
# Elastic Constant Matrix: (Units=GPa)
#
#
# Indices 1 2 3 4 5 6 
#
# 1 81.2414 22.6056 23.3138 4.7618 11.3087 21.5560
# 2 22.6056 81.2320 39.4529 23.7092 5.1743 20.4347
# 3 23.3138 39.4529 157.2871 26.4374 13.6398 1.3896
# 4 4.7618 23.7092 26.4374 37.7077 -6.7127 0.9195
# 5 11.3087 5.1743 13.6398 -6.7127 34.8187 12.6127
# 6 21.5560 20.4347 1.3896 0.9195 12.6127 43.0060
#
#
#
# Elastic Compliance Matrix: (Units=1/GPa)
#
#
# Indices 1 2 3 4 5 6 
#
# 1 0.015148 -0.001831 -0.001616 0.000212 -0.001741 -0.006164
# 2 -0.001831 0.018914 -0.002785 -0.009550 -0.000168 -0.007726
# 3 -0.001616 -0.002785 0.008477 -0.004871 -0.004512 0.003287
# 4 0.000212 -0.009550 -0.004871 0.037719 0.010249 0.000777
# 5 -0.001741 -0.000168 -0.004512 0.010249 0.036627 -0.009863
# 6 -0.006164 -0.007726 0.003287 0.000777 -0.009863 0.032783
#
#
# Mechanical properties :
#
#
# Convention : Reuss Voigt Hill
#
# Bulk Modulus (GPa) = 33.24990 54.50060 43.87525
# Shear Modulus (GPa) = 29.04335 38.73236 33.88785
#
# Velocity S-wave (km/s) = 3.39026 3.91513 3.66211
# Velocity P-wave (km/s) = 5.33701 6.48121 5.93674
#
# Compressibility (1/GPa) = 0.03007528
#
# Stress axis : x y z
#
# Youngs Moduli (GPa) = 66.01661 52.87040 117.96679
#
# Poissons Ratio (x) = 0.09678 0.19067
# Poissons Ratio (y) = 0.12085 0.32853
# Poissons Ratio (z) = 0.10670 0.14724
#
# Static dielectric constant tensor:
#      x y z
#    x 2.098140 -0.109560 0.023700 
#    y -0.109560 2.050080 0.002760 
#    z 0.023700 0.002760 2.115130 
# 
# From -- ./inp_files/328954.got.cif
#   From: 2010.05.17/outbox.cif.g08.bks.cpg/sg2_165_cif.got.tgz:328954.got - 2010.06.03 11:33:40.
