data_PCOD9040675
_publ_section_title
;
Structure prediction by ZEFSAII (Michael W. Deem and Ramdas Pophale) SiO2 
 PCOD9040675
Probable space group: P -1
;
_chemical_formula_sum "Si O2"
_cell_formula_units_Z 16
_cell_length_a 7.370793
_cell_length_b 22.477825
_cell_length_c 6.490330
_cell_angle_alpha 55.577472
_cell_angle_beta 64.935020
_cell_angle_gamma 50.345262
_cell_volume 679.560298
_symmetry_space_group_name_H-M "P -1"
_symmetry_group_IT_number 2
_symmetry_cell_setting 'triclinic'
loop_
_space_group_symop_operation_xyz
x,y,z
-x,-y,-z
loop_
_atom_site_type_symbol
_atom_site_label
_atom_site_fract_x
_atom_site_fract_y
_atom_site_fract_z
Si Si1 0.046352 0.044721 0.579397
Si Si2 0.085587 0.652127 0.827665
Si Si3 0.772943 0.601128 0.340532
Si Si4 0.566369 0.625497 0.813190
Si Si5 0.683902 0.258027 0.948547
Si Si6 0.332856 0.882292 0.028377
Si Si7 0.752737 0.476938 0.339108
Si Si8 0.128455 0.190743 0.118526
O O1 0.121095 0.107527 0.332900
O O2 0.240562 0.970950 0.779741
O O3 0.000000 0.000000 0.500000
O O4 0.813740 0.097291 0.731134
O O5 0.351124 0.617196 0.848930
O O6 0.109892 0.613461 0.665262
O O7 0.950704 0.752448 0.745428
O O8 0.941532 0.623937 0.095291
O O9 0.719378 0.625046 0.555643
O O10 0.842274 0.506365 0.430992
O O11 0.501378 0.663327 0.258091
O O12 0.457927 0.712184 0.825214
O O13 0.715565 0.544049 0.046882
O O14 0.719607 0.175358 0.982931
O O15 0.934233 0.242735 0.930810
O O16 0.612600 0.833400 0.021122
O O17 0.500000 0.500000 0.500000
#
# Coordination Sequence:
#
# PCOD9040675 Si02
#       8
#     2   2   2   2   2   2   2   2
#     4  11  25  46  74 103 142 183 227 289 346 427
#     4  11  23  41  67 100 131 188 236 281 355 410
#     4  11  23  44  66  95 145 181 235 296 341 416
#     4  10  24  43  67  97 143 185 233 290 350 407
#     4  10  23  43  68 105 136 184 232 288 346 416
#     4  11  24  47  71 102 145 179 231 285 355 415
#     4  11  23  43  68  97 142 188 235 293 347 411
#     4  11  24  45  72 103 139 182 236 283 354 415
#
# _framework density 23.544637999999999
#
# number of rings (size 3 to 8) (size 9 to 14) (size 15 to 20)
#    0.000    1.250    3.750    1.125    3.500    1.000 
#    6.750    2.500    0.000    0.000    0.000    0.000 
#    0.000    0.000    0.000    0.000    0.000    0.000 
#
# Total GULP energy -89531.498990 kJ/mol
# GULP energy per Si atom -5595.718687 kJ/mol
# Density = 2.349105 g / cm^3
# Si number density = 23.544638 Si / 1000 Ang^3
#
#
#
# Elastic Constant Matrix: (Units=GPa)
#
#
# Indices 1 2 3 4 5 6 
#
# 1 118.8741 54.9758 32.6793 35.7630 -5.1707 7.3714
# 2 54.9758 154.3702 36.7261 39.6540 -0.9792 22.6200
# 3 32.6793 36.7261 94.1525 30.4984 -1.3036 10.4158
# 4 35.7630 39.6540 30.4984 41.7826 5.3976 2.0292
# 5 -5.1707 -0.9792 -1.3036 5.3976 24.1397 1.4379
# 6 7.3714 22.6200 10.4158 2.0292 1.4379 59.1648
#
#
#
# Elastic Compliance Matrix: (Units=1/GPa)
#
#
# Indices 1 2 3 4 5 6 
#
# 1 0.012354 -0.001856 -0.000527 -0.008995 0.004586 -0.000540
# 2 -0.001856 0.009578 -0.000343 -0.007331 0.001800 -0.003163
# 3 -0.000527 -0.000343 0.014475 -0.010080 0.003032 -0.002080
# 4 -0.008995 -0.007331 -0.010080 0.047497 -0.013651 0.004401
# 5 0.004586 0.001800 0.003032 -0.013651 0.045842 -0.002439
# 6 -0.000540 -0.003163 -0.002080 0.004401 -0.002439 0.018453
#
#
# Mechanical properties :
#
#
# Convention : Reuss Voigt Hill
#
# Bulk Modulus (GPa) = 32.30372 68.46214 50.38293
# Shear Modulus (GPa) = 30.49346 41.21845 35.85596
#
# Velocity S-wave (km/s) = 3.60270 4.18862 3.90666
# Velocity P-wave (km/s) = 5.57278 7.24799 6.46488
#
# Compressibility (1/GPa) = 0.03095619
#
# Stress axis : x y z
#
# Youngs Moduli (GPa) = 80.94307 104.40289 69.08490
#
# Poissons Ratio (x) = 0.19373 0.03644
# Poissons Ratio (y) = 0.15019 0.02367
# Poissons Ratio (z) = 0.04269 0.03578
#
# Static dielectric constant tensor:
#      x y z
#    x 1.961820 -0.044950 0.080470 
#    y -0.044950 1.911890 -0.052880 
#    z 0.080470 -0.052880 1.920030 
# 
# From -- ./inp_files/54663.got.cif
#   From: 2010.05.17/outbox.cif.g08.bks.cpg/sg2_28_cif.got.tgz:54663.got - 2010.06.03 11:33:40.
