data_PCOD9040972
_publ_section_title
;
Structure prediction by ZEFSAII (Michael W. Deem and Ramdas Pophale) SiO2 
 PCOD9040972
Probable space group: P -1
;
_chemical_formula_sum "Si O2"
_cell_formula_units_Z 14
_cell_length_a 11.073654
_cell_length_b 11.583731
_cell_length_c 5.039236
_cell_angle_alpha 92.769272
_cell_angle_beta 94.248354
_cell_angle_gamma 122.061665
_cell_volume 543.362491
_symmetry_space_group_name_H-M "P -1"
_symmetry_group_IT_number 2
_symmetry_cell_setting 'triclinic'
loop_
_space_group_symop_operation_xyz
x,y,z
-x,-y,-z
loop_
_atom_site_type_symbol
_atom_site_label
_atom_site_fract_x
_atom_site_fract_y
_atom_site_fract_z
Si Si1 0.361138 0.291689 0.862274
Si Si2 0.748195 0.635885 0.628381
Si Si3 0.676694 0.969666 0.419283
Si Si4 0.615774 0.111193 0.829939
Si Si5 0.979508 0.597061 0.205740
Si Si6 0.936859 0.240613 0.275741
Si Si7 0.311947 0.599285 0.026223
O O1 0.354054 0.380541 0.632656
O O2 0.521850 0.342416 0.987238
O O3 0.296349 0.145182 0.690875
O O4 0.284880 0.300178 0.112821
O O5 0.915809 0.743713 0.593323
O O6 0.724963 0.494824 0.727773
O O7 0.700022 0.047755 0.708793
O O8 0.785110 0.101419 0.272795
O O9 0.501842 0.889184 0.385878
O O10 0.702395 0.268721 0.948749
O O11 0.500000 0.000000 0.000000
O O12 0.062871 0.651485 0.501696
O O13 0.024547 0.719641 0.019731
O O14 0.808227 0.507680 0.206863
O O15 0.000000 0.500000 0.000000
#
# Coordination Sequence:
#
# PCOD9040972 Si02
#       7
#     2   2   2   2   2   2   2
#     4  11  25  43  71  98 139 179 230 282 331 396
#     4  11  24  45  65 104 136 179 231 278 336 394
#     4  10  25  43  66 102 133 181 224 277 341 405
#     4  10  23  45  69  99 135 174 225 281 341 408
#     4  11  24  42  66 102 135 179 225 275 340 403
#     4  11  25  43  67  97 139 178 227 275 334 408
#     4  10  23  43  70 101 133 178 224 285 338 398
#
# _framework density 25.765491000000001
#
# number of rings (size 3 to 8) (size 9 to 14) (size 15 to 20)
#    0.000    1.429    0.000    3.857    8.000    4.571 
#   10.286    0.000    0.000    0.000    0.000    0.000 
#    0.000    0.000    0.000    0.000    0.000    0.000 
#
# Total GULP energy -78118.990389 kJ/mol
# GULP energy per Si atom -5579.927885 kJ/mol
# Density = 2.570685 g / cm^3
# Si number density = 25.765491 Si / 1000 Ang^3
#
#
#
# Elastic Constant Matrix: (Units=GPa)
#
#
# Indices 1 2 3 4 5 6 
#
# 1 86.7088 30.3764 28.4032 9.4388 -16.0780 7.1769
# 2 30.3764 157.0661 48.5904 29.7541 -13.2924 5.3993
# 3 28.4032 48.5904 140.3083 8.0196 -20.9599 -1.2980
# 4 9.4388 29.7541 8.0196 31.2753 11.8108 1.8866
# 5 -16.0780 -13.2924 -20.9599 11.8108 49.7972 7.0946
# 6 7.1769 5.3993 -1.2980 1.8866 7.0946 47.6736
#
#
#
# Elastic Compliance Matrix: (Units=1/GPa)
#
#
# Indices 1 2 3 4 5 6 
#
# 1 0.014029 -0.000774 -0.001536 -0.004915 0.005220 -0.002648
# 2 -0.000774 0.009277 -0.001956 -0.009460 0.003815 -0.001181
# 3 -0.001536 -0.001956 0.008587 -0.000944 0.002776 0.000311
# 4 -0.004915 -0.009460 -0.000944 0.048755 -0.016400 0.002297
# 5 0.005220 0.003815 0.002776 -0.016400 0.028518 -0.004737
# 6 -0.002648 -0.001181 0.000311 0.002297 -0.004737 0.022131
#
#
# Mechanical properties :
#
#
# Convention : Reuss Voigt Hill
#
# Bulk Modulus (GPa) = 42.80678 66.53590 54.67134
# Shear Modulus (GPa) = 33.87144 44.19675 39.03410
#
# Velocity S-wave (km/s) = 3.62968 4.14617 3.89649
# Velocity P-wave (km/s) = 5.84946 6.98575 6.44270
#
# Compressibility (1/GPa) = 0.02336079
#
# Stress axis : x y z
#
# Youngs Moduli (GPa) = 71.27977 107.79014 116.45371
#
# Poissons Ratio (x) = 0.08346 0.17884
# Poissons Ratio (y) = 0.05519 0.22783
# Poissons Ratio (z) = 0.10946 0.21088
#
# Static dielectric constant tensor:
#      x y z
#    x 2.268590 -0.044160 0.065470 
#    y -0.044160 2.079710 0.034580 
#    z 0.065470 0.034580 2.103500 
# 
# From -- ./inp_files/71315.got.cif
#   From: 2010.05.17/outbox.cif.g08.bks.cpg/sg2_36_cif.got.tgz:71315.got - 2010.06.03 11:33:40.
