data_PCOD9040811
_publ_section_title
;
Structure prediction by ZEFSAII (Michael W. Deem and Ramdas Pophale) SiO2 
 PCOD9040811
Probable space group: P -1
;
_chemical_formula_sum "Si O2"
_cell_formula_units_Z 16
_cell_length_a 28.080262
_cell_length_b 9.307696
_cell_length_c 28.531312
_cell_angle_alpha 33.351987
_cell_angle_beta 170.005611
_cell_angle_gamma 145.522925
_cell_volume 711.398874
_symmetry_space_group_name_H-M "P -1"
_symmetry_group_IT_number 2
_symmetry_cell_setting 'triclinic'
loop_
_space_group_symop_operation_xyz
x,y,z
-x,-y,-z
loop_
_atom_site_type_symbol
_atom_site_label
_atom_site_fract_x
_atom_site_fract_y
_atom_site_fract_z
Si Si1 0.894919 0.682499 0.540516
Si Si2 0.586279 0.015013 0.272546
Si Si3 0.348220 0.420589 0.107321
Si Si4 0.245254 0.836880 0.133468
Si Si5 0.205300 0.496770 0.613330
Si Si6 0.786707 0.578555 0.702491
Si Si7 0.678440 0.247858 0.198741
Si Si8 0.068205 0.648953 0.860633
O O1 0.863544 0.589830 0.482103
O O2 0.189391 0.617504 0.865034
O O3 0.823485 0.984807 0.393434
O O4 0.662306 0.514499 0.388377
O O5 0.666814 0.212570 0.338339
O O6 0.577014 0.185106 0.169786
O O7 0.835652 0.816054 0.564153
O O8 0.306877 0.853493 0.051536
O O9 0.205106 0.452655 0.010298
O O10 0.314810 0.133631 0.132030
O O11 0.483319 0.692012 0.374989
O O12 0.217311 0.674265 0.199150
O O13 0.968238 0.795884 0.846890
O O14 0.916357 0.469895 0.367757
O O15 0.429758 0.317973 0.904654
O O16 0.922577 0.528497 0.797869
#
# Coordination Sequence:
#
# PCOD9040811 Si02
#       8
#     2   2   2   2   2   2   2   2
#     4  12  25  42  65  96 129 169 219 273 323 385
#     4  12  25  42  65  96 129 169 219 273 323 385
#     4  12  24  43  66  96 135 175 212 265 323 384
#     4  10  23  43  69 101 134 169 211 263 318 380
#     4  12  26  40  66  94 121 174 221 272 330 384
#     4  10  23  43  69 101 134 169 211 263 318 380
#     4  12  22  46  62  90 131 168 215 276 332 386
#     4  12  24  43  66  96 135 175 212 265 323 384
#
# _framework density 22.490898000000001
#
# number of rings (size 3 to 8) (size 9 to 14) (size 15 to 20)
#    0.000    0.500    2.500    6.000    5.250    0.500 
#    0.000    0.000    0.000    7.500    0.000    0.000 
#    0.000    0.000    0.000    0.000    0.000    0.000 
#
# Total GULP energy -89688.534102 kJ/mol
# GULP energy per Si atom -5605.533381 kJ/mol
# Density = 2.243971 g / cm^3
# Si number density = 22.490898 Si / 1000 Ang^3
#
#
#
# Elastic Constant Matrix: (Units=GPa)
#
#
# Indices 1 2 3 4 5 6 
#
# 1 108.1411 -5.9509 4.2948 -4.8646 5.3150 3.1116
# 2 -5.9509 44.5416 -3.3040 4.9936 -0.6548 -11.8712
# 3 4.2948 -3.3040 72.5744 14.6590 2.5429 14.3225
# 4 -4.8646 4.9936 14.6590 27.2425 -1.5843 3.6617
# 5 5.3150 -0.6548 2.5429 -1.5843 30.1337 7.7158
# 6 3.1116 -11.8712 14.3225 3.6617 7.7158 22.4187
#
#
#
# Elastic Compliance Matrix: (Units=1/GPa)
#
#
# Indices 1 2 3 4 5 6 
#
# 1 0.009492 0.000948 -0.000833 0.001896 -0.001460 -0.000091
# 2 0.000948 0.028039 -0.000683 -0.007264 -0.004459 0.017873
# 3 -0.000833 -0.000683 0.017421 -0.007949 0.000904 -0.010389
# 4 0.001896 -0.007264 -0.007949 0.043957 0.004474 -0.007751
# 5 -0.001460 -0.004459 0.000904 0.004474 0.037716 -0.016447
# 6 -0.000091 0.017873 -0.010389 -0.007751 -0.016447 0.067646
#
#
# Mechanical properties :
#
#
# Convention : Reuss Voigt Hill
#
# Bulk Modulus (GPa) = 18.58143 23.92633 21.25388
# Shear Modulus (GPa) = 22.38670 31.30678 26.84674
#
# Velocity S-wave (km/s) = 3.15837 3.73497 3.45870
# Velocity P-wave (km/s) = 4.64543 5.40937 5.04189
#
# Compressibility (1/GPa) = 0.05381718
#
# Stress axis : x y z
#
# Youngs Moduli (GPa) = 105.35059 35.66413 57.40124
#
# Poissons Ratio (x) = -0.03382 0.04779
# Poissons Ratio (y) = -0.09989 0.03923
# Poissons Ratio (z) = 0.08771 0.02437
#
# Static dielectric constant tensor:
#      x y z
#    x 1.860680 0.005830 0.016710 
#    y 0.005830 1.794090 -0.006320 
#    z 0.016710 -0.006320 1.786170 
# 
# From -- ./inp_files/343200.got.cif
#   From: 2010.05.17/outbox.cif.g08.bks.cpg/sg2_172_cif.got.tgz:343200.got - 2010.06.03 11:33:40.
