data_PCOD9040007
_publ_section_title
;
Structure prediction by ZEFSAII (Michael W. Deem and Ramdas Pophale) SiO2 
 PCOD9040007
Probable space group: P -1
;
_chemical_formula_sum "Si O2"
_cell_formula_units_Z 16
_cell_length_a 8.951699
_cell_length_b 11.093922
_cell_length_c 13.356250
_cell_angle_alpha 54.350422
_cell_angle_beta 115.350123
_cell_angle_gamma 140.879803
_cell_volume 679.309151
_symmetry_space_group_name_H-M "P -1"
_symmetry_group_IT_number 2
_symmetry_cell_setting 'triclinic'
loop_
_space_group_symop_operation_xyz
x,y,z
-x,-y,-z
loop_
_atom_site_type_symbol
_atom_site_label
_atom_site_fract_x
_atom_site_fract_y
_atom_site_fract_z
Si Si1 0.294966 0.078056 0.727437
Si Si2 0.020454 0.192162 0.898791
Si Si3 0.930289 0.294950 0.492952
Si Si4 0.417397 0.462216 0.609510
Si Si5 0.981888 0.655479 0.956643
Si Si6 0.202541 0.103811 0.374360
Si Si7 0.753935 0.248572 0.673763
Si Si8 0.454294 0.437345 0.134658
O O1 0.390145 0.275149 0.726316
O O2 0.507002 0.155903 0.683144
O O3 0.196664 0.881358 0.858986
O O4 0.060891 0.996662 0.646835
O O5 0.820524 0.136553 0.798802
O O6 0.280875 0.388886 0.831081
O O7 0.011572 0.283003 0.955733
O O8 0.000000 0.000000 0.000000
O O9 0.764995 0.243817 0.559539
O O10 0.163220 0.376806 0.574772
O O11 0.035593 0.497747 0.361380
O O12 0.814417 0.078631 0.512975
O O13 0.500000 0.500000 0.500000
O O14 0.614758 0.683750 0.612927
O O15 0.730992 0.555165 0.891655
O O16 0.000000 0.500000 0.000000
O O17 0.310377 0.198991 0.246286
O O18 0.500000 0.500000 0.000000
#
# Coordination Sequence:
#
# PCOD9040007 Si02
#       8
#     2   2   2   2   2   2   2   2
#     4  10  24  43  69 102 142 179 226 296 351 417
#     4  11  26  42  73  98 137 196 230 286 368 416
#     4  10  24  45  69 102 142 180 231 295 346 420
#     4  11  22  45  70 100 137 183 235 285 349 426
#     4  10  24  45  68 104 136 177 240 300 344 425
#     4  10  23  42  74 101 136 188 232 280 365 420
#     4  11  24  45  67 102 146 177 238 294 345 424
#     4   9  21  42  66 101 136 178 233 279 347 439
#
# _framework density 23.553339999999999
#
# number of rings (size 3 to 8) (size 9 to 14) (size 15 to 20)
#    0.000    1.750    1.250    0.750   10.500    5.500 
#    2.250    6.875    0.000    0.000    0.000    0.000 
#    0.000    0.000    0.000    0.000    0.000    0.000 
#
# Total GULP energy -89414.529610 kJ/mol
# GULP energy per Si atom -5588.408101 kJ/mol
# Density = 2.349973 g / cm^3
# Si number density = 23.553340 Si / 1000 Ang^3
#
#
#
# Elastic Constant Matrix: (Units=GPa)
#
#
# Indices 1 2 3 4 5 6 
#
# 1 154.5799 66.1670 52.6181 -27.3427 -11.2698 -2.5883
# 2 66.1670 135.4877 33.4627 -21.7881 1.8103 -15.2429
# 3 52.6181 33.4627 97.2718 -30.2265 5.4042 -13.4377
# 4 -27.3427 -21.7881 -30.2265 41.4326 -4.4076 4.3152
# 5 -11.2698 1.8103 5.4042 -4.4076 44.4317 -16.7532
# 6 -2.5883 -15.2429 -13.4377 4.3152 -16.7532 47.0829
#
#
#
# Elastic Compliance Matrix: (Units=1/GPa)
#
#
# Indices 1 2 3 4 5 6 
#
# 1 0.009915 -0.003698 -0.003644 0.002348 0.003029 -0.000830
# 2 -0.003698 0.009936 -0.000345 0.002246 -0.000065 0.002686
# 3 -0.003644 -0.000345 0.015397 0.008243 -0.000821 0.003035
# 4 0.002348 0.002246 0.008243 0.033090 0.003292 0.001347
# 5 0.003029 -0.000065 -0.000821 0.003292 0.027207 0.009290
# 6 -0.000830 0.002686 0.003035 0.001347 0.009290 0.026111
#
#
# Mechanical properties :
#
#
# Convention : Reuss Voigt Hill
#
# Bulk Modulus (GPa) = 50.31996 76.87057 63.59526
# Shear Modulus (GPa) = 34.80559 42.26221 38.53390
#
# Velocity S-wave (km/s) = 3.84830 4.24054 4.04917
# Velocity P-wave (km/s) = 6.41534 7.52887 6.99430
#
# Compressibility (1/GPa) = 0.01987283
#
# Stress axis : x y z
#
# Youngs Moduli (GPa) = 100.85761 100.64124 64.94906
#
# Poissons Ratio (x) = 0.37219 0.23670
# Poissons Ratio (y) = 0.37299 0.02241
# Poissons Ratio (z) = 0.36756 0.03472
#
# Static dielectric constant tensor:
#      x y z
#    x 1.887860 -0.061360 -0.005320 
#    y -0.061360 1.958910 0.034100 
#    z -0.005320 0.034100 1.986840 
# 
# From -- ./inp_files/500071.got.cif
#   From: 2010.05.17/outbox.cif.g08.bks.cpg/sg2_251_cif.got.tgz:500071.got - 2010.06.03 11:33:40.
