data_PCOD9040266
_publ_section_title
;
Structure prediction by ZEFSAII (Michael W. Deem and Ramdas Pophale) SiO2 
 PCOD9040266
Probable space group: P -1
;
_chemical_formula_sum "Si O2"
_cell_formula_units_Z 14
_cell_length_a 19.873764
_cell_length_b 20.727286
_cell_length_c 8.363931
_cell_angle_alpha 32.393823
_cell_angle_beta 143.443135
_cell_angle_gamma 159.819030
_cell_volume 635.702703
_symmetry_space_group_name_H-M "P -1"
_symmetry_group_IT_number 2
_symmetry_cell_setting 'triclinic'
loop_
_space_group_symop_operation_xyz
x,y,z
-x,-y,-z
loop_
_atom_site_type_symbol
_atom_site_label
_atom_site_fract_x
_atom_site_fract_y
_atom_site_fract_z
Si Si1 0.717510 0.939694 0.803625
Si Si2 0.317210 0.541618 0.727605
Si Si3 0.005388 0.647667 0.702722
Si Si4 0.501347 0.139716 0.150525
Si Si5 0.176827 0.921060 0.769535
Si Si6 0.073064 0.094758 0.262304
Si Si7 0.115662 0.477387 0.774624
O O1 0.549187 0.759398 0.731916
O O2 0.609828 0.873124 0.904699
O O3 0.837892 0.164314 0.519404
O O4 0.881339 0.979608 0.048468
O O5 0.227683 0.554628 0.661846
O O6 0.204659 0.479477 0.481308
O O7 0.238742 0.342140 0.049212
O O8 0.090828 0.774246 0.764372
O O9 0.000000 0.500000 0.000000
O O10 0.723821 0.375348 0.088136
O O11 0.500000 0.000000 0.500000
O O12 0.388906 0.059975 0.937576
O O13 0.157204 0.045887 0.450020
O O14 0.034734 0.759427 0.983117
O O15 0.000000 0.000000 0.500000
O O16 0.000000 0.500000 0.500000
#
# Coordination Sequence:
#
# PCOD9040266 Si02
#       7
#     2   2   2   2   2   2   2
#     4  10  24  44  65  95 132 173 210 267 322 375
#     4  10  23  43  65  92 128 175 211 265 319 377
#     4  11  26  43  64  92 137 174 209 260 325 391
#     4  11  23  37  65  95 126 163 218 267 316 375
#     4  12  24  41  64 100 125 170 216 265 319 380
#     4  11  21  42  69  95 131 163 219 269 318 378
#     4  11  21  37  64  91 126 164 213 265 319 369
#
# _framework density 22.022874000000002
#
# number of rings (size 3 to 8) (size 9 to 14) (size 15 to 20)
#    0.000    1.143    4.286    1.714    4.000    5.714 
#    0.000    1.429    0.000    0.000    0.000    0.000 
#    0.000    0.000    0.000    0.000    0.000    0.000 
#
# Total GULP energy -78303.955189 kJ/mol
# GULP energy per Si atom -5593.139656 kJ/mol
# Density = 2.197275 g / cm^3
# Si number density = 22.022874 Si / 1000 Ang^3
#
#
#
# Elastic Constant Matrix: (Units=GPa)
#
#
# Indices 1 2 3 4 5 6 
#
# 1 45.1832 12.3902 24.7471 9.3189 11.4878 -19.0531
# 2 12.3902 188.2244 75.4140 24.9356 6.9710 -15.7862
# 3 24.7471 75.4140 148.2410 1.4341 26.4711 -13.7843
# 4 9.3189 24.9356 1.4341 40.9407 -8.1806 -9.8051
# 5 11.4878 6.9710 26.4711 -8.1806 36.7984 -2.6295
# 6 -19.0531 -15.7862 -13.7843 -9.8051 -2.6295 37.8525
#
#
#
# Elastic Compliance Matrix: (Units=1/GPa)
#
#
# Indices 1 2 3 4 5 6 
#
# 1 0.032916 0.001563 -0.003413 -0.006793 -0.008654 0.013617
# 2 0.001563 0.007472 -0.003896 -0.004450 0.000005 0.001332
# 3 -0.003413 -0.003896 0.010239 0.001897 -0.005103 0.000523
# 4 -0.006793 -0.004450 0.001897 0.031386 0.008874 0.004162
# 5 -0.008654 0.000005 -0.005103 0.008874 0.035416 -0.001453
# 6 0.013617 0.001332 0.000523 0.004162 -0.001453 0.034995
#
#
# Mechanical properties :
#
#
# Convention : Reuss Voigt Hill
#
# Bulk Modulus (GPa) = 25.55252 67.41678 46.48465
# Shear Modulus (GPa) = 28.25485 41.05812 34.65649
#
# Velocity S-wave (km/s) = 3.58575 4.32248 3.97124
# Velocity P-wave (km/s) = 5.36390 7.45590 6.49468
#
# Compressibility (1/GPa) = 0.03913508
#
# Stress axis : x y z
#
# Youngs Moduli (GPa) = 30.38037 133.83241 97.66488
#
# Poissons Ratio (x) = -0.20920 0.33333
# Poissons Ratio (y) = -0.04749 0.38052
# Poissons Ratio (z) = 0.10369 0.52144
#
# Static dielectric constant tensor:
#      x y z
#    x 1.867030 -0.000580 -0.041260 
#    y -0.000580 1.812640 0.016400 
#    z -0.041260 0.016400 1.804530 
# 
# From -- ./inp_files/255872.got.cif
#   From: 2010.05.17/outbox.cif.g08.bks.cpg/sg2_128_cif.got.tgz:255872.got - 2010.06.03 11:33:40.
