data_PCOD9040355
_publ_section_title
;
Structure prediction by ZEFSAII (Michael W. Deem and Ramdas Pophale) SiO2 
 PCOD9040355
Probable space group: P -1
;
_chemical_formula_sum "Si O2"
_cell_formula_units_Z 14
_cell_length_a 9.573347
_cell_length_b 25.025262
_cell_length_c 18.749540
_cell_angle_alpha 19.465965
_cell_angle_beta 29.462226
_cell_angle_gamma 27.965194
_cell_volume 680.964326
_symmetry_space_group_name_H-M "P -1"
_symmetry_group_IT_number 2
_symmetry_cell_setting 'triclinic'
loop_
_space_group_symop_operation_xyz
x,y,z
-x,-y,-z
loop_
_atom_site_type_symbol
_atom_site_label
_atom_site_fract_x
_atom_site_fract_y
_atom_site_fract_z
Si Si1 0.704311 0.101491 0.309673
Si Si2 0.428215 0.492138 0.958029
Si Si3 0.699448 0.998782 0.595291
Si Si4 0.742257 0.490856 0.570341
Si Si5 0.590756 0.122987 0.752413
Si Si6 0.681901 0.758097 0.434181
Si Si7 0.815892 0.606228 0.015786
O O1 0.500000 0.000000 0.500000
O O2 0.660746 0.112864 0.399439
O O3 0.605656 0.303441 0.079948
O O4 0.048291 0.977417 0.293516
O O5 0.515395 0.632894 0.696541
O O6 0.500000 0.500000 0.000000
O O7 0.064860 0.535846 0.056977
O O8 0.415116 0.082137 0.669528
O O9 0.745905 0.808801 0.787521
O O10 0.000000 0.000000 0.500000
O O11 0.534523 0.687230 0.394517
O O12 0.498887 0.420632 0.799887
O O13 0.000000 0.500000 0.500000
O O14 0.957922 0.359022 0.582555
O O15 0.444190 0.164390 0.685579
O O16 0.500000 0.000000 0.000000
O O17 0.000000 0.500000 0.000000
#
# Coordination Sequence:
#
# PCOD9040355 Si02
#       7
#     2   2   2   2   2   2   2
#     4  12  24  39  67 104 134 169 232 288 333 408
#     4  12  23  42  70 102 138 180 225 285 351 407
#     4  12  22  44  72 101 136 181 233 287 346 404
#     4  10  23  43  66 101 140 182 226 284 353 407
#     4  11  23  42  67  96 134 179 225 278 343 407
#     4  11  23  44  71  95 138 183 229 279 347 416
#     4  12  24  43  72 103 138 186 236 283 340 419
#
# _framework density 20.559080000000002
#
# number of rings (size 3 to 8) (size 9 to 14) (size 15 to 20)
#    0.000    0.571    4.286    5.143    0.000    4.000 
#    0.000    0.714    0.000    0.000    0.000    0.000 
#    0.000    0.000    0.000    0.000    0.000    0.000 
#
# Total GULP energy -78190.765886 kJ/mol
# GULP energy per Si atom -5585.054706 kJ/mol
# Density = 2.051229 g / cm^3
# Si number density = 20.559080 Si / 1000 Ang^3
#
#
#
# Elastic Constant Matrix: (Units=GPa)
#
#
# Indices 1 2 3 4 5 6 
#
# 1 83.2461 18.8116 37.7054 12.9283 7.4589 4.2720
# 2 18.8116 188.6141 53.5903 -6.3708 -4.8170 11.6795
# 3 37.7054 53.5903 133.8648 -10.4464 0.4461 4.3171
# 4 12.9283 -6.3708 -10.4464 51.2282 0.0076 -3.7388
# 5 7.4589 -4.8170 0.4461 0.0076 31.1270 -0.6596
# 6 4.2720 11.6795 4.3171 -3.7388 -0.6596 31.4804
#
#
#
# Elastic Compliance Matrix: (Units=1/GPa)
#
#
# Indices 1 2 3 4 5 6 
#
# 1 0.015336 -0.000399 -0.004472 -0.004976 -0.003713 -0.001989
# 2 -0.000399 0.006136 -0.002267 0.000266 0.001038 -0.001858
# 3 -0.004472 -0.002267 0.009846 0.002887 0.000589 0.000453
# 4 -0.004976 0.000266 0.002887 0.021600 0.001246 0.002772
# 5 -0.003713 0.001038 0.000589 0.001246 0.033187 0.000881
# 6 -0.001989 -0.001858 0.000453 0.002772 0.000881 0.033011
#
#
# Mechanical properties :
#
#
# Convention : Reuss Voigt Hill
#
# Bulk Modulus (GPa) = 58.67510 69.54884 64.11197
# Shear Modulus (GPa) = 35.95258 42.47498 39.21378
#
# Velocity S-wave (km/s) = 4.18634 4.55025 4.37208
# Velocity P-wave (km/s) = 7.20895 7.84274 7.53251
#
# Compressibility (1/GPa) = 0.01704300
#
# Stress axis : x y z
#
# Youngs Moduli (GPa) = 65.20723 162.96513 101.56305
#
# Poissons Ratio (x) = 0.06498 0.45417
# Poissons Ratio (y) = 0.02600 0.23025
# Poissons Ratio (z) = 0.29159 0.36945
#
# Static dielectric constant tensor:
#      x y z
#    x 1.806610 -0.005480 0.031120 
#    y -0.005480 1.790960 -0.043470 
#    z 0.031120 -0.043470 1.776110 
# 
# From -- ./inp_files/182320.got.cif
#   From: 2010.05.17/outbox.cif.g08.bks.cpg/sg2_92_cif.got.tgz:182320.got - 2010.06.03 11:33:40.
