data_PCOD9040168
_publ_section_title
;
Structure prediction by ZEFSAII (Michael W. Deem and Ramdas Pophale) SiO2 
 PCOD9040168
Probable space group: P -1
;
_chemical_formula_sum "Si O2"
_cell_formula_units_Z 16
_cell_length_a 7.000262
_cell_length_b 11.872755
_cell_length_c 18.993819
_cell_angle_alpha 130.393259
_cell_angle_beta 133.914084
_cell_angle_gamma 66.530631
_cell_volume 862.334859
_symmetry_space_group_name_H-M "P -1"
_symmetry_group_IT_number 2
_symmetry_cell_setting 'triclinic'
loop_
_space_group_symop_operation_xyz
x,y,z
-x,-y,-z
loop_
_atom_site_type_symbol
_atom_site_label
_atom_site_fract_x
_atom_site_fract_y
_atom_site_fract_z
Si Si1 0.134222 0.130124 0.181801
Si Si2 0.654618 0.318955 0.154476
Si Si3 0.405333 0.833940 0.433721
Si Si4 0.794068 0.833060 0.288227
Si Si5 0.889968 0.803719 0.963359
Si Si6 0.393694 0.655130 0.014853
Si Si7 0.667181 0.165514 0.419704
Si Si8 0.777557 0.660564 0.361070
O O1 0.153245 0.165208 0.117708
O O2 0.415989 0.170945 0.307118
O O3 0.904764 0.224189 0.191316
O O4 0.034975 0.956077 0.093551
O O5 0.389939 0.242618 0.091439
O O6 0.722643 0.485184 0.267220
O O7 0.603372 0.326146 0.060565
O O8 0.428374 0.823120 0.519522
O O9 0.579413 0.723717 0.392149
O O10 0.089686 0.805713 0.327601
O O11 0.500000 0.000000 0.500000
O O12 0.583843 0.781413 0.153758
O O13 0.734232 0.738204 0.305668
O O14 0.780122 0.005145 0.373336
O O15 0.092830 0.676761 0.970399
O O16 0.500000 0.500000 0.000000
O O17 0.915946 0.287178 0.520025
#
# Coordination Sequence:
#
# PCOD9040168 Si02
#       8
#     2   2   2   2   2   2   2   2
#     4  10  23  44  64  86 121 164 214 254 302 356
#     4  11  25  41  63  91 128 161 206 255 305 366
#     4  11  21  36  60  92 123 158 199 247 304 362
#     4  11  21  39  62  91 129 157 200 252 311 367
#     4  10  23  43  64  89 123 163 205 258 303 363
#     4  11  23  39  63  97 126 158 196 253 322 365
#     4  11  22  40  66  90 122 166 204 251 304 361
#     4  11  23  40  59  93 129 160 199 253 307 367
#
# _framework density 18.554279000000001
#
# number of rings (size 3 to 8) (size 9 to 14) (size 15 to 20)
#    0.000    1.250    5.000    1.125    1.750    5.000 
#    0.000    1.250    0.000    0.000    0.000    0.000 
#    0.000    0.000    0.000    0.000    0.000    0.000 
#
# Total GULP energy -89411.539027 kJ/mol
# GULP energy per Si atom -5588.221189 kJ/mol
# Density = 1.851205 g / cm^3
# Si number density = 18.554279 Si / 1000 Ang^3
#
#
#
# Elastic Constant Matrix: (Units=GPa)
#
#
# Indices 1 2 3 4 5 6 
#
# 1 142.8909 43.5375 59.1510 0.9874 5.0210 -26.8313
# 2 43.5375 82.7981 37.2578 -2.1059 4.4947 -24.9561
# 3 59.1510 37.2578 130.0812 -5.2834 5.5141 -17.9673
# 4 0.9874 -2.1059 -5.2834 27.4567 -10.7965 4.5368
# 5 5.0210 4.4947 5.5141 -10.7965 19.9455 4.6066
# 6 -26.8313 -24.9561 -17.9673 4.5368 4.6066 20.7959
#
#
#
# Elastic Compliance Matrix: (Units=1/GPa)
#
#
# Indices 1 2 3 4 5 6 
#
# 1 0.011759 0.000958 -0.003017 -0.008179 -0.010908 0.017916
# 2 0.000958 0.023841 -0.002078 -0.012154 -0.019718 0.035071
# 3 -0.003017 -0.002078 0.010114 0.000790 -0.001733 0.002564
# 4 -0.008179 -0.012154 0.000790 0.064101 0.050752 -0.049683
# 5 -0.010908 -0.019718 -0.001733 0.050752 0.102120 -0.072926
# 6 0.017916 0.035071 0.002564 -0.049683 -0.072926 0.142497
#
#
# Mechanical properties :
#
#
# Convention : Reuss Voigt Hill
#
# Bulk Modulus (GPa) = 26.70858 70.62919 48.66889
# Shear Modulus (GPa) = 13.32675 28.02786 20.67731
#
# Velocity S-wave (km/s) = 2.68294 3.89084 3.34192
# Velocity P-wave (km/s) = 4.90139 7.63766 6.41706
#
# Compressibility (1/GPa) = 0.03744115
#
# Stress axis : x y z
#
# Youngs Moduli (GPa) = 85.03993 41.94532 98.87089
#
# Poissons Ratio (x) = -0.04020 0.29828
# Poissons Ratio (y) = -0.08151 0.20545
# Poissons Ratio (z) = 0.25656 0.08716
#
# Static dielectric constant tensor:
#      x y z
#    x 1.613310 -0.011480 -0.004870 
#    y -0.011480 1.632560 0.001950 
#    z -0.004870 0.001950 1.631840 
# 
# From -- ./inp_files/69166.got.cif
#   From: 2010.05.17/outbox.cif.g08.bks.cpg/sg2_35_cif.got.tgz:69166.got - 2010.06.03 11:33:40.
