data_PCOD9040273
_publ_section_title
;
Structure prediction by ZEFSAII (Michael W. Deem and Ramdas Pophale) SiO2 
 PCOD9040273
Probable space group: P -1
;
_chemical_formula_sum "Si O2"
_cell_formula_units_Z 16
_cell_length_a 11.762438
_cell_length_b 13.822906
_cell_length_c 8.302025
_cell_angle_alpha 44.706655
_cell_angle_beta 128.658195
_cell_angle_gamma 109.713610
_cell_volume 727.404852
_symmetry_space_group_name_H-M "P -1"
_symmetry_group_IT_number 2
_symmetry_cell_setting 'triclinic'
loop_
_space_group_symop_operation_xyz
x,y,z
-x,-y,-z
loop_
_atom_site_type_symbol
_atom_site_label
_atom_site_fract_x
_atom_site_fract_y
_atom_site_fract_z
Si Si1 0.960966 0.523663 0.752733
Si Si2 0.715490 0.213281 0.243153
Si Si3 0.815285 0.919339 0.541383
Si Si4 0.713793 0.343595 0.728627
Si Si5 0.824474 0.665822 0.049398
Si Si6 0.033397 0.201328 0.701188
Si Si7 0.852430 0.054809 0.088835
Si Si8 0.555294 0.580663 0.100568
O O1 0.851641 0.420328 0.738856
O O2 0.902254 0.687891 0.484170
O O3 0.094039 0.474324 0.802315
O O4 0.000000 0.500000 0.000000
O O5 0.863776 0.218845 0.470613
O O6 0.724670 0.050636 0.403598
O O7 0.716736 0.290490 0.978559
O O8 0.569079 0.288754 0.113007
O O9 0.989955 0.915477 0.740093
O O10 0.797860 0.959501 0.291442
O O11 0.770831 0.776869 0.728592
O O12 0.583615 0.466295 0.405804
O O13 0.740996 0.203381 0.809340
O O14 0.933936 0.743276 0.160194
O O15 0.700255 0.631632 0.099802
O O16 0.113589 0.042111 0.923351
O O17 0.500000 0.500000 0.000000
#
# Coordination Sequence:
#
# PCOD9040273 Si02
#       8
#     2   2   2   2   2   2   2   2
#     4  12  22  38  67  99 125 165 221 278 319 373
#     4  10  23  43  65  93 131 179 219 257 321 393
#     4   9  19  38  64  93 131 170 214 267 320 385
#     4  11  22  43  70  92 130 173 225 268 315 389
#     4  12  25  40  65 102 135 166 214 277 333 385
#     4  11  22  38  68 103 129 165 212 275 333 381
#     4   9  19  39  66 100 128 163 219 275 324 375
#     4  12  28  43  61  93 138 178 214 265 335 393
#
# _framework density 21.996003000000002
#
# number of rings (size 3 to 8) (size 9 to 14) (size 15 to 20)
#    0.000    1.250    3.750    3.000    1.750    3.500 
#    0.000    0.000    0.000    3.000    0.000    0.000 
#    0.000    0.000    0.000    0.000    0.000    0.000 
#
# Total GULP energy -89382.556495 kJ/mol
# GULP energy per Si atom -5586.409781 kJ/mol
# Density = 2.194594 g / cm^3
# Si number density = 21.996003 Si / 1000 Ang^3
#
#
#
# Elastic Constant Matrix: (Units=GPa)
#
#
# Indices 1 2 3 4 5 6 
#
# 1 73.6958 26.6413 13.3181 -1.2841 2.4442 -17.3074
# 2 26.6413 84.0796 17.9522 -9.9363 12.4374 -16.4054
# 3 13.3181 17.9522 63.1602 -7.2499 -6.9791 -0.4182
# 4 -1.2841 -9.9363 -7.2499 33.2067 -4.1221 -1.6374
# 5 2.4442 12.4374 -6.9791 -4.1221 38.2554 -15.6101
# 6 -17.3074 -16.4054 -0.4182 -1.6374 -15.6101 27.2299
#
#
#
# Elastic Compliance Matrix: (Units=1/GPa)
#
#
# Indices 1 2 3 4 5 6 
#
# 1 0.017852 -0.003524 -0.002161 0.000295 0.004438 0.011752
# 2 -0.003524 0.015765 -0.003575 0.003746 -0.002764 0.005844
# 3 -0.002161 -0.003575 0.018238 0.003426 0.004903 -0.000230
# 4 0.000295 0.003746 0.003426 0.033170 0.006259 0.008079
# 5 0.004438 -0.002764 0.004903 0.006259 0.037829 0.023293
# 6 0.011752 0.005844 -0.000230 0.008079 0.023293 0.061551
#
#
# Mechanical properties :
#
#
# Convention : Reuss Voigt Hill
#
# Bulk Modulus (GPa) = 29.99728 37.41765 33.70747
# Shear Modulus (GPa) = 23.36073 30.60666 26.98370
#
# Velocity S-wave (km/s) = 3.26244 3.73428 3.50631
# Velocity P-wave (km/s) = 5.27812 5.97002 5.63470
#
# Compressibility (1/GPa) = 0.03333635
#
# Stress axis : x y z
#
# Youngs Moduli (GPa) = 56.01763 63.43132 54.83099
#
# Poissons Ratio (x) = 0.22351 0.11847
# Poissons Ratio (y) = 0.19739 0.19601
# Poissons Ratio (z) = 0.12103 0.22675
#
# Static dielectric constant tensor:
#      x y z
#    x 1.847890 -0.011240 -0.015190 
#    y -0.011240 1.798060 0.015100 
#    z -0.015190 0.015100 1.854360 
# 
# From -- ./inp_files/271646.got.cif
#   From: 2010.05.17/outbox.cif.g08.bks.cpg/sg2_136_cif.got.tgz:271646.got - 2010.06.03 11:33:40.
