data_PCOD9040443
_publ_section_title
;
Structure prediction by ZEFSAII (Michael W. Deem and Ramdas Pophale) SiO2 
 PCOD9040443
Probable space group: P -1
;
_chemical_formula_sum "Si O2"
_cell_formula_units_Z 12
_cell_length_a 11.352226
_cell_length_b 8.446382
_cell_length_c 17.334268
_cell_angle_alpha 45.996261
_cell_angle_beta 29.549933
_cell_angle_gamma 37.957339
_cell_volume 503.975594
_symmetry_space_group_name_H-M "P -1"
_symmetry_group_IT_number 2
_symmetry_cell_setting 'triclinic'
loop_
_space_group_symop_operation_xyz
x,y,z
-x,-y,-z
loop_
_atom_site_type_symbol
_atom_site_label
_atom_site_fract_x
_atom_site_fract_y
_atom_site_fract_z
Si Si1 0.431672 0.817960 0.331839
Si Si2 0.613796 0.539403 0.634035
Si Si3 0.020468 0.500122 0.788338
Si Si4 0.845779 0.613251 0.679279
Si Si5 0.258522 0.754476 0.894228
Si Si6 0.345096 0.946282 0.173021
O O1 0.409361 0.575889 0.396396
O O2 0.664005 0.708975 0.301487
O O3 0.511780 0.892350 0.178014
O O4 0.184081 0.102140 0.400390
O O5 0.877473 0.571068 0.465162
O O6 0.686525 0.298928 0.730592
O O7 0.336665 0.765281 0.756413
O O8 0.911573 0.496164 0.766926
O O9 0.836198 0.451664 0.970684
O O10 0.951674 0.790325 0.738399
O O11 0.545301 0.676163 0.801366
O O12 0.000000 0.000000 0.000000
O O13 0.500000 0.000000 0.000000
#
# Coordination Sequence:
#
# PCOD9040443 Si02
#       6
#     2   2   2   2   2   2
#     4   9  21  39  67  95 131 160 222 267 320 381
#     4  10  23  43  67 100 131 165 220 279 323 377
#     4  11  21  41  67  97 128 174 217 264 329 383
#     4  11  23  43  67  95 137 172 211 269 335 387
#     4  12  24  43  67  93 135 178 217 266 321 398
#     4   9  19  37  64  97 125 165 214 269 320 374
#
# _framework density 23.810676999999998
#
# number of rings (size 3 to 8) (size 9 to 14) (size 15 to 20)
#    1.000    0.667    3.333    1.500    0.000    3.333 
#    0.000    0.833    0.000    0.000    0.000    0.000 
#    0.000    0.000    0.000    0.000    0.000    0.000 
#
# Total GULP energy -66824.596350 kJ/mol
# GULP energy per Si atom -5568.716362 kJ/mol
# Density = 2.375648 g / cm^3
# Si number density = 23.810677 Si / 1000 Ang^3
#
#
#
# Elastic Constant Matrix: (Units=GPa)
#
#
# Indices 1 2 3 4 5 6 
#
# 1 82.2789 11.8515 5.1564 9.0107 -5.9004 -9.9898
# 2 11.8515 68.9116 2.4911 19.6089 -1.5079 -10.2980
# 3 5.1564 2.4911 94.5956 22.5259 -11.0030 -8.8547
# 4 9.0107 19.6089 22.5259 33.0654 -1.5685 4.4715
# 5 -5.9004 -1.5079 -11.0030 -1.5685 23.2607 0.6254
# 6 -9.9898 -10.2980 -8.8547 4.4715 0.6254 29.9245
#
#
#
# Elastic Compliance Matrix: (Units=1/GPa)
#
#
# Indices 1 2 3 4 5 6 
#
# 1 0.013595 0.000072 0.001496 -0.005369 0.003645 0.005732
# 2 0.000072 0.020907 0.004819 -0.017105 0.002200 0.011155
# 3 0.001496 0.004819 0.015467 -0.014669 0.006783 0.008785
# 4 -0.005369 -0.017105 -0.014669 0.054304 -0.005209 -0.020025
# 5 0.003645 0.002200 0.006783 -0.005209 0.046814 0.003781
# 6 0.005732 0.011155 0.008785 -0.020025 0.003781 0.044682
#
#
# Mechanical properties :
#
#
# Convention : Reuss Voigt Hill
#
# Bulk Modulus (GPa) = 15.93817 31.64270 23.79043
# Shear Modulus (GPa) = 24.52057 32.33590 28.42823
#
# Velocity S-wave (km/s) = 3.21255 3.68916 3.45907
# Velocity P-wave (km/s) = 4.52426 5.60934 5.09576
#
# Compressibility (1/GPa) = 0.06274244
#
# Stress axis : x y z
#
# Youngs Moduli (GPa) = 73.55669 47.83050 64.65319
#
# Poissons Ratio (x) = -0.00344 -0.09672
# Poissons Ratio (y) = -0.00529 -0.31155
# Poissons Ratio (z) = -0.11004 -0.23048
#
# Static dielectric constant tensor:
#      x y z
#    x 1.943770 0.100680 0.022180 
#    y 0.100680 2.024150 0.055560 
#    z 0.022180 0.055560 1.943110 
# 
# From -- ./inp_files/511650.got.cif
#   From: 2010.05.17/outbox.cif.g08.bks.cpg/sg2_256_cif.got.tgz:511650.got - 2010.06.03 11:33:40.
