data_PCOD9040103
_publ_section_title
;
Structure prediction by ZEFSAII (Michael W. Deem and Ramdas Pophale) SiO2 
 PCOD9040103
Probable space group: P -1
;
_chemical_formula_sum "Si O2"
_cell_formula_units_Z 16
_cell_length_a 19.834852
_cell_length_b 12.134033
_cell_length_c 7.284124
_cell_angle_alpha 129.916244
_cell_angle_beta 42.575035
_cell_angle_gamma 145.665524
_cell_volume 666.381481
_symmetry_space_group_name_H-M "P -1"
_symmetry_group_IT_number 2
_symmetry_cell_setting 'triclinic'
loop_
_space_group_symop_operation_xyz
x,y,z
-x,-y,-z
loop_
_atom_site_type_symbol
_atom_site_label
_atom_site_fract_x
_atom_site_fract_y
_atom_site_fract_z
Si Si1 0.247221 0.755756 0.045115
Si Si2 0.265939 0.070475 0.195192
Si Si3 0.690694 0.629367 0.846189
Si Si4 0.340837 0.845734 0.358591
Si Si5 0.538704 0.352720 0.155792
Si Si6 0.440955 0.702717 0.525143
Si Si7 0.963288 0.395453 0.157881
Si Si8 0.984417 0.824005 0.405415
O O1 0.329771 0.867988 0.185827
O O2 0.089374 0.576379 0.217972
O O3 0.275115 0.906741 0.002305
O O4 0.305281 0.665676 0.754539
O O5 0.283089 0.190543 0.111281
O O6 0.384591 0.227427 0.265247
O O7 0.106487 0.926364 0.416714
O O8 0.631284 0.564101 0.099031
O O9 0.581042 0.437520 0.734907
O O10 0.829114 0.670046 0.615763
O O11 0.405172 0.748743 0.139284
O O12 0.186076 0.706669 0.589740
O O13 0.437260 0.062484 0.483955
O O14 0.551585 0.357949 0.353004
O O15 0.000000 0.500000 0.000000
O O16 0.980334 0.245021 0.910397
O O17 0.000000 0.000000 0.500000
#
# Coordination Sequence:
#
# PCOD9040103 Si02
#       8
#     2   2   2   2   2   2   2   2
#     4  11  21  43  66  94 136 173 223 278 330 391
#     4  11  22  42  67  93 137 174 217 283 329 390
#     4  11  25  42  68  97 131 182 226 273 336 395
#     4  11  24  41  67  99 137 171 215 286 333 387
#     4  11  23  43  66 100 136 174 222 275 336 396
#     4  11  23  44  69  96 138 177 221 278 333 401
#     4  12  23  38  68 100 124 175 229 269 328 405
#     4  10  23  43  62  94 134 173 221 275 327 390
#
# _framework density 24.010270999999999
#
# number of rings (size 3 to 8) (size 9 to 14) (size 15 to 20)
#    0.000    1.000    5.000    2.250    1.750    1.000 
#    0.000    0.000    0.000    5.250    0.000    0.000 
#    0.000    0.000    0.000    0.000    0.000    0.000 
#
# Total GULP energy -89418.431963 kJ/mol
# GULP energy per Si atom -5588.651998 kJ/mol
# Density = 2.395562 g / cm^3
# Si number density = 24.010271 Si / 1000 Ang^3
#
#
#
# Elastic Constant Matrix: (Units=GPa)
#
#
# Indices 1 2 3 4 5 6 
#
# 1 119.3712 43.9331 38.3916 -10.8252 -22.3148 -11.8066
# 2 43.9331 126.4516 44.4010 -10.6292 -10.0443 2.5189
# 3 38.3916 44.4010 105.9559 -13.5722 -21.8089 -2.4748
# 4 -10.8252 -10.6292 -13.5722 41.5141 3.4143 -16.1823
# 5 -22.3148 -10.0443 -21.8089 3.4143 33.6893 -11.8100
# 6 -11.8066 2.5189 -2.4748 -16.1823 -11.8100 49.8435
#
#
#
# Elastic Compliance Matrix: (Units=1/GPa)
#
#
# Indices 1 2 3 4 5 6 
#
# 1 0.012374 -0.003152 -0.000733 0.003959 0.008618 0.006381
# 2 -0.003152 0.010133 -0.003567 0.000030 -0.002048 -0.001911
# 3 -0.000733 -0.003567 0.013508 0.004188 0.008163 0.003971
# 4 0.003959 0.000030 0.004188 0.030925 0.006684 0.012768
# 5 0.008618 -0.002048 0.008163 0.006684 0.044760 0.015326
# 6 0.006381 -0.001911 0.003971 0.012768 0.015326 0.029645
#
#
# Mechanical properties :
#
#
# Convention : Reuss Voigt Hill
#
# Bulk Modulus (GPa) = 47.36604 67.24780 57.30692
# Shear Modulus (GPa) = 30.62137 40.01290 35.31714
#
# Velocity S-wave (km/s) = 3.57507 4.08670 3.83942
# Velocity P-wave (km/s) = 6.06727 7.09485 6.60108
#
# Compressibility (1/GPa) = 0.02111217
#
# Stress axis : x y z
#
# Youngs Moduli (GPa) = 80.81486 98.68293 74.03226
#
# Poissons Ratio (x) = 0.31100 0.05426
# Poissons Ratio (y) = 0.25469 0.26407
# Poissons Ratio (z) = 0.05923 0.35200
#
# Static dielectric constant tensor:
#      x y z
#    x 1.941920 0.007700 -0.081060 
#    y 0.007700 1.941530 -0.017970 
#    z -0.081060 -0.017970 1.945220 
# 
# From -- ./inp_files/261407.got.cif
#   From: 2010.05.17/outbox.cif.g08.bks.cpg/sg2_131_cif.got.tgz:261407.got - 2010.06.03 11:33:40.
