data_PCOD9040843
_publ_section_title
;
Structure prediction by ZEFSAII (Michael W. Deem and Ramdas Pophale) SiO2 
 PCOD9040843
Probable space group: P -1
;
_chemical_formula_sum "Si O2"
_cell_formula_units_Z 14
_cell_length_a 7.430017
_cell_length_b 9.386565
_cell_length_c 9.728373
_cell_angle_alpha 73.935171
_cell_angle_beta 76.951143
_cell_angle_gamma 111.349139
_cell_volume 565.390475
_symmetry_space_group_name_H-M "P -1"
_symmetry_group_IT_number 2
_symmetry_cell_setting 'triclinic'
loop_
_space_group_symop_operation_xyz
x,y,z
-x,-y,-z
loop_
_atom_site_type_symbol
_atom_site_label
_atom_site_fract_x
_atom_site_fract_y
_atom_site_fract_z
Si Si1 0.957248 0.600244 0.098809
Si Si2 0.486617 0.647777 0.722939
Si Si3 0.171391 0.608058 0.333335
Si Si4 0.356018 0.920671 0.678270
Si Si5 0.580444 0.729426 0.364923
Si Si6 0.945797 0.138969 0.796885
Si Si7 0.071685 0.131249 0.322136
O O1 0.707958 0.525411 0.161699
O O2 0.058410 0.550680 0.223608
O O3 0.058503 0.800635 0.060793
O O4 0.000000 0.500000 0.000000
O O5 0.423808 0.787238 0.758279
O O6 0.497936 0.670491 0.549272
O O7 0.606763 0.381538 0.674441
O O8 0.189839 0.794327 0.284724
O O9 0.281037 0.292015 0.281366
O O10 0.000000 0.500000 0.500000
O O11 0.120150 0.834344 0.689158
O O12 0.500000 0.000000 0.500000
O O13 0.380346 0.081006 0.714836
O O14 0.810568 0.746971 0.312778
O O15 0.892389 0.960038 0.793373
O O16 0.000000 0.000000 0.500000
#
# Coordination Sequence:
#
# PCOD9040843 Si02
#       7
#     2   2   2   2   2   2   2
#     4  10  24  43  57  78 122 166 195 232 286 348
#     4  11  20  33  57  87 119 149 192 235 291 347
#     4  10  20  33  58  84 110 145 194 239 289 329
#     4   9  18  28  52  83 121 141 175 231 295 348
#     4  10  17  33  56  92 110 145 181 247 298 337
#     4   9  21  36  57  82 124 142 189 241 291 345
#     4  11  18  32  56  91 118 149 178 243 306 339
#
# _framework density 24.761647
#
# number of rings (size 3 to 8) (size 9 to 14) (size 15 to 20)
#    0.857    1.143    5.714    0.857    2.000    2.286 
#    2.571    1.429    0.000    1.714    0.000    0.000 
#    0.000    0.000    0.000    0.000    0.000    0.000 
#
# Total GULP energy -78101.681143 kJ/mol
# GULP energy per Si atom -5578.691510 kJ/mol
# Density = 2.470529 g / cm^3
# Si number density = 24.761647 Si / 1000 Ang^3
#
#
#
# Elastic Constant Matrix: (Units=GPa)
#
#
# Indices 1 2 3 4 5 6 
#
# 1 201.3592 16.9209 20.4015 7.3495 -8.6012 29.2746
# 2 16.9209 94.0262 16.3299 20.8213 5.0992 21.1319
# 3 20.4015 16.3299 58.3950 25.7954 7.8652 12.4118
# 4 7.3495 20.8213 25.7954 34.6005 3.2980 3.1776
# 5 -8.6012 5.0992 7.8652 3.2980 25.9034 2.6925
# 6 29.2746 21.1319 12.4118 3.1776 2.6925 47.0341
#
#
#
# Elastic Compliance Matrix: (Units=1/GPa)
#
#
# Indices 1 2 3 4 5 6 
#
# 1 0.005734 -0.000217 -0.001747 0.000243 0.002778 -0.003186
# 2 -0.000217 0.013701 0.001483 -0.008632 -0.001524 -0.005742
# 3 -0.001747 0.001483 0.028406 -0.020607 -0.006320 -0.005321
# 4 0.000243 -0.008632 -0.020607 0.048758 0.001226 0.005801
# 5 0.002778 -0.001524 -0.006320 0.001226 0.041783 -0.001851
# 6 -0.003186 -0.005742 -0.005321 0.005801 -0.001851 0.026942
#
#
# Mechanical properties :
#
#
# Convention : Reuss Voigt Hill
#
# Bulk Modulus (GPa) = 21.33114 51.23167 36.28140
# Shear Modulus (GPa) = 27.48580 41.51612 34.50096
#
# Velocity S-wave (km/s) = 3.33530 4.09911 3.73677
# Velocity P-wave (km/s) = 4.84413 6.56799 5.77079
#
# Compressibility (1/GPa) = 0.04687983
#
# Stress axis : x y z
#
# Youngs Moduli (GPa) = 174.38376 72.98545 35.20431
#
# Poissons Ratio (x) = 0.01583 0.06150
# Poissons Ratio (y) = 0.03782 -0.05221
# Poissons Ratio (z) = 0.30463 -0.10823
#
# Static dielectric constant tensor:
#      x y z
#    x 1.904790 -0.055640 0.021060 
#    y -0.055640 2.107110 0.002740 
#    z 0.021060 0.002740 2.020690 
# 
# From -- ./inp_files/280502.got.cif
#   From: 2010.05.17/outbox.cif.g08.bks.cpg/sg2_141_cif.got.tgz:280502.got - 2010.06.03 11:33:40.
