data_PCOD9040765
_publ_section_title
;
Structure prediction by ZEFSAII (Michael W. Deem and Ramdas Pophale) SiO2 
 PCOD9040765
Probable space group: P -1
;
_chemical_formula_sum "Si O2"
_cell_formula_units_Z 14
_cell_length_a 13.367354
_cell_length_b 9.188581
_cell_length_c 6.940927
_cell_angle_alpha 119.418433
_cell_angle_beta 88.864873
_cell_angle_gamma 122.364333
_cell_volume 592.014347
_symmetry_space_group_name_H-M "P -1"
_symmetry_group_IT_number 2
_symmetry_cell_setting 'triclinic'
loop_
_space_group_symop_operation_xyz
x,y,z
-x,-y,-z
loop_
_atom_site_type_symbol
_atom_site_label
_atom_site_fract_x
_atom_site_fract_y
_atom_site_fract_z
Si Si1 0.698919 0.457441 0.024002
Si Si2 0.564288 0.985851 0.673873
Si Si3 0.802051 0.045028 0.540243
Si Si4 0.924244 0.508418 0.838628
Si Si5 0.089291 0.956794 0.073951
Si Si6 0.679440 0.747157 0.994627
Si Si7 0.547706 0.387538 0.303740
O O1 0.638338 0.519359 0.906994
O O2 0.679629 0.529230 0.278029
O O3 0.635646 0.215332 0.910804
O O4 0.828795 0.540787 0.968228
O O5 0.673397 0.966134 0.601062
O O6 0.500000 0.000000 0.500000
O O7 0.465889 0.788499 0.679074
O O8 0.852422 0.275202 0.606466
O O9 0.763018 0.893142 0.264488
O O10 0.893544 0.051478 0.699927
O O11 0.025796 0.717390 0.853602
O O12 0.000000 0.500000 0.000000
O O13 0.227210 0.140713 0.114004
O O14 0.000000 0.000000 0.000000
O O15 0.556717 0.728617 0.937974
O O16 0.500000 0.500000 0.500000
#
# Coordination Sequence:
#
# PCOD9040765 Si02
#       7
#     2   2   2   2   2   2   2
#     4  11  23  40  68  98 133 180 226 275 346 411
#     4  11  22  43  65  97 140 173 223 285 342 415
#     4  10  23  43  68  98 139 176 227 287 339 407
#     4   9  21  44  66  95 135 177 225 285 333 400
#     4  11  22  44  70  96 138 179 235 283 340 403
#     4  12  24  43  69 103 136 180 231 285 345 406
#     4  12  25  44  70 102 140 181 229 285 347 412
#
# _framework density 23.648077000000001
#
# number of rings (size 3 to 8) (size 9 to 14) (size 15 to 20)
#    0.000    1.143    2.857    3.429    0.000    1.143 
#    0.000    1.429    0.000    0.000    0.000    0.000 
#    0.000    0.000    0.000    0.000    0.000    0.000 
#
# Total GULP energy -78115.356741 kJ/mol
# GULP energy per Si atom -5579.668339 kJ/mol
# Density = 2.359425 g / cm^3
# Si number density = 23.648077 Si / 1000 Ang^3
#
#
#
# Elastic Constant Matrix: (Units=GPa)
#
#
# Indices 1 2 3 4 5 6 
#
# 1 74.1889 -1.7377 10.8298 -16.1204 16.3475 -20.7422
# 2 -1.7377 149.5737 14.7193 -16.2360 0.8244 -15.0922
# 3 10.8298 14.7193 82.1261 -2.8555 7.6489 -10.0283
# 4 -16.1204 -16.2360 -2.8555 26.5130 -2.3781 10.4639
# 5 16.3475 0.8244 7.6489 -2.3781 33.7146 -9.6353
# 6 -20.7422 -15.0922 -10.0283 10.4639 -9.6353 36.7677
#
#
#
# Elastic Compliance Matrix: (Units=1/GPa)
#
#
# Indices 1 2 3 4 5 6 
#
# 1 0.019104 0.002097 -0.001120 0.009456 -0.006403 0.006963
# 2 0.002097 0.007611 -0.001163 0.004769 0.000162 0.002675
# 3 -0.001120 -0.001163 0.012938 -0.001048 -0.001796 0.002247
# 4 0.009456 0.004769 -0.001048 0.049065 -0.003234 -0.007804
# 5 -0.006403 0.000162 -0.001796 -0.003234 0.034645 0.005964
# 6 0.006963 0.002675 0.002247 -0.007804 0.005964 0.036621
#
#
# Mechanical properties :
#
#
# Convention : Reuss Voigt Hill
#
# Bulk Modulus (GPa) = 25.45782 39.27906 32.36844
# Shear Modulus (GPa) = 28.82670 38.20423 33.51546
#
# Velocity S-wave (km/s) = 3.49519 4.02373 3.76873
# Velocity P-wave (km/s) = 5.20357 6.18329 5.71446
#
# Compressibility (1/GPa) = 0.03928066
#
# Stress axis : x y z
#
# Youngs Moduli (GPa) = 52.34433 131.38545 77.29331
#
# Poissons Ratio (x) = -0.27545 0.08653
# Poissons Ratio (y) = -0.10974 0.08991
# Poissons Ratio (z) = 0.05860 0.15283
#
# Static dielectric constant tensor:
#      x y z
#    x 1.877160 -0.003560 -0.046150 
#    y -0.003560 1.924070 0.043490 
#    z -0.046150 0.043490 1.980750 
# 
# From -- ./inp_files/38554.got.cif
#   From: 2010.05.17/outbox.cif.g08.bks.cpg/sg2_20_cif.got.tgz:38554.got - 2010.06.03 11:33:40.
