data_PCOD9040790
_publ_section_title
;
Structure prediction by ZEFSAII (Michael W. Deem and Ramdas Pophale) SiO2 
 PCOD9040790
Probable space group: P -1
;
_chemical_formula_sum "Si O2"
_cell_formula_units_Z 14
_cell_length_a 11.864755
_cell_length_b 9.311897
_cell_length_c 19.548963
_cell_angle_alpha 133.482019
_cell_angle_beta 154.322537
_cell_angle_gamma 61.668174
_cell_volume 601.855742
_symmetry_space_group_name_H-M "P -1"
_symmetry_group_IT_number 2
_symmetry_cell_setting 'triclinic'
loop_
_space_group_symop_operation_xyz
x,y,z
-x,-y,-z
loop_
_atom_site_type_symbol
_atom_site_label
_atom_site_fract_x
_atom_site_fract_y
_atom_site_fract_z
Si Si1 0.192595 0.686719 0.345757
Si Si2 0.738241 0.849287 0.482148
Si Si3 0.400120 0.994916 0.864463
Si Si4 0.218127 0.548914 0.570144
Si Si5 0.886229 0.416109 0.206931
Si Si6 0.148108 0.105300 0.187781
Si Si7 0.904237 0.342291 0.960688
O O1 0.498792 0.755677 0.574468
O O2 0.939460 0.592646 0.234209
O O3 0.228118 0.909167 0.399262
O O4 0.107457 0.486147 0.180581
O O5 0.696492 0.653106 0.448259
O O6 0.440980 0.736549 0.237809
O O7 0.053960 0.916278 0.644027
O O8 0.456612 0.802519 0.796577
O O9 0.571778 0.233177 0.001011
O O10 0.500000 0.000000 0.000000
O O11 0.000000 0.500000 0.500000
O O12 0.058258 0.537953 0.408853
O O13 0.025495 0.262012 0.203369
O O14 0.081772 0.884050 0.121885
O O15 0.000000 0.000000 0.000000
O O16 0.000000 0.500000 0.000000
#
# Coordination Sequence:
#
# PCOD9040790 Si02
#       7
#     2   2   2   2   2   2   2
#     4  11  27  45  67 105 142 184 231 281 360 409
#     4  10  25  44  66 100 144 173 232 288 345 416
#     4  11  24  43  72 104 134 179 238 287 344 409
#     4  10  23  43  69 100 134 177 235 282 340 408
#     4  12  25  42  77 100 138 187 232 287 348 411
#     4  11  26  47  69 104 141 180 238 286 343 420
#     4  11  27  42  70 100 144 186 227 291 350 405
#
# _framework density 23.261386999999999
#
# number of rings (size 3 to 8) (size 9 to 14) (size 15 to 20)
#    0.000    1.143    4.286    0.429   10.000    1.714 
#    0.000    3.571    0.000    0.000    0.000    0.000 
#    0.000    0.000    0.000    0.000    0.000    0.000 
#
# Total GULP energy -78177.990610 kJ/mol
# GULP energy per Si atom -5584.142186 kJ/mol
# Density = 2.320844 g / cm^3
# Si number density = 23.261387 Si / 1000 Ang^3
#
#
#
# Elastic Constant Matrix: (Units=GPa)
#
#
# Indices 1 2 3 4 5 6 
#
# 1 74.9444 8.9474 49.3400 -8.0704 -0.3490 8.4965
# 2 8.9474 90.6411 32.3789 22.3404 5.2327 -2.2461
# 3 49.3400 32.3789 154.8353 14.4763 6.4426 3.3942
# 4 -8.0704 22.3404 14.4763 36.1256 -9.5783 2.0930
# 5 -0.3490 5.2327 6.4426 -9.5783 41.5307 -5.5231
# 6 8.4965 -2.2461 3.3942 2.0930 -5.5231 29.1181
#
#
#
# Elastic Compliance Matrix: (Units=1/GPa)
#
#
# Indices 1 2 3 4 5 6 
#
# 1 0.019653 -0.002196 -0.006704 0.009529 0.002982 -0.005242
# 2 -0.002196 0.014427 -0.001272 -0.009992 -0.003688 0.001921
# 3 -0.006704 -0.001272 0.009433 -0.005184 -0.002467 0.000663
# 4 0.009529 -0.009992 -0.005184 0.041243 0.011150 -0.003797
# 5 0.002982 -0.003688 -0.002467 0.011150 0.028007 0.003644
# 6 -0.005242 0.001921 0.000663 -0.003797 0.003644 0.036907
#
#
# Mechanical properties :
#
#
# Convention : Reuss Voigt Hill
#
# Bulk Modulus (GPa) = 43.15801 55.75039 49.45420
# Shear Modulus (GPa) = 28.13159 36.67185 32.40172
#
# Velocity S-wave (km/s) = 3.48137 3.97484 3.73626
# Velocity P-wave (km/s) = 5.89523 6.71452 6.31817
#
# Compressibility (1/GPa) = 0.02317067
#
# Stress axis : x y z
#
# Youngs Moduli (GPa) = 50.88261 69.31596 106.00720
#
# Poissons Ratio (x) = 0.15222 0.71063
# Poissons Ratio (y) = 0.11174 0.13479
# Poissons Ratio (z) = 0.34109 0.08814
#
# Static dielectric constant tensor:
#      x y z
#    x 1.799510 -0.027840 0.072910 
#    y -0.027840 1.939880 0.017310 
#    z 0.072910 0.017310 1.869710 
# 
# From -- ./inp_files/567011.got.cif
#   From: 2010.05.17/outbox.cif.g08.bks.cpg/sg2_284_cif.got.tgz:567011.got - 2010.06.03 11:33:40.
