data_PCOD9040566
_publ_section_title
;
Structure prediction by ZEFSAII (Michael W. Deem and Ramdas Pophale) SiO2 
 PCOD9040566
Probable space group: P -1
;
_chemical_formula_sum "Si O2"
_cell_formula_units_Z 16
_cell_length_a 11.503456
_cell_length_b 13.840582
_cell_length_c 9.055421
_cell_angle_alpha 66.680162
_cell_angle_beta 64.523251
_cell_angle_gamma 42.054738
_cell_volume 864.835336
_symmetry_space_group_name_H-M "P -1"
_symmetry_group_IT_number 2
_symmetry_cell_setting 'triclinic'
loop_
_space_group_symop_operation_xyz
x,y,z
-x,-y,-z
loop_
_atom_site_type_symbol
_atom_site_label
_atom_site_fract_x
_atom_site_fract_y
_atom_site_fract_z
Si Si1 0.334293 0.939963 0.703708
Si Si2 0.670761 0.815763 0.399602
Si Si3 0.817930 0.065712 0.487852
Si Si4 0.195148 0.311435 0.090298
Si Si5 0.492481 0.624952 0.379384
Si Si6 0.375327 0.989969 0.205205
Si Si7 0.541540 0.224758 0.964155
Si Si8 0.145594 0.445629 0.727759
O O1 0.531658 0.848916 0.577406
O O2 0.208804 0.941368 0.665665
O O3 0.356058 0.863762 0.889910
O O4 0.268503 0.098752 0.655571
O O5 0.820421 0.646617 0.376993
O O6 0.548540 0.893760 0.271738
O O7 0.658447 0.231583 0.528494
O O8 0.777190 0.975722 0.634174
O O9 0.000000 0.000000 0.500000
O O10 0.309335 0.141977 0.114395
O O11 0.333286 0.324391 0.052749
O O12 0.038850 0.388767 0.248804
O O13 0.134043 0.375562 0.919894
O O14 0.500000 0.500000 0.500000
O O15 0.681674 0.576776 0.334511
O O16 0.443527 0.677794 0.201767
O O17 0.402681 0.896497 0.111047
#
# Coordination Sequence:
#
# PCOD9040566 Si02
#       8
#     2   2   2   2   2   2   2   2
#     4  10  19  32  61  84 113 148 190 240 292 333
#     4  10  17  33  56  83 119 148 179 227 303 346
#     4  10  22  39  58  81 106 149 204 236 275 343
#     4  10  18  28  55  88 117 141 186 230 285 340
#     4  10  21  39  58  78 112 163 197 228 278 340
#     4  10  17  33  57  85 109 149 186 231 281 344
#     4  10  18  34  58  88 115 148 193 237 285 336
#     4  10  19  33  51  87 121 146 183 234 282 345
#
# _framework density 18.500632
#
# number of rings (size 3 to 8) (size 9 to 14) (size 15 to 20)
#    0.000    2.000    6.250    1.125    1.750    0.000 
#    0.000    3.750    2.750    0.000    0.000    0.000 
#    0.000    0.000    0.000    0.000    0.000    0.000 
#
# Total GULP energy -89070.745500 kJ/mol
# GULP energy per Si atom -5566.921594 kJ/mol
# Density = 1.845852 g / cm^3
# Si number density = 18.500632 Si / 1000 Ang^3
#
#
#
# Elastic Constant Matrix: (Units=GPa)
#
#
# Indices 1 2 3 4 5 6 
#
# 1 70.3912 22.5330 33.7445 -2.2636 11.8846 1.8530
# 2 22.5330 62.7078 36.4598 5.0007 -11.8330 7.6009
# 3 33.7445 36.4598 98.3539 -13.1894 11.0480 15.4166
# 4 -2.2636 5.0007 -13.1894 31.0177 5.1621 -8.1794
# 5 11.8846 -11.8330 11.0480 5.1621 26.6607 -5.8675
# 6 1.8530 7.6009 15.4166 -8.1794 -5.8675 21.7573
#
#
#
# Elastic Compliance Matrix: (Units=1/GPa)
#
#
# Indices 1 2 3 4 5 6 
#
# 1 0.020339 -0.009519 -0.001405 0.004872 -0.013479 0.000785
# 2 -0.009519 0.035708 -0.015979 -0.018025 0.030443 0.001093
# 3 -0.001405 -0.015979 0.022260 0.012474 -0.020507 -0.010911
# 4 0.004872 -0.018025 0.012474 0.046813 -0.022519 0.008569
# 5 -0.013479 0.030443 -0.020507 -0.022519 0.073496 0.016398
# 6 0.000785 0.001093 -0.010911 0.008569 0.016398 0.060888
#
#
# Mechanical properties :
#
#
# Convention : Reuss Voigt Hill
#
# Bulk Modulus (GPa) = 40.81615 46.32529 43.57072
# Shear Modulus (GPa) = 15.55333 25.13486 20.34409
#
# Velocity S-wave (km/s) = 2.90261 3.68991 3.31968
# Velocity P-wave (km/s) = 5.77438 6.57633 6.18836
#
# Compressibility (1/GPa) = 0.02450010
#
# Stress axis : x y z
#
# Youngs Moduli (GPa) = 49.16737 28.00524 44.92453
#
# Poissons Ratio (x) = 0.26657 0.06313
# Poissons Ratio (y) = 0.46800 0.71786
# Poissons Ratio (z) = 0.06909 0.44750
#
# Static dielectric constant tensor:
#      x y z
#    x 1.656820 -0.016620 0.006740 
#    y -0.016620 1.693880 0.004160 
#    z 0.006740 0.004160 1.722310 
# 
# From -- ./inp_files/267358.got.cif
#   From: 2010.05.17/outbox.cif.g08.bks.cpg/sg2_134_cif.got.tgz:267358.got - 2010.06.03 11:33:40.
