data_PCOD9040216
_publ_section_title
;
Structure prediction by ZEFSAII (Michael W. Deem and Ramdas Pophale) SiO2 
 PCOD9040216
Probable space group: P -1
;
_chemical_formula_sum "Si O2"
_cell_formula_units_Z 16
_cell_length_a 10.106973
_cell_length_b 15.898827
_cell_length_c 8.121457
_cell_angle_alpha 112.072738
_cell_angle_beta 91.800897
_cell_angle_gamma 43.202748
_cell_volume 765.050449
_symmetry_space_group_name_H-M "P -1"
_symmetry_group_IT_number 2
_symmetry_cell_setting 'triclinic'
loop_
_space_group_symop_operation_xyz
x,y,z
-x,-y,-z
loop_
_atom_site_type_symbol
_atom_site_label
_atom_site_fract_x
_atom_site_fract_y
_atom_site_fract_z
Si Si1 0.534749 0.878178 0.863064
Si Si2 0.964559 0.916850 0.496652
Si Si3 0.573747 0.378291 0.638110
Si Si4 0.153872 0.429844 0.197704
Si Si5 0.709474 0.623114 0.208947
Si Si6 0.199776 0.932635 0.051410
Si Si7 0.506900 0.620522 0.739034
Si Si8 0.454085 0.927011 0.520859
O O1 0.721269 0.726226 0.852002
O O2 0.553717 0.865599 0.659028
O O3 0.326637 0.934362 0.944479
O O4 0.500000 0.000000 0.000000
O O5 0.189623 0.751125 0.384019
O O6 0.869432 0.979203 0.721716
O O7 0.794167 0.957783 0.407566
O O8 0.000000 0.000000 0.500000
O O9 0.418920 0.395823 0.747556
O O10 0.506479 0.518667 0.729951
O O11 0.576619 0.338409 0.421305
O O12 0.263260 0.455134 0.316777
O O13 0.907390 0.541110 0.274074
O O14 0.203261 0.430915 0.011537
O O15 0.555639 0.790890 0.323690
O O16 0.361396 0.762616 0.949719
O O17 0.000000 0.000000 0.000000
O O18 0.500000 0.000000 0.500000
#
# Coordination Sequence:
#
# PCOD9040216 Si02
#       8
#     2   2   2   2   2   2   2   2
#     4  11  24  44  66  97 126 171 218 268 324 388
#     4  12  24  42  65 100 130 176 213 274 327 383
#     4  11  24  42  66  96 135 165 223 264 330 384
#     4  10  24  43  67  92 132 170 217 265 328 385
#     4  11  23  45  65  96 130 171 213 272 324 388
#     4  11  21  41  67  94 133 168 214 265 326 388
#     4  10  23  43  64  98 128 171 214 272 317 396
#     4  12  25  42  68  96 131 170 221 270 322 386
#
# _framework density 20.913651999999999
#
# number of rings (size 3 to 8) (size 9 to 14) (size 15 to 20)
#    0.000    1.000    2.500    5.250    1.750    3.500 
#    2.250    0.000    0.000    0.000    0.000    0.000 
#    0.000    0.000    0.000    0.000    0.000    0.000 
#
# Total GULP energy -89456.459881 kJ/mol
# GULP energy per Si atom -5591.028743 kJ/mol
# Density = 2.086605 g / cm^3
# Si number density = 20.913652 Si / 1000 Ang^3
#
#
#
# Elastic Constant Matrix: (Units=GPa)
#
#
# Indices 1 2 3 4 5 6 
#
# 1 136.2302 74.6751 1.7499 17.2995 -5.1851 2.4526
# 2 74.6751 102.3760 4.2923 -2.7669 -14.4384 -6.5695
# 3 1.7499 4.2923 36.8420 4.6615 -9.4183 10.3419
# 4 17.2995 -2.7669 4.6615 20.2239 -0.3775 -0.6664
# 5 -5.1851 -14.4384 -9.4183 -0.3775 31.1738 -4.2283
# 6 2.4526 -6.5695 10.3419 -0.6664 -4.2283 54.4272
#
#
#
# Elastic Compliance Matrix: (Units=1/GPa)
#
#
# Indices 1 2 3 4 5 6 
#
# 1 0.016853 -0.013561 0.003095 -0.017158 -0.003218 -0.003444
# 2 -0.013561 0.021580 -0.003194 0.015582 0.007587 0.004603
# 3 0.003095 -0.003194 0.032469 -0.010626 0.007874 -0.006213
# 4 -0.017158 0.015582 -0.010626 0.068945 0.002765 0.005732
# 5 -0.003218 0.007587 0.007874 0.002765 0.037813 0.002536
# 6 -0.003444 0.004603 -0.006213 0.005732 0.002536 0.020532
#
#
# Mechanical properties :
#
#
# Convention : Reuss Voigt Hill
#
# Bulk Modulus (GPa) = 22.94557 48.54254 35.74405
# Shear Modulus (GPa) = 20.82987 34.14705 27.48846
#
# Velocity S-wave (km/s) = 3.15936 4.04513 3.62937
# Velocity P-wave (km/s) = 4.92992 6.71407 5.88995
#
# Compressibility (1/GPa) = 0.04358140
#
# Stress axis : x y z
#
# Youngs Moduli (GPa) = 59.33798 46.33910 30.79818
#
# Poissons Ratio (x) = 0.62840 -0.09531
# Poissons Ratio (y) = 0.80468 0.09837
# Poissons Ratio (z) = -0.18363 0.14801
#
# Static dielectric constant tensor:
#      x y z
#    x 1.725100 -0.033190 0.014010 
#    y -0.033190 1.754260 -0.008130 
#    z 0.014010 -0.008130 1.823790 
# 
# From -- ./inp_files/203104.got.cif
#   From: 2010.05.17/outbox.cif.g08.bks.cpg/sg2_102_cif.got.tgz:203104.got - 2010.06.03 11:33:40.
