data_PCOD9040669
_publ_section_title
;
Structure prediction by ZEFSAII (Michael W. Deem and Ramdas Pophale) SiO2 
 PCOD9040669
Probable space group: P -1
;
_chemical_formula_sum "Si O2"
_cell_formula_units_Z 14
_cell_length_a 12.227467
_cell_length_b 5.481771
_cell_length_c 21.557465
_cell_angle_alpha 52.186483
_cell_angle_beta 29.164800
_cell_angle_gamma 47.028466
_cell_volume 514.581793
_symmetry_space_group_name_H-M "P -1"
_symmetry_group_IT_number 2
_symmetry_cell_setting 'triclinic'
loop_
_space_group_symop_operation_xyz
x,y,z
-x,-y,-z
loop_
_atom_site_type_symbol
_atom_site_label
_atom_site_fract_x
_atom_site_fract_y
_atom_site_fract_z
Si Si1 0.185340 0.896820 0.342040
Si Si2 0.648275 0.020603 0.124425
Si Si3 0.635151 0.200826 0.863940
Si Si4 0.781400 0.249016 0.907578
Si Si5 0.346570 0.823121 0.569611
Si Si6 0.732182 0.865034 0.561279
Si Si7 0.814940 0.681543 0.214817
O O1 0.241704 0.984106 0.230713
O O2 0.220227 0.509204 0.384125
O O3 0.901773 0.048731 0.478371
O O4 0.401416 0.949032 0.263837
O O5 0.552431 0.423637 0.117705
O O6 0.838069 0.795786 0.115687
O O7 0.753948 0.963494 0.010802
O O8 0.831243 0.217087 0.814634
O O9 0.500000 0.000000 0.000000
O O10 0.975978 0.338007 0.837235
O O11 0.500000 0.500000 0.000000
O O12 0.500000 0.500000 0.500000
O O13 0.230355 0.657365 0.703712
O O14 0.500000 0.000000 0.500000
O O15 0.201403 0.102011 0.548119
O O16 0.443871 0.039509 0.682102
#
# Coordination Sequence:
#
# PCOD9040669 Si02
#       7
#     2   2   2   2   2   2   2
#     4  11  23  44  71 104 146 191 242 299 371 450
#     4  11  23  43  72 100 145 185 246 299 373 440
#     4  11  23  44  71 104 142 190 246 301 367 441
#     4  10  24  43  71 103 141 190 241 307 372 440
#     4  10  23  43  68 103 149 193 251 305 382 452
#     4  10  24  43  67 107 145 193 245 299 375 447
#     4  11  23  45  73 108 147 189 250 308 374 449
#
# _framework density 27.20656
#
# number of rings (size 3 to 8) (size 9 to 14) (size 15 to 20)
#    0.000    1.429    2.857    1.286    4.000    2.857 
#    2.571    5.714    0.000    0.000    0.000    0.000 
#    0.000    0.000    0.000    0.000    0.000    0.000 
#
# Total GULP energy -78187.892662 kJ/mol
# GULP energy per Si atom -5584.849476 kJ/mol
# Density = 2.714464 g / cm^3
# Si number density = 27.206560 Si / 1000 Ang^3
#
#
#
# Elastic Constant Matrix: (Units=GPa)
#
#
# Indices 1 2 3 4 5 6 
#
# 1 201.1963 35.0741 50.0065 -26.3267 -12.7736 -36.0922
# 2 35.0741 113.9812 40.3595 -14.4676 -7.0178 -22.0085
# 3 50.0065 40.3595 149.3723 -31.8506 -21.0347 -11.3775
# 4 -26.3267 -14.4676 -31.8506 54.0521 -3.2771 5.0342
# 5 -12.7736 -7.0178 -21.0347 -3.2771 73.6889 -15.3281
# 6 -36.0922 -22.0085 -11.3775 5.0342 -15.3281 46.3149
#
#
#
# Elastic Compliance Matrix: (Units=1/GPa)
#
#
# Indices 1 2 3 4 5 6 
#
# 1 0.006615 -0.000275 -0.000989 0.002203 0.002020 0.005210
# 2 -0.000275 0.010717 -0.001980 0.001214 0.001448 0.004739
# 3 -0.000989 -0.001980 0.008904 0.004310 0.002550 0.000851
# 4 0.002203 0.001214 0.004310 0.022447 0.003131 0.001949
# 5 0.002020 0.001448 0.002550 0.003131 0.016598 0.008041
# 6 0.005210 0.004739 0.000851 0.001949 0.008041 0.030562
#
#
# Mechanical properties :
#
#
# Convention : Reuss Voigt Hill
#
# Bulk Modulus (GPa) = 50.63919 79.49222 65.06571
# Shear Modulus (GPa) = 45.90716 57.41850 51.66283
#
# Velocity S-wave (km/s) = 4.11220 4.59896 4.36238
# Velocity P-wave (km/s) = 6.41874 7.58169 7.02432
#
# Compressibility (1/GPa) = 0.01974755
#
# Stress axis : x y z
#
# Youngs Moduli (GPa) = 151.16526 93.30570 112.31086
#
# Poissons Ratio (x) = 0.02569 0.11111
# Poissons Ratio (y) = 0.04162 0.22236
# Poissons Ratio (z) = 0.14955 0.18474
#
# Static dielectric constant tensor:
#      x y z
#    x 2.386930 0.154040 0.001620 
#    y 0.154040 2.273850 0.115280 
#    z 0.001620 0.115280 2.262710 
# 
# From -- ./inp_files/609121.got.cif
#   From: 2010.05.17/outbox.cif.g08.bks.cpg/sg2_305_cif.got.tgz:609121.got - 2010.06.03 11:33:40.
