data_PCOD9040041
_publ_section_title
;
Structure prediction by ZEFSAII (Michael W. Deem and Ramdas Pophale) SiO2 
 PCOD9040041
Probable space group: P -1
;
_chemical_formula_sum "Si O2"
_cell_formula_units_Z 16
_cell_length_a 9.865263
_cell_length_b 8.749748
_cell_length_c 26.172692
_cell_angle_alpha 37.478625
_cell_angle_beta 32.740662
_cell_angle_gamma 32.169448
_cell_volume 623.888491
_symmetry_space_group_name_H-M "P -1"
_symmetry_group_IT_number 2
_symmetry_cell_setting 'triclinic'
loop_
_space_group_symop_operation_xyz
x,y,z
-x,-y,-z
loop_
_atom_site_type_symbol
_atom_site_label
_atom_site_fract_x
_atom_site_fract_y
_atom_site_fract_z
Si Si1 0.852356 0.279592 0.010089
Si Si2 0.688541 0.141549 0.958088
Si Si3 0.552612 0.011738 0.300384
Si Si4 0.664307 0.589083 0.576997
Si Si5 0.246304 0.982254 0.305494
Si Si6 0.200852 0.716764 0.216365
Si Si7 0.382957 0.890290 0.489682
Si Si8 0.819080 0.819580 0.834552
O O1 0.507138 0.493340 0.939260
O O2 0.959629 0.500838 0.902258
O O3 0.970157 0.113874 0.070775
O O4 0.000000 0.000000 0.000000
O O5 0.638528 0.189692 0.900964
O O6 0.518305 0.035952 0.075917
O O7 0.453239 0.986395 0.281969
O O8 0.402382 0.370590 0.260360
O O9 0.904305 0.793419 0.259223
O O10 0.414950 0.901812 0.416440
O O11 0.591309 0.609209 0.534545
O O12 0.000000 0.500000 0.500000
O O13 0.517904 0.892114 0.575279
O O14 0.601644 0.346490 0.681084
O O15 0.157520 0.202404 0.227645
O O16 0.944397 0.035126 0.412298
O O17 0.091707 0.957331 0.232166
#
# Coordination Sequence:
#
# PCOD9040041 Si02
#       8
#     2   2   2   2   2   2   2   2
#     4  10  23  42  75 108 145 188 241 303 375 429
#     4  10  24  45  74 100 149 187 247 301 365 432
#     4  12  30  45  74 107 155 190 252 301 371 435
#     4   9  21  40  75 103 142 184 249 294 373 427
#     4  11  25  47  69 109 142 196 242 307 366 440
#     4  12  28  49  72 110 147 200 246 304 368 436
#     4  10  23  44  74 103 147 193 241 306 367 438
#     4  10  27  44  79 104 149 191 255 297 369 447
#
# _framework density 25.645606000000001
#
# number of rings (size 3 to 8) (size 9 to 14) (size 15 to 20)
#    0.750    0.750    0.000    2.625   14.000    3.000 
#    0.000    0.000    0.000    0.000    0.000    0.000 
#    0.000    0.000    0.000    0.000    0.000    0.000 
#
# Total GULP energy -89271.022525 kJ/mol
# GULP energy per Si atom -5579.438908 kJ/mol
# Density = 2.558724 g / cm^3
# Si number density = 25.645606 Si / 1000 Ang^3
#
#
#
# Elastic Constant Matrix: (Units=GPa)
#
#
# Indices 1 2 3 4 5 6 
#
# 1 93.4916 31.7663 4.4650 -3.6681 15.7972 -5.3263
# 2 31.7663 112.7093 12.0315 -23.1371 -5.3639 -23.4230
# 3 4.4650 12.0315 88.8049 11.1441 10.8509 -13.2230
# 4 -3.6681 -23.1371 11.1441 37.2051 -3.7129 5.5644
# 5 15.7972 -5.3639 10.8509 -3.7129 44.7936 -8.7846
# 6 -5.3263 -23.4230 -13.2230 5.5644 -8.7846 43.0875
#
#
#
# Elastic Compliance Matrix: (Units=1/GPa)
#
#
# Indices 1 2 3 4 5 6 
#
# 1 0.013138 -0.004898 0.000763 -0.002315 -0.005933 -0.001715
# 2 -0.004898 0.013856 -0.002493 0.008534 0.005927 0.006268
# 3 0.000763 -0.002493 0.013221 -0.006232 -0.003730 0.002841
# 4 -0.002315 0.008534 -0.006232 0.034546 0.006057 -0.000786
# 5 -0.005933 0.005927 -0.003730 0.006057 0.027752 0.006220
# 6 -0.001715 0.006268 0.002841 -0.000786 0.006220 0.028645
#
#
# Mechanical properties :
#
#
# Convention : Reuss Voigt Hill
#
# Bulk Modulus (GPa) = 37.09423 43.50350 40.29887
# Shear Modulus (GPa) = 32.59450 41.46675 37.03063
#
# Velocity S-wave (km/s) = 3.56892 4.02545 3.80404
# Velocity P-wave (km/s) = 5.61057 6.21336 5.91964
#
# Compressibility (1/GPa) = 0.02695837
#
# Stress axis : x y z
#
# Youngs Moduli (GPa) = 76.11501 72.17266 75.63832
#
# Poissons Ratio (x) = 0.35353 -0.05772
# Poissons Ratio (y) = 0.37284 0.18855
# Poissons Ratio (z) = -0.05809 0.17991
#
# Static dielectric constant tensor:
#      x y z
#    x 2.239560 -0.018980 -0.021400 
#    y -0.018980 2.117680 0.019170 
#    z -0.021400 0.019170 2.076740 
# 
# From -- ./inp_files/606602.got.cif
#   From: 2010.05.17/outbox.cif.g08.bks.cpg/sg2_304_cif.got.tgz:606602.got - 2010.06.03 11:33:40.
