data_PCOD9040366
_publ_section_title
;
Structure prediction by ZEFSAII (Michael W. Deem and Ramdas Pophale) SiO2 
 PCOD9040366
Probable space group: P -1
;
_chemical_formula_sum "Si O2"
_cell_formula_units_Z 12
_cell_length_a 14.230735
_cell_length_b 9.281581
_cell_length_c 5.111021
_cell_angle_alpha 102.791450
_cell_angle_beta 60.450304
_cell_angle_gamma 130.731347
_cell_volume 439.830664
_symmetry_space_group_name_H-M "P -1"
_symmetry_group_IT_number 2
_symmetry_cell_setting 'triclinic'
loop_
_space_group_symop_operation_xyz
x,y,z
-x,-y,-z
loop_
_atom_site_type_symbol
_atom_site_label
_atom_site_fract_x
_atom_site_fract_y
_atom_site_fract_z
Si Si1 0.242408 0.986018 0.117188
Si Si2 0.521464 0.310148 0.139963
Si Si3 0.643682 0.199049 0.293682
Si Si4 0.299428 0.268925 0.792361
Si Si5 0.167164 0.383523 0.641295
Si Si6 0.997366 0.324288 0.357631
O O1 0.403508 0.165940 0.037346
O O2 0.197060 0.080488 0.033125
O O3 0.155378 0.877993 0.454488
O O4 0.244483 0.833210 0.900414
O O5 0.610185 0.246545 0.081711
O O6 0.423920 0.277377 0.506220
O O7 0.625162 0.539295 0.056779
O O8 0.705610 0.386735 0.452204
O O9 0.500000 0.000000 0.500000
O O10 0.226592 0.287399 0.655157
O O11 0.090952 0.319927 0.444080
O O12 0.061247 0.354115 0.997510
O O13 0.000000 0.500000 0.500000
#
# Coordination Sequence:
#
# PCOD9040366 Si02
#       6
#     2   2   2   2   2   2
#     4  12  25  41  75 100 142 189 241 287 358 421
#     4  10  23  43  66 103 142 179 238 291 363 412
#     4  11  23  42  72 106 137 184 239 298 351 421
#     4  10  24  45  68 103 142 185 229 302 353 426
#     4  11  28  49  72 106 145 188 239 290 359 416
#     4  12  28  48  75 103 147 189 239 295 343 427
#
# _framework density 27.283228999999999
#
# number of rings (size 3 to 8) (size 9 to 14) (size 15 to 20)
#    0.000    1.000    3.333    1.500    7.000    4.000 
#    0.000    0.000    0.000    0.000    0.000    0.000 
#    0.000    0.000    0.000    0.000    0.000    0.000 
#
# Total GULP energy -67363.465887 kJ/mol
# GULP energy per Si atom -5613.622157 kJ/mol
# Density = 2.722113 g / cm^3
# Si number density = 27.283229 Si / 1000 Ang^3
#
#
#
# Elastic Constant Matrix: (Units=GPa)
#
#
# Indices 1 2 3 4 5 6 
#
# 1 129.1962 44.9588 10.5534 -2.5149 8.8200 -13.4565
# 2 44.9588 120.2545 32.2979 -21.0785 7.1591 -30.2277
# 3 10.5534 32.2979 106.6931 -21.7406 -2.6865 -13.7661
# 4 -2.5149 -21.0785 -21.7406 44.2187 2.4837 7.5260
# 5 8.8200 7.1591 -2.6865 2.4837 36.3719 -1.4667
# 6 -13.4565 -30.2277 -13.7661 7.5260 -1.4667 48.6248
#
#
#
# Elastic Compliance Matrix: (Units=1/GPa)
#
#
# Indices 1 2 3 4 5 6 
#
# 1 0.009040 -0.003334 -0.000081 -0.001125 -0.001443 0.000537
# 2 -0.003334 0.012244 -0.001925 0.003866 -0.001786 0.005491
# 3 -0.000081 -0.001925 0.011013 0.004220 0.000975 0.001275
# 4 -0.001125 0.003866 0.004220 0.026739 -0.002039 -0.000913
# 5 -0.001443 -0.001786 0.000975 -0.002039 0.028404 -0.000061
# 6 0.000537 0.005491 0.001275 -0.000913 -0.000061 0.024628
#
#
# Mechanical properties :
#
#
# Convention : Reuss Voigt Hill
#
# Bulk Modulus (GPa) = 46.26595 59.08486 52.67540
# Shear Modulus (GPa) = 38.47550 43.73200 41.10375
#
# Velocity S-wave (km/s) = 3.75937 4.00795 3.88565
# Velocity P-wave (km/s) = 5.98651 6.56669 6.28330
#
# Compressibility (1/GPa) = 0.02161417
#
# Stress axis : x y z
#
# Youngs Moduli (GPa) = 110.62457 81.67536 90.80588
#
# Poissons Ratio (x) = 0.27232 0.00738
# Poissons Ratio (y) = 0.36885 0.17483
# Poissons Ratio (z) = 0.00899 0.15725
#
# Static dielectric constant tensor:
#      x y z
#    x 2.098220 0.024670 -0.032120 
#    y 0.024670 2.093970 0.032890 
#    z -0.032120 0.032890 2.111460 
# 
# From -- ./inp_files/17731.got.cif
#   From: 2010.05.17/outbox.cif.g08.bks.cpg/sg2_9_cif.got.tgz:17731.got - 2010.06.03 11:33:40.
