data_PCOD9040812
_publ_section_title
;
Structure prediction by ZEFSAII (Michael W. Deem and Ramdas Pophale) SiO2 
 PCOD9040812
Probable space group: P -1
;
_chemical_formula_sum "Si O2"
_cell_formula_units_Z 16
_cell_length_a 8.478810
_cell_length_b 17.303153
_cell_length_c 12.369417
_cell_angle_alpha 126.667336
_cell_angle_beta 51.645968
_cell_angle_gamma 146.531303
_cell_volume 771.418302
_symmetry_space_group_name_H-M "P -1"
_symmetry_group_IT_number 2
_symmetry_cell_setting 'triclinic'
loop_
_space_group_symop_operation_xyz
x,y,z
-x,-y,-z
loop_
_atom_site_type_symbol
_atom_site_label
_atom_site_fract_x
_atom_site_fract_y
_atom_site_fract_z
Si Si1 0.914663 0.255964 0.779165
Si Si2 0.939104 0.741564 0.748349
Si Si3 0.382964 0.215330 0.232169
Si Si4 0.820448 0.844643 0.484849
Si Si5 0.605436 0.501935 0.073188
Si Si6 0.259102 0.022626 0.954516
Si Si7 0.970636 0.464272 0.796940
Si Si8 0.207755 0.642691 0.460483
O O1 0.569402 0.145472 0.862204
O O2 0.976186 0.177343 0.629999
O O3 0.125071 0.338453 0.863422
O O4 0.024099 0.381861 0.762866
O O5 0.805492 0.771380 0.744275
O O6 0.666214 0.598389 0.811230
O O7 0.118833 0.720836 0.594284
O O8 0.141445 0.873493 0.857283
O O9 0.295910 0.186810 0.370089
O O10 0.726553 0.367645 0.199956
O O11 0.321061 0.088163 0.101366
O O12 0.539672 0.737518 0.435648
O O13 0.000000 0.000000 0.500000
O O14 0.500000 0.500000 0.000000
O O15 0.738605 0.442248 0.949291
O O16 0.000000 0.000000 0.000000
O O17 0.845755 0.399492 0.677045
O O18 0.000000 0.500000 0.500000
#
# Coordination Sequence:
#
# PCOD9040812 Si02
#       8
#     2   2   2   2   2   2   2   2
#     4  12  24  45  72 102 136 185 234 285 339 411
#     4  11  24  44  68 100 139 181 230 284 340 418
#     4  11  23  44  72 100 133 184 229 282 345 413
#     4  12  28  46  66 101 143 183 231 285 351 414
#     4  12  25  41  68 109 141 176 231 286 348 404
#     4  10  23  43  69 101 134 173 224 283 345 402
#     4  12  23  42  73 103 135 178 238 286 337 411
#     4  12  25  43  66  98 138 182 230 284 345 403
#
# _framework density 20.741015999999998
#
# number of rings (size 3 to 8) (size 9 to 14) (size 15 to 20)
#    0.000    0.500    3.750    5.625    0.000    5.000 
#    0.000    6.250    0.000    0.000    0.000    0.000 
#    0.000    0.000    0.000    0.000    0.000    0.000 
#
# Total GULP energy -89538.168236 kJ/mol
# GULP energy per Si atom -5596.135515 kJ/mol
# Density = 2.069381 g / cm^3
# Si number density = 20.741016 Si / 1000 Ang^3
#
#
#
# Elastic Constant Matrix: (Units=GPa)
#
#
# Indices 1 2 3 4 5 6 
#
# 1 52.9999 18.4144 15.8353 0.7228 14.5500 12.4405
# 2 18.4144 97.9586 11.4322 4.1278 -3.6843 25.1870
# 3 15.8353 11.4322 111.6857 10.8404 -11.3003 18.4975
# 4 0.7228 4.1278 10.8404 37.4874 -0.8813 -1.4437
# 5 14.5500 -3.6843 -11.3003 -0.8813 35.1863 8.2245
# 6 12.4405 25.1870 18.4975 -1.4437 8.2245 28.1700
#
#
#
# Elastic Compliance Matrix: (Units=1/GPa)
#
#
# Indices 1 2 3 4 5 6 
#
# 1 0.025208 -0.004572 -0.004324 0.000959 -0.012123 -0.000617
# 2 -0.004572 0.015272 0.002824 -0.002837 0.008063 -0.015990
# 3 -0.004324 0.002824 0.012463 -0.004072 0.008682 -0.011543
# 4 0.000959 -0.002837 -0.004072 0.028351 -0.002951 0.007101
# 5 -0.012123 0.008063 0.008682 -0.002951 0.041635 -0.019864
# 6 -0.000617 -0.015990 -0.011543 0.007101 -0.019864 0.063812
#
#
# Mechanical properties :
#
#
# Convention : Reuss Voigt Hill
#
# Bulk Modulus (GPa) = 24.50869 39.33422 31.92146
# Shear Modulus (GPa) = 23.53124 34.63289 29.08206
#
# Velocity S-wave (km/s) = 3.37193 4.09072 3.74859
# Velocity P-wave (km/s) = 5.19635 6.42788 5.84464
#
# Compressibility (1/GPa) = 0.04080186
#
# Stress axis : x y z
#
# Youngs Moduli (GPa) = 39.66987 65.47767 80.23664
#
# Poissons Ratio (x) = 0.29934 0.34691
# Poissons Ratio (y) = 0.18136 -0.22662
# Poissons Ratio (z) = 0.17151 -0.18493
#
# Static dielectric constant tensor:
#      x y z
#    x 1.743580 0.009570 -0.008950 
#    y 0.009570 1.701530 0.018610 
#    z -0.008950 0.018610 1.732510 
# 
# From -- ./inp_files/206376.got.cif
#   From: 2010.05.17/outbox.cif.g08.bks.cpg/sg2_104_cif.got.tgz:206376.got - 2010.06.03 11:33:40.
