data_PCOD9040548
_publ_section_title
;
Structure prediction by ZEFSAII (Michael W. Deem and Ramdas Pophale) SiO2 
 PCOD9040548
Probable space group: P -1
;
_chemical_formula_sum "Si O2"
_cell_formula_units_Z 14
_cell_length_a 13.571576
_cell_length_b 8.621687
_cell_length_c 9.284249
_cell_angle_alpha 131.447765
_cell_angle_beta 55.598135
_cell_angle_gamma 117.033216
_cell_volume 666.142904
_symmetry_space_group_name_H-M "P -1"
_symmetry_group_IT_number 2
_symmetry_cell_setting 'triclinic'
loop_
_space_group_symop_operation_xyz
x,y,z
-x,-y,-z
loop_
_atom_site_type_symbol
_atom_site_label
_atom_site_fract_x
_atom_site_fract_y
_atom_site_fract_z
Si Si1 0.289646 0.285076 0.182714
Si Si2 0.512981 0.443579 0.622181
Si Si3 0.885480 0.021686 0.209712
Si Si4 0.256277 0.427235 0.977510
Si Si5 0.302793 0.835202 0.757100
Si Si6 0.126683 0.646009 0.998134
Si Si7 0.046717 0.082741 0.359268
O O1 0.392921 0.394626 0.267047
O O2 0.163173 0.251863 0.353553
O O3 0.269724 0.409261 0.127531
O O4 0.319825 0.056998 0.963742
O O5 0.500000 0.500000 0.500000
O O6 0.386643 0.435612 0.802872
O O7 0.571982 0.228847 0.440158
O O8 0.788135 0.138578 0.281677
O O9 0.939392 0.132106 0.376745
O O10 0.821589 0.787413 0.143702
O O11 0.000000 0.000000 0.000000
O O12 0.185410 0.607107 0.080232
O O13 0.236052 0.645760 0.794266
O O14 0.092309 0.873399 0.132932
O O15 0.000000 0.500000 0.000000
O O16 0.000000 0.000000 0.500000
#
# Coordination Sequence:
#
# PCOD9040548 Si02
#       7
#     2   2   2   2   2   2   2
#     4  10  25  45  64  94 138 167 219 269 324 383
#     4  12  26  43  68  97 129 172 229 267 313 392
#     4  11  19  42  67  93 130 170 206 264 338 382
#     4  11  22  42  69  95 131 175 213 270 321 385
#     4  10  23  43  67  96 129 176 213 265 331 382
#     4  11  20  37  67  96 128 168 209 261 336 376
#     4  11  24  39  62 100 131 164 213 271 325 390
#
# _framework density 21.016511000000001
#
# number of rings (size 3 to 8) (size 9 to 14) (size 15 to 20)
#    0.000    1.143    7.143    0.429    4.000    4.000 
#    0.000    1.429    0.000    0.000    0.000    0.000 
#    0.000    0.000    0.000    0.000    0.000    0.000 
#
# Total GULP energy -78123.597986 kJ/mol
# GULP energy per Si atom -5580.256999 kJ/mol
# Density = 2.096868 g / cm^3
# Si number density = 21.016511 Si / 1000 Ang^3
#
#
#
# Elastic Constant Matrix: (Units=GPa)
#
#
# Indices 1 2 3 4 5 6 
#
# 1 149.6481 42.2109 40.3405 -7.3715 16.7115 -2.0467
# 2 42.2109 77.5500 10.0342 -17.3748 21.4503 3.9536
# 3 40.3405 10.0342 54.7887 -12.6515 16.5998 -1.3524
# 4 -7.3715 -17.3748 -12.6515 37.0790 -5.4362 1.5275
# 5 16.7115 21.4503 16.5998 -5.4362 24.4940 8.5989
# 6 -2.0467 3.9536 -1.3524 1.5275 8.5989 39.7513
#
#
#
# Elastic Compliance Matrix: (Units=1/GPa)
#
#
# Indices 1 2 3 4 5 6 
#
# 1 0.010004 -0.005933 -0.007856 -0.003060 0.002901 0.000328
# 2 -0.005933 0.022546 0.008478 0.009278 -0.019982 0.001706
# 3 -0.007856 0.008478 0.031812 0.009706 -0.023030 0.004443
# 4 -0.003060 0.009278 0.009706 0.033347 -0.004871 -0.000978
# 5 0.002901 -0.019982 -0.023030 -0.004871 0.076112 -0.014924
# 6 0.000328 0.001706 0.004443 -0.000978 -0.014924 0.028421
#
#
# Mechanical properties :
#
#
# Convention : Reuss Voigt Hill
#
# Bulk Modulus (GPa) = 18.60847 51.90644 35.25745
# Shear Modulus (GPa) = 21.66600 32.89161 27.27880
#
# Velocity S-wave (km/s) = 3.21425 3.96035 3.60664
# Velocity P-wave (km/s) = 4.75906 6.75751 5.84434
#
# Compressibility (1/GPa) = 0.05373898
#
# Stress axis : x y z
#
# Youngs Moduli (GPa) = 99.96470 44.35357 31.43450
#
# Poissons Ratio (x) = 0.26316 0.24696
# Poissons Ratio (y) = 0.59311 -0.26650
# Poissons Ratio (z) = 0.78536 -0.37603
#
# Static dielectric constant tensor:
#      x y z
#    x 1.748570 0.008230 -0.042020 
#    y 0.008230 1.826180 -0.098770 
#    z -0.042020 -0.098770 1.988060 
# 
# From -- ./inp_files/174756.got.cif
#   From: 2010.05.17/outbox.cif.g08.bks.cpg/sg2_88_cif.got.tgz:174756.got - 2010.06.03 11:33:40.
