data_PCOD9040788
_publ_section_title
;
Structure prediction by ZEFSAII (Michael W. Deem and Ramdas Pophale) SiO2 
 PCOD9040788
Probable space group: P -1
;
_chemical_formula_sum "Si O2"
_cell_formula_units_Z 16
_cell_length_a 14.169265
_cell_length_b 5.433637
_cell_length_c 10.751971
_cell_angle_alpha 113.867108
_cell_angle_beta 118.407265
_cell_angle_gamma 88.709295
_cell_volume 650.825055
_symmetry_space_group_name_H-M "P -1"
_symmetry_group_IT_number 2
_symmetry_cell_setting 'triclinic'
loop_
_space_group_symop_operation_xyz
x,y,z
-x,-y,-z
loop_
_atom_site_type_symbol
_atom_site_label
_atom_site_fract_x
_atom_site_fract_y
_atom_site_fract_z
Si Si1 0.954297 0.765731 0.064558
Si Si2 0.766182 0.292914 0.494540
Si Si3 0.817394 0.844762 0.774883
Si Si4 0.328538 0.877244 0.111824
Si Si5 0.999300 0.242174 0.643578
Si Si6 0.184986 0.603847 0.739334
Si Si7 0.647436 0.758757 0.242274
Si Si8 0.440648 0.355672 0.106603
O O1 0.926636 0.766929 0.191475
O O2 0.847106 0.754312 0.912959
O O3 0.058732 0.018266 0.162378
O O4 0.000000 0.500000 0.000000
O O5 0.760223 0.591560 0.601938
O O6 0.792635 0.290444 0.363817
O O7 0.877721 0.239237 0.614917
O O8 0.666186 0.034362 0.391993
O O9 0.737541 0.049626 0.795442
O O10 0.409726 0.145467 0.158081
O O11 0.384054 0.621188 0.125528
O O12 0.245517 0.785465 0.925685
O O13 0.056215 0.525050 0.670921
O O14 0.000000 0.000000 0.500000
O O15 0.236433 0.329888 0.717867
O O16 0.568683 0.496770 0.203268
O O17 0.596158 0.788700 0.079880
#
# Coordination Sequence:
#
# PCOD9040788 Si02
#       8
#     2   2   2   2   2   2   2   2
#     4  11  24  45  62  90 138 188 231 266 338 412
#     4  12  24  43  62 100 141 180 223 279 355 408
#     4  11  27  41  66  95 137 189 225 281 341 415
#     4  11  25  44  72 104 128 182 234 293 333 415
#     4  12  24  39  65  99 137 178 227 282 335 409
#     4  11  24  40  68  99 136 175 229 284 343 410
#     4  10  23  43  69 100 131 180 219 295 355 403
#     4  10  24  45  74 101 136 171 241 290 350 407
#
# _framework density 24.584181000000001
#
# number of rings (size 3 to 8) (size 9 to 14) (size 15 to 20)
#    0.000    1.000    3.750    1.875   10.500    1.500 
#    0.000    1.250    0.000    0.000    0.000    0.000 
#    0.000    0.000    0.000    0.000    0.000    0.000 
#
# Total GULP energy -89575.832332 kJ/mol
# GULP energy per Si atom -5598.489521 kJ/mol
# Density = 2.452823 g / cm^3
# Si number density = 24.584181 Si / 1000 Ang^3
#
#
#
# Elastic Constant Matrix: (Units=GPa)
#
#
# Indices 1 2 3 4 5 6 
#
# 1 73.8133 15.2903 29.2526 20.7688 -0.4564 -3.5643
# 2 15.2903 71.5370 34.5033 18.3447 -0.3215 0.6805
# 3 29.2526 34.5033 107.6858 32.2370 -6.1241 1.0515
# 4 20.7688 18.3447 32.2370 43.6483 0.2464 -1.4532
# 5 -0.4564 -0.3215 -6.1241 0.2464 41.0709 11.7063
# 6 -3.5643 0.6805 1.0515 -1.4532 11.7063 42.0703
#
#
#
# Elastic Compliance Matrix: (Units=1/GPa)
#
#
# Indices 1 2 3 4 5 6 
#
# 1 0.016351 -0.000868 -0.002576 -0.005462 -0.000586 0.001438
# 2 -0.000868 0.017124 -0.004157 -0.003720 -0.000398 -0.000264
# 3 -0.002576 -0.004157 0.013605 -0.007136 0.002412 -0.001409
# 4 -0.005462 -0.003720 -0.007136 0.032399 -0.001741 0.001380
# 5 -0.000586 -0.000398 0.002412 -0.001741 0.026888 -0.007645
# 6 0.001438 -0.000264 -0.001409 0.001380 -0.007645 0.026106
#
#
# Mechanical properties :
#
#
# Convention : Reuss Voigt Hill
#
# Bulk Modulus (GPa) = 31.37013 45.68095 38.52554
# Shear Modulus (GPa) = 31.58533 36.95721 34.27127
#
# Velocity S-wave (km/s) = 3.58828 3.88144 3.73773
# Velocity P-wave (km/s) = 5.47317 6.22167 5.85939
#
# Compressibility (1/GPa) = 0.03187745
#
# Stress axis : x y z
#
# Youngs Moduli (GPa) = 61.15854 58.39709 73.50157
#
# Poissons Ratio (x) = 0.05070 0.18934
# Poissons Ratio (y) = 0.05310 0.30556
# Poissons Ratio (z) = 0.15754 0.24277
#
# Static dielectric constant tensor:
#      x y z
#    x 2.015530 0.079700 0.043330 
#    y 0.079700 2.110760 0.017120 
#    z 0.043330 0.017120 1.938240 
# 
# From -- ./inp_files/39850.got.cif
#   From: 2010.05.17/outbox.cif.g08.bks.cpg/sg2_20_cif.got.tgz:39850.got - 2010.06.03 11:33:40.
