data_PCOD9040538
_publ_section_title
;
Structure prediction by ZEFSAII (Michael W. Deem and Ramdas Pophale) SiO2 
 PCOD9040538
Probable space group: P -1
;
_chemical_formula_sum "Si O2"
_cell_formula_units_Z 15
_cell_length_a 11.207597
_cell_length_b 8.952639
_cell_length_c 13.569496
_cell_angle_alpha 79.730568
_cell_angle_beta 32.582039
_cell_angle_gamma 70.480482
_cell_volume 676.600682
_symmetry_space_group_name_H-M "P -1"
_symmetry_group_IT_number 2
_symmetry_cell_setting 'triclinic'
loop_
_space_group_symop_operation_xyz
x,y,z
-x,-y,-z
loop_
_atom_site_type_symbol
_atom_site_label
_atom_site_fract_x
_atom_site_fract_y
_atom_site_fract_z
Si Si1 0.479044 0.169922 0.947057
Si Si2 0.046175 0.714078 0.741648
Si Si3 0.707800 0.288459 0.948562
Si Si4 0.193617 0.844976 0.436145
Si Si5 0.803454 0.640877 0.376234
Si Si6 0.500000 0.000000 0.500000
Si Si7 0.000565 0.027677 0.112104
Si Si8 0.254183 0.486260 0.364684
O O1 0.638328 0.244705 0.893517
O O2 0.565311 0.143969 0.776810
O O3 0.205769 0.275224 0.129871
O O4 0.500000 0.000000 0.000000
O O5 0.141315 0.825775 0.589400
O O6 0.188633 0.523992 0.663971
O O7 0.998919 0.800510 0.869825
O O8 0.933936 0.346902 0.792379
O O9 0.472789 0.412814 0.147303
O O10 0.785512 0.118224 0.972743
O O11 0.211894 0.667946 0.407068
O O12 0.000000 0.000000 0.500000
O O13 0.631988 0.799771 0.425440
O O14 0.701571 0.628775 0.557095
O O15 0.241675 0.984179 0.679323
O O16 0.000000 0.000000 0.000000
O O17 0.000000 0.500000 0.500000
#
# Coordination Sequence:
#
# PCOD9040538 Si02
#       8
#     2   2   2   2   2   1   2   2
#     4  12  22  38  65 100 138 180 214 264 334 415
#     4  11  24  42  65 102 132 178 224 278 340 408
#     4  11  22  42  63  97 137 177 221 271 334 409
#     4  11  22  37  57  90 135 171 214 258 320 399
#     4  10  23  43  67  94 138 176 231 281 337 401
#     4  10  24  46  66  94 124 180 230 286 336 386
#     4  11  24  44  69  93 128 174 232 289 340 394
#     4  11  23  36  62  96 132 181 212 265 335 406
#
# _framework density 22.169650000000001
#
# number of rings (size 3 to 8) (size 9 to 14) (size 15 to 20)
#    0.000    1.067    2.667    4.000    0.000    4.267 
#    0.000    2.667    0.000    0.000    0.000    0.000 
#    0.000    0.000    0.000    0.000    0.000    0.000 
#
# Total GULP energy -83508.940864 kJ/mol
# GULP energy per Si atom -5567.262724 kJ/mol
# Density = 2.211919 g / cm^3
# Si number density = 22.169650 Si / 1000 Ang^3
#
#
#
# Elastic Constant Matrix: (Units=GPa)
#
#
# Indices 1 2 3 4 5 6 
#
# 1 80.2000 29.6068 23.2615 13.1936 17.7598 8.1755
# 2 29.6068 132.8666 38.8383 23.9491 0.1410 0.0287
# 3 23.2615 38.8383 103.1168 13.1603 5.3227 -7.2109
# 4 13.1936 23.9491 13.1603 38.0091 -4.3987 -5.3426
# 5 17.7598 0.1410 5.3227 -4.3987 25.9645 8.2146
# 6 8.1755 0.0287 -7.2109 -5.3426 8.2146 18.1236
#
#
#
# Elastic Compliance Matrix: (Units=1/GPa)
#
#
# Indices 1 2 3 4 5 6 
#
# 1 0.018000 -0.002223 -0.002276 -0.006156 -0.011029 -0.005838
# 2 -0.002223 0.009647 -0.002840 -0.004420 0.002053 -0.002376
# 3 -0.002276 -0.002840 0.012070 -0.000992 -0.003295 0.007035
# 4 -0.006156 -0.004420 -0.000992 0.033686 0.007293 0.009014
# 5 -0.011029 0.002053 -0.003295 0.007293 0.053840 -0.018593
# 6 -0.005838 -0.002376 0.007035 0.009014 -0.018593 0.071697
#
#
# Mechanical properties :
#
#
# Convention : Reuss Voigt Hill
#
# Bulk Modulus (GPa) = 39.94003 55.51071 47.72537
# Shear Modulus (GPa) = 22.52615 31.38457 26.95536
#
# Velocity S-wave (km/s) = 3.19106 3.76660 3.49071
# Velocity P-wave (km/s) = 5.62422 6.63399 6.14987
#
# Compressibility (1/GPa) = 0.02503754
#
# Stress axis : x y z
#
# Youngs Moduli (GPa) = 55.55584 103.66075 82.85276
#
# Poissons Ratio (x) = 0.23043 0.18861
# Poissons Ratio (y) = 0.12349 0.23531
# Poissons Ratio (z) = 0.12647 0.29440
#
# Static dielectric constant tensor:
#      x y z
#    x 1.834750 -0.054300 0.041890 
#    y -0.054300 1.585820 -0.021730 
#    z 0.041890 -0.021730 1.850770 
# 
# From -- ./inp_files/515492.got.cif
#   From: 2010.05.17/outbox.cif.g08.bks.cpg/sg2_258_cif.got.tgz:515492.got - 2010.06.03 11:33:40.
