data_PCOD9040720
_publ_section_title
;
Structure prediction by ZEFSAII (Michael W. Deem and Ramdas Pophale) SiO2 
 PCOD9040720
Probable space group: P -1
;
_chemical_formula_sum "Si O2"
_cell_formula_units_Z 14
_cell_length_a 7.373815
_cell_length_b 10.249521
_cell_length_c 11.154585
_cell_angle_alpha 126.345676
_cell_angle_beta 89.999080
_cell_angle_gamma 90.001230
_cell_volume 679.033320
_symmetry_space_group_name_H-M "P -1"
_symmetry_group_IT_number 2
_symmetry_cell_setting 'triclinic'
loop_
_space_group_symop_operation_xyz
x,y,z
-x,-y,-z
loop_
_atom_site_type_symbol
_atom_site_label
_atom_site_fract_x
_atom_site_fract_y
_atom_site_fract_z
Si Si1 0.093217 0.936127 0.843711
Si Si2 0.570462 0.250022 0.750014
Si Si3 0.717738 0.527648 0.754823
Si Si4 0.093302 0.563918 0.656273
Si Si5 0.426398 0.173594 0.954598
Si Si6 0.282411 0.027666 0.254824
Si Si7 0.573499 0.673535 0.454589
O O1 0.151820 0.750033 0.749983
O O2 0.926715 0.943725 0.754503
O O3 0.259613 0.051475 0.875519
O O4 0.000000 0.000000 0.000000
O O5 0.688623 0.406655 0.801160
O O6 0.452675 0.268515 0.880138
O O7 0.452664 0.231591 0.619926
O O8 0.688500 0.093317 0.698825
O O9 0.926866 0.556275 0.745512
O O10 0.611309 0.432243 0.596286
O O11 0.617128 0.695939 0.873392
O O12 0.000000 0.500000 0.500000
O O13 0.259750 0.448622 0.624452
O O14 0.611161 0.067760 0.903715
O O15 0.383011 0.195962 0.373398
#
# Coordination Sequence:
#
# PCOD9040720 Si02
#       7
#     2   2   2   2   2   2   2
#     4  12  26  43  62  98 133 169 217 258 323 388
#     4   8  22  42  70  98 122 166 222 260 336 360
#     4  10  23  43  68  96 128 170 213 271 319 380
#     4  12  26  43  62  98 133 169 217 258 323 388
#     4  10  23  43  68  95 130 170 211 272 318 380
#     4  10  23  43  68  96 128 170 213 271 319 380
#     4  10  23  43  68  95 130 170 211 272 318 380
#
# _framework density 20.617546999999998
#
# number of rings (size 3 to 8) (size 9 to 14) (size 15 to 20)
#    1.714    0.000    2.857    0.857    4.000    3.429 
#    0.000    2.857    0.000    0.000    0.000    0.000 
#    0.000    0.000    0.000    0.000    0.000    0.000 
#
# Total GULP energy -78073.567860 kJ/mol
# GULP energy per Si atom -5576.683419 kJ/mol
# Density = 2.057062 g / cm^3
# Si number density = 20.617547 Si / 1000 Ang^3
#
#
#
# Elastic Constant Matrix: (Units=GPa)
#
#
# Indices 1 2 3 4 5 6 
#
# 1 77.0597 40.1188 0.0015 15.1511 -0.0074 -0.0117
# 2 40.1188 86.0934 33.1709 17.5989 -0.0141 -0.0079
# 3 0.0015 33.1709 81.6704 29.1782 -0.0107 -0.0154
# 4 15.1511 17.5989 29.1782 36.3355 -0.0065 -0.0238
# 5 -0.0074 -0.0141 -0.0107 -0.0065 32.7248 0.8483
# 6 -0.0117 -0.0079 -0.0154 -0.0238 0.8483 37.8414
#
#
#
# Elastic Compliance Matrix: (Units=1/GPa)
#
#
# Indices 1 2 3 4 5 6 
#
# 1 0.020299 -0.010458 0.007659 -0.009549 0.000001 0.000001
# 2 -0.010458 0.019404 -0.008528 0.001810 0.000004 -0.000002
# 3 0.007659 -0.008528 0.021558 -0.016375 0.000002 -0.000001
# 4 -0.009549 0.001810 -0.016375 0.043775 0.000001 0.000018
# 5 0.000001 0.000004 0.000002 0.000001 0.030576 -0.000685
# 6 0.000001 -0.000002 -0.000001 0.000018 -0.000685 0.026441
#
#
# Mechanical properties :
#
#
# Convention : Reuss Voigt Hill
#
# Bulk Modulus (GPa) = 25.90184 43.48954 34.69569
# Shear Modulus (GPa) = 25.30662 32.81583 29.06123
#
# Velocity S-wave (km/s) = 3.50727 3.99387 3.75846
# Velocity P-wave (km/s) = 5.38438 6.51209 5.97490
#
# Compressibility (1/GPa) = 0.03860730
#
# Stress axis : x y z
#
# Youngs Moduli (GPa) = 49.26355 51.53521 46.38655
#
# Poissons Ratio (x) = 0.53896 -0.35527
# Poissons Ratio (y) = 0.51520 0.39557
# Poissons Ratio (z) = -0.37730 0.43948
#
# Static dielectric constant tensor:
#      x y z
#    x 1.701710 0.000030 -0.000020 
#    y 0.000030 1.760300 -0.031860 
#    z -0.000020 -0.031860 1.752560 
# 
# From -- ./inp_files/482434.got.cif
#   From: 2010.05.17/outbox.cif.g08.bks.cpg/sg2_242_cif.got.tgz:482434.got - 2010.06.03 11:33:40.
