data_PCOD9040801
_publ_section_title
;
Structure prediction by ZEFSAII (Michael W. Deem and Ramdas Pophale) SiO2 
 PCOD9040801
Probable space group: P -1
;
_chemical_formula_sum "Si O2"
_cell_formula_units_Z 16
_cell_length_a 16.666672
_cell_length_b 5.241381
_cell_length_c 8.957000
_cell_angle_alpha 88.030166
_cell_angle_beta 110.191566
_cell_angle_gamma 103.830957
_cell_volume 712.076368
_symmetry_space_group_name_H-M "P -1"
_symmetry_group_IT_number 2
_symmetry_cell_setting 'triclinic'
loop_
_space_group_symop_operation_xyz
x,y,z
-x,-y,-z
loop_
_atom_site_type_symbol
_atom_site_label
_atom_site_fract_x
_atom_site_fract_y
_atom_site_fract_z
Si Si1 0.542554 0.059274 0.289756
Si Si2 0.977248 0.229852 0.080997
Si Si3 0.378859 0.382649 0.511746
Si Si4 0.381530 0.290410 0.170046
Si Si5 0.220118 0.923651 0.923493
Si Si6 0.234689 0.246952 0.640397
Si Si7 0.361204 0.655929 0.921135
Si Si8 0.955474 0.712840 0.543143
O O1 0.588311 0.319277 0.412422
O O2 0.442721 0.083917 0.209347
O O3 0.587660 0.104649 0.153850
O O4 0.559684 0.802488 0.383987
O O5 0.029396 0.270666 0.270224
O O6 0.874320 0.160653 0.060911
O O7 0.000000 0.500000 0.000000
O O8 0.000000 0.000000 0.000000
O O9 0.379418 0.384881 0.334603
O O10 0.281967 0.231732 0.513927
O O11 0.283822 0.158501 0.051003
O O12 0.418286 0.524146 0.071066
O O13 0.280133 0.717271 0.958419
O O14 0.209278 0.001367 0.741664
O O15 0.313278 0.440334 0.775568
O O16 0.147879 0.350665 0.560102
O O17 0.000000 0.500000 0.500000
O O18 0.000000 0.000000 0.500000
#
# Coordination Sequence:
#
# PCOD9040801 Si02
#       8
#     2   2   2   2   2   2   2   2
#     4  11  24  46  67 101 140 187 234 279 341 412
#     4  12  29  49  71 108 146 181 229 301 361 419
#     4  11  25  43  68 100 140 183 232 288 338 407
#     4  11  26  40  70 102 140 184 228 290 346 410
#     4  11  24  45  71  96 145 179 230 284 354 414
#     4  10  23  44  69  99 135 182 236 279 339 417
#     4  10  23  43  69 100 138 187 229 285 337 418
#     4  12  25  45  78 103 135 187 237 285 352 430
#
# _framework density 22.4695
#
# number of rings (size 3 to 8) (size 9 to 14) (size 15 to 20)
#    0.000    1.000    2.500    2.625    8.750    0.500 
#    2.250    0.000    0.000    0.000    0.000    0.000 
#    0.000    0.000    0.000    0.000    0.000    0.000 
#
# Total GULP energy -89534.035675 kJ/mol
# GULP energy per Si atom -5595.877230 kJ/mol
# Density = 2.241836 g / cm^3
# Si number density = 22.469500 Si / 1000 Ang^3
#
#
#
# Elastic Constant Matrix: (Units=GPa)
#
#
# Indices 1 2 3 4 5 6 
#
# 1 130.3890 11.3130 28.2961 -5.6158 -8.0775 -2.9826
# 2 11.3130 87.1420 29.4473 -9.7529 -13.8565 -16.6181
# 3 28.2961 29.4473 135.7842 -13.3258 -8.6775 -5.4060
# 4 -5.6158 -9.7529 -13.3258 25.7824 -0.9761 -4.2350
# 5 -8.0775 -13.8565 -8.6775 -0.9761 38.2626 -4.2059
# 6 -2.9826 -16.6181 -5.4060 -4.2350 -4.2059 41.9694
#
#
#
# Elastic Compliance Matrix: (Units=1/GPa)
#
#
# Indices 1 2 3 4 5 6 
#
# 1 0.008145 -0.000090 -0.001447 0.001149 0.001456 0.000618
# 2 -0.000090 0.015097 -0.002013 0.006009 0.005904 0.006910
# 3 -0.001447 -0.002013 0.008539 0.003485 0.001063 0.000658
# 4 0.001149 0.006009 0.003485 0.044612 0.005219 0.007935
# 5 0.001456 0.005904 0.001063 0.005219 0.029623 0.006074
# 6 0.000618 0.006910 0.000658 0.007935 0.006074 0.028101
#
#
# Mechanical properties :
#
#
# Convention : Reuss Voigt Hill
#
# Bulk Modulus (GPa) = 40.51983 54.60310 47.56147
# Shear Modulus (GPa) = 33.45740 40.15349 36.80544
#
# Velocity S-wave (km/s) = 3.86296 4.23190 4.05163
# Velocity P-wave (km/s) = 6.16190 6.94496 6.56511
#
# Compressibility (1/GPa) = 0.02467928
#
# Stress axis : x y z
#
# Youngs Moduli (GPa) = 122.77320 66.23998 117.11004
#
# Poissons Ratio (x) = 0.00598 0.16950
# Poissons Ratio (y) = 0.01109 0.23574
# Poissons Ratio (z) = 0.17770 0.13334
#
# Static dielectric constant tensor:
#      x y z
#    x 1.818040 0.010350 0.002250 
#    y 0.010350 1.881080 0.005320 
#    z 0.002250 0.005320 1.894210 
# 
# From -- ./inp_files/37624.got.cif
#   From: 2010.05.17/outbox.cif.g08.bks.cpg/sg2_19_cif.got.tgz:37624.got - 2010.06.03 11:33:40.
