data_PCOD9040655
_publ_section_title
;
Structure prediction by ZEFSAII (Michael W. Deem and Ramdas Pophale) SiO2 
 PCOD9040655
Probable space group: P -1
;
_chemical_formula_sum "Si O2"
_cell_formula_units_Z 16
_cell_length_a 9.185936
_cell_length_b 11.349662
_cell_length_c 13.783073
_cell_angle_alpha 34.117265
_cell_angle_beta 96.035703
_cell_angle_gamma 78.980758
_cell_volume 694.716838
_symmetry_space_group_name_H-M "P -1"
_symmetry_group_IT_number 2
_symmetry_cell_setting 'triclinic'
loop_
_space_group_symop_operation_xyz
x,y,z
-x,-y,-z
loop_
_atom_site_type_symbol
_atom_site_label
_atom_site_fract_x
_atom_site_fract_y
_atom_site_fract_z
Si Si1 0.958856 0.660061 0.290014
Si Si2 0.464959 0.884700 0.259744
Si Si3 0.705151 0.341181 0.689171
Si Si4 0.376868 0.849736 0.009921
Si Si5 0.720979 0.760767 0.853690
Si Si6 0.102302 0.607499 0.710600
Si Si7 0.671471 0.384381 0.026893
Si Si8 0.952921 0.914158 0.668549
O O1 0.937529 0.519399 0.293186
O O2 0.000000 0.500000 0.500000
O O3 0.109073 0.712944 0.239038
O O4 0.793596 0.911630 0.131838
O O5 0.614912 0.609484 0.454879
O O6 0.302012 0.857920 0.244316
O O7 0.495786 0.051341 0.073147
O O8 0.444078 0.997919 0.287550
O O9 0.594627 0.337605 0.774844
O O10 0.354055 0.732360 0.990912
O O11 0.870966 0.811267 0.806817
O O12 0.771916 0.590000 0.069296
O O13 0.697819 0.616555 0.862599
O O14 0.955498 0.794825 0.645836
O O15 0.153967 0.795327 0.541320
O O16 0.851196 0.181998 0.223729
O O17 0.500000 0.500000 0.000000
#
# Coordination Sequence:
#
# PCOD9040655 Si02
#       8
#     2   2   2   2   2   2   2   2
#     4  12  25  44  72 100 136 177 229 285 327 398
#     4  11  25  47  65  99 140 173 223 276 340 396
#     4  11  27  44  69 101 131 181 226 272 339 405
#     4  12  25  45  70  97 137 179 219 282 335 400
#     4  11  24  44  73  97 134 180 220 277 331 403
#     4  10  23  43  68 103 131 173 230 269 337 390
#     4  11  23  44  68 101 137 171 219 277 341 388
#     4  10  24  43  72  98 136 179 220 279 325 407
#
# _framework density 23.030964999999998
#
# number of rings (size 3 to 8) (size 9 to 14) (size 15 to 20)
#    0.000    1.000    2.500    3.750    7.000    1.000 
#    2.250    0.625    0.000    0.000    0.000    0.000 
#    0.000    0.000    0.000    0.000    0.000    0.000 
#
# Total GULP energy -89339.905913 kJ/mol
# GULP energy per Si atom -5583.744120 kJ/mol
# Density = 2.297855 g / cm^3
# Si number density = 23.030965 Si / 1000 Ang^3
#
#
#
# Elastic Constant Matrix: (Units=GPa)
#
#
# Indices 1 2 3 4 5 6 
#
# 1 98.9923 32.2633 40.0235 -18.3778 -16.1756 5.6751
# 2 32.2633 173.4157 36.6390 -22.0639 -4.2003 17.9379
# 3 40.0235 36.6390 85.5287 -4.6923 -24.6199 3.8793
# 4 -18.3778 -22.0639 -4.6923 27.7210 5.1981 -4.8978
# 5 -16.1756 -4.2003 -24.6199 5.1981 22.7854 -5.4872
# 6 5.6751 17.9379 3.8793 -4.8978 -5.4872 25.2257
#
#
#
# Elastic Compliance Matrix: (Units=1/GPa)
#
#
# Indices 1 2 3 4 5 6 
#
# 1 0.014247 -0.000492 -0.005303 0.007680 0.002542 0.000004
# 2 -0.000492 0.007843 -0.004345 0.005422 -0.006055 -0.005063
# 3 -0.005303 -0.004345 0.021620 -0.006550 0.021331 0.004326
# 4 0.007680 0.005422 -0.006550 0.046774 -0.010776 0.002162
# 5 0.002542 -0.006055 0.021331 -0.010776 0.073540 0.014358
# 6 0.000004 -0.005063 0.004326 0.002162 0.014358 0.046119
#
#
# Mechanical properties :
#
#
# Convention : Reuss Voigt Hill
#
# Bulk Modulus (GPa) = 42.68293 63.97649 53.32971
# Shear Modulus (GPa) = 20.98774 31.74715 26.36744
#
# Velocity S-wave (km/s) = 3.02202 3.71678 3.38726
# Velocity P-wave (km/s) = 5.54526 6.80133 6.20516
#
# Compressibility (1/GPa) = 0.02342857
#
# Stress axis : x y z
#
# Youngs Moduli (GPa) = 70.18866 127.50385 46.25394
#
# Poissons Ratio (x) = 0.06271 0.24531
# Poissons Ratio (y) = 0.03452 0.20099
# Poissons Ratio (z) = 0.37224 0.55405
#
# Static dielectric constant tensor:
#      x y z
#    x 1.878210 0.007230 -0.007570 
#    y 0.007230 1.888430 0.007560 
#    z -0.007570 0.007560 1.920160 
# 
# From -- ./inp_files/499736.got.cif
#   From: 2010.05.17/outbox.cif.g08.bks.cpg/sg2_250_cif.got.tgz:499736.got - 2010.06.03 11:33:40.
