data_PCOD9040209
_publ_section_title
;
Structure prediction by ZEFSAII (Michael W. Deem and Ramdas Pophale) SiO2 
 PCOD9040209
Probable space group: P -1
;
_chemical_formula_sum "Si O2"
_cell_formula_units_Z 13
_cell_length_a 9.564022
_cell_length_b 10.086221
_cell_length_c 5.782955
_cell_angle_alpha 96.342505
_cell_angle_beta 89.945100
_cell_angle_gamma 56.948386
_cell_volume 463.461965
_symmetry_space_group_name_H-M "P -1"
_symmetry_group_IT_number 2
_symmetry_cell_setting 'triclinic'
loop_
_space_group_symop_operation_xyz
x,y,z
-x,-y,-z
loop_
_atom_site_type_symbol
_atom_site_label
_atom_site_fract_x
_atom_site_fract_y
_atom_site_fract_z
Si Si1 0.525475 0.874023 0.169130
Si Si2 0.032330 0.371171 0.166117
Si Si3 0.500000 0.500000 0.500000
Si Si4 0.253060 0.438437 0.420432
Si Si5 0.754046 0.948608 0.407071
Si Si6 0.903570 0.242362 0.790252
Si Si7 0.340654 0.771309 0.899676
O O1 0.694589 0.834601 0.285935
O O2 0.370557 0.965911 0.364042
O O3 0.506271 0.743460 0.016270
O O4 0.500000 0.000000 0.000000
O O5 0.205491 0.325463 0.274978
O O6 0.888944 0.465873 0.371888
O O7 0.000000 0.500000 0.000000
O O8 0.007577 0.248078 0.006808
O O9 0.434258 0.376681 0.503969
O O10 0.377297 0.616014 0.733734
O O11 0.228946 0.581733 0.279774
O O12 0.953970 0.850581 0.422339
O O13 0.723811 0.081675 0.246296
O O14 0.794178 0.183785 0.888347
#
# Coordination Sequence:
#
# PCOD9040209 Si02
#       7
#     2   2   1   2   2   2   2
#     4   9  22  46  66 100 130 180 220 271 344 387
#     4   9  20  44  63  96 131 174 228 264 335 394
#     4  12  26  46  66  98 144 174 228 276 332 416
#     4  10  23  43  64  97 136 180 225 269 332 398
#     4  10  23  46  71  99 135 171 234 275 331 410
#     4  11  23  42  71 103 132 174 226 281 339 394
#     4  11  25  44  66 102 137 180 221 274 345 390
#
# _framework density 28.049768
#
# number of rings (size 3 to 8) (size 9 to 14) (size 15 to 20)
#    0.000    1.846    1.538    0.462    4.308    3.692 
#   22.154    0.000    0.000    0.000    0.000    0.000 
#    0.000    0.000    0.000    0.000    0.000    0.000 
#
# Total GULP energy -72642.499778 kJ/mol
# GULP energy per Si atom -5587.884598 kJ/mol
# Density = 2.798593 g / cm^3
# Si number density = 28.049768 Si / 1000 Ang^3
#
#
#
# Elastic Constant Matrix: (Units=GPa)
#
#
# Indices 1 2 3 4 5 6 
#
# 1 150.4854 20.2194 34.3618 9.5768 -35.5420 31.8252
# 2 20.2194 112.1172 41.7345 -4.2125 -1.3684 -5.2545
# 3 34.3618 41.7345 101.4895 -11.8366 -23.0430 6.5374
# 4 9.5768 -4.2125 -11.8366 53.4791 10.7895 0.6647
# 5 -35.5420 -1.3684 -23.0430 10.7895 66.6100 17.7057
# 6 31.8252 -5.2545 6.5374 0.6647 17.7057 40.3397
#
#
#
# Elastic Compliance Matrix: (Units=1/GPa)
#
#
# Indices 1 2 3 4 5 6 
#
# 1 0.014060 -0.003390 0.000045 -0.005150 0.012824 -0.017085
# 2 -0.003390 0.011851 -0.005327 0.001405 -0.005638 0.007533
# 3 0.000045 -0.005327 0.013928 0.001517 0.005986 -0.005639
# 4 -0.005150 0.001405 0.001517 0.021499 -0.007523 0.006948
# 5 0.012824 -0.005638 0.005986 -0.007523 0.031855 -0.025679
# 6 -0.017085 0.007533 -0.005639 0.006948 -0.025679 0.051320
#
#
# Mechanical properties :
#
#
# Convention : Reuss Voigt Hill
#
# Bulk Modulus (GPa) = 44.45477 61.85818 53.15647
# Shear Modulus (GPa) = 29.52405 49.93752 39.73078
#
# Velocity S-wave (km/s) = 3.24784 4.22396 3.76764
# Velocity P-wave (km/s) = 5.47243 6.77422 6.15782
#
# Compressibility (1/GPa) = 0.02249478
#
# Stress axis : x y z
#
# Youngs Moduli (GPa) = 71.12383 84.38455 71.79926
#
# Poissons Ratio (x) = 0.28607 -0.00325
# Poissons Ratio (y) = 0.24112 0.38246
# Poissons Ratio (z) = -0.00322 0.44950
#
# Static dielectric constant tensor:
#      x y z
#    x 3.202290 -0.424450 0.650730 
#    y -0.424450 2.259280 -0.254800 
#    z 0.650730 -0.254800 2.676510 
# 
# From -- ./inp_files/25108.got.cif
#   From: 2010.05.17/outbox.cif.g08.bks.cpg/sg2_13_cif.got.tgz:25108.got - 2010.06.03 11:33:40.
