data_PCOD9040869
_publ_section_title
;
Structure prediction by ZEFSAII (Michael W. Deem and Ramdas Pophale) SiO2 
 PCOD9040869
Probable space group: P -1
;
_chemical_formula_sum "Si O2"
_cell_formula_units_Z 12
_cell_length_a 5.039997
_cell_length_b 5.102774
_cell_length_c 18.871514
_cell_angle_alpha 79.969323
_cell_angle_beta 69.635072
_cell_angle_gamma 85.860179
_cell_volume 448.010958
_symmetry_space_group_name_H-M "P -1"
_symmetry_group_IT_number 2
_symmetry_cell_setting 'triclinic'
loop_
_space_group_symop_operation_xyz
x,y,z
-x,-y,-z
loop_
_atom_site_type_symbol
_atom_site_label
_atom_site_fract_x
_atom_site_fract_y
_atom_site_fract_z
Si Si1 0.639964 0.271198 0.449710
Si Si2 0.411315 0.166963 0.908326
Si Si3 0.870277 0.952068 0.654684
Si Si4 0.149184 0.482423 0.199452
Si Si5 0.084318 0.204062 0.069967
Si Si6 0.310428 0.298548 0.676253
O O1 0.500000 0.500000 0.500000
O O2 0.978158 0.205187 0.417085
O O3 0.500000 0.000000 0.500000
O O4 0.420965 0.892210 0.335824
O O5 0.552501 0.369601 0.831814
O O6 0.691526 0.034946 0.922757
O O7 0.221646 0.312518 0.979153
O O8 0.215855 0.933201 0.908232
O O9 0.842502 0.756783 0.733692
O O10 0.403202 0.593929 0.630214
O O11 0.099316 0.174909 0.643772
O O12 0.098727 0.384961 0.129086
O O13 0.892875 0.673263 0.238866
#
# Coordination Sequence:
#
# PCOD9040869 Si02
#       6
#     2   2   2   2   2   2
#     4  11  24  50  85 118 153 208 255 322 385 464
#     4  10  23  43  69 104 145 195 262 332 396 465
#     4  11  27  49  73 113 157 201 259 316 386 470
#     4  11  25  44  75 106 150 210 260 326 401 470
#     4  10  23  43  69 104 145 195 262 332 396 465
#     4  11  27  49  73 113 157 201 259 316 386 470
#
# _framework density 26.785060999999999
#
# number of rings (size 3 to 8) (size 9 to 14) (size 15 to 20)
#    0.000    1.333    1.667    1.500    0.000   16.000 
#    0.000    5.000    0.000    3.000    0.000    0.000 
#    0.000    0.000    0.000    0.000    0.000    0.000 
#
# Total GULP energy -67279.897100 kJ/mol
# GULP energy per Si atom -5606.658092 kJ/mol
# Density = 2.672410 g / cm^3
# Si number density = 26.785061 Si / 1000 Ang^3
#
#
#
# Elastic Constant Matrix: (Units=GPa)
#
#
# Indices 1 2 3 4 5 6 
#
# 1 148.3512 63.5119 54.0296 -6.0336 -38.2662 -2.3634
# 2 63.5119 161.7618 84.0161 -18.2384 -36.6712 3.2493
# 3 54.0296 84.0161 183.9241 1.5271 -53.3839 6.6189
# 4 -6.0336 -18.2384 1.5271 59.1988 -4.0189 -16.9063
# 5 -38.2662 -36.6712 -53.3839 -4.0189 45.6522 6.4677
# 6 -2.3634 3.2493 6.6189 -16.9063 6.4677 45.1318
#
#
#
# Elastic Compliance Matrix: (Units=1/GPa)
#
#
# Indices 1 2 3 4 5 6 
#
# 1 0.009272 -0.002203 0.000054 0.000685 0.006123 0.000015
# 2 -0.002203 0.009516 -0.003025 0.003079 0.002468 0.000443
# 3 0.000054 -0.003025 0.009566 -0.001417 0.009104 -0.003018
# 4 0.000685 0.003079 -0.001417 0.020169 0.002136 0.007271
# 5 0.006123 0.002468 0.009104 0.002136 0.040736 -0.006230
# 6 0.000015 0.000443 -0.003018 0.007271 -0.006230 0.026185
#
#
# Mechanical properties :
#
#
# Convention : Reuss Voigt Hill
#
# Bulk Modulus (GPa) = 55.54045 99.68360 77.61203
# Shear Modulus (GPa) = 37.93804 49.49520 43.71662
#
# Velocity S-wave (km/s) = 3.76758 4.30334 4.04434
# Velocity P-wave (km/s) = 6.30133 7.87328 7.13076
#
# Compressibility (1/GPa) = 0.01800490
#
# Stress axis : x y z
#
# Youngs Moduli (GPa) = 107.85222 105.08845 104.54068
#
# Poissons Ratio (x) = 0.23154 -0.00561
# Poissons Ratio (y) = 0.23763 0.31619
# Poissons Ratio (z) = -0.00579 0.31785
#
# Static dielectric constant tensor:
#      x y z
#    x 2.092890 -0.035410 0.062480 
#    y -0.035410 2.114750 0.014600 
#    z 0.062480 0.014600 2.146380 
# 
# From -- ./inp_files/580328.got.cif
#   From: 2010.05.17/outbox.cif.g08.bks.cpg/sg2_291_cif.got.tgz:580328.got - 2010.06.03 11:33:40.
