data_PCOD9040326
_publ_section_title
;
Structure prediction by ZEFSAII (Michael W. Deem and Ramdas Pophale) SiO2 
 PCOD9040326
Probable space group: P -1
;
_chemical_formula_sum "Si O2"
_cell_formula_units_Z 14
_cell_length_a 11.819462
_cell_length_b 7.477171
_cell_length_c 11.337960
_cell_angle_alpha 51.073855
_cell_angle_beta 131.570617
_cell_angle_gamma 107.791984
_cell_volume 572.413079
_symmetry_space_group_name_H-M "P -1"
_symmetry_group_IT_number 2
_symmetry_cell_setting 'triclinic'
loop_
_space_group_symop_operation_xyz
x,y,z
-x,-y,-z
loop_
_atom_site_type_symbol
_atom_site_label
_atom_site_fract_x
_atom_site_fract_y
_atom_site_fract_z
Si Si1 0.482178 0.641221 0.740899
Si Si2 0.974753 0.191156 0.119569
Si Si3 0.311330 0.121287 0.362153
Si Si4 0.814143 0.440550 0.127137
Si Si5 0.792434 0.946370 0.939603
Si Si6 0.348509 0.178390 0.858795
Si Si7 0.014575 0.252569 0.549330
O O1 0.573304 0.700864 0.660170
O O2 0.380274 0.441992 0.757118
O O3 0.383118 0.903296 0.586008
O O4 0.630238 0.528511 0.970245
O O5 0.861149 0.320409 0.085591
O O6 0.140596 0.264658 0.212610
O O7 0.024804 0.924523 0.308620
O O8 0.885770 0.145973 0.958045
O O9 0.288222 0.009290 0.261998
O O10 0.897368 0.270297 0.354329
O O11 0.880917 0.678406 0.091545
O O12 0.692955 0.906556 0.003649
O O13 0.195592 0.170956 0.679566
O O14 0.500000 0.000000 0.000000
O O15 0.000000 0.500000 0.500000
#
# Coordination Sequence:
#
# PCOD9040326 Si02
#       7
#     2   2   2   2   2   2   2
#     4  10  23  43  65  98 139 172 228 270 344 402
#     4  11  22  41  69  99 134 174 234 273 333 414
#     4  10  23  43  66  99 139 184 215 280 343 406
#     4  11  23  42  67 100 131 178 223 285 332 391
#     4  10  23  43  70  98 137 177 228 278 342 392
#     4  11  23  44  71 100 134 175 231 283 331 403
#     4  11  21  43  68 100 133 176 227 281 340 393
#
# _framework density 24.457861999999999
#
# number of rings (size 3 to 8) (size 9 to 14) (size 15 to 20)
#    0.000    1.429    2.857    3.429    0.000    4.571 
#   10.286    4.286    0.000    0.000    0.000    0.000 
#    0.000    0.000    0.000    0.000    0.000    0.000 
#
# Total GULP energy -78075.917233 kJ/mol
# GULP energy per Si atom -5576.851231 kJ/mol
# Density = 2.440219 g / cm^3
# Si number density = 24.457862 Si / 1000 Ang^3
#
#
#
# Elastic Constant Matrix: (Units=GPa)
#
#
# Indices 1 2 3 4 5 6 
#
# 1 75.0598 27.8898 10.0633 3.8081 10.3776 12.6663
# 2 27.8898 76.3763 4.1937 4.1874 -10.3791 4.4099
# 3 10.0633 4.1937 130.7163 21.0256 2.2716 1.8225
# 4 3.8081 4.1874 21.0256 37.3041 6.8558 -0.2397
# 5 10.3776 -10.3791 2.2716 6.8558 31.4698 -4.5398
# 6 12.6663 4.4099 1.8225 -0.2397 -4.5398 51.0504
#
#
#
# Elastic Compliance Matrix: (Units=1/GPa)
#
#
# Indices 1 2 3 4 5 6 
#
# 1 0.018395 -0.007750 -0.001156 0.001362 -0.009512 -0.004693
# 2 -0.007750 0.017226 0.000352 -0.002994 0.009039 0.001212
# 3 -0.001156 0.000352 0.008497 -0.004885 0.000950 0.000015
# 4 0.001362 -0.002994 -0.004885 0.031216 -0.007951 -0.000465
# 5 -0.009512 0.009039 0.000950 -0.007951 0.040293 0.005091
# 6 -0.004693 0.001212 0.000015 -0.000465 0.005091 0.021098
#
#
# Mechanical properties :
#
#
# Convention : Reuss Voigt Hill
#
# Bulk Modulus (GPa) = 37.02359 40.71622 38.86991
# Shear Modulus (GPa) = 30.70552 39.96522 35.33537
#
# Velocity S-wave (km/s) = 3.54707 4.04672 3.80510
# Velocity P-wave (km/s) = 5.65210 6.20630 5.93567
#
# Compressibility (1/GPa) = 0.02700980
#
# Stress axis : x y z
#
# Youngs Moduli (GPa) = 54.36139 58.05052 117.68993
#
# Poissons Ratio (x) = 0.44991 0.13603
# Poissons Ratio (y) = 0.42131 -0.04138
# Poissons Ratio (z) = 0.06283 -0.02041
#
# Static dielectric constant tensor:
#      x y z
#    x 2.045190 0.072610 -0.014880 
#    y 0.072610 2.022320 0.015560 
#    z -0.014880 0.015560 2.030930 
# 
# From -- ./inp_files/528123.got.cif
#   From: 2010.05.17/outbox.cif.g08.bks.cpg/sg2_265_cif.got.tgz:528123.got - 2010.06.03 11:33:40.
