data_PCOD9040241
_publ_section_title
;
Structure prediction by ZEFSAII (Michael W. Deem and Ramdas Pophale) SiO2 
 PCOD9040241
Probable space group: P -1
;
_chemical_formula_sum "Si O2"
_cell_formula_units_Z 10
_cell_length_a 10.398777
_cell_length_b 5.003438
_cell_length_c 7.366998
_cell_angle_alpha 83.198792
_cell_angle_beta 105.844914
_cell_angle_gamma 109.902962
_cell_volume 346.576281
_symmetry_space_group_name_H-M "P -1"
_symmetry_group_IT_number 2
_symmetry_cell_setting 'triclinic'
loop_
_space_group_symop_operation_xyz
x,y,z
-x,-y,-z
loop_
_atom_site_type_symbol
_atom_site_label
_atom_site_fract_x
_atom_site_fract_y
_atom_site_fract_z
Si Si1 0.618301 0.895044 0.416354
Si Si2 0.695165 0.531576 0.736901
Si Si3 0.005541 0.617496 0.795563
Si Si4 0.597085 0.303868 0.083993
Si Si5 0.120717 0.192371 0.667694
O O1 0.670679 0.829256 0.642247
O O2 0.453198 0.704795 0.358895
O O3 0.722040 0.779252 0.339879
O O4 0.634181 0.198031 0.303713
O O5 0.838872 0.543491 0.689389
O O6 0.711119 0.455060 0.960124
O O7 0.077541 0.457683 0.696378
O O8 0.090038 0.950148 0.828229
O O9 0.000000 0.500000 0.000000
O O10 0.500000 0.500000 0.000000
O O11 0.500000 0.000000 0.000000
O O12 0.000000 0.000000 0.500000
#
# Coordination Sequence:
#
# PCOD9040241 Si02
#       5
#     2   2   2   2   2
#     4  10  23  46  75 110 148 199 252 319 376 456
#     4  10  23  45  74 112 145 198 258 315 374 455
#     4  12  27  48  75 110 154 201 254 314 382 460
#     4  10  23  43  65 101 145 184 235 305 374 434
#     4  12  26  49  74 109 154 200 250 311 387 457
#
# _framework density 28.853676
#
# number of rings (size 3 to 8) (size 9 to 14) (size 15 to 20)
#    0.000    1.200    2.000    2.400    0.000   10.400 
#    3.600    0.000    0.000    0.000    0.000    0.000 
#    0.000    0.000    0.000    0.000    0.000    0.000 
#
# Total GULP energy -55883.564540 kJ/mol
# GULP energy per Si atom -5588.356454 kJ/mol
# Density = 2.878800 g / cm^3
# Si number density = 28.853676 Si / 1000 Ang^3
#
#
#
# Elastic Constant Matrix: (Units=GPa)
#
#
# Indices 1 2 3 4 5 6 
#
# 1 282.9240 79.5216 31.0346 0.8761 -5.2721 -2.4673
# 2 79.5216 165.4155 42.7871 -45.5944 13.3547 -8.6631
# 3 31.0346 42.7871 188.0453 -51.2205 16.1838 -0.0431
# 4 0.8761 -45.5944 -51.2205 59.2242 6.9943 7.4192
# 5 -5.2721 13.3547 16.1838 6.9943 54.0959 -6.2903
# 6 -2.4673 -8.6631 -0.0431 7.4192 -6.2903 56.0919
#
#
#
# Elastic Compliance Matrix: (Units=1/GPa)
#
#
# Indices 1 2 3 4 5 6 
#
# 1 0.004606 -0.003101 -0.001302 -0.003898 0.002164 0.000481
# 2 -0.003101 0.010180 0.001144 0.009433 -0.004413 -0.000306
# 3 -0.001302 0.001144 0.007904 0.008392 -0.004026 -0.001436
# 4 -0.003898 0.009433 0.008392 0.033171 -0.009998 -0.004217
# 5 0.002164 -0.004413 -0.004026 -0.009998 0.022664 0.003275
# 6 0.000481 -0.000306 -0.001436 -0.004217 0.003275 0.018726
#
#
# Mechanical properties :
#
#
# Convention : Reuss Voigt Hill
#
# Bulk Modulus (GPa) = 61.83331 104.78571 83.30951
# Shear Modulus (GPa) = 45.80441 66.08516 55.94479
#
# Velocity S-wave (km/s) = 3.98863 4.79096 4.40809
# Velocity P-wave (km/s) = 6.53366 8.18532 7.40568
#
# Compressibility (1/GPa) = 0.01617251
#
# Stress axis : x y z
#
# Youngs Moduli (GPa) = 217.12882 98.22815 126.51237
#
# Poissons Ratio (x) = 0.30461 0.16475
# Poissons Ratio (y) = 0.67333 -0.14478
# Poissons Ratio (z) = 0.28275 -0.11241
#
# Static dielectric constant tensor:
#      x y z
#    x 2.268580 -0.027850 0.071060 
#    y -0.027850 2.295500 -0.126960 
#    z 0.071060 -0.126960 2.392200 
# 
# From -- ./inp_files/143712.got.cif
#   From: 2010.05.17/outbox.cif.g08.bks.cpg/sg2_72_cif.got.tgz:143712.got - 2010.06.03 11:33:40.
