data_PCOD9040380
_publ_section_title
;
Structure prediction by ZEFSAII (Michael W. Deem and Ramdas Pophale) SiO2 
 PCOD9040380
Probable space group: P -1
;
_chemical_formula_sum "Si O2"
_cell_formula_units_Z 16
_cell_length_a 9.401986
_cell_length_b 5.349070
_cell_length_c 18.491489
_cell_angle_alpha 93.408135
_cell_angle_beta 78.781214
_cell_angle_gamma 125.941601
_cell_volume 736.775373
_symmetry_space_group_name_H-M "P -1"
_symmetry_group_IT_number 2
_symmetry_cell_setting 'triclinic'
loop_
_space_group_symop_operation_xyz
x,y,z
-x,-y,-z
loop_
_atom_site_type_symbol
_atom_site_label
_atom_site_fract_x
_atom_site_fract_y
_atom_site_fract_z
Si Si1 0.689647 0.882854 0.612977
Si Si2 0.182391 0.226516 0.528699
Si Si3 0.708318 0.159215 0.477166
Si Si4 0.922896 0.080244 0.734399
Si Si5 0.663984 0.445698 0.264904
Si Si6 0.025070 0.765831 0.950937
Si Si7 0.790422 0.465680 0.826477
Si Si8 0.379359 0.115176 0.827349
O O1 0.759328 0.173177 0.557347
O O2 0.832053 0.976394 0.662768
O O3 0.674158 0.650192 0.549831
O O4 0.497703 0.730571 0.664625
O O5 0.196462 0.513157 0.562641
O O6 0.231465 0.038660 0.568488
O O7 0.000000 0.000000 0.500000
O O8 0.500000 0.000000 0.500000
O O9 0.136803 0.314812 0.720491
O O10 0.843264 0.248530 0.784191
O O11 0.866058 0.768571 0.775233
O O12 0.624361 0.639635 0.218259
O O13 0.658907 0.174318 0.219917
O O14 0.882167 0.591890 0.897270
O O15 0.221572 0.971936 0.898965
O O16 0.000000 0.500000 0.000000
O O17 0.000000 0.000000 0.000000
O O18 0.576213 0.280040 0.844562
#
# Coordination Sequence:
#
# PCOD9040380 Si02
#       8
#     2   2   2   2   2   2   2   2
#     4  10  26  38  72  99 136 166 240 266 340 408
#     4  10  23  43  66  91 134 173 220 272 334 385
#     4  10  23  43  66  91 134 173 220 272 334 385
#     4  12  23  42  67  99 134 176 219 279 341 396
#     4  12  23  42  67  99 134 176 219 279 341 396
#     4  12  26  44  70  99 138 176 230 266 322 410
#     4  12  24  44  71  97 138 176 218 279 338 382
#     4  12  24  44  71  97 138 176 218 279 338 382
#
# _framework density 21.716252999999998
#
# number of rings (size 3 to 8) (size 9 to 14) (size 15 to 20)
#    0.750    0.000    5.000    2.250    3.500    2.000 
#    0.000    0.000    0.000    0.000    0.000    0.000 
#    0.000    0.000    0.000    0.000    0.000    0.000 
#
# Total GULP energy -89435.311950 kJ/mol
# GULP energy per Si atom -5589.706997 kJ/mol
# Density = 2.166683 g / cm^3
# Si number density = 21.716253 Si / 1000 Ang^3
#
#
#
# Elastic Constant Matrix: (Units=GPa)
#
#
# Indices 1 2 3 4 5 6 
#
# 1 124.0642 38.1535 25.1007 -4.5504 -0.0654 -3.7591
# 2 38.1535 101.7725 16.2013 -5.2599 -1.9948 -16.4363
# 3 25.1007 16.2013 101.3955 -4.0251 -3.4687 -8.4097
# 4 -4.5504 -5.2599 -4.0251 29.0948 13.9704 2.5148
# 5 -0.0654 -1.9948 -3.4687 13.9704 47.3677 -5.0779
# 6 -3.7591 -16.4363 -8.4097 2.5148 -5.0779 70.2452
#
#
#
# Elastic Compliance Matrix: (Units=1/GPa)
#
#
# Indices 1 2 3 4 5 6 
#
# 1 0.009469 -0.003310 -0.001845 0.000968 -0.000608 -0.000567
# 2 -0.003310 0.011649 -0.000784 0.001092 0.000368 0.002442
# 3 -0.001845 -0.000784 0.010576 0.000628 0.000662 0.001009
# 4 0.000968 0.001092 0.000628 0.040811 -0.012153 -0.001957
# 5 -0.000608 0.000368 0.000662 -0.012153 0.025014 0.002376
# 6 -0.000567 0.002442 0.001009 -0.001957 0.002376 0.015140
#
#
# Mechanical properties :
#
#
# Convention : Reuss Voigt Hill
#
# Bulk Modulus (GPa) = 50.45824 54.01591 52.23707
# Shear Modulus (GPa) = 38.12698 45.85998 41.99348
#
# Velocity S-wave (km/s) = 4.19464 4.60040 4.40220
# Velocity P-wave (km/s) = 6.83708 7.29011 7.06723
#
# Compressibility (1/GPa) = 0.01981837
#
# Stress axis : x y z
#
# Youngs Moduli (GPa) = 105.60281 85.84070 94.55798
#
# Poissons Ratio (x) = 0.28412 0.17443
# Poissons Ratio (y) = 0.34952 0.07409
# Poissons Ratio (z) = 0.19481 0.06726
#
# Static dielectric constant tensor:
#      x y z
#    x 1.866080 -0.042360 -0.018610 
#    y -0.042360 1.818370 0.000130 
#    z -0.018610 0.000130 1.771920 
# 
# From -- ./inp_files/585691.got.cif
#   From: 2010.05.17/outbox.cif.g08.bks.cpg/sg2_293_cif.got.tgz:585691.got - 2010.06.03 11:33:40.
