data_PCOD9040079
_publ_section_title
;
Structure prediction by ZEFSAII (Michael W. Deem and Ramdas Pophale) SiO2 
 PCOD9040079
Probable space group: P -1
;
_chemical_formula_sum "Si O2"
_cell_formula_units_Z 15
_cell_length_a 9.916412
_cell_length_b 15.351208
_cell_length_c 15.619543
_cell_angle_alpha 26.046589
_cell_angle_beta 88.030830
_cell_angle_gamma 106.148864
_cell_volume 740.919439
_symmetry_space_group_name_H-M "P -1"
_symmetry_group_IT_number 2
_symmetry_cell_setting 'triclinic'
loop_
_space_group_symop_operation_xyz
x,y,z
-x,-y,-z
loop_
_atom_site_type_symbol
_atom_site_label
_atom_site_fract_x
_atom_site_fract_y
_atom_site_fract_z
Si Si1 0.420924 0.443197 0.455635
Si Si2 0.801765 0.682982 0.798930
Si Si3 0.652893 0.147720 0.441952
Si Si4 0.658583 0.358861 0.432491
Si Si5 0.583910 0.660045 0.968206
Si Si6 0.985914 0.002971 0.895529
Si Si7 0.000000 0.500000 0.000000
Si Si8 0.672740 0.950284 0.886140
O O1 0.500000 0.500000 0.500000
O O2 0.498147 0.334776 0.496779
O O3 0.194886 0.218006 0.661977
O O4 0.515218 0.732885 0.152641
O O5 0.710886 0.632423 0.939280
O O6 0.641767 0.601195 0.810150
O O7 0.855232 0.508881 0.945283
O O8 0.000000 0.000000 0.500000
O O9 0.619828 0.263267 0.419215
O O10 0.862006 0.371958 0.199913
O O11 0.500000 0.000000 0.500000
O O12 0.627563 0.905701 0.698158
O O13 0.668736 0.166889 0.657385
O O14 0.854752 0.684269 0.149103
O O15 0.633932 0.761222 0.974321
O O16 0.873071 0.086486 0.799908
O O17 0.000000 0.000000 0.000000
#
# Coordination Sequence:
#
# PCOD9040079 Si02
#       8
#     2   2   2   2   2   2   1   2
#     4  11  23  46  69  98 132 170 225 278 341 402
#     4  11  23  40  63  93 126 176 224 269 328 381
#     4  11  23  44  65  97 139 175 223 271 323 392
#     4  10  25  44  69 100 135 178 221 273 339 395
#     4  10  23  43  61  91 138 170 223 278 323 390
#     4  11  23  46  68  98 134 167 223 283 333 404
#     4  12  24  38  66  94 124 180 224 266 322 386
#     4  10  24  44  65  98 133 176 219 274 334 405
#
# _framework density 20.245115999999999
#
# number of rings (size 3 to 8) (size 9 to 14) (size 15 to 20)
#    0.000    1.333    5.333    0.000    3.733    4.267 
#    0.000    0.000    0.000    0.000    0.000    0.000 
#    0.000    0.000    0.000    0.000    0.000    0.000 
#
# Total GULP energy -83523.647522 kJ/mol
# GULP energy per Si atom -5568.243168 kJ/mol
# Density = 2.019904 g / cm^3
# Si number density = 20.245116 Si / 1000 Ang^3
#
#
#
# Elastic Constant Matrix: (Units=GPa)
#
#
# Indices 1 2 3 4 5 6 
#
# 1 128.3082 31.1588 59.3390 6.1877 -27.7192 0.3189
# 2 31.1588 106.1469 30.4044 16.1452 -7.0440 3.0647
# 3 59.3390 30.4044 115.3782 12.0110 -25.1832 2.5652
# 4 6.1877 16.1452 12.0110 31.3713 1.4389 3.5808
# 5 -27.7192 -7.0440 -25.1832 1.4389 47.4893 5.3133
# 6 0.3189 3.0647 2.5652 3.5808 5.3133 33.3607
#
#
#
# Elastic Compliance Matrix: (Units=1/GPa)
#
#
# Indices 1 2 3 4 5 6 
#
# 1 0.011092 -0.001766 -0.004411 0.000260 0.003894 -0.000253
# 2 -0.001766 0.011106 -0.001516 -0.004744 -0.000002 -0.000377
# 3 -0.004411 -0.001516 0.012590 -0.003233 0.004097 -0.001092
# 4 0.000260 -0.004744 -0.003233 0.035951 -0.003055 -0.002691
# 5 0.003894 -0.000002 0.004097 -0.003055 0.026062 -0.004175
# 6 -0.000253 -0.000377 -0.001092 -0.002691 -0.004175 0.031050
#
#
# Mechanical properties :
#
#
# Convention : Reuss Voigt Hill
#
# Bulk Modulus (GPa) = 51.54325 65.73755 58.64040
# Shear Modulus (GPa) = 33.39882 37.70634 35.55258
#
# Velocity S-wave (km/s) = 4.06608 4.32034 4.19514
# Velocity P-wave (km/s) = 6.89630 7.57815 7.24525
#
# Compressibility (1/GPa) = 0.01940118
#
# Stress axis : x y z
#
# Youngs Moduli (GPa) = 90.15724 90.04084 79.42612
#
# Poissons Ratio (x) = 0.15905 0.35032
# Poissons Ratio (y) = 0.15926 0.12044
# Poissons Ratio (z) = 0.39765 0.13654
#
# Static dielectric constant tensor:
#      x y z
#    x 1.761000 0.000270 0.050030 
#    y 0.000270 1.719400 -0.009430 
#    z 0.050030 -0.009430 1.755390 
# 
# From -- ./inp_files/505040.got.cif
#   From: 2010.05.17/outbox.cif.g08.bks.cpg/sg2_253_cif.got.tgz:505040.got - 2010.06.03 11:33:40.
