data_PCOD9040345
_publ_section_title
;
Structure prediction by ZEFSAII (Michael W. Deem and Ramdas Pophale) SiO2 
 PCOD9040345
Probable space group: P -1
;
_chemical_formula_sum "Si O2"
_cell_formula_units_Z 14
_cell_length_a 11.268168
_cell_length_b 8.594168
_cell_length_c 8.389097
_cell_angle_alpha 73.876235
_cell_angle_beta 51.735684
_cell_angle_gamma 61.491964
_cell_volume 560.339956
_symmetry_space_group_name_H-M "P -1"
_symmetry_group_IT_number 2
_symmetry_cell_setting 'triclinic'
loop_
_space_group_symop_operation_xyz
x,y,z
-x,-y,-z
loop_
_atom_site_type_symbol
_atom_site_label
_atom_site_fract_x
_atom_site_fract_y
_atom_site_fract_z
Si Si1 0.448217 0.313495 0.714556
Si Si2 0.834465 0.069690 0.954818
Si Si3 0.121100 0.306233 0.892534
Si Si4 0.002299 0.823120 0.466277
Si Si5 0.477388 0.638401 0.723457
Si Si6 0.667852 0.004958 0.800437
Si Si7 0.170989 0.445669 0.476670
O O1 0.289439 0.265950 0.863087
O O2 0.435050 0.465870 0.807765
O O3 0.458334 0.364748 0.509091
O O4 0.613579 0.146464 0.664150
O O5 0.952814 0.157422 0.759739
O O6 0.731343 0.071767 0.881777
O O7 0.693198 0.192500 0.156065
O O8 0.921792 0.864225 0.994161
O O9 0.154210 0.336002 0.672979
O O10 0.000000 0.500000 0.000000
O O11 0.135797 0.651240 0.488539
O O12 0.818133 0.835645 0.651947
O O13 0.000000 0.000000 0.500000
O O14 0.631931 0.630386 0.706869
O O15 0.500000 0.000000 0.000000
O O16 0.000000 0.500000 0.500000
#
# Coordination Sequence:
#
# PCOD9040345 Si02
#       7
#     2   2   2   2   2   2   2
#     4  10  23  44  70 100 140 189 229 293 358 428
#     4  11  24  43  72 105 137 184 240 294 345 427
#     4  11  24  44  69 100 137 183 236 287 355 418
#     4  10  23  43  66 100 139 178 230 285 352 412
#     4  10  24  45  69 101 143 185 235 291 362 415
#     4  11  22  40  71 100 134 185 234 283 350 420
#     4  11  26  43  66 100 140 181 227 297 344 418
#
# _framework density 24.984832000000001
#
# number of rings (size 3 to 8) (size 9 to 14) (size 15 to 20)
#    0.000    1.429    1.429    3.429    2.000    9.143 
#    0.000    2.143    0.000    0.000    0.000    0.000 
#    0.000    0.000    0.000    0.000    0.000    0.000 
#
# Total GULP energy -78133.106560 kJ/mol
# GULP energy per Si atom -5580.936183 kJ/mol
# Density = 2.492797 g / cm^3
# Si number density = 24.984832 Si / 1000 Ang^3
#
#
#
# Elastic Constant Matrix: (Units=GPa)
#
#
# Indices 1 2 3 4 5 6 
#
# 1 113.8339 5.6798 29.8168 -8.9422 -3.1779 -6.7163
# 2 5.6798 110.4967 27.3180 3.2381 -18.0603 -24.0775
# 3 29.8168 27.3180 96.7750 2.5489 -28.6858 5.2779
# 4 -8.9422 3.2381 2.5489 46.2347 -6.9886 -4.5945
# 5 -3.1779 -18.0603 -28.6858 -6.9886 23.3629 -6.7821
# 6 -6.7163 -24.0775 5.2779 -4.5945 -6.7821 35.8764
#
#
#
# Elastic Compliance Matrix: (Units=1/GPa)
#
#
# Indices 1 2 3 4 5 6 
#
# 1 0.010101 0.000867 -0.003952 0.002232 -0.001240 0.003105
# 2 0.000867 0.014421 -0.000645 0.002786 0.015125 0.013152
# 3 -0.003952 -0.000645 0.018149 0.001638 0.021885 0.000504
# 4 0.002232 0.002786 0.001638 0.024697 0.014145 0.007884
# 5 -0.001240 0.015125 0.021885 0.014145 0.093003 0.026092
# 6 0.003105 0.013152 0.000504 0.007884 0.026092 0.043149
#
#
# Mechanical properties :
#
#
# Convention : Reuss Voigt Hill
#
# Bulk Modulus (GPa) = 28.40140 49.63719 39.01930
# Shear Modulus (GPa) = 22.44982 38.31420 30.38201
#
# Velocity S-wave (km/s) = 3.00081 3.92024 3.49093
# Velocity P-wave (km/s) = 4.83722 6.35619 5.64800
#
# Compressibility (1/GPa) = 0.03520953
#
# Stress axis : x y z
#
# Youngs Moduli (GPa) = 99.00331 69.34179 55.09801
#
# Poissons Ratio (x) = -0.06009 0.21777
# Poissons Ratio (y) = -0.08579 0.03554
# Poissons Ratio (z) = 0.39130 0.04473
#
# Static dielectric constant tensor:
#      x y z
#    x 2.164180 0.174080 -0.048110 
#    y 0.174080 2.178290 -0.047550 
#    z -0.048110 -0.047550 2.047170 
# 
# From -- ./inp_files/243293.got.cif
#   From: 2010.05.17/outbox.cif.g08.bks.cpg/sg2_122_cif.got.tgz:243293.got - 2010.06.03 11:33:40.
