data_PCOD9040068
_publ_section_title
;
Structure prediction by ZEFSAII (Michael W. Deem and Ramdas Pophale) SiO2 
 PCOD9040068
Probable space group: P -1
;
_chemical_formula_sum "Si O2"
_cell_formula_units_Z 12
_cell_length_a 23.067002
_cell_length_b 5.229620
_cell_length_c 10.430109
_cell_angle_alpha 59.013466
_cell_angle_beta 24.540730
_cell_angle_gamma 59.977151
_cell_volume 446.188201
_symmetry_space_group_name_H-M "P -1"
_symmetry_group_IT_number 2
_symmetry_cell_setting 'triclinic'
loop_
_space_group_symop_operation_xyz
x,y,z
-x,-y,-z
loop_
_atom_site_type_symbol
_atom_site_label
_atom_site_fract_x
_atom_site_fract_y
_atom_site_fract_z
Si Si1 0.102046 0.473621 0.179919
Si Si2 0.806687 0.946279 0.289687
Si Si3 0.424829 0.328685 0.586247
Si Si4 0.278184 0.067212 0.258258
Si Si5 0.890567 0.402224 0.425452
Si Si6 0.548447 0.708581 0.737292
O O1 0.000000 0.500000 0.500000
O O2 0.025345 0.305199 0.264389
O O3 0.257367 0.336372 0.939605
O O4 0.120571 0.793676 0.992912
O O5 0.724827 0.049921 0.558206
O O6 0.906048 0.670466 0.222072
O O7 0.696913 0.819693 0.446503
O O8 0.500000 0.500000 0.500000
O O9 0.443917 0.454969 0.371721
O O10 0.500000 0.000000 0.500000
O O11 0.427550 0.983114 0.916391
O O12 0.173897 0.871438 0.441315
O O13 0.222078 0.414892 0.298930
O O14 0.500000 0.500000 0.000000
#
# Coordination Sequence:
#
# PCOD9040068 Si02
#       6
#     2   2   2   2   2   2
#     4  12  29  52  82 115 166 223 273 325 411 497
#     4  10  24  47  78 124 158 208 268 342 400 483
#     4  12  32  56  80 116 167 218 274 336 409 488
#     4  10  23  42  82 117 162 199 265 334 416 463
#     4  10  25  46  77 116 165 198 268 332 413 470
#     4  12  23  48  86 120 159 209 278 340 407 482
#
# _framework density 26.894483000000001
#
# number of rings (size 3 to 8) (size 9 to 14) (size 15 to 20)
#    1.000    0.000    1.667    3.000    4.667    6.000 
#    0.000    4.167    0.000    0.000    0.000    0.000 
#    0.000    0.000    0.000    0.000    0.000    0.000 
#
# Total GULP energy -67327.673166 kJ/mol
# GULP energy per Si atom -5610.639430 kJ/mol
# Density = 2.683327 g / cm^3
# Si number density = 26.894483 Si / 1000 Ang^3
#
#
#
# Elastic Constant Matrix: (Units=GPa)
#
#
# Indices 1 2 3 4 5 6 
#
# 1 242.4338 74.6781 54.6073 16.4508 -18.4401 22.7946
# 2 74.6781 138.8556 40.2997 37.8814 -4.1656 8.9223
# 3 54.6073 40.2997 132.6341 22.9017 26.0465 3.7152
# 4 16.4508 37.8814 22.9017 54.1181 -0.8772 -6.3503
# 5 -18.4401 -4.1656 26.0465 -0.8772 36.6077 5.0074
# 6 22.7946 8.9223 3.7152 -6.3503 5.0074 61.5704
#
#
#
# Elastic Compliance Matrix: (Units=1/GPa)
#
#
# Indices 1 2 3 4 5 6 
#
# 1 0.006014 -0.002362 -0.002852 0.000876 0.005089 -0.002036
# 2 -0.002362 0.010712 -0.001349 -0.006349 0.001019 -0.001334
# 3 -0.002852 -0.001349 0.011615 -0.003145 -0.010073 0.001045
# 4 0.000876 -0.006349 -0.003145 0.024389 0.002113 0.003129
# 5 0.005089 0.001019 -0.010073 0.002113 0.037799 -0.004280
# 6 -0.002036 -0.001334 0.001045 0.003129 -0.004280 0.017796
#
#
# Mechanical properties :
#
#
# Convention : Reuss Voigt Hill
#
# Bulk Modulus (GPa) = 65.72046 94.78818 80.25432
# Shear Modulus (GPa) = 39.51869 53.41513 46.46691
#
# Velocity S-wave (km/s) = 3.83743 4.46140 4.16113
# Velocity P-wave (km/s) = 6.64259 7.86510 7.27955
#
# Compressibility (1/GPa) = 0.01521596
#
# Stress axis : x y z
#
# Youngs Moduli (GPa) = 166.28188 93.35334 86.09328
#
# Poissons Ratio (x) = 0.22051 0.24553
# Poissons Ratio (y) = 0.39277 0.11611
# Poissons Ratio (z) = 0.47422 0.12590
#
# Static dielectric constant tensor:
#      x y z
#    x 2.185670 -0.117510 -0.011760 
#    y -0.117510 2.159210 0.032210 
#    z -0.011760 0.032210 2.193530 
# 
# From -- ./inp_files/7050.got.cif
#   From: 2010.05.17/outbox.cif.g08.bks.cpg/sg2_4_cif.got.tgz:7050.got - 2010.06.03 11:33:40.
