data_PCOD9040641
_publ_section_title
;
Structure prediction by ZEFSAII (Michael W. Deem and Ramdas Pophale) SiO2 
 PCOD9040641
Probable space group: P -1
;
_chemical_formula_sum "Si O2"
_cell_formula_units_Z 16
_cell_length_a 21.477813
_cell_length_b 8.640330
_cell_length_c 5.166648
_cell_angle_alpha 76.948687
_cell_angle_beta 56.142337
_cell_angle_gamma 48.173812
_cell_volume 576.631570
_symmetry_space_group_name_H-M "P -1"
_symmetry_group_IT_number 2
_symmetry_cell_setting 'triclinic'
loop_
_space_group_symop_operation_xyz
x,y,z
-x,-y,-z
loop_
_atom_site_type_symbol
_atom_site_label
_atom_site_fract_x
_atom_site_fract_y
_atom_site_fract_z
Si Si1 0.639981 0.731223 0.976038
Si Si2 0.417126 0.543646 0.475579
Si Si3 0.232168 0.238565 0.012257
Si Si4 0.033555 0.575915 0.671070
Si Si5 0.839407 0.422656 0.324714
Si Si6 0.147020 0.056539 0.384653
Si Si7 0.185395 0.816587 0.904663
Si Si8 0.467297 0.798603 0.117800
O O1 0.676942 0.769667 0.134400
O O2 0.737912 0.527144 0.677775
O O3 0.551726 0.724921 0.168395
O O4 0.594618 0.951755 0.856255
O O5 0.500000 0.500000 0.500000
O O6 0.305750 0.634180 0.736469
O O7 0.469101 0.350992 0.221625
O O8 0.393582 0.754117 0.332257
O O9 0.145639 0.386188 0.372486
O O10 0.240913 0.036880 0.084374
O O11 0.184923 0.367939 0.811469
O O12 0.056738 0.709187 0.713271
O O13 0.954965 0.711501 0.567269
O O14 0.000000 0.500000 0.000000
O O15 0.850844 0.293386 0.101459
O O16 0.159253 0.985012 0.678435
O O17 0.146202 0.911671 0.243032
#
# Coordination Sequence:
#
# PCOD9040641 Si02
#       8
#     2   2   2   2   2   2   2   2
#     4  10  23  43  68 101 140 189 253 303 365 433
#     4  11  26  42  70 100 147 194 241 304 374 434
#     4  11  25  43  77 100 148 192 246 305 372 439
#     4  11  24  48  77 110 144 192 252 305 370 439
#     4  11  26  44  72 106 149 194 240 312 371 437
#     4  12  28  48  78 108 149 197 250 303 370 457
#     4  12  30  48  73 111 156 193 247 307 381 437
#     4  10  23  43  69  98 138 192 251 301 365 440
#
# _framework density 27.747351999999999
#
# number of rings (size 3 to 8) (size 9 to 14) (size 15 to 20)
#    0.000    1.000    2.500    1.875   15.750    1.000 
#    0.000    2.500    0.000    0.000    0.000    0.000 
#    0.000    0.000    0.000    0.000    0.000    0.000 
#
# Total GULP energy -89466.104378 kJ/mol
# GULP energy per Si atom -5591.631524 kJ/mol
# Density = 2.768420 g / cm^3
# Si number density = 27.747352 Si / 1000 Ang^3
#
#
#
# Elastic Constant Matrix: (Units=GPa)
#
#
# Indices 1 2 3 4 5 6 
#
# 1 194.3013 27.6741 24.1426 -0.3708 2.5189 -4.9340
# 2 27.6741 91.1339 10.6027 -0.9681 5.7489 -10.1461
# 3 24.1426 10.6027 77.7586 -11.8907 -8.1833 -0.5060
# 4 -0.3708 -0.9681 -11.8907 39.3288 3.5333 6.6007
# 5 2.5189 5.7489 -8.1833 3.5333 34.0750 -12.3616
# 6 -4.9340 -10.1461 -0.5060 6.6007 -12.3616 57.3554
#
#
#
# Elastic Compliance Matrix: (Units=1/GPa)
#
#
# Indices 1 2 3 4 5 6 
#
# 1 0.005568 -0.001457 -0.001648 -0.000468 -0.000454 0.000163
# 2 -0.001457 0.011855 -0.001362 -0.000267 -0.001594 0.001647
# 3 -0.001648 -0.001362 0.014536 0.004034 0.003432 0.000021
# 4 -0.000468 -0.000267 0.004034 0.027584 -0.003235 -0.003924
# 5 -0.000454 -0.001594 0.003432 -0.003235 0.033455 0.007292
# 6 0.000163 0.001647 0.000021 -0.003924 0.007292 0.019764
#
#
# Mechanical properties :
#
#
# Convention : Reuss Voigt Hill
#
# Bulk Modulus (GPa) = 43.43321 54.22586 48.82954
# Shear Modulus (GPa) = 38.64830 46.20346 42.42588
#
# Velocity S-wave (km/s) = 3.73616 4.08505 3.91449
# Velocity P-wave (km/s) = 5.85653 6.46802 6.16986
#
# Compressibility (1/GPa) = 0.02302386
#
# Stress axis : x y z
#
# Youngs Moduli (GPa) = 179.59278 84.35314 68.79478
#
# Poissons Ratio (x) = 0.12293 0.11340
# Poissons Ratio (y) = 0.26172 0.09369
# Poissons Ratio (z) = 0.29605 0.11488
#
# Static dielectric constant tensor:
#      x y z
#    x 2.255910 0.061270 0.052570 
#    y 0.061270 2.372620 -0.065050 
#    z 0.052570 -0.065050 2.148880 
# 
# From -- ./inp_files/49032.got.cif
#   From: 2010.05.17/outbox.cif.g08.bks.cpg/sg2_25_cif.got.tgz:49032.got - 2010.06.03 11:33:40.
