data_PCOD9040813
_publ_section_title
;
Structure prediction by ZEFSAII (Michael W. Deem and Ramdas Pophale) SiO2 
 PCOD9040813
Probable space group: P -1
;
_chemical_formula_sum "Si O2"
_cell_formula_units_Z 16
_cell_length_a 9.303286
_cell_length_b 24.814077
_cell_length_c 24.375458
_cell_angle_alpha 168.106296
_cell_angle_beta 137.444411
_cell_angle_gamma 41.359422
_cell_volume 766.233250
_symmetry_space_group_name_H-M "P -1"
_symmetry_group_IT_number 2
_symmetry_cell_setting 'triclinic'
loop_
_space_group_symop_operation_xyz
x,y,z
-x,-y,-z
loop_
_atom_site_type_symbol
_atom_site_label
_atom_site_fract_x
_atom_site_fract_y
_atom_site_fract_z
Si Si1 0.570003 0.727033 0.282771
Si Si2 0.206665 0.826650 0.738817
Si Si3 0.620628 0.699695 0.800025
Si Si4 0.666747 0.874423 0.111435
Si Si5 0.285840 0.951166 0.171422
Si Si6 0.540385 0.605742 0.277135
Si Si7 0.041207 0.692576 0.357520
Si Si8 0.945018 0.266028 0.715212
O O1 0.481577 0.672991 0.264255
O O2 0.828064 0.698130 0.339073
O O3 0.500000 0.000000 0.500000
O O4 0.500000 0.500000 0.000000
O O5 0.378562 0.711389 0.720169
O O6 0.234057 0.588718 0.464145
O O7 0.965790 0.944305 0.810721
O O8 0.284644 0.074785 0.980279
O O9 0.613835 0.782604 0.944177
O O10 0.455649 0.924093 0.141262
O O11 0.793340 0.120652 0.391873
O O12 0.837118 0.614236 0.921311
O O13 0.335578 0.178092 0.450859
O O14 0.330872 0.683082 0.954112
O O15 0.308903 0.658153 0.294368
O O16 0.940863 0.783792 0.360616
O O17 0.000000 0.000000 0.500000
O O18 0.000000 0.500000 0.000000
#
# Coordination Sequence:
#
# PCOD9040813 Si02
#       8
#     2   2   2   2   2   2   2   2
#     4  12  26  46  64  92 129 170 223 280 334 390
#     4  10  23  43  69 101 134 174 219 263 321 391
#     4  10  23  43  69 101 134 174 219 263 321 391
#     4  12  24  43  66 100 136 172 217 268 326 392
#     4  12  24  43  66 100 136 172 217 268 326 392
#     4  12  25  42  65  98 128 170 220 275 324 393
#     4  12  25  42  65  98 128 170 220 275 324 393
#     4  12  22  40  64  88 125 172 213 266 328 384
#
# _framework density 20.88137
#
# number of rings (size 3 to 8) (size 9 to 14) (size 15 to 20)
#    0.000    0.500    2.500    6.000    5.250    0.500 
#    0.000    0.000    0.000    7.500    0.000    0.000 
#    0.000    0.000    0.000    0.000    0.000    0.000 
#
# Total GULP energy -89377.788019 kJ/mol
# GULP energy per Si atom -5586.111751 kJ/mol
# Density = 2.083384 g / cm^3
# Si number density = 20.881370 Si / 1000 Ang^3
#
#
#
# Elastic Constant Matrix: (Units=GPa)
#
#
# Indices 1 2 3 4 5 6 
#
# 1 90.4335 27.5555 18.8650 -3.8773 -11.0806 -8.0646
# 2 27.5555 72.4845 23.5637 1.6689 -2.5302 -19.3174
# 3 18.8650 23.5637 152.3981 0.9807 0.2407 -9.7730
# 4 -3.8773 1.6689 0.9807 35.7329 1.9646 -14.2163
# 5 -11.0806 -2.5302 0.2407 1.9646 40.0683 -6.6146
# 6 -8.0646 -19.3174 -9.7730 -14.2163 -6.6146 43.2080
#
#
#
# Elastic Compliance Matrix: (Units=1/GPa)
#
#
# Indices 1 2 3 4 5 6 
#
# 1 0.013200 -0.004222 -0.000897 0.002098 0.003552 0.001607
# 2 -0.004222 0.018008 -0.001787 0.001709 0.001150 0.007597
# 3 -0.000897 -0.001787 0.006987 0.000042 -0.000309 0.000580
# 4 0.002098 0.001709 0.000042 0.032910 0.001082 0.012159
# 5 0.003552 0.001150 -0.000309 0.001082 0.026882 0.005578
# 6 0.001607 0.007597 0.000580 0.012159 0.005578 0.031826
#
#
# Mechanical properties :
#
#
# Convention : Reuss Voigt Hill
#
# Bulk Modulus (GPa) = 41.01640 50.58717 45.80179
# Shear Modulus (GPa) = 32.94822 40.15728 36.55275
#
# Velocity S-wave (km/s) = 3.97656 4.39009 4.18843
# Velocity P-wave (km/s) = 6.38508 7.06935 6.73591
#
# Compressibility (1/GPa) = 0.02438049
#
# Stress axis : x y z
#
# Youngs Moduli (GPa) = 75.75714 55.53175 143.13118
#
# Poissons Ratio (x) = 0.23448 0.12841
# Poissons Ratio (y) = 0.31988 0.25582
# Poissons Ratio (z) = 0.06797 0.09925
#
# Static dielectric constant tensor:
#      x y z
#    x 1.743480 -0.003310 -0.008260 
#    y -0.003310 1.746740 0.034700 
#    z -0.008260 0.034700 1.667480 
# 
# From -- ./inp_files/217591.got.cif
#   From: 2010.05.17/outbox.cif.g08.bks.cpg/sg2_109_cif.got.tgz:217591.got - 2010.06.03 11:33:40.
