data_PCOD9040868
_publ_section_title
;
Structure prediction by ZEFSAII (Michael W. Deem and Ramdas Pophale) SiO2 
 PCOD9040868
Probable space group: P -1
;
_chemical_formula_sum "Si O2"
_cell_formula_units_Z 14
_cell_length_a 5.252176
_cell_length_b 9.007035
_cell_length_c 20.612650
_cell_angle_alpha 140.144839
_cell_angle_beta 62.425449
_cell_angle_gamma 97.317923
_cell_volume 507.350386
_symmetry_space_group_name_H-M "P -1"
_symmetry_group_IT_number 2
_symmetry_cell_setting 'triclinic'
loop_
_space_group_symop_operation_xyz
x,y,z
-x,-y,-z
loop_
_atom_site_type_symbol
_atom_site_label
_atom_site_fract_x
_atom_site_fract_y
_atom_site_fract_z
Si Si1 0.394059 0.446304 0.333984
Si Si2 0.899809 0.990273 0.200731
Si Si3 0.157405 0.694567 0.885449
Si Si4 0.644622 0.250813 0.446128
Si Si5 0.528745 0.757555 0.103849
Si Si6 0.091594 0.230475 0.584740
Si Si7 0.264000 0.579458 0.183471
O O1 0.658110 0.438612 0.247188
O O2 0.199130 0.648792 0.480936
O O3 0.114791 0.498812 0.334077
O O4 0.620538 0.214574 0.272030
O O5 0.854512 0.772583 0.090163
O O6 0.262845 0.955472 0.153774
O O7 0.794669 0.030801 0.301987
O O8 0.428563 0.609988 0.878686
O O9 0.889527 0.587649 0.893175
O O10 0.000000 0.000000 0.000000
O O11 0.500000 0.500000 0.500000
O O12 0.420519 0.179377 0.496863
O O13 0.372521 0.774581 0.199219
O O14 0.500000 0.500000 0.000000
O O15 0.998555 0.269184 0.683048
O O16 0.000000 0.000000 0.500000
#
# Coordination Sequence:
#
# PCOD9040868 Si02
#       7
#     2   2   2   2   2   2   2
#     4  10  25  43  70 104 137 191 237 287 357 426
#     4  11  27  44  75 101 143 188 235 294 353 426
#     4  11  24  43  72  99 139 181 236 297 350 420
#     4  10  23  43  69 104 144 183 239 290 354 429
#     4  12  28  48  72 103 142 187 240 295 359 424
#     4  11  24  43  72 103 149 186 232 298 358 431
#     4  11  25  45  67 105 138 181 240 286 359 425
#
# _framework density 27.594342999999999
#
# number of rings (size 3 to 8) (size 9 to 14) (size 15 to 20)
#    0.000    1.143    1.429    2.571   12.000    2.857 
#    0.000    0.000    0.000    0.000    0.000    0.000 
#    0.000    0.000    0.000    0.000    0.000    0.000 
#
# Total GULP energy -77998.783481 kJ/mol
# GULP energy per Si atom -5571.341677 kJ/mol
# Density = 2.753154 g / cm^3
# Si number density = 27.594343 Si / 1000 Ang^3
#
#
#
# Elastic Constant Matrix: (Units=GPa)
#
#
# Indices 1 2 3 4 5 6 
#
# 1 106.5340 9.8905 21.7154 7.5092 -12.0255 -20.4083
# 2 9.8905 60.7493 4.6673 2.7719 -7.5049 -15.6053
# 3 21.7154 4.6673 94.1486 -4.6143 7.1273 -4.5294
# 4 7.5092 2.7719 -4.6143 61.9755 -12.4342 -10.7976
# 5 -12.0255 -7.5049 7.1273 -12.4342 44.8562 2.6213
# 6 -20.4083 -15.6053 -4.5294 -10.7976 2.6213 47.3374
#
#
#
# Elastic Compliance Matrix: (Units=1/GPa)
#
#
# Indices 1 2 3 4 5 6 
#
# 1 0.011107 -0.000119 -0.002590 -0.000169 0.003071 0.004292
# 2 -0.000119 0.018410 -0.000791 0.000779 0.003042 0.005951
# 3 -0.002590 -0.000791 0.011480 0.000715 -0.002454 0.000020
# 4 -0.000169 0.000779 0.000715 0.017819 0.004674 0.004058
# 5 0.003071 0.003042 -0.002454 0.004674 0.025208 0.001762
# 6 0.004292 0.005951 0.000020 0.004058 0.001762 0.025767
#
#
# Mechanical properties :
#
#
# Convention : Reuss Voigt Hill
#
# Bulk Modulus (GPa) = 29.41532 37.10872 33.26202
# Shear Modulus (GPa) = 39.02452 45.84440 42.43446
#
# Velocity S-wave (km/s) = 3.76469 4.08041 3.92573
# Velocity P-wave (km/s) = 5.43878 5.97301 5.71214
#
# Compressibility (1/GPa) = 0.03399590
#
# Stress axis : x y z
#
# Youngs Moduli (GPa) = 90.03626 54.31729 87.10882
#
# Poissons Ratio (x) = 0.00649 0.22562
# Poissons Ratio (y) = 0.01075 0.06890
# Poissons Ratio (z) = 0.23321 0.04296
#
# Static dielectric constant tensor:
#      x y z
#    x 2.153330 0.027000 0.050840 
#    y 0.027000 2.340370 0.091760 
#    z 0.050840 0.091760 2.385740 
# 
# From -- ./inp_files/67955.got.cif
#   From: 2010.05.17/outbox.cif.g08.bks.cpg/sg2_34_cif.got.tgz:67955.got - 2010.06.03 11:33:40.
