data_PCOD9040674
_publ_section_title
;
Structure prediction by ZEFSAII (Michael W. Deem and Ramdas Pophale) SiO2 
 PCOD9040674
Probable space group: P -1
;
_chemical_formula_sum "Si O2"
_cell_formula_units_Z 12
_cell_length_a 22.274873
_cell_length_b 19.590311
_cell_length_c 8.601337
_cell_angle_alpha 36.925272
_cell_angle_beta 35.837045
_cell_angle_gamma 12.512674
_cell_volume 475.163109
_symmetry_space_group_name_H-M "P -1"
_symmetry_group_IT_number 2
_symmetry_cell_setting 'triclinic'
loop_
_space_group_symop_operation_xyz
x,y,z
-x,-y,-z
loop_
_atom_site_type_symbol
_atom_site_label
_atom_site_fract_x
_atom_site_fract_y
_atom_site_fract_z
Si Si1 0.663393 0.315141 0.235025
Si Si2 0.329085 0.182317 0.371025
Si Si3 0.793713 0.103736 0.673843
Si Si4 0.742292 0.500729 0.997917
Si Si5 0.949441 0.252030 0.672144
Si Si6 0.270385 0.305385 0.816738
O O1 0.841247 0.114085 0.389094
O O2 0.350645 0.660209 0.330319
O O3 0.759694 0.332819 0.920092
O O4 0.737731 0.127122 0.321227
O O5 0.000000 0.500000 0.500000
O O6 0.500000 0.000000 0.500000
O O7 0.498124 0.918076 0.397810
O O8 0.347727 0.295195 0.086183
O O9 0.542243 0.273613 0.854900
O O10 0.039109 0.786914 0.825056
O O11 0.898966 0.355732 0.763549
O O12 0.876260 0.418363 0.386680
O O13 0.000000 0.500000 0.000000
O O14 0.500000 0.000000 0.000000
#
# Coordination Sequence:
#
# PCOD9040674 Si02
#       6
#     2   2   2   2   2   2
#     4   9  22  43  71 101 138 182 228 288 351 415
#     4  12  25  46  74 104 136 191 242 288 356 419
#     4  10  23  43  68 105 134 176 232 284 353 417
#     4  11  24  42  72  99 140 179 229 292 345 421
#     4  10  23  45  70 100 141 183 231 289 352 418
#     4  12  29  48  71 107 144 186 239 296 354 418
#
# _framework density 25.254487000000001
#
# number of rings (size 3 to 8) (size 9 to 14) (size 15 to 20)
#    0.000    1.333    1.667    2.000    7.000    6.667 
#    0.000    6.667    0.000    0.000    0.000    0.000 
#    0.000    0.000    0.000    0.000    0.000    0.000 
#
# Total GULP energy -66919.948771 kJ/mol
# GULP energy per Si atom -5576.662398 kJ/mol
# Density = 2.519701 g / cm^3
# Si number density = 25.254487 Si / 1000 Ang^3
#
#
#
# Elastic Constant Matrix: (Units=GPa)
#
#
# Indices 1 2 3 4 5 6 
#
# 1 31.2956 31.4268 16.1403 -6.7686 -15.5969 -13.3400
# 2 31.4268 132.9027 49.5741 -32.3767 -16.8600 -21.8982
# 3 16.1403 49.5741 128.6265 -39.8221 -6.4846 -16.4990
# 4 -6.7686 -32.3767 -39.8221 55.2435 4.6206 4.6016
# 5 -15.5969 -16.8600 -6.4846 4.6206 36.2816 -9.4425
# 6 -13.3400 -21.8982 -16.4990 4.6016 -9.4425 62.9651
#
#
#
# Elastic Compliance Matrix: (Units=1/GPa)
#
#
# Indices 1 2 3 4 5 6 
#
# 1 0.058687 -0.008489 -0.001917 -0.002290 0.024572 0.012831
# 2 -0.008489 0.011702 -0.001851 0.004230 0.001356 0.001680
# 3 -0.001917 -0.001851 0.010874 0.006429 -0.000222 0.001296
# 4 -0.002290 0.004230 0.006429 0.024947 -0.000860 0.000718
# 5 0.024572 0.001356 -0.000222 -0.000860 0.041941 0.011972
# 6 0.012831 0.001680 0.001296 0.000718 0.011972 0.021267
#
#
# Mechanical properties :
#
#
# Convention : Reuss Voigt Hill
#
# Bulk Modulus (GPa) = 17.62172 54.12302 35.87237
# Shear Modulus (GPa) = 23.49104 43.94360 33.71732
#
# Velocity S-wave (km/s) = 3.05318 4.17589 3.65787
# Velocity P-wave (km/s) = 4.40704 6.68793 5.66350
#
# Compressibility (1/GPa) = 0.05674815
#
# Stress axis : x y z
#
# Youngs Moduli (GPa) = 17.03967 85.45890 91.96250
#
# Poissons Ratio (x) = 0.72545 0.17628
# Poissons Ratio (y) = 0.14465 0.17024
# Poissons Ratio (z) = 0.03266 0.15820
#
# Static dielectric constant tensor:
#      x y z
#    x 1.148340 1.079130 -0.803350 
#    y 1.079130 0.797190 0.932480 
#    z -0.803350 0.932480 1.412660 
# 
# From -- ./inp_files/321790.got.cif
#   From: 2010.05.17/outbox.cif.g08.bks.cpg/sg2_161_cif.got.tgz:321790.got - 2010.06.03 11:33:40.
