data_PCOD9040568
_publ_section_title
;
Structure prediction by ZEFSAII (Michael W. Deem and Ramdas Pophale) SiO2 
 PCOD9040568
Probable space group: P -1
;
_chemical_formula_sum "Si O2"
_cell_formula_units_Z 14
_cell_length_a 12.867222
_cell_length_b 21.626451
_cell_length_c 20.322483
_cell_angle_alpha 161.471468
_cell_angle_beta 27.482446
_cell_angle_gamma 161.913846
_cell_volume 552.118711
_symmetry_space_group_name_H-M "P -1"
_symmetry_group_IT_number 2
_symmetry_cell_setting 'triclinic'
loop_
_space_group_symop_operation_xyz
x,y,z
-x,-y,-z
loop_
_atom_site_type_symbol
_atom_site_label
_atom_site_fract_x
_atom_site_fract_y
_atom_site_fract_z
Si Si1 0.700606 0.094363 0.583355
Si Si2 0.455560 0.697922 0.208096
Si Si3 0.307091 0.929371 0.229355
Si Si4 0.295837 0.864310 0.910893
Si Si5 0.336964 0.603849 0.397895
Si Si6 0.524028 0.386653 0.146989
Si Si7 0.473045 0.574348 0.665089
O O1 0.537004 0.199826 0.765588
O O2 0.068577 0.363420 0.679468
O O3 0.710854 0.991398 0.403553
O O4 0.478022 0.792390 0.442948
O O5 0.059785 0.470079 0.220859
O O6 0.500000 0.500000 0.000000
O O7 0.910704 0.641244 0.160737
O O8 0.463765 0.071902 0.214385
O O9 0.380882 0.147122 0.457555
O O10 0.508134 0.866380 0.078406
O O11 0.500000 0.000000 0.000000
O O12 0.273039 0.078833 0.126938
O O13 0.310257 0.359336 0.183239
O O14 0.000000 0.500000 0.500000
O O15 0.478971 0.456822 0.316061
O O16 0.500000 0.500000 0.500000
#
# Coordination Sequence:
#
# PCOD9040568 Si02
#       7
#     2   2   2   2   2   2   2
#     4  11  25  44  66 103 136 181 237 278 351 414
#     4  11  25  45  67  98 145 181 226 291 352 417
#     4  10  23  43  67  96 140 174 239 286 330 429
#     4  11  23  41  68 101 131 183 232 283 352 407
#     4  12  26  43  70 100 140 187 228 286 356 420
#     4  10  24  44  68 100 135 185 230 288 349 405
#     4  11  23  41  71 104 135 178 236 291 344 417
#
# _framework density 25.356867999999999
#
# number of rings (size 3 to 8) (size 9 to 14) (size 15 to 20)
#    0.000    1.143    2.857    2.143    2.000    7.429 
#    0.000    0.000    0.000    0.000    0.000    0.000 
#    0.000    0.000    0.000    0.000    0.000    0.000 
#
# Total GULP energy -78085.678293 kJ/mol
# GULP energy per Si atom -5577.548450 kJ/mol
# Density = 2.529915 g / cm^3
# Si number density = 25.356868 Si / 1000 Ang^3
#
#
#
# Elastic Constant Matrix: (Units=GPa)
#
#
# Indices 1 2 3 4 5 6 
#
# 1 123.9017 28.1240 25.5010 -5.0624 -42.6760 -15.5391
# 2 28.1240 74.1414 8.4882 7.6029 -9.5640 -10.2625
# 3 25.5010 8.4882 112.1746 4.8807 -24.0238 -6.7394
# 4 -5.0624 7.6029 4.8807 38.8912 5.5850 6.9478
# 5 -42.6760 -9.5640 -24.0238 5.5850 54.8584 -2.7489
# 6 -15.5391 -10.2625 -6.7394 6.9478 -2.7489 40.3784
#
#
#
# Elastic Compliance Matrix: (Units=1/GPa)
#
#
# Indices 1 2 3 4 5 6 
#
# 1 0.012627 -0.002895 -0.000362 0.000069 0.009388 0.004690
# 2 -0.002895 0.015673 0.000130 -0.004286 0.001159 0.003707
# 3 -0.000362 0.000130 0.010213 -0.002427 0.004577 0.002327
# 4 0.000069 -0.004286 -0.002427 0.028795 -0.005027 -0.006765
# 5 0.009388 0.001159 0.004577 -0.005027 0.028625 0.007485
# 6 0.004690 0.003707 0.002327 -0.006765 0.007485 0.029575
#
#
# Mechanical properties :
#
#
# Convention : Reuss Voigt Hill
#
# Bulk Modulus (GPa) = 31.00034 48.27154 39.63594
# Shear Modulus (GPa) = 35.08377 43.36591 39.22484
#
# Velocity S-wave (km/s) = 3.72371 4.13997 3.93735
# Velocity P-wave (km/s) = 5.54439 6.47539 6.02789
#
# Compressibility (1/GPa) = 0.03225771
#
# Stress axis : x y z
#
# Youngs Moduli (GPa) = 79.19461 63.80261 97.91561
#
# Poissons Ratio (x) = 0.18472 0.03546
# Poissons Ratio (y) = 0.22929 -0.01269
# Poissons Ratio (z) = 0.02868 -0.00827
#
# Static dielectric constant tensor:
#      x y z
#    x 2.130610 -0.029700 -0.149680 
#    y -0.029700 1.956750 -0.077920 
#    z -0.149680 -0.077920 2.050380 
# 
# From -- ./inp_files/596264.got.cif
#   From: 2010.05.17/outbox.cif.g08.bks.cpg/sg2_299_cif.got.tgz:596264.got - 2010.06.03 11:33:40.
