data_PCOD9040412
_publ_section_title
;
Structure prediction by ZEFSAII (Michael W. Deem and Ramdas Pophale) SiO2 
 PCOD9040412
Probable space group: P -1
;
_chemical_formula_sum "Si O2"
_cell_formula_units_Z 14
_cell_length_a 11.722682
_cell_length_b 9.085344
_cell_length_c 12.061743
_cell_angle_alpha 122.019335
_cell_angle_beta 143.144765
_cell_angle_gamma 49.716868
_cell_volume 587.562576
_symmetry_space_group_name_H-M "P -1"
_symmetry_group_IT_number 2
_symmetry_cell_setting 'triclinic'
loop_
_space_group_symop_operation_xyz
x,y,z
-x,-y,-z
loop_
_atom_site_type_symbol
_atom_site_label
_atom_site_fract_x
_atom_site_fract_y
_atom_site_fract_z
Si Si1 0.590491 0.132878 0.688710
Si Si2 0.353445 0.526268 0.790124
Si Si3 0.834697 0.629392 0.259824
Si Si4 0.760073 0.164243 0.606212
Si Si5 0.085484 0.845849 0.602878
Si Si6 0.062876 0.351291 0.890223
Si Si7 0.442397 0.037190 0.187144
O O1 0.435009 0.342267 0.699888
O O2 0.719621 0.178007 0.711080
O O3 0.500000 0.000000 0.500000
O O4 0.672533 0.014365 0.819734
O O5 0.159396 0.528229 0.712183
O O6 0.321315 0.720309 0.777673
O O7 0.500000 0.500000 0.000000
O O8 0.864755 0.574336 0.132837
O O9 0.029356 0.676737 0.454114
O O10 0.629857 0.836236 0.207308
O O11 0.563124 0.160231 0.381721
O O12 0.859497 0.305472 0.698023
O O13 0.947752 0.954935 0.643763
O O14 0.000000 0.000000 0.500000
O O15 0.266674 0.157399 0.009172
O O16 0.000000 0.500000 0.000000
#
# Coordination Sequence:
#
# PCOD9040412 Si02
#       7
#     2   2   2   2   2   2   2
#     4   9  21  45  67  97 137 182 227 283 356 413
#     4  11  26  42  73 105 134 180 236 288 346 414
#     4  10  23  45  65  94 134 176 226 280 342 417
#     4  10  23  43  66  96 133 182 226 281 354 406
#     4  11  23  45  71  99 133 182 232 281 345 418
#     4  12  26  39  62 102 137 177 232 284 346 412
#     4   9  22  43  68  91 133 182 226 285 345 409
#
# _framework density 23.827251
#
# number of rings (size 3 to 8) (size 9 to 14) (size 15 to 20)
#    0.000    1.714    1.429    1.714    6.000    6.857 
#    0.000    0.000    0.000    0.000    0.000    0.000 
#    0.000    0.000    0.000    0.000    0.000    0.000 
#
# Total GULP energy -78042.542365 kJ/mol
# GULP energy per Si atom -5574.467312 kJ/mol
# Density = 2.377302 g / cm^3
# Si number density = 23.827251 Si / 1000 Ang^3
#
#
#
# Elastic Constant Matrix: (Units=GPa)
#
#
# Indices 1 2 3 4 5 6 
#
# 1 157.9319 37.6483 34.8333 -1.1750 -39.9194 -2.3485
# 2 37.6483 97.0804 25.3833 -6.0965 -22.3859 5.1877
# 3 34.8333 25.3833 59.9702 3.3686 -4.7276 11.2684
# 4 -1.1750 -6.0965 3.3686 35.9374 5.3283 -12.2663
# 5 -39.9194 -22.3859 -4.7276 5.3283 43.6213 10.5730
# 6 -2.3485 5.1877 11.2684 -12.2663 10.5730 35.0026
#
#
#
# Elastic Compliance Matrix: (Units=1/GPa)
#
#
# Indices 1 2 3 4 5 6 
#
# 1 0.009508 -0.000675 -0.004452 -0.000773 0.008099 -0.000546
# 2 -0.000675 0.013304 -0.004426 0.001037 0.006106 -0.002073
# 3 -0.004452 -0.004426 0.023053 -0.005932 -0.000979 -0.008848
# 4 -0.000773 0.001037 -0.005932 0.035729 -0.009313 0.017038
# 5 0.008099 0.006106 -0.000979 -0.009313 0.038092 -0.014816
# 6 -0.000546 -0.002073 -0.008848 0.017038 -0.014816 0.042135
#
#
# Mechanical properties :
#
#
# Convention : Reuss Voigt Hill
#
# Bulk Modulus (GPa) = 37.37283 56.74581 47.05932
# Shear Modulus (GPa) = 26.33691 37.38676 31.86184
#
# Velocity S-wave (km/s) = 3.32825 3.96545 3.66074
# Velocity P-wave (km/s) = 5.52165 6.69579 6.13687
#
# Compressibility (1/GPa) = 0.02675740
#
# Stress axis : x y z
#
# Youngs Moduli (GPa) = 105.17419 75.16750 43.37790
#
# Poissons Ratio (x) = 0.05073 0.19314
# Poissons Ratio (y) = 0.07098 0.19201
# Poissons Ratio (z) = 0.46829 0.33272
#
# Static dielectric constant tensor:
#      x y z
#    x 1.958990 0.075550 0.099410 
#    y 0.075550 2.041050 -0.176230 
#    z 0.099410 -0.176230 1.945920 
# 
# From -- ./inp_files/379808.got.cif
#   From: 2010.05.17/outbox.cif.g08.bks.cpg/sg2_190_cif.got.tgz:379808.got - 2010.06.03 11:33:40.
