data_PCOD9040609
_publ_section_title
;
Structure prediction by ZEFSAII (Michael W. Deem and Ramdas Pophale) SiO2 
 PCOD9040609
Probable space group: P -1
;
_chemical_formula_sum "Si O2"
_cell_formula_units_Z 14
_cell_length_a 9.177478
_cell_length_b 5.037970
_cell_length_c 18.740813
_cell_angle_alpha 84.719486
_cell_angle_beta 50.725980
_cell_angle_gamma 57.192967
_cell_volume 520.168838
_symmetry_space_group_name_H-M "P -1"
_symmetry_group_IT_number 2
_symmetry_cell_setting 'triclinic'
loop_
_space_group_symop_operation_xyz
x,y,z
-x,-y,-z
loop_
_atom_site_type_symbol
_atom_site_label
_atom_site_fract_x
_atom_site_fract_y
_atom_site_fract_z
Si Si1 0.648560 0.553741 0.004572
Si Si2 0.958547 0.526203 0.641560
Si Si3 0.789273 0.471981 0.159093
Si Si4 0.740376 0.230522 0.477925
Si Si5 0.449283 0.359724 0.330553
Si Si6 0.706853 0.992131 0.066690
Si Si7 0.054713 0.355146 0.775403
O O1 0.895822 0.362524 0.887468
O O2 0.500000 0.500000 0.000000
O O3 0.585933 0.898041 0.048110
O O4 0.635289 0.361771 0.079829
O O5 0.048799 0.749658 0.610284
O O6 0.925186 0.473349 0.736458
O O7 0.737639 0.658138 0.654333
O O8 0.171691 0.147092 0.554124
O O9 0.573677 0.463385 0.238064
O O10 0.697983 0.835461 0.146012
O O11 0.900351 0.400034 0.206804
O O12 0.019148 0.225194 0.042744
O O13 0.500000 0.500000 0.500000
O O14 0.685800 0.355082 0.573105
O O15 0.675699 0.002613 0.304884
#
# Coordination Sequence:
#
# PCOD9040609 Si02
#       7
#     2   2   2   2   2   2   2
#     4  11  24  43  68 104 146 188 238 299 351 427
#     4  12  29  47  74 111 141 190 241 295 361 435
#     4  10  24  42  72 100 142 188 240 296 354 424
#     4  12  26  51  77 104 149 188 233 300 367 425
#     4  12  26  46  76 103 147 188 242 298 357 432
#     4  10  23  43  67  99 140 190 240 286 364 413
#     4  11  26  45  72 106 145 188 244 294 363 420
#
# _framework density 26.914339999999999
#
# number of rings (size 3 to 8) (size 9 to 14) (size 15 to 20)
#    0.000    0.857    2.857    2.571    8.000    1.714 
#    0.000    0.000    0.000    0.000    0.000    0.000 
#    0.000    0.000    0.000    0.000    0.000    0.000 
#
# Total GULP energy -78384.663002 kJ/mol
# GULP energy per Si atom -5598.904500 kJ/mol
# Density = 2.685308 g / cm^3
# Si number density = 26.914340 Si / 1000 Ang^3
#
#
#
# Elastic Constant Matrix: (Units=GPa)
#
#
# Indices 1 2 3 4 5 6 
#
# 1 174.3235 -5.5165 30.4599 -12.9990 2.5753 -6.8045
# 2 -5.5165 51.4675 13.6362 -3.4564 -1.9839 16.4179
# 3 30.4599 13.6362 94.8558 -10.3959 15.3754 0.9655
# 4 -12.9990 -3.4564 -10.3959 45.5270 4.3596 -1.2030
# 5 2.5753 -1.9839 15.3754 4.3596 57.3025 -3.8406
# 6 -6.8045 16.4179 0.9655 -1.2030 -3.8406 40.4458
#
#
#
# Elastic Compliance Matrix: (Units=1/GPa)
#
#
# Indices 1 2 3 4 5 6 
#
# 1 0.006260 0.001089 -0.002062 0.001394 0.000252 0.000726
# 2 0.001089 0.023556 -0.003719 0.000904 0.001082 -0.009160
# 3 -0.002062 -0.003719 0.012566 0.002354 -0.003547 0.000596
# 4 0.001394 0.000904 0.002354 0.023207 -0.002410 0.000273
# 5 0.000252 0.001082 -0.003547 -0.002410 0.018706 0.001393
# 6 0.000726 -0.009160 0.000596 0.000273 0.001393 0.028691
#
#
# Mechanical properties :
#
#
# Convention : Reuss Voigt Hill
#
# Bulk Modulus (GPa) = 30.30491 44.20065 37.25278
# Shear Modulus (GPa) = 37.48972 47.45954 42.47463
#
# Velocity S-wave (km/s) = 3.73624 4.20379 3.97689
# Velocity P-wave (km/s) = 5.46780 6.32620 5.91260
#
# Compressibility (1/GPa) = 0.03299796
#
# Stress axis : x y z
#
# Youngs Moduli (GPa) = 159.74905 42.45125 79.57986
#
# Poissons Ratio (x) = -0.04624 0.16411
# Poissons Ratio (y) = -0.17400 0.29597
# Poissons Ratio (z) = 0.32944 0.15788
#
# Static dielectric constant tensor:
#      x y z
#    x 2.623480 0.153800 0.114300 
#    y 0.153800 2.428330 -0.011170 
#    z 0.114300 -0.011170 2.103360 
# 
# From -- ./inp_files/53697.got.cif
#   From: 2010.05.17/outbox.cif.g08.bks.cpg/sg2_27_cif.got.tgz:53697.got - 2010.06.03 11:33:40.
