data_PCOD9040076
_publ_section_title
;
Structure prediction by ZEFSAII (Michael W. Deem and Ramdas Pophale) SiO2 
 PCOD9040076
Probable space group: P -1
;
_chemical_formula_sum "Si O2"
_cell_formula_units_Z 14
_cell_length_a 16.716241
_cell_length_b 11.271936
_cell_length_c 9.025339
_cell_angle_alpha 67.769001
_cell_angle_beta 69.865941
_cell_angle_gamma 21.959798
_cell_volume 588.565346
_symmetry_space_group_name_H-M "P -1"
_symmetry_group_IT_number 2
_symmetry_cell_setting 'triclinic'
loop_
_space_group_symop_operation_xyz
x,y,z
-x,-y,-z
loop_
_atom_site_type_symbol
_atom_site_label
_atom_site_fract_x
_atom_site_fract_y
_atom_site_fract_z
Si Si1 0.347996 0.792573 0.563339
Si Si2 0.431809 0.637786 0.139713
Si Si3 0.116001 0.609354 0.407335
Si Si4 0.976422 0.964034 0.764584
Si Si5 0.380813 0.000301 0.069017
Si Si6 0.192290 0.483944 0.085527
Si Si7 0.384678 0.338087 0.604937
O O1 0.500000 0.500000 0.500000
O O2 0.355339 0.691848 0.749380
O O3 0.465302 0.765399 0.523665
O O4 0.105031 0.139709 0.503663
O O5 0.359260 0.883430 0.092299
O O6 0.236549 0.821618 0.236048
O O7 0.500000 0.500000 0.000000
O O8 0.141010 0.517317 0.270588
O O9 0.304154 0.344505 0.534585
O O10 0.088597 0.798577 0.299610
O O11 0.160729 0.698003 0.648284
O O12 0.062246 0.777768 0.948957
O O13 0.482680 0.867308 0.232123
O O14 0.185968 0.368586 0.034820
O O15 0.563034 0.804228 0.938267
#
# Coordination Sequence:
#
# PCOD9040076 Si02
#       7
#     2   2   2   2   2   2   2
#     4  12  21  39  63  95 129 158 201 268 317 361
#     4  12  23  37  65  98 124 159 212 262 310 372
#     4  12  22  38  68  95 124 160 215 262 308 368
#     4  11  21  38  64  92 126 161 210 258 317 365
#     4  10  23  43  63  85 132 169 205 254 318 373
#     4  10  23  43  61  88 125 174 207 257 309 371
#     4  11  23  39  64  96 123 165 206 258 318 368
#
# _framework density 23.786653999999999
#
# number of rings (size 3 to 8) (size 9 to 14) (size 15 to 20)
#    0.000    0.857    4.286    4.286    0.000    1.143 
#    0.000    0.714    0.000    0.000    0.000    0.000 
#    0.000    0.000    0.000    0.000    0.000    0.000 
#
# Total GULP energy -78182.630316 kJ/mol
# GULP energy per Si atom -5584.473594 kJ/mol
# Density = 2.373251 g / cm^3
# Si number density = 23.786654 Si / 1000 Ang^3
#
#
#
# Elastic Constant Matrix: (Units=GPa)
#
#
# Indices 1 2 3 4 5 6 
#
# 1 113.1303 41.8960 3.6853 12.7265 -13.4184 -19.0098
# 2 41.8960 64.0179 7.9955 16.2146 2.4996 -1.6872
# 3 3.6853 7.9955 72.6603 6.5547 20.6702 0.1480
# 4 12.7265 16.2146 6.5547 27.1302 -3.3050 -4.7037
# 5 -13.4184 2.4996 20.6702 -3.3050 37.3513 -0.0533
# 6 -19.0098 -1.6872 0.1480 -4.7037 -0.0533 23.4825
#
#
#
# Elastic Compliance Matrix: (Units=1/GPa)
#
#
# Indices 1 2 3 4 5 6 
#
# 1 0.015486 -0.010505 -0.002066 0.002583 0.007656 0.012330
# 2 -0.010505 0.025752 0.000958 -0.013188 -0.007208 -0.009318
# 3 -0.002066 0.000958 0.017385 -0.005632 -0.010930 -0.002866
# 4 0.002583 -0.013188 -0.005632 0.047879 0.009180 0.010791
# 5 0.007656 -0.007208 -0.010930 0.009180 0.036877 0.007671
# 6 0.012330 -0.009318 -0.002866 0.010791 0.007671 0.054094
#
#
# Mechanical properties :
#
#
# Convention : Reuss Voigt Hill
#
# Bulk Modulus (GPa) = 28.24963 39.66247 33.95605
# Shear Modulus (GPa) = 21.50551 30.67491 26.09021
#
# Velocity S-wave (km/s) = 3.01009 3.59497 3.31545
# Velocity P-wave (km/s) = 4.89723 5.82600 5.38169
#
# Compressibility (1/GPa) = 0.03539869
#
# Stress axis : x y z
#
# Youngs Moduli (GPa) = 64.57305 38.83160 57.52039
#
# Poissons Ratio (x) = 0.40793 0.11881
# Poissons Ratio (y) = 0.67835 -0.05512
# Poissons Ratio (z) = 0.13338 -0.03721
#
# Static dielectric constant tensor:
#      x y z
#    x 1.907000 0.008420 -0.016500 
#    y 0.008420 1.973310 -0.083940 
#    z -0.016500 -0.083940 1.900840 
# 
# From -- ./inp_files/325002.got.cif
#   From: 2010.05.17/outbox.cif.g08.bks.cpg/sg2_163_cif.got.tgz:325002.got - 2010.06.03 11:33:40.
