data_PCOD9040924
_publ_section_title
;
Structure prediction by ZEFSAII (Michael W. Deem and Ramdas Pophale) SiO2 
 PCOD9040924
Probable space group: P -1
;
_chemical_formula_sum "Si O2"
_cell_formula_units_Z 12
_cell_length_a 13.192633
_cell_length_b 18.539938
_cell_length_c 21.694923
_cell_angle_alpha 161.119499
_cell_angle_beta 160.196328
_cell_angle_gamma 27.686580
_cell_volume 581.214019
_symmetry_space_group_name_H-M "P -1"
_symmetry_group_IT_number 2
_symmetry_cell_setting 'triclinic'
loop_
_space_group_symop_operation_xyz
x,y,z
-x,-y,-z
loop_
_atom_site_type_symbol
_atom_site_label
_atom_site_fract_x
_atom_site_fract_y
_atom_site_fract_z
Si Si1 0.696913 0.135901 0.940991
Si Si2 0.188970 0.467432 0.758779
Si Si3 0.848474 0.566446 0.761460
Si Si4 0.145630 0.004138 0.809569
Si Si5 0.212465 0.799458 0.343897
Si Si6 0.805899 0.652340 0.104764
O O1 0.475044 0.192309 0.917223
O O2 0.478702 0.982537 0.649373
O O3 0.778261 0.381573 0.160205
O O4 0.000000 0.000000 0.000000
O O5 0.963142 0.565541 0.757311
O O6 0.500000 0.500000 0.000000
O O7 0.050023 0.219590 0.467760
O O8 0.500000 0.500000 0.500000
O O9 0.032666 0.410779 0.788678
O O10 0.903494 0.810282 0.017693
O O11 0.033547 0.094433 0.753575
O O12 0.500000 0.000000 0.000000
O O13 0.064157 0.752026 0.287439
O O14 0.297789 0.573430 0.174493
#
# Coordination Sequence:
#
# PCOD9040924 Si02
#       6
#     2   2   2   2   2   2
#     4  12  27  42  67  98 140 183 222 278 350 399
#     4  12  24  44  66  99 142 172 224 286 334 399
#     4  11  23  40  72 104 131 178 229 276 337 405
#     4  11  23  41  71 101 130 176 228 276 336 401
#     4  10  23  43  69  98 134 178 227 283 333 406
#     4  10  23  44  68  96 139 175 228 281 336 404
#
# _framework density 20.646439000000001
#
# number of rings (size 3 to 8) (size 9 to 14) (size 15 to 20)
#    0.000    1.000    5.000    0.500    2.333    5.333 
#    0.000    0.000    0.000    0.000    0.000    0.000 
#    0.000    0.000    0.000    0.000    0.000    0.000 
#
# Total GULP energy -66911.803530 kJ/mol
# GULP energy per Si atom -5575.983627 kJ/mol
# Density = 2.059945 g / cm^3
# Si number density = 20.646439 Si / 1000 Ang^3
#
#
#
# Elastic Constant Matrix: (Units=GPa)
#
#
# Indices 1 2 3 4 5 6 
#
# 1 59.0507 5.1171 13.1895 1.4156 -5.7340 -14.0293
# 2 5.1171 90.7712 42.2310 -7.1658 -8.3456 -23.3995
# 3 13.1895 42.2310 144.6071 10.2862 -6.5418 -9.1732
# 4 1.4156 -7.1658 10.2862 38.2779 -0.2132 13.7925
# 5 -5.7340 -8.3456 -6.5418 -0.2132 24.6413 -1.1688
# 6 -14.0293 -23.3995 -9.1732 13.7925 -1.1688 23.2488
#
#
#
# Elastic Compliance Matrix: (Units=1/GPa)
#
#
# Indices 1 2 3 4 5 6 
#
# 1 0.023669 0.005816 -0.001298 -0.008410 0.008247 0.025029
# 2 0.005816 0.019124 -0.003929 -0.004223 0.007895 0.024110
# 3 -0.001298 -0.003929 0.008463 -0.003136 0.000610 0.000493
# 4 -0.008410 -0.004223 -0.003136 0.038618 -0.005486 -0.033748
# 5 0.008247 0.007895 0.000610 -0.005486 0.046179 0.018740
# 6 0.025029 0.024110 0.000493 -0.033748 0.018740 0.103540
#
#
# Mechanical properties :
#
#
# Convention : Reuss Voigt Hill
#
# Bulk Modulus (GPa) = 19.07129 46.16713 32.61921
# Shear Modulus (GPa) = 19.53942 32.82637 26.18290
#
# Velocity S-wave (km/s) = 3.07967 3.99172 3.56498
# Velocity P-wave (km/s) = 4.68006 6.60715 5.72527
#
# Compressibility (1/GPa) = 0.05243484
#
# Stress axis : x y z
#
# Youngs Moduli (GPa) = 42.24863 52.28963 118.16235
#
# Poissons Ratio (x) = -0.30412 0.15342
# Poissons Ratio (y) = -0.24572 0.46421
# Poissons Ratio (z) = 0.05485 0.20543
#
# Static dielectric constant tensor:
#      x y z
#    x 1.156500 0.126300 -0.000930 
#    y 0.126300 1.727130 0.045700 
#    z -0.000930 0.045700 1.660290 
# 
# From -- ./inp_files/152534.got.cif
#   From: 2010.05.17/outbox.cif.g08.bks.cpg/sg2_77_cif.got.tgz:152534.got - 2010.06.03 11:33:40.
