data_PCOD9040283
_publ_section_title
;
Structure prediction by ZEFSAII (Michael W. Deem and Ramdas Pophale) SiO2 
 PCOD9040283
Probable space group: P -1
;
_chemical_formula_sum "Si O2"
_cell_formula_units_Z 12
_cell_length_a 17.844496
_cell_length_b 5.170032
_cell_length_c 14.391958
_cell_angle_alpha 54.328700
_cell_angle_beta 27.514713
_cell_angle_gamma 62.955707
_cell_volume 491.345633
_symmetry_space_group_name_H-M "P -1"
_symmetry_group_IT_number 2
_symmetry_cell_setting 'triclinic'
loop_
_space_group_symop_operation_xyz
x,y,z
-x,-y,-z
loop_
_atom_site_type_symbol
_atom_site_label
_atom_site_fract_x
_atom_site_fract_y
_atom_site_fract_z
Si Si1 0.029645 0.132830 0.320532
Si Si2 0.745961 0.935329 0.062045
Si Si3 0.117374 0.290452 0.860193
Si Si4 0.202217 0.405560 0.233616
Si Si5 0.723774 0.429840 0.560860
Si Si6 0.520541 0.868375 0.805309
O O1 0.888053 0.346100 0.443165
O O2 0.167880 0.129515 0.249126
O O3 0.922704 0.770748 0.515901
O O4 0.133297 0.249025 0.091375
O O5 0.819908 0.301720 0.873512
O O6 0.567037 0.912684 0.217209
O O7 0.766162 0.847073 0.163809
O O8 0.225811 0.475250 0.620336
O O9 0.000000 0.500000 0.000000
O O10 0.000000 0.000000 0.000000
O O11 0.374803 0.569008 0.052615
O O12 0.652587 0.705014 0.637054
O O13 0.592665 0.100141 0.761095
#
# Coordination Sequence:
#
# PCOD9040283 Si02
#       6
#     2   2   2   2   2   2
#     4  11  21  41  73  92 135 172 236 267 318 396
#     4  10  23  43  65  94 134 173 221 268 325 395
#     4  12  25  42  71 100 128 168 226 278 321 385
#     4   9  23  42  66  98 129 183 220 268 333 384
#     4  12  25  43  67 104 130 175 218 276 333 385
#     4  10  26  43  64  99 142 169 216 268 343 392
#
# _framework density 24.422725
#
# number of rings (size 3 to 8) (size 9 to 14) (size 15 to 20)
#    1.000    0.333    1.667    3.500    2.333    2.667 
#    0.000    0.000    0.000    0.000    0.000    0.000 
#    0.000    0.000    0.000    0.000    0.000    0.000 
#
# Total GULP energy -66904.582834 kJ/mol
# GULP energy per Si atom -5575.381903 kJ/mol
# Density = 2.436714 g / cm^3
# Si number density = 24.422725 Si / 1000 Ang^3
#
#
#
# Elastic Constant Matrix: (Units=GPa)
#
#
# Indices 1 2 3 4 5 6 
#
# 1 107.0202 17.7552 17.8940 -5.7156 -17.8090 1.8058
# 2 17.7552 85.3265 14.1344 19.6426 -10.6367 -5.2255
# 3 17.8940 14.1344 69.2193 -11.3464 -8.4079 7.8572
# 4 -5.7156 19.6426 -11.3464 28.8373 -1.4647 0.1208
# 5 -17.8090 -10.6367 -8.4079 -1.4647 57.2477 -6.8152
# 6 1.8058 -5.2255 7.8572 0.1208 -6.8152 36.1233
#
#
#
# Elastic Compliance Matrix: (Units=1/GPa)
#
#
# Indices 1 2 3 4 5 6 
#
# 1 0.010607 -0.002420 -0.001357 0.003355 0.002727 -0.000082
# 2 -0.002420 0.016780 -0.005342 -0.013942 0.001709 0.004079
# 3 -0.001357 -0.005342 0.018265 0.010626 0.001001 -0.004524
# 4 0.003355 -0.013942 0.010626 0.049076 0.000731 -0.004522
# 5 0.002727 0.001709 0.001001 0.000731 0.019218 0.003517
# 6 -0.000082 0.004079 -0.004524 -0.004522 0.003517 0.029940
#
#
# Mechanical properties :
#
#
# Convention : Reuss Voigt Hill
#
# Bulk Modulus (GPa) = 36.47633 40.12589 38.30111
# Shear Modulus (GPa) = 29.19497 38.56050 33.87773
#
# Velocity S-wave (km/s) = 3.46121 3.97782 3.72847
# Velocity P-wave (km/s) = 5.56247 6.12885 5.85252
#
# Compressibility (1/GPa) = 0.02741504
#
# Stress axis : x y z
#
# Youngs Moduli (GPa) = 94.27939 59.59328 54.74806
#
# Poissons Ratio (x) = 0.14420 0.07431
# Poissons Ratio (y) = 0.22813 0.29245
# Poissons Ratio (z) = 0.12797 0.31833
#
# Static dielectric constant tensor:
#      x y z
#    x 2.090930 0.012720 0.097680 
#    y 0.012720 2.160980 -0.141220 
#    z 0.097680 -0.141220 2.283040 
# 
# From -- ./inp_files/24055.got.cif
#   From: 2010.05.17/outbox.cif.g08.bks.cpg/sg2_13_cif.got.tgz:24055.got - 2010.06.03 11:33:40.
