data_PCOD9040062
_publ_section_title
;
Structure prediction by ZEFSAII (Michael W. Deem and Ramdas Pophale) SiO2 
 PCOD9040062
Probable space group: P -1
;
_chemical_formula_sum "Si O2"
_cell_formula_units_Z 14
_cell_length_a 8.196353
_cell_length_b 8.044132
_cell_length_c 13.652381
_cell_angle_alpha 47.114341
_cell_angle_beta 60.248246
_cell_angle_gamma 74.257245
_cell_volume 569.476055
_symmetry_space_group_name_H-M "P -1"
_symmetry_group_IT_number 2
_symmetry_cell_setting 'triclinic'
loop_
_space_group_symop_operation_xyz
x,y,z
-x,-y,-z
loop_
_atom_site_type_symbol
_atom_site_label
_atom_site_fract_x
_atom_site_fract_y
_atom_site_fract_z
Si Si1 0.430808 0.180990 0.027670
Si Si2 0.869994 0.192616 0.735568
Si Si3 0.937639 0.707373 0.166378
Si Si4 0.267953 0.903485 0.876346
Si Si5 0.011423 0.237191 0.343655
Si Si6 0.368349 0.418056 0.282827
Si Si7 0.764556 0.948529 0.389003
O O1 0.236304 0.045729 0.173683
O O2 0.568608 0.197517 0.072682
O O3 0.446659 0.430161 0.873794
O O4 0.500000 0.000000 0.000000
O O5 0.736710 0.394607 0.698511
O O6 0.926469 0.165365 0.842635
O O7 0.070572 0.220655 0.611593
O O8 0.762329 0.852376 0.161233
O O9 0.902233 0.453856 0.319927
O O10 0.073018 0.736869 0.019387
O O11 0.307991 0.969702 0.725824
O O12 0.226617 0.340760 0.265156
O O13 0.000000 0.000000 0.500000
O O14 0.887496 0.162277 0.315582
O O15 0.379177 0.199318 0.436471
#
# Coordination Sequence:
#
# PCOD9040062 Si02
#       7
#     2   2   2   2   2   2   2
#     4  10  17  33  56  73 103 140 175 206 261 314
#     4   9  17  32  54  76 100 134 178 212 246 311
#     4   9  17  32  52  78 103 135 174 210 260 305
#     4  10  18  31  54  78 107 129 173 223 256 296
#     4   9  17  32  52  76 106 138 171 209 258 310
#     4   9  17  33  52  73 101 137 172 211 249 307
#     4  10  20  30  52  82 104 129 173 222 256 289
#
# _framework density 24.583998999999999
#
# number of rings (size 3 to 8) (size 9 to 14) (size 15 to 20)
#    0.000    2.571    4.286    0.429    0.000    1.714 
#    0.000    3.571    0.000    3.429    0.000   18.000 
#    0.000    0.000    0.000    0.000    0.000    0.000 
#
# Total GULP energy -77971.599114 kJ/mol
# GULP energy per Si atom -5569.399937 kJ/mol
# Density = 2.452804 g / cm^3
# Si number density = 24.583999 Si / 1000 Ang^3
#
#
#
# Elastic Constant Matrix: (Units=GPa)
#
#
# Indices 1 2 3 4 5 6 
#
# 1 31.3339 19.1181 48.1514 2.5785 -0.6815 11.4979
# 2 19.1181 61.8618 32.2948 -9.4971 2.5171 13.7120
# 3 48.1514 32.2948 155.3583 -10.4277 -3.8004 12.0282
# 4 2.5785 -9.4971 -10.4277 32.4824 1.8574 3.1724
# 5 -0.6815 2.5171 -3.8004 1.8574 29.4669 0.1552
# 6 11.4979 13.7120 12.0282 3.1724 0.1552 34.7989
#
#
#
# Elastic Compliance Matrix: (Units=1/GPa)
#
#
# Indices 1 2 3 4 5 6 
#
# 1 0.079451 -0.012864 -0.022062 -0.016035 0.001165 -0.012100
# 2 -0.012864 0.022654 0.000201 0.008401 -0.002707 -0.005500
# 3 -0.022062 0.000201 0.013494 0.005899 0.000831 0.002005
# 4 -0.016035 0.008401 0.005899 0.036892 -0.002635 -0.003402
# 5 0.001165 -0.002707 0.000831 -0.002635 0.034465 0.000481
# 6 -0.012100 -0.005500 0.002005 -0.003402 0.000481 0.034517
#
#
# Mechanical properties :
#
#
# Convention : Reuss Voigt Hill
#
# Bulk Modulus (GPa) = 21.66825 49.74253 35.70539
# Shear Modulus (GPa) = 16.32359 29.28229 22.80294
#
# Velocity S-wave (km/s) = 2.57960 3.45499 3.04888
# Velocity P-wave (km/s) = 4.20780 6.01611 5.19130
#
# Compressibility (1/GPa) = 0.04615047
#
# Stress axis : x y z
#
# Youngs Moduli (GPa) = 12.58638 44.14140 74.10841
#
# Poissons Ratio (x) = 0.56782 1.63496
# Poissons Ratio (y) = 0.16191 -0.01491
# Poissons Ratio (z) = 0.27768 -0.00888
#
# Static dielectric constant tensor:
#      x y z
#    x 2.014530 -0.074030 -0.066270 
#    y -0.074030 2.050800 0.056160 
#    z -0.066270 0.056160 2.006570 
# 
# From -- ./inp_files/494251.got.cif
#   From: 2010.05.17/outbox.cif.g08.bks.cpg/sg2_248_cif.got.tgz:494251.got - 2010.06.03 11:33:40.
