data_PCOD9040227
_publ_section_title
;
Structure prediction by ZEFSAII (Michael W. Deem and Ramdas Pophale) SiO2 
 PCOD9040227
Probable space group: P -1
;
_chemical_formula_sum "Si O2"
_cell_formula_units_Z 16
_cell_length_a 12.029654
_cell_length_b 14.461228
_cell_length_c 11.526303
_cell_angle_alpha 119.445794
_cell_angle_beta 125.816992
_cell_angle_gamma 104.227038
_cell_volume 927.734131
_symmetry_space_group_name_H-M "P -1"
_symmetry_group_IT_number 2
_symmetry_cell_setting 'triclinic'
loop_
_space_group_symop_operation_xyz
x,y,z
-x,-y,-z
loop_
_atom_site_type_symbol
_atom_site_label
_atom_site_fract_x
_atom_site_fract_y
_atom_site_fract_z
Si Si1 0.168599 0.309009 0.609315
Si Si2 0.123650 0.998841 0.907755
Si Si3 0.460340 0.544785 0.748087
Si Si4 0.113612 0.232642 0.975244
Si Si5 0.053657 0.907677 0.456570
Si Si6 0.020661 0.255996 0.170013
Si Si7 0.443562 0.147298 0.004843
Si Si8 0.885107 0.320195 0.322104
O O1 0.391095 0.461420 0.780678
O O2 0.069410 0.149199 0.383986
O O3 0.124638 0.261651 0.686974
O O4 0.020558 0.319841 0.484109
O O5 0.079837 0.912676 0.947154
O O6 0.141409 0.135296 0.997352
O O7 0.326318 0.070414 0.009325
O O8 0.256382 0.405030 0.457117
O O9 0.661728 0.612606 0.850792
O O10 0.502353 0.695586 0.878169
O O11 0.958392 0.126804 0.706914
O O12 0.035715 0.265966 0.047449
O O13 0.273102 0.017464 0.722941
O O14 0.000000 0.000000 0.500000
O O15 0.893610 0.273170 0.170220
O O16 0.652625 0.202396 0.153643
O O17 0.000000 0.500000 0.500000
#
# Coordination Sequence:
#
# PCOD9040227 Si02
#       8
#     2   2   2   2   2   2   2   2
#     4   9  18  31  52  83  98 131 178 207 260 289
#     4   8  17  30  50  74 104 129 166 214 252 296
#     4   9  17  31  52  78  99 129 171 219 253 291
#     4  11  19  33  49  73 114 140 158 206 260 315
#     4  11  20  34  51  75 111 138 164 206 254 318
#     4  10  20  31  51  80 101 134 173 210 263 294
#     4  10  17  33  56  78  97 134 173 214 257 286
#     4  10  18  34  57  77 100 127 176 228 246 285
#
# _framework density 17.246320000000001
#
# number of rings (size 3 to 8) (size 9 to 14) (size 15 to 20)
#    0.000    2.500    6.250    0.750    0.000    5.000 
#    0.000    0.625    0.000    0.750    0.000    0.000 
#    0.000    0.000    0.000    0.000    0.000    0.000 
#
# Total GULP energy -89108.780545 kJ/mol
# GULP energy per Si atom -5569.298784 kJ/mol
# Density = 1.720707 g / cm^3
# Si number density = 17.246320 Si / 1000 Ang^3
#
#
#
# Elastic Constant Matrix: (Units=GPa)
#
#
# Indices 1 2 3 4 5 6 
#
# 1 98.9831 40.3046 25.2435 -2.2955 3.7652 28.4246
# 2 40.3046 82.6338 26.3239 12.3467 -2.6559 24.9815
# 3 25.2435 26.3239 58.8930 6.9832 12.2825 17.2373
# 4 -2.2955 12.3467 6.9832 28.1556 7.6138 -2.2053
# 5 3.7652 -2.6559 12.2825 7.6138 28.2894 -1.1941
# 6 28.4246 24.9815 17.2373 -2.2053 -1.1941 29.1352
#
#
#
# Elastic Compliance Matrix: (Units=1/GPa)
#
#
# Indices 1 2 3 4 5 6 
#
# 1 0.015496 -0.004764 -0.001292 0.003799 -0.003398 -0.010120
# 2 -0.004764 0.021210 -0.004120 -0.011478 0.007010 -0.011682
# 3 -0.001292 -0.004120 0.025051 -0.002400 -0.010895 -0.010656
# 4 0.003799 -0.011478 -0.002400 0.045625 -0.012377 0.010501
# 5 -0.003398 0.007010 -0.010895 -0.012377 0.044717 0.004646
# 6 -0.010120 -0.011682 -0.010656 0.010501 0.004646 0.061502
#
#
# Mechanical properties :
#
#
# Convention : Reuss Voigt Hill
#
# Bulk Modulus (GPa) = 24.15222 47.13935 35.64579
# Shear Modulus (GPa) = 20.18131 27.02523 23.60327
#
# Velocity S-wave (km/s) = 3.42450 3.96285 3.70347
# Velocity P-wave (km/s) = 5.44711 6.95207 6.24508
#
# Compressibility (1/GPa) = 0.04140406
#
# Stress axis : x y z
#
# Youngs Moduli (GPa) = 64.53469 47.14853 39.91833
#
# Poissons Ratio (x) = 0.22460 0.05159
# Poissons Ratio (y) = 0.30742 0.16447
# Poissons Ratio (z) = 0.08340 0.19426
#
# Static dielectric constant tensor:
#      x y z
#    x 1.590090 0.011940 -0.001270 
#    y 0.011940 1.618860 0.020870 
#    z -0.001270 0.020870 1.606350 
# 
# From -- ./inp_files/249385.got.cif
#   From: 2010.05.17/outbox.cif.g08.bks.cpg/sg2_125_cif.got.tgz:249385.got - 2010.06.03 11:33:40.
