data_PCOD9040141
_publ_section_title
;
Structure prediction by ZEFSAII (Michael W. Deem and Ramdas Pophale) SiO2 
 PCOD9040141
Probable space group: P -1
;
_chemical_formula_sum "Si O2"
_cell_formula_units_Z 16
_cell_length_a 23.220640
_cell_length_b 6.927958
_cell_length_c 11.070085
_cell_angle_alpha 120.551031
_cell_angle_beta 30.936269
_cell_angle_gamma 129.231302
_cell_volume 706.539615
_symmetry_space_group_name_H-M "P -1"
_symmetry_group_IT_number 2
_symmetry_cell_setting 'triclinic'
loop_
_space_group_symop_operation_xyz
x,y,z
-x,-y,-z
loop_
_atom_site_type_symbol
_atom_site_label
_atom_site_fract_x
_atom_site_fract_y
_atom_site_fract_z
Si Si1 0.957937 0.091757 0.774819
Si Si2 0.749201 0.238512 0.117619
Si Si3 0.354559 0.387822 0.193335
Si Si4 0.302657 0.368841 0.546775
Si Si5 0.779402 0.524504 0.905655
Si Si6 0.909143 0.102296 0.137023
Si Si7 0.591923 0.708371 0.190939
Si Si8 0.820359 0.447495 0.547998
O O1 0.093389 0.253598 0.527178
O O2 0.901181 0.792540 0.784385
O O3 0.862238 0.165100 0.899044
O O4 0.956473 0.179626 0.942131
O O5 0.755370 0.435429 0.270773
O O6 0.625792 0.977929 0.270975
O O7 0.754173 0.370682 0.023951
O O8 0.289115 0.275647 0.402908
O O9 0.306775 0.592345 0.303684
O O10 0.500000 0.500000 0.000000
O O11 0.345437 0.237984 0.039031
O O12 0.446858 0.522599 0.375268
O O13 0.227590 0.134490 0.692901
O O14 0.797639 0.388385 0.711021
O O15 0.663288 0.583737 0.100418
O O16 0.892310 0.309501 0.311619
O O17 0.000000 0.000000 0.000000
#
# Coordination Sequence:
#
# PCOD9040141 Si02
#       8
#     2   2   2   2   2   2   2   2
#     4  11  23  44  64  92 130 163 215 268 313 379
#     4  11  22  41  65  92 128 167 214 262 320 378
#     4   9  20  42  64  92 127 164 214 261 317 378
#     4  11  21  40  63  93 127 172 209 263 321 371
#     4  10  23  43  63  97 126 163 215 266 312 388
#     4  12  25  42  65  97 130 167 218 263 310 388
#     4   9  22  41  64  92 129 162 212 268 316 381
#     4  11  23  41  67  94 128 175 207 262 329 370
#
# _framework density 22.645581
#
# number of rings (size 3 to 8) (size 9 to 14) (size 15 to 20)
#    0.000    1.500    1.250    3.375    1.750    1.000 
#    9.000    1.875    0.000    0.000    0.000    0.000 
#    0.000    0.000    0.000    0.000    0.000    0.000 
#
# Total GULP energy -89454.487725 kJ/mol
# GULP energy per Si atom -5590.905483 kJ/mol
# Density = 2.259404 g / cm^3
# Si number density = 22.645581 Si / 1000 Ang^3
#
#
#
# Elastic Constant Matrix: (Units=GPa)
#
#
# Indices 1 2 3 4 5 6 
#
# 1 89.8770 12.4458 18.0510 1.6062 -3.8930 -17.8405
# 2 12.4458 64.1949 9.2561 -3.4540 -12.3198 2.0391
# 3 18.0510 9.2561 73.8064 -2.4298 -4.9858 -3.4015
# 4 1.6062 -3.4540 -2.4298 35.3972 1.8788 -0.1413
# 5 -3.8930 -12.3198 -4.9858 1.8788 34.2861 -4.6833
# 6 -17.8405 2.0391 -3.4015 -0.1413 -4.6833 25.2763
#
#
#
# Elastic Compliance Matrix: (Units=1/GPa)
#
#
# Indices 1 2 3 4 5 6 
#
# 1 0.014083 -0.002391 -0.002593 -0.001106 0.001805 0.010113
# 2 -0.002391 0.017414 -0.001291 0.001423 0.005412 -0.002255
# 3 -0.002593 -0.001291 0.014490 0.000916 0.001364 0.000482
# 4 -0.001106 0.001423 0.000916 0.028561 -0.001159 -0.000827
# 5 0.001805 0.005412 0.001364 -0.001159 0.032540 0.007043
# 6 0.010113 -0.002255 0.000482 -0.000827 0.007043 0.048248
#
#
# Mechanical properties :
#
#
# Convention : Reuss Voigt Hill
#
# Bulk Modulus (GPa) = 29.90621 34.15378 32.03000
# Shear Modulus (GPa) = 27.92819 31.53361 29.73090
#
# Velocity S-wave (km/s) = 3.51561 3.73565 3.62730
# Velocity P-wave (km/s) = 5.45107 5.80701 5.63186
#
# Compressibility (1/GPa) = 0.03343787
#
# Stress axis : x y z
#
# Youngs Moduli (GPa) = 71.00538 57.42497 69.01534
#
# Poissons Ratio (x) = 0.13730 0.17896
# Poissons Ratio (y) = 0.16977 0.08907
# Poissons Ratio (z) = 0.18412 0.07412
#
# Static dielectric constant tensor:
#      x y z
#    x 1.848240 0.046860 -0.012790 
#    y 0.046860 1.837740 0.005840 
#    z -0.012790 0.005840 1.849620 
# 
# From -- ./inp_files/97624.got.cif
#   From: 2010.05.17/outbox.cif.g08.bks.cpg/sg2_49_cif.got.tgz:97624.got - 2010.06.03 11:33:40.
