data_PCOD9040622
_publ_section_title
;
Structure prediction by ZEFSAII (Michael W. Deem and Ramdas Pophale) SiO2 
 PCOD9040622
Probable space group: P -1
;
_chemical_formula_sum "Si O2"
_cell_formula_units_Z 11
_cell_length_a 18.085123
_cell_length_b 5.176570
_cell_length_c 9.102516
_cell_angle_alpha 104.254041
_cell_angle_beta 145.086857
_cell_angle_gamma 82.171762
_cell_volume 469.381595
_symmetry_space_group_name_H-M "P -1"
_symmetry_group_IT_number 2
_symmetry_cell_setting 'triclinic'
loop_
_space_group_symop_operation_xyz
x,y,z
-x,-y,-z
loop_
_atom_site_type_symbol
_atom_site_label
_atom_site_fract_x
_atom_site_fract_y
_atom_site_fract_z
Si Si1 0.617399 0.005635 0.383641
Si Si2 0.281402 0.663155 0.975102
Si Si3 0.881504 0.837196 0.867374
Si Si4 0.500000 0.000000 0.500000
Si Si5 0.876846 0.837620 0.196780
Si Si6 0.683501 0.459475 0.324878
O O1 0.760247 0.015055 0.693387
O O2 0.520248 0.045543 0.360650
O O3 0.599944 0.704872 0.250353
O O4 0.627990 0.208880 0.296257
O O5 0.180548 0.431669 0.850922
O O6 0.295207 0.598130 0.817660
O O7 0.231636 0.955999 0.952279
O O8 0.416723 0.704224 0.287506
O O9 0.822473 0.576870 0.642468
O O10 0.909666 0.776321 0.073260
O O11 0.000000 0.000000 0.000000
O O12 0.000000 0.000000 0.500000
#
# Coordination Sequence:
#
# PCOD9040622 Si02
#       6
#     2   2   2   1   2   2
#     4  10  24  44  66 101 132 184 227 283 348 400
#     4  12  26  46  72 105 141 188 234 288 355 409
#     4  10  23  43  68 100 137 181 230 287 346 412
#     4  12  26  48  74 100 148 186 236 290 338 434
#     4  12  26  46  71 108 141 184 236 290 355 417
#     4  10  23  44  66 101 134 177 234 281 352 403
#
# _framework density 23.435088
#
# number of rings (size 3 to 8) (size 9 to 14) (size 15 to 20)
#    1.091    0.000    1.818    3.818    2.545    5.091 
#    0.000    0.000    0.000    0.000    0.000    0.000 
#    0.000    0.000    0.000    0.000    0.000    0.000 
#
# Total GULP energy -61296.848263 kJ/mol
# GULP energy per Si atom -5572.440751 kJ/mol
# Density = 2.338175 g / cm^3
# Si number density = 23.435088 Si / 1000 Ang^3
#
#
#
# Elastic Constant Matrix: (Units=GPa)
#
#
# Indices 1 2 3 4 5 6 
#
# 1 169.0522 45.8421 57.1838 13.2228 -39.0903 38.5154
# 2 45.8421 100.6016 16.1076 17.6557 6.2729 21.3019
# 3 57.1838 16.1076 138.1890 26.4826 -27.8139 23.5422
# 4 13.2228 17.6557 26.4826 39.2033 1.3120 4.3387
# 5 -39.0903 6.2729 -27.8139 1.3120 49.9094 5.7787
# 6 38.5154 21.3019 23.5422 4.3387 5.7787 43.0526
#
#
#
# Elastic Compliance Matrix: (Units=1/GPa)
#
#
# Indices 1 2 3 4 5 6 
#
# 1 0.011897 -0.003694 -0.000379 -0.001356 0.010755 -0.009916
# 2 -0.003694 0.013116 0.000541 -0.004622 -0.003829 -0.002501
# 3 -0.000379 0.000541 0.011112 -0.007163 0.006732 -0.006187
# 4 -0.001356 -0.004622 -0.007163 0.032537 -0.005899 0.004929
# 5 0.010755 -0.003829 0.006732 -0.005899 0.034638 -0.015463
# 6 -0.009916 -0.002501 -0.006187 0.004929 -0.015463 0.038297
#
#
# Mechanical properties :
#
#
# Convention : Reuss Voigt Hill
#
# Bulk Modulus (GPa) = 34.40956 71.78998 53.09977
# Shear Modulus (GPa) = 31.57579 45.68036 38.62807
#
# Velocity S-wave (km/s) = 3.67464 4.41980 4.06433
# Velocity P-wave (km/s) = 5.72003 7.53301 6.68823
#
# Compressibility (1/GPa) = 0.02906169
#
# Stress axis : x y z
#
# Youngs Moduli (GPa) = 84.05401 76.24131 89.99357
#
# Poissons Ratio (x) = 0.28161 0.03409
# Poissons Ratio (y) = 0.31047 -0.04866
# Poissons Ratio (z) = 0.03184 -0.04123
#
# Static dielectric constant tensor:
#      x y z
#    x 1.844220 -0.071120 0.087210 
#    y -0.071120 1.870890 -0.068290 
#    z 0.087210 -0.068290 2.015380 
# 
# From -- ./inp_files/175659.got.cif
#   From: 2010.05.17/outbox.cif.g08.bks.cpg/sg2_88_cif.got.tgz:175659.got - 2010.06.03 11:33:40.
