data_PCOD9040506
_publ_section_title
;
Structure prediction by ZEFSAII (Michael W. Deem and Ramdas Pophale) SiO2 
 PCOD9040506
Probable space group: P -1
;
_chemical_formula_sum "Si O2"
_cell_formula_units_Z 13
_cell_length_a 7.382201
_cell_length_b 20.048676
_cell_length_c 6.003613
_cell_angle_alpha 56.406791
_cell_angle_beta 79.495617
_cell_angle_gamma 45.697639
_cell_volume 497.678545
_symmetry_space_group_name_H-M "P -1"
_symmetry_group_IT_number 2
_symmetry_cell_setting 'triclinic'
loop_
_space_group_symop_operation_xyz
x,y,z
-x,-y,-z
loop_
_atom_site_type_symbol
_atom_site_label
_atom_site_fract_x
_atom_site_fract_y
_atom_site_fract_z
Si Si1 0.365525 0.350029 0.236648
Si Si2 0.076771 0.580532 0.065841
Si Si3 0.365917 0.613172 0.182330
Si Si4 0.859569 0.129820 0.776830
Si Si5 0.405776 0.205437 0.966733
Si Si6 0.836670 0.845237 0.113908
Si Si7 0.500000 0.000000 0.500000
O O1 0.270157 0.442351 0.278627
O O2 0.649481 0.218773 0.467855
O O3 0.421323 0.389769 0.940744
O O4 0.117620 0.371807 0.189431
O O5 0.244030 0.609342 0.993694
O O6 0.860989 0.661511 0.160439
O O7 0.500000 0.500000 0.500000
O O8 0.120127 0.726861 0.167326
O O9 0.089606 0.125260 0.742651
O O10 0.655206 0.185245 0.928249
O O11 0.000000 0.000000 0.000000
O O12 0.454484 0.114124 0.284083
O O13 0.350112 0.174006 0.806403
O O14 0.694510 0.946422 0.776322
#
# Coordination Sequence:
#
# PCOD9040506 Si02
#       7
#     2   2   2   2   2   2   1
#     4  11  26  40  61 102 127 162 214 261 315 377
#     4  10  23  43  67  89 128 168 206 268 311 371
#     4  11  23  42  69  92 122 168 211 260 320 371
#     4  12  27  38  63  97 133 166 206 265 317 375
#     4   9  22  42  64  90 121 174 211 250 317 365
#     4   9  22  41  64  91 122 168 216 256 302 386
#     4   8  20  42  66  90 114 174 222 248 302 384
#
# _framework density 26.121279000000001
#
# number of rings (size 3 to 8) (size 9 to 14) (size 15 to 20)
#    0.923    0.923    0.000    2.308    4.308    8.615 
#    0.000    0.000    0.000    0.000    0.000    0.000 
#    0.000    0.000    0.000    0.000    0.000    0.000 
#
# Total GULP energy -72367.616504 kJ/mol
# GULP energy per Si atom -5566.739731 kJ/mol
# Density = 2.606183 g / cm^3
# Si number density = 26.121279 Si / 1000 Ang^3
#
#
#
# Elastic Constant Matrix: (Units=GPa)
#
#
# Indices 1 2 3 4 5 6 
#
# 1 110.0802 11.1029 22.7228 -13.0285 16.3512 18.1700
# 2 11.1029 94.8939 10.2916 -23.1564 -2.4799 -2.9531
# 3 22.7228 10.2916 132.0822 -36.7253 -11.0956 -5.8325
# 4 -13.0285 -23.1564 -36.7253 19.5687 -6.3264 8.2894
# 5 16.3512 -2.4799 -11.0956 -6.3264 36.7211 3.1622
# 6 18.1700 -2.9531 -5.8325 8.2894 3.1622 39.7564
#
#
#
# Elastic Compliance Matrix: (Units=1/GPa)
#
#
# Indices 1 2 3 4 5 6 
#
# 1 0.012448 0.005275 0.005911 0.031324 0.002960 -0.011197
# 2 0.005275 0.054470 0.055174 0.205815 0.056705 -0.037694
# 3 0.005911 0.055174 0.079332 0.262298 0.074350 -0.047569
# 4 0.031324 0.205815 0.262298 0.970367 0.262205 -0.183730
# 5 0.002960 0.056705 0.074350 0.262205 0.101600 -0.048986
# 6 -0.011197 -0.037694 -0.047569 -0.183730 -0.048986 0.062697
#
#
# Mechanical properties :
#
#
# Convention : Reuss Voigt Hill
#
# Bulk Modulus (GPa) = 3.58461 47.25455 25.41958
# Shear Modulus (GPa) = 4.02842 38.73850 21.38346
#
# Velocity S-wave (km/s) = 1.24320 3.85518 2.86426
# Velocity P-wave (km/s) = 1.85364 6.16006 4.54875
#
# Compressibility (1/GPa) = 0.27897073
#
# Stress axis : x y z
#
# Youngs Moduli (GPa) = 80.33603 18.35880 12.60527
#
# Poissons Ratio (x) = -0.09685 -0.07451
# Poissons Ratio (y) = -0.42379 -0.69548
# Poissons Ratio (z) = -0.47490 -1.01293
#
# Static dielectric constant tensor:
#      x y z
#    x 2.051920 0.020370 0.051170 
#    y 0.020370 2.248110 0.111730 
#    z 0.051170 0.111730 2.075770 
# 
# From -- ./inp_files/54349.got.cif
#   From: 2010.05.17/outbox.cif.g08.bks.cpg/sg2_28_cif.got.tgz:54349.got - 2010.06.03 11:33:40.
