data_PCOD9040419
_publ_section_title
;
Structure prediction by ZEFSAII (Michael W. Deem and Ramdas Pophale) SiO2 
 PCOD9040419
Probable space group: P -1
;
_chemical_formula_sum "Si O2"
_cell_formula_units_Z 12
_cell_length_a 5.485804
_cell_length_b 15.138122
_cell_length_c 7.269883
_cell_angle_alpha 101.237710
_cell_angle_beta 61.469000
_cell_angle_gamma 122.093071
_cell_volume 447.946337
_symmetry_space_group_name_H-M "P -1"
_symmetry_group_IT_number 2
_symmetry_cell_setting 'triclinic'
loop_
_space_group_symop_operation_xyz
x,y,z
-x,-y,-z
loop_
_atom_site_type_symbol
_atom_site_label
_atom_site_fract_x
_atom_site_fract_y
_atom_site_fract_z
Si Si1 0.457055 0.392849 0.250167
Si Si2 0.276743 0.033601 0.481410
Si Si3 0.770109 0.263124 0.425825
Si Si4 0.379072 0.050741 0.912433
Si Si5 0.539944 0.410066 0.650519
Si Si6 0.199942 0.713421 0.020224
O O1 0.598898 0.429042 0.416750
O O2 0.374118 0.479692 0.246617
O O3 0.122185 0.284546 0.354706
O O4 0.679310 0.369437 0.031953
O O5 0.471143 0.150344 0.529748
O O6 0.497976 0.986438 0.326608
O O7 0.092990 0.045514 0.362143
O O8 0.500000 0.000000 0.000000
O O9 0.723993 0.347402 0.590451
O O10 0.780259 0.272094 0.203227
O O11 0.574422 0.175170 0.921362
O O12 0.000000 0.000000 0.000000
O O13 0.164597 0.334621 0.801283
#
# Coordination Sequence:
#
# PCOD9040419 Si02
#       6
#     2   2   2   2   2   2
#     4  10  23  43  66  97 134 173 222 289 335 411
#     4  12  27  45  71 102 139 183 230 284 344 413
#     4  11  24  42  67  96 135 174 226 282 340 407
#     4  12  25  45  68  99 140 179 227 283 342 406
#     4  10  23  43  67  97 132 174 227 277 349 404
#     4  11  24  41  67  97 133 178 224 281 342 409
#
# _framework density 26.788923
#
# number of rings (size 3 to 8) (size 9 to 14) (size 15 to 20)
#    0.000    1.000    1.667    4.000    7.000    2.000 
#    0.000    0.000    0.000    0.000    0.000    0.000 
#    0.000    0.000    0.000    0.000    0.000    0.000 
#
# Total GULP energy -67059.066712 kJ/mol
# GULP energy per Si atom -5588.255559 kJ/mol
# Density = 2.672795 g / cm^3
# Si number density = 26.788923 Si / 1000 Ang^3
#
#
#
# Elastic Constant Matrix: (Units=GPa)
#
#
# Indices 1 2 3 4 5 6 
#
# 1 57.2886 30.9170 46.9785 0.8164 -25.8145 0.4417
# 2 30.9170 132.8489 37.2557 7.4005 -16.0663 11.2633
# 3 46.9785 37.2557 164.6469 20.5980 -20.2576 -1.5585
# 4 0.8164 7.4005 20.5980 42.2922 11.4056 -10.4877
# 5 -25.8145 -16.0663 -20.2576 11.4056 69.1849 -5.4672
# 6 0.4417 11.2633 -1.5585 -10.4877 -5.4672 40.2175
#
#
#
# Elastic Compliance Matrix: (Units=1/GPa)
#
#
# Indices 1 2 3 4 5 6 
#
# 1 0.028342 -0.004154 -0.006413 0.001773 0.007606 0.002100
# 2 -0.004154 0.009088 -0.000573 -0.002111 0.000503 -0.003004
# 3 -0.006413 -0.000573 0.008648 -0.004284 0.000676 -0.000459
# 4 0.001773 -0.002111 -0.004284 0.029323 -0.005338 0.007327
# 5 0.007606 0.000503 0.000676 -0.005338 0.018561 0.000933
# 6 0.002100 -0.003004 -0.000459 0.007327 0.000933 0.027703
#
#
# Mechanical properties :
#
#
# Convention : Reuss Voigt Hill
#
# Bulk Modulus (GPa) = 42.02213 65.00966 53.51589
# Shear Modulus (GPa) = 32.92099 46.31448 39.61773
#
# Velocity S-wave (km/s) = 3.50937 4.16248 3.84980
# Velocity P-wave (km/s) = 5.66934 6.88634 6.30726
#
# Compressibility (1/GPa) = 0.02379698
#
# Stress axis : x y z
#
# Youngs Moduli (GPa) = 35.28301 110.03344 115.63492
#
# Poissons Ratio (x) = 0.45712 0.74155
# Poissons Ratio (y) = 0.14658 0.06631
# Poissons Ratio (z) = 0.22626 0.06310
#
# Static dielectric constant tensor:
#      x y z
#    x 2.671140 -0.128510 0.389700 
#    y -0.128510 2.009660 -0.022470 
#    z 0.389700 -0.022470 2.255890 
# 
# From -- ./inp_files/29558.got.cif
#   From: 2010.05.17/outbox.cif.g08.bks.cpg/sg2_15_cif.got.tgz:29558.got - 2010.06.03 11:33:40.
