data_PCOD9040122
_publ_section_title
;
Structure prediction by ZEFSAII (Michael W. Deem and Ramdas Pophale) SiO2 
 PCOD9040122
Probable space group: P -1
;
_chemical_formula_sum "Si O2"
_cell_formula_units_Z 16
_cell_length_a 9.484012
_cell_length_b 5.646656
_cell_length_c 30.984743
_cell_angle_alpha 65.798253
_cell_angle_beta 142.061050
_cell_angle_gamma 132.568456
_cell_volume 722.823305
_symmetry_space_group_name_H-M "P -1"
_symmetry_group_IT_number 2
_symmetry_cell_setting 'triclinic'
loop_
_space_group_symop_operation_xyz
x,y,z
-x,-y,-z
loop_
_atom_site_type_symbol
_atom_site_label
_atom_site_fract_x
_atom_site_fract_y
_atom_site_fract_z
Si Si1 0.303232 0.226467 0.936358
Si Si2 0.062454 0.126315 0.329833
Si Si3 0.547390 0.942788 0.167313
Si Si4 0.318902 0.769271 0.036212
Si Si5 0.636380 0.807513 0.818491
Si Si6 0.330817 0.134625 0.572874
Si Si7 0.791179 0.141912 0.343415
Si Si8 0.633499 0.157642 0.566569
O O1 0.495311 0.334909 0.931375
O O2 0.500000 0.500000 0.000000
O O3 0.971517 0.091665 0.861990
O O4 0.258417 0.911059 0.970627
O O5 0.382835 0.476039 0.390802
O O6 0.845577 0.972909 0.330670
O O7 0.147986 0.898747 0.355946
O O8 0.884003 0.154023 0.248644
O O9 0.509949 0.012279 0.104133
O O10 0.429716 0.553484 0.168085
O O11 0.397938 0.044713 0.156497
O O12 0.000000 0.500000 0.000000
O O13 0.404335 0.774900 0.732421
O O14 0.377204 0.998164 0.551484
O O15 0.357219 0.036041 0.634294
O O16 0.000000 0.000000 0.500000
O O17 0.133316 0.447211 0.414269
O O18 0.500000 0.000000 0.500000
#
# Coordination Sequence:
#
# PCOD9040122 Si02
#       8
#     2   2   2   2   2   2   2   2
#     4  11  26  42  68 105 139 179 235 281 342 408
#     4  10  23  43  63  92 130 170 223 275 335 408
#     4  11  24  45  74  98 137 185 229 280 350 405
#     4  11  24  44  69  99 140 184 226 285 341 407
#     4  11  24  46  71 101 137 182 229 284 343 409
#     4  11  24  41  63  99 129 173 226 276 341 406
#     4  10  23  43  64  90 134 172 218 281 340 398
#     4  11  22  39  65  92 128 171 219 275 335 403
#
# _framework density 22.135424
#
# number of rings (size 3 to 8) (size 9 to 14) (size 15 to 20)
#    0.000    1.250    2.500    2.250    3.500    8.000 
#    2.250    0.000    0.000    0.000    0.000    0.000 
#    0.000    0.000    0.000    0.000    0.000    0.000 
#
# Total GULP energy -89159.427441 kJ/mol
# GULP energy per Si atom -5572.464215 kJ/mol
# Density = 2.208504 g / cm^3
# Si number density = 22.135424 Si / 1000 Ang^3
#
#
#
# Elastic Constant Matrix: (Units=GPa)
#
#
# Indices 1 2 3 4 5 6 
#
# 1 178.8623 35.8581 64.3563 5.5474 12.5396 14.7605
# 2 35.8581 39.6842 -0.9609 4.2510 7.8134 5.6347
# 3 64.3563 -0.9609 122.7773 15.9515 11.4760 6.0691
# 4 5.5474 4.2510 15.9515 35.3085 6.6990 -2.6945
# 5 12.5396 7.8134 11.4760 6.6990 44.3103 0.4412
# 6 14.7605 5.6347 6.0691 -2.6945 0.4412 29.4073
#
#
#
# Elastic Compliance Matrix: (Units=1/GPa)
#
#
# Indices 1 2 3 4 5 6 
#
# 1 0.009150 -0.008297 -0.004984 0.001688 -0.000073 -0.001819
# 2 -0.008297 0.034853 0.005900 -0.005014 -0.004527 -0.004123
# 3 -0.004984 0.005900 0.011698 -0.004965 -0.001894 -0.001470
# 4 0.001688 -0.005014 -0.004965 0.031816 -0.003158 0.004101
# 5 -0.000073 -0.004527 -0.001894 -0.003158 0.024349 0.000640
# 6 -0.001819 -0.004123 -0.001470 0.004101 0.000640 0.036377
#
#
# Mechanical properties :
#
#
# Convention : Reuss Voigt Hill
#
# Bulk Modulus (GPa) = 24.42617 59.98118 42.20367
# Shear Modulus (GPa) = 28.30438 37.94322 33.12380
#
# Velocity S-wave (km/s) = 3.57976 4.14471 3.87255
# Velocity P-wave (km/s) = 5.30519 7.07538 6.25324
#
# Compressibility (1/GPa) = 0.04093970
#
# Stress axis : x y z
#
# Youngs Moduli (GPa) = 109.28525 28.69220 85.48313
#
# Poissons Ratio (x) = 0.23806 0.42604
# Poissons Ratio (y) = 0.90675 -0.50437
# Poissons Ratio (z) = 0.54467 -0.16929
#
# Static dielectric constant tensor:
#      x y z
#    x 1.863450 -0.085550 -0.007050 
#    y -0.085550 1.959450 -0.014580 
#    z -0.007050 -0.014580 1.813810 
# 
# From -- ./inp_files/14484.got.cif
#   From: 2010.05.17/outbox.cif.g08.bks.cpg/sg2_8_cif.got.tgz:14484.got - 2010.06.03 11:33:40.
