data_PCOD9040961
_publ_section_title
;
Structure prediction by ZEFSAII (Michael W. Deem and Ramdas Pophale) SiO2 
 PCOD9040961
Probable space group: P -1
;
_chemical_formula_sum "Si O2"
_cell_formula_units_Z 14
_cell_length_a 12.745996
_cell_length_b 11.487856
_cell_length_c 8.826362
_cell_angle_alpha 107.233024
_cell_angle_beta 148.549758
_cell_angle_gamma 70.523235
_cell_volume 635.546118
_symmetry_space_group_name_H-M "P -1"
_symmetry_group_IT_number 2
_symmetry_cell_setting 'triclinic'
loop_
_space_group_symop_operation_xyz
x,y,z
-x,-y,-z
loop_
_atom_site_type_symbol
_atom_site_label
_atom_site_fract_x
_atom_site_fract_y
_atom_site_fract_z
Si Si1 0.173015 0.267578 0.770748
Si Si2 0.766461 0.249913 0.087397
Si Si3 0.474975 0.615624 0.903586
Si Si4 0.784318 0.007155 0.814682
Si Si5 0.620238 0.367728 0.654360
Si Si6 0.910420 0.385308 0.776971
Si Si7 0.404370 0.135177 0.239348
O O1 0.995077 0.252992 0.428343
O O2 0.061777 0.323911 0.809764
O O3 0.325158 0.351111 0.917509
O O4 0.308034 0.143447 0.956887
O O5 0.623600 0.270280 0.066767
O O6 0.755478 0.123328 0.938631
O O7 0.686930 0.356670 0.907560
O O8 0.303425 0.588750 0.565283
O O9 0.500000 0.500000 0.000000
O O10 0.604042 0.034401 0.479300
O O11 0.752578 0.891908 0.834875
O O12 0.000000 0.000000 0.000000
O O13 0.500000 0.500000 0.500000
O O14 0.830062 0.322779 0.802555
O O15 0.476976 0.266210 0.408268
O O16 0.000000 0.500000 0.000000
#
# Coordination Sequence:
#
# PCOD9040961 Si02
#       7
#     2   2   2   2   2   2   2
#     4  11  25  44  66 101 142 183 227 293 354 418
#     4  10  26  42  69 104 138 182 238 280 362 415
#     4  11  25  44  63  97 150 184 223 285 351 424
#     4  10  24  47  74 102 136 182 238 301 343 421
#     4  11  22  44  68 104 142 185 235 291 349 422
#     4  11  25  38  66  97 134 186 234 276 337 417
#     4  10  23  43  70 100 137 180 233 284 357 407
#
# _framework density 22.028299000000001
#
# number of rings (size 3 to 8) (size 9 to 14) (size 15 to 20)
#    0.000    1.429    1.429    1.714    8.000    6.286 
#    0.000    1.429    0.000    0.000    0.000    0.000 
#    0.000    0.000    0.000    0.000    0.000    0.000 
#
# Total GULP energy -78171.305628 kJ/mol
# GULP energy per Si atom -5583.664688 kJ/mol
# Density = 2.197816 g / cm^3
# Si number density = 22.028299 Si / 1000 Ang^3
#
#
#
# Elastic Constant Matrix: (Units=GPa)
#
#
# Indices 1 2 3 4 5 6 
#
# 1 138.2366 34.2193 48.6430 4.3537 24.9080 12.5787
# 2 34.2193 77.4159 16.2360 6.3803 10.6458 20.2775
# 3 48.6430 16.2360 122.4244 -2.5223 7.0487 11.5257
# 4 4.3537 6.3803 -2.5223 27.6707 10.4330 -3.7033
# 5 24.9080 10.6458 7.0487 10.4330 51.1616 8.1796
# 6 12.5787 20.2775 11.5257 -3.7033 8.1796 43.5500
#
#
#
# Elastic Compliance Matrix: (Units=1/GPa)
#
#
# Indices 1 2 3 4 5 6 
#
# 1 0.009835 -0.003242 -0.003279 0.000364 -0.003780 0.000278
# 2 -0.003242 0.016622 -0.000348 -0.004383 0.000200 -0.007121
# 3 -0.003279 -0.000348 0.009655 0.001165 0.000326 -0.001409
# 4 0.000364 -0.004383 0.001165 0.041502 -0.008983 0.006844
# 5 -0.003780 0.000200 0.000326 -0.008983 0.023823 -0.004326
# 6 0.000278 -0.007121 -0.001409 0.006844 -0.004326 0.027965
#
#
# Mechanical properties :
#
#
# Convention : Reuss Voigt Hill
#
# Bulk Modulus (GPa) = 44.69302 59.58593 52.13947
# Shear Modulus (GPa) = 33.20112 40.40835 36.80473
#
# Velocity S-wave (km/s) = 3.88648 4.28762 4.09197
# Velocity P-wave (km/s) = 6.36181 7.18471 6.78574
#
# Compressibility (1/GPa) = 0.02237486
#
# Stress axis : x y z
#
# Youngs Moduli (GPa) = 101.68076 60.15994 103.57408
#
# Poissons Ratio (x) = 0.19506 0.33958
# Poissons Ratio (y) = 0.32969 0.03599
# Poissons Ratio (z) = 0.33337 0.02091
#
# Static dielectric constant tensor:
#      x y z
#    x 1.810720 -0.030310 0.055630 
#    y -0.030310 1.860450 -0.057070 
#    z 0.055630 -0.057070 1.788110 
# 
# From -- ./inp_files/262748.got.cif
#   From: 2010.05.17/outbox.cif.g08.bks.cpg/sg2_132_cif.got.tgz:262748.got - 2010.06.03 11:33:40.
