data_PCOD9040398
_publ_section_title
;
Structure prediction by ZEFSAII (Michael W. Deem and Ramdas Pophale) SiO2 
 PCOD9040398
Probable space group: P -1
;
_chemical_formula_sum "Si O2"
_cell_formula_units_Z 16
_cell_length_a 23.641305
_cell_length_b 14.934354
_cell_length_c 8.752316
_cell_angle_alpha 54.121664
_cell_angle_beta 56.260847
_cell_angle_gamma 19.613011
_cell_volume 840.389842
_symmetry_space_group_name_H-M "P -1"
_symmetry_group_IT_number 2
_symmetry_cell_setting 'triclinic'
loop_
_space_group_symop_operation_xyz
x,y,z
-x,-y,-z
loop_
_atom_site_type_symbol
_atom_site_label
_atom_site_fract_x
_atom_site_fract_y
_atom_site_fract_z
Si Si1 0.809475 0.277833 0.828542
Si Si2 0.191966 0.190066 0.839705
Si Si3 0.317626 0.782681 0.563425
Si Si4 0.500377 0.123472 0.443237
Si Si5 0.317608 0.782670 0.918487
Si Si6 0.809330 0.278025 0.187280
Si Si7 0.499442 0.876796 0.191310
Si Si8 0.191821 0.190300 0.204367
O O1 0.667175 0.561766 0.675025
O O2 0.762243 0.219373 0.951451
O O3 0.810628 0.310458 0.973548
O O4 0.000113 0.999795 0.759887
O O5 0.000122 0.499871 0.771397
O O6 0.335080 0.053986 0.684724
O O7 0.224585 0.015637 0.917969
O O8 0.207351 0.180826 0.008205
O O9 0.500000 0.500000 0.500000
O O10 0.327905 0.800820 0.707383
O O11 0.237721 0.780732 0.677024
O O12 0.224630 0.015627 0.377120
O O13 0.503169 0.114558 0.630689
O O14 0.500000 0.000000 0.500000
O O15 0.500000 0.500000 0.000000
O O16 0.666859 0.562127 0.199871
O O17 0.334758 0.054581 0.202095
O O18 0.500000 0.000000 0.000000
#
# Coordination Sequence:
#
# PCOD9040398 Si02
#       8
#     2   2   2   2   2   2   2   2
#     4  10  23  43  66  95 129 168 214 263 316 376
#     4  11  25  44  66  95 131 169 215 267 319 378
#     4  11  22  39  66  95 128 167 211 265 320 376
#     4  12  26  44  67  94 130 171 214 263 321 383
#     4  11  22  39  66  95 128 167 211 265 320 376
#     4  10  23  43  66  95 129 168 214 263 316 376
#     4  12  26  44  67  94 130 171 214 263 321 383
#     4  11  25  44  66  95 131 169 215 267 319 378
#
# _framework density 19.038782999999999
#
# number of rings (size 3 to 8) (size 9 to 14) (size 15 to 20)
#    0.000    1.000    2.500    3.750    3.500    3.500 
#    0.000    0.000    0.000    0.000    0.000    0.000 
#    0.000    0.000    0.000    0.000    0.000    0.000 
#
# Total GULP energy -89431.868077 kJ/mol
# GULP energy per Si atom -5589.491755 kJ/mol
# Density = 1.899545 g / cm^3
# Si number density = 19.038783 Si / 1000 Ang^3
#
#
#
# Elastic Constant Matrix: (Units=GPa)
#
#
# Indices 1 2 3 4 5 6 
#
# 1 92.6025 73.3665 31.3801 4.9423 3.8374 5.3578
# 2 73.3665 198.3395 67.1438 -15.4708 1.2147 -8.0420
# 3 31.3801 67.1438 101.4192 -10.3165 -1.4775 -8.9659
# 4 4.9423 -15.4708 -10.3165 24.3813 7.7120 -10.7664
# 5 3.8374 1.2147 -1.4775 7.7120 20.7056 -3.3576
# 6 5.3578 -8.0420 -8.9659 -10.7664 -3.3576 30.5139
#
#
#
# Elastic Compliance Matrix: (Units=1/GPa)
#
#
# Indices 1 2 3 4 5 6 
#
# 1 0.019793 -0.007844 -0.003643 -0.016108 0.000547 -0.012236
# 2 -0.007844 0.009886 -0.002496 0.010430 -0.002103 0.006698
# 3 -0.003643 -0.002496 0.014099 0.008258 -0.000109 0.007026
# 4 -0.016108 0.010430 0.008258 0.074863 -0.019691 0.032251
# 5 0.000547 -0.002103 -0.000109 -0.019691 0.055395 -0.001534
# 6 -0.012236 0.006698 0.007026 0.032251 -0.001534 0.049961
#
#
# Mechanical properties :
#
#
# Convention : Reuss Voigt Hill
#
# Bulk Modulus (GPa) = 63.24097 81.79355 72.51726
# Shear Modulus (GPa) = 19.43748 29.81821 24.62785
#
# Velocity S-wave (km/s) = 3.19868 3.96180 3.60051
# Velocity P-wave (km/s) = 6.85063 7.99891 7.44694
#
# Compressibility (1/GPa) = 0.01581253
#
# Stress axis : x y z
#
# Youngs Moduli (GPa) = 50.52264 101.14989 70.92630
#
# Poissons Ratio (x) = 0.79343 0.25841
# Poissons Ratio (y) = 0.39630 0.17700
# Poissons Ratio (z) = 0.18407 0.25243
#
# Static dielectric constant tensor:
#      x y z
#    x 1.637910 -0.027210 0.016460 
#    y -0.027210 1.671300 0.017050 
#    z 0.016460 0.017050 1.635730 
# 
# From -- ./inp_files/354302.got.cif
#   From: 2010.05.17/outbox.cif.g08.bks.cpg/sg2_178_cif.got.tgz:354302.got - 2010.06.03 11:33:40.
