data_PCOD9040815
_publ_section_title
;
Structure prediction by ZEFSAII (Michael W. Deem and Ramdas Pophale) SiO2 
 PCOD9040815
Probable space group: P -1
;
_chemical_formula_sum "Si O2"
_cell_formula_units_Z 15
_cell_length_a 12.338244
_cell_length_b 8.173878
_cell_length_c 16.494831
_cell_angle_alpha 56.499800
_cell_angle_beta 155.242722
_cell_angle_gamma 122.416169
_cell_volume 578.018600
_symmetry_space_group_name_H-M "P -1"
_symmetry_group_IT_number 2
_symmetry_cell_setting 'triclinic'
loop_
_space_group_symop_operation_xyz
x,y,z
-x,-y,-z
loop_
_atom_site_type_symbol
_atom_site_label
_atom_site_fract_x
_atom_site_fract_y
_atom_site_fract_z
Si Si1 0.000000 0.500000 0.500000
Si Si2 0.986007 0.280714 0.220851
Si Si3 0.724597 0.593673 0.770320
Si Si4 0.359888 0.955291 0.058127
Si Si5 0.872084 0.002409 0.824570
Si Si6 0.847865 0.047834 0.464088
Si Si7 0.334718 0.362537 0.862692
Si Si8 0.839421 0.413970 0.615941
O O1 0.110503 0.723806 0.550602
O O2 0.301352 0.432276 0.731032
O O3 0.222406 0.353065 0.302233
O O4 0.978736 0.442927 0.241078
O O5 0.049607 0.077345 0.359488
O O6 0.727138 0.231348 0.005312
O O7 0.430870 0.491896 0.606872
O O8 0.707822 0.792554 0.757623
O O9 0.000000 0.500000 0.000000
O O10 0.557948 0.966184 0.263687
O O11 0.424887 0.148298 0.994347
O O12 0.092767 0.992490 0.909878
O O13 0.768538 0.208697 0.672865
O O14 0.000000 0.000000 0.000000
O O15 0.000000 0.000000 0.500000
O O16 0.018649 0.382402 0.666033
O O17 0.500000 0.500000 0.000000
#
# Coordination Sequence:
#
# PCOD9040815 Si02
#       8
#     1   2   2   2   2   2   2   2
#     4  12  24  46  74  96 146 194 240 312 368 436
#     4  11  25  44  71 100 143 186 236 306 372 428
#     4  11  25  46  71 105 145 188 243 305 372 444
#     4  10  24  44  67  98 144 177 239 301 362 438
#     4  10  23  43  69 101 135 186 238 294 364 443
#     4  12  27  45  70 108 144 195 250 304 375 445
#     4  11  23  46  66 101 137 186 242 301 359 440
#     4  11  25  44  70 102 141 189 243 298 366 446
#
# _framework density 25.950721000000001
#
# number of rings (size 3 to 8) (size 9 to 14) (size 15 to 20)
#    0.000    1.067    2.667    2.400    5.600    2.667 
#    2.400    0.000    0.000    0.000    0.000    0.000 
#    0.000    0.000    0.000    0.000    0.000    0.000 
#
# Total GULP energy -83669.501901 kJ/mol
# GULP energy per Si atom -5577.966793 kJ/mol
# Density = 2.589166 g / cm^3
# Si number density = 25.950721 Si / 1000 Ang^3
#
#
#
# Elastic Constant Matrix: (Units=GPa)
#
#
# Indices 1 2 3 4 5 6 
#
# 1 95.6664 14.7126 18.7466 -6.6701 3.5014 -15.6805
# 2 14.7126 144.7453 45.7012 13.6779 -4.1428 -19.8256
# 3 18.7466 45.7012 158.4158 13.4647 -5.5120 -12.8184
# 4 -6.6701 13.6779 13.4647 54.7399 -2.0174 -21.5998
# 5 3.5014 -4.1428 -5.5120 -2.0174 35.3545 -1.2906
# 6 -15.6805 -19.8256 -12.8184 -21.5998 -1.2906 33.6932
#
#
#
# Elastic Compliance Matrix: (Units=1/GPa)
#
#
# Indices 1 2 3 4 5 6 
#
# 1 0.012519 -0.000243 -0.001193 0.005220 -0.000845 0.008543
# 2 -0.000243 0.008118 -0.001966 0.000017 0.000814 0.003958
# 3 -0.001193 -0.001966 0.007182 -0.001297 0.000942 0.000225
# 4 0.005220 0.000017 -0.001297 0.026860 0.001517 0.019223
# 5 -0.000845 0.000814 0.000942 0.001517 0.028789 0.002520
# 6 0.008543 0.003958 0.000225 0.019223 0.002520 0.048490
#
#
# Mechanical properties :
#
#
# Convention : Reuss Voigt Hill
#
# Bulk Modulus (GPa) = 47.58537 61.90537 54.74537
# Shear Modulus (GPa) = 34.30100 46.06866 40.18483
#
# Velocity S-wave (km/s) = 3.63957 4.21793 3.93937
# Velocity P-wave (km/s) = 6.00321 6.90130 6.46786
#
# Compressibility (1/GPa) = 0.02101486
#
# Stress axis : x y z
#
# Youngs Moduli (GPa) = 79.87642 123.18416 139.23519
#
# Poissons Ratio (x) = 0.02994 0.16613
# Poissons Ratio (y) = 0.01941 0.27374
# Poissons Ratio (z) = 0.09530 0.24219
#
# Static dielectric constant tensor:
#      x y z
#    x 1.868590 -0.075810 0.208920 
#    y -0.075810 2.072260 0.027410 
#    z 0.208920 0.027410 1.393990 
# 
# From -- ./inp_files/572581.got.cif
#   From: 2010.05.17/outbox.cif.g08.bks.cpg/sg2_287_cif.got.tgz:572581.got - 2010.06.03 11:33:40.
