data_PCOD9040594
_publ_section_title
;
Structure prediction by ZEFSAII (Michael W. Deem and Ramdas Pophale) SiO2 
 PCOD9040594
Probable space group: P -1
;
_chemical_formula_sum "Si O2"
_cell_formula_units_Z 12
_cell_length_a 5.234627
_cell_length_b 5.488370
_cell_length_c 18.539380
_cell_angle_alpha 66.263235
_cell_angle_beta 72.370927
_cell_angle_gamma 92.181057
_cell_volume 456.794512
_symmetry_space_group_name_H-M "P -1"
_symmetry_group_IT_number 2
_symmetry_cell_setting 'triclinic'
loop_
_space_group_symop_operation_xyz
x,y,z
-x,-y,-z
loop_
_atom_site_type_symbol
_atom_site_label
_atom_site_fract_x
_atom_site_fract_y
_atom_site_fract_z
Si Si1 0.377902 0.202184 0.679827
Si Si2 0.626243 0.241952 0.360163
Si Si3 0.195717 0.523825 0.548114
Si Si4 0.470877 0.018421 0.172056
Si Si5 0.159317 0.476170 0.196100
Si Si6 0.144366 0.741220 0.009792
O O1 0.531510 0.507579 0.648055
O O2 0.526309 0.021466 0.635721
O O3 0.241398 0.779539 0.569338
O O4 0.309792 0.051570 0.779511
O O5 0.864220 0.726475 0.358934
O O6 0.326761 0.235868 0.198650
O O7 0.872156 0.353153 0.271143
O O8 0.500000 0.500000 0.500000
O O9 0.000000 0.500000 0.500000
O O10 0.299622 0.726938 0.202525
O O11 0.581166 0.145248 0.071248
O O12 0.147973 0.607894 0.102925
O O13 0.000000 0.500000 0.000000
O O14 0.000000 0.000000 0.000000
#
# Coordination Sequence:
#
# PCOD9040594 Si02
#       6
#     2   2   2   2   2   2
#     4  10  23  43  67  98 138 179 232 281 365 420
#     4  10  23  43  67  98 138 179 232 281 365 420
#     4  10  26  46  74 105 144 185 240 300 370 438
#     4  12  24  40  67  99 137 181 238 292 353 424
#     4  12  24  40  67  99 137 181 238 292 353 424
#     4  12  24  42  64  92 140 186 238 291 353 422
#
# _framework density 26.270021
#
# number of rings (size 3 to 8) (size 9 to 14) (size 15 to 20)
#    1.000    0.000    0.000    7.000    2.333    1.333 
#    0.000    0.000    0.000    0.000    0.000    0.000 
#    0.000    0.000    0.000    0.000    0.000    0.000 
#
# Total GULP energy -67070.507235 kJ/mol
# GULP energy per Si atom -5589.208936 kJ/mol
# Density = 2.621023 g / cm^3
# Si number density = 26.270021 Si / 1000 Ang^3
#
#
#
# Elastic Constant Matrix: (Units=GPa)
#
#
# Indices 1 2 3 4 5 6 
#
# 1 92.3289 50.6703 69.4073 6.2653 22.4287 -4.7576
# 2 50.6703 207.7330 25.3531 28.0324 -8.3852 -18.7985
# 3 69.4073 25.3531 183.6006 10.8820 24.8994 -1.3344
# 4 6.2653 28.0324 10.8820 42.6227 -4.0787 -7.5511
# 5 22.4287 -8.3852 24.8994 -4.0787 66.4285 1.2319
# 6 -4.7576 -18.7985 -1.3344 -7.5511 1.2319 41.1232
#
#
#
# Elastic Compliance Matrix: (Units=1/GPa)
#
#
# Indices 1 2 3 4 5 6 
#
# 1 0.018560 -0.004102 -0.005901 0.001119 -0.004511 0.000421
# 2 -0.004102 0.006415 0.000640 -0.003292 0.001719 0.001823
# 3 -0.005901 0.000640 0.007817 -0.001716 -0.000954 -0.000423
# 4 0.001119 -0.003292 -0.001716 0.026642 0.001422 0.003418
# 5 -0.004511 0.001719 -0.000954 0.001422 0.017239 -0.000023
# 6 0.000421 0.001823 -0.000423 0.003418 -0.000023 0.025814
#
#
# Mechanical properties :
#
#
# Convention : Reuss Voigt Hill
#
# Bulk Modulus (GPa) = 71.09501 86.05822 78.57661
# Shear Modulus (GPa) = 39.71354 52.58370 46.14862
#
# Velocity S-wave (km/s) = 3.89233 4.47885 4.19585
# Velocity P-wave (km/s) = 6.87912 7.71861 7.31092
#
# Compressibility (1/GPa) = 0.01406568
#
# Stress axis : x y z
#
# Youngs Moduli (GPa) = 53.87966 155.88841 127.92417
#
# Poissons Ratio (x) = 0.63944 0.75492
# Poissons Ratio (y) = 0.22101 -0.08189
# Poissons Ratio (z) = 0.31796 -0.09979
#
# Static dielectric constant tensor:
#      x y z
#    x 2.069350 -0.010510 0.019250 
#    y -0.010510 2.139260 -0.029930 
#    z 0.019250 -0.029930 2.140270 
# 
# From -- ./inp_files/545695.got.cif
#   From: 2010.05.17/outbox.cif.g08.bks.cpg/sg2_273_cif.got.tgz:545695.got - 2010.06.03 11:33:40.
