data_PCOD9040697
_publ_section_title
;
Structure prediction by ZEFSAII (Michael W. Deem and Ramdas Pophale) SiO2 
 PCOD9040697
Probable space group: P -1
;
_chemical_formula_sum "Si O2"
_cell_formula_units_Z 14
_cell_length_a 14.977302
_cell_length_b 12.068639
_cell_length_c 9.439784
_cell_angle_alpha 44.227777
_cell_angle_beta 53.795685
_cell_angle_gamma 27.979971
_cell_volume 553.729245
_symmetry_space_group_name_H-M "P -1"
_symmetry_group_IT_number 2
_symmetry_cell_setting 'triclinic'
loop_
_space_group_symop_operation_xyz
x,y,z
-x,-y,-z
loop_
_atom_site_type_symbol
_atom_site_label
_atom_site_fract_x
_atom_site_fract_y
_atom_site_fract_z
Si Si1 0.073084 0.605994 0.653554
Si Si2 0.437466 0.621421 0.287173
Si Si3 0.983865 0.174427 0.196169
Si Si4 0.793158 0.689631 0.728092
Si Si5 0.434924 0.997014 0.919175
Si Si6 0.242046 0.773643 0.849016
Si Si7 0.867563 0.378917 0.715584
O O1 0.172068 0.570243 0.459214
O O2 0.058905 0.734392 0.684393
O O3 0.874129 0.760424 0.645800
O O4 0.211809 0.295737 0.842847
O O5 0.500000 0.500000 0.500000
O O6 0.561107 0.398265 0.247887
O O7 0.209767 0.878718 0.243965
O O8 0.478548 0.760932 0.101348
O O9 0.872092 0.159861 0.242758
O O10 0.903201 0.421998 0.959340
O O11 0.568500 0.926680 0.744636
O O12 0.836001 0.588204 0.620972
O O13 0.500000 0.000000 0.000000
O O14 0.253181 0.609972 0.094643
O O15 0.093670 0.064141 0.801548
#
# Coordination Sequence:
#
# PCOD9040697 Si02
#       7
#     2   2   2   2   2   2   2
#     4  12  23  40  69 101 129 169 223 265 332 387
#     4  12  24  40  66  98 127 168 221 270 324 387
#     4  11  22  41  69  94 126 173 211 278 325 373
#     4  11  22  43  64  95 135 169 215 269 329 383
#     4  12  23  41  66  99 135 166 215 281 327 380
#     4  10  23  48  63  92 139 169 218 269 325 386
#     4  10  23  43  68  92 134 182 209 265 327 398
#
# _framework density 25.283114000000001
#
# number of rings (size 3 to 8) (size 9 to 14) (size 15 to 20)
#    0.000    0.857    5.714    2.571    0.000    4.000 
#    0.000    7.857    0.000    0.000    0.000    0.000 
#    0.000    0.000    0.000    0.000    0.000    0.000 
#
# Total GULP energy -78386.966022 kJ/mol
# GULP energy per Si atom -5599.069002 kJ/mol
# Density = 2.522557 g / cm^3
# Si number density = 25.283114 Si / 1000 Ang^3
#
#
#
# Elastic Constant Matrix: (Units=GPa)
#
#
# Indices 1 2 3 4 5 6 
#
# 1 102.0080 31.5179 -3.5479 15.3330 0.9938 11.0801
# 2 31.5179 147.2569 6.0761 22.9154 4.9911 -3.5006
# 3 -3.5479 6.0761 61.0589 15.6339 3.9197 -2.5402
# 4 15.3330 22.9154 15.6339 43.4917 4.5905 10.7555
# 5 0.9938 4.9911 3.9197 4.5905 26.3762 5.3359
# 6 11.0801 -3.5006 -2.5402 10.7555 5.3359 48.9140
#
#
#
# Elastic Compliance Matrix: (Units=1/GPa)
#
#
# Indices 1 2 3 4 5 6 
#
# 1 0.011147 -0.002059 0.001480 -0.002948 0.000671 -0.002020
# 2 -0.002059 0.007919 0.000256 -0.003917 -0.001189 0.002038
# 3 0.001480 0.000256 0.018673 -0.007794 -0.002047 0.002590
# 4 -0.002948 -0.003917 -0.007794 0.030731 -0.002012 -0.006555
# 5 0.000671 -0.001189 -0.002047 -0.002012 0.039621 -0.004223
# 6 -0.002020 0.002038 0.002590 -0.006555 -0.004223 0.023084
#
#
# Mechanical properties :
#
#
# Convention : Reuss Voigt Hill
#
# Bulk Modulus (GPa) = 26.95793 42.04622 34.50207
# Shear Modulus (GPa) = 34.67767 42.17489 38.42628
#
# Velocity S-wave (km/s) = 3.70750 4.08868 3.90274
# Velocity P-wave (km/s) = 5.38637 6.24147 5.82962
#
# Compressibility (1/GPa) = 0.03709484
#
# Stress axis : x y z
#
# Youngs Moduli (GPa) = 89.71132 126.27420 53.55375
#
# Poissons Ratio (x) = 0.25998 -0.07928
# Poissons Ratio (y) = 0.18470 -0.01373
# Poissons Ratio (z) = -0.13280 -0.03238
#
# Static dielectric constant tensor:
#      x y z
#    x 1.961280 -0.019400 -0.040410 
#    y -0.019400 2.085940 -0.004260 
#    z -0.040410 -0.004260 2.049950 
# 
# From -- ./inp_files/257843.got.cif
#   From: 2010.05.17/outbox.cif.g08.bks.cpg/sg2_129_cif.got.tgz:257843.got - 2010.06.03 11:33:40.
