data_PCOD9040250
_publ_section_title
;
Structure prediction by ZEFSAII (Michael W. Deem and Ramdas Pophale) SiO2 
 PCOD9040250
Probable space group: P -1
;
_chemical_formula_sum "Si O2"
_cell_formula_units_Z 13
_cell_length_a 12.898014
_cell_length_b 8.741395
_cell_length_c 11.504671
_cell_angle_alpha 115.518580
_cell_angle_beta 39.099993
_cell_angle_gamma 88.069575
_cell_volume 563.164015
_symmetry_space_group_name_H-M "P -1"
_symmetry_group_IT_number 2
_symmetry_cell_setting 'triclinic'
loop_
_space_group_symop_operation_xyz
x,y,z
-x,-y,-z
loop_
_atom_site_type_symbol
_atom_site_label
_atom_site_fract_x
_atom_site_fract_y
_atom_site_fract_z
Si Si1 0.000000 0.000000 0.500000
Si Si2 0.473557 0.214590 0.621634
Si Si3 0.845552 0.444553 0.431924
Si Si4 0.056360 0.977528 0.807423
Si Si5 0.809120 0.509703 0.824692
Si Si6 0.839332 0.455584 0.162929
Si Si7 0.480242 0.822486 0.008755
O O1 0.128170 0.728061 0.313788
O O2 0.233506 0.942347 0.283245
O O3 0.695463 0.136272 0.451349
O O4 0.399311 0.349345 0.610621
O O5 0.500000 0.000000 0.500000
O O6 0.286808 0.377860 0.928918
O O7 0.962287 0.193478 0.289495
O O8 0.847251 0.441033 0.289852
O O9 0.600983 0.620723 0.744639
O O10 0.980839 0.512992 0.381266
O O11 0.000000 0.000000 0.000000
O O12 0.919249 0.225641 0.962204
O O13 0.624930 0.691427 0.954204
O O14 0.000000 0.500000 0.000000
O O15 0.500000 0.000000 0.000000
#
# Coordination Sequence:
#
# PCOD9040250 Si02
#       7
#     1   2   2   2   2   2   2
#     4  12  28  52  78 108 146 200 252 310 374 436
#     4  12  24  42  73 106 142 189 236 302 365 435
#     4  11  24  48  71 106 146 193 240 305 368 436
#     4  10  23  43  65 104 144 185 239 294 360 434
#     4  12  27  49  75 108 148 194 250 307 375 440
#     4  11  22  44  70 104 144 186 239 291 368 434
#     4  12  28  51  75 107 146 196 249 310 369 438
#
# _framework density 23.083862
#
# number of rings (size 3 to 8) (size 9 to 14) (size 15 to 20)
#    0.000    0.615    4.615    2.769    2.154    4.923 
#    2.769    0.000    0.000    0.000    0.000    0.000 
#    0.000    0.000    0.000    0.000    0.000    0.000 
#
# Total GULP energy -72512.635461 kJ/mol
# GULP energy per Si atom -5577.895035 kJ/mol
# Density = 2.303132 g / cm^3
# Si number density = 23.083862 Si / 1000 Ang^3
#
#
#
# Elastic Constant Matrix: (Units=GPa)
#
#
# Indices 1 2 3 4 5 6 
#
# 1 68.4738 54.8926 27.3989 7.7137 -8.4458 -3.9888
# 2 54.8926 147.1401 33.7674 53.8404 -4.6254 26.0703
# 3 27.3989 33.7674 90.1274 19.1037 -17.3182 -9.0491
# 4 7.7137 53.8404 19.1037 48.9354 2.4194 2.8952
# 5 -8.4458 -4.6254 -17.3182 2.4194 41.9064 0.4088
# 6 -3.9888 26.0703 -9.0491 2.8952 0.4088 36.9080
#
#
#
# Elastic Compliance Matrix: (Units=1/GPa)
#
#
# Indices 1 2 3 4 5 6 
#
# 1 0.030889 -0.019454 -0.004014 0.017167 0.001284 0.014735
# 2 -0.019454 0.026782 -0.000673 -0.025019 0.000389 -0.019227
# 3 -0.004014 -0.000673 0.015129 -0.005053 0.005621 0.004085
# 4 0.017167 -0.025019 -0.005053 0.046568 -0.004222 0.014683
# 5 0.001284 0.000389 0.005621 -0.004222 0.026719 0.001277
# 6 0.014735 -0.019227 0.004085 0.014683 0.001277 0.042103
#
#
# Mechanical properties :
#
#
# Convention : Reuss Voigt Hill
#
# Bulk Modulus (GPa) = 40.78667 59.76213 50.27440
# Shear Modulus (GPa) = 20.43781 38.19546 29.31663
#
# Velocity S-wave (km/s) = 2.97875 4.07214 3.56758
# Velocity P-wave (km/s) = 5.43487 6.93218 6.22868
#
# Compressibility (1/GPa) = 0.02451781
#
# Stress axis : x y z
#
# Youngs Moduli (GPa) = 32.37409 37.33868 66.09878
#
# Poissons Ratio (x) = 0.72640 0.26532
# Poissons Ratio (y) = 0.62982 0.04445
# Poissons Ratio (z) = 0.12995 0.02511
#
# Static dielectric constant tensor:
#      x y z
#    x 1.883280 -0.039900 0.067580 
#    y -0.039900 1.863550 0.033210 
#    z 0.067580 0.033210 1.785880 
# 
# From -- ./inp_files/419633.got.cif
#   From: 2010.05.17/outbox.cif.g08.bks.cpg/sg2_210_cif.got.tgz:419633.got - 2010.06.03 11:33:40.
