data_PCOD9040859
_publ_section_title
;
Structure prediction by ZEFSAII (Michael W. Deem and Ramdas Pophale) SiO2 
 PCOD9040859
Probable space group: P -1
;
_chemical_formula_sum "Si O2"
_cell_formula_units_Z 16
_cell_length_a 9.321188
_cell_length_b 10.485114
_cell_length_c 8.858212
_cell_angle_alpha 117.975312
_cell_angle_beta 70.984621
_cell_angle_gamma 123.353419
_cell_volume 635.940488
_symmetry_space_group_name_H-M "P -1"
_symmetry_group_IT_number 2
_symmetry_cell_setting 'triclinic'
loop_
_space_group_symop_operation_xyz
x,y,z
-x,-y,-z
loop_
_atom_site_type_symbol
_atom_site_label
_atom_site_fract_x
_atom_site_fract_y
_atom_site_fract_z
Si Si1 0.997954 0.362833 0.223909
Si Si2 0.357835 0.550488 0.027877
Si Si3 0.615310 0.152174 0.656625
Si Si4 0.400137 0.054696 0.184252
Si Si5 0.217577 0.276353 0.702212
Si Si6 0.124880 0.373791 0.503134
Si Si7 0.933263 0.060384 0.915694
Si Si8 0.576706 0.322134 0.505202
O O1 0.184721 0.455941 0.133436
O O2 0.021213 0.301511 0.346244
O O3 0.927871 0.492218 0.340198
O O4 0.893075 0.205375 0.068311
O O5 0.436469 0.742033 0.149480
O O6 0.500000 0.500000 0.000000
O O7 0.287373 0.464464 0.842495
O O8 0.691163 0.282931 0.564865
O O9 0.500000 0.000000 0.500000
O O10 0.685054 0.073366 0.715758
O O11 0.539408 0.218486 0.309213
O O12 0.245368 0.071813 0.168514
O O13 0.500000 0.000000 0.000000
O O14 0.114291 0.254080 0.571342
O O15 0.390537 0.264236 0.610322
O O16 0.090221 0.146802 0.793228
O O17 0.324810 0.485549 0.452331
O O18 0.000000 0.000000 0.000000
#
# Coordination Sequence:
#
# PCOD9040859 Si02
#       8
#     2   2   2   2   2   2   2   2
#     4  10  24  42  70  97 140 186 233 294 362 419
#     4  11  21  41  69 100 137 183 235 292 356 422
#     4  10  23  43  69 103 142 184 240 290 358 425
#     4  11  27  44  73 102 141 195 244 291 358 432
#     4  11  26  41  73 103 138 187 237 298 362 423
#     4  11  23  44  69 104 138 177 242 298 354 428
#     4  11  28  49  66 101 146 190 238 295 364 428
#     4  11  23  46  69 107 142 187 236 302 356 431
#
# _framework density 25.159587999999999
#
# number of rings (size 3 to 8) (size 9 to 14) (size 15 to 20)
#    0.000    1.250    2.500    1.125    8.750    1.500 
#    2.250    0.000    0.000    0.000    0.000    0.000 
#    0.000    0.000    0.000    0.000    0.000    0.000 
#
# Total GULP energy -89365.404459 kJ/mol
# GULP energy per Si atom -5585.337779 kJ/mol
# Density = 2.510232 g / cm^3
# Si number density = 25.159588 Si / 1000 Ang^3
#
#
#
# Elastic Constant Matrix: (Units=GPa)
#
#
# Indices 1 2 3 4 5 6 
#
# 1 103.9493 24.3686 26.0669 -31.2349 8.2689 2.6616
# 2 24.3686 68.1286 23.5397 -17.4759 0.9225 -6.3477
# 3 26.0669 23.5397 123.4985 1.7022 3.2855 10.4061
# 4 -31.2349 -17.4759 1.7022 57.8811 -5.8077 7.7584
# 5 8.2689 0.9225 3.2855 -5.8077 40.3460 -11.0371
# 6 2.6616 -6.3477 10.4061 7.7584 -11.0371 34.7877
#
#
#
# Elastic Compliance Matrix: (Units=1/GPa)
#
#
# Indices 1 2 3 4 5 6 
#
# 1 0.012914 -0.002520 -0.002018 0.006439 -0.002323 -0.003017
# 2 -0.002520 0.018112 -0.003394 0.003841 0.002115 0.004328
# 3 -0.002018 -0.003394 0.009518 -0.002099 -0.001494 -0.003318
# 4 0.006439 0.003841 -0.002099 0.022591 0.000948 -0.003901
# 5 -0.002323 0.002115 -0.001494 0.000948 0.028132 0.009725
# 6 -0.003017 0.004328 -0.003318 -0.003901 0.009725 0.034714
#
#
# Mechanical properties :
#
#
# Convention : Reuss Voigt Hill
#
# Bulk Modulus (GPa) = 40.51919 49.28075 44.89997
# Shear Modulus (GPa) = 33.31744 41.37637 37.34690
#
# Velocity S-wave (km/s) = 3.64296 4.05971 3.85697
# Velocity P-wave (km/s) = 5.81676 6.45018 6.14164
#
# Compressibility (1/GPa) = 0.02467966
#
# Stress axis : x y z
#
# Youngs Moduli (GPa) = 77.43795 55.21213 105.05917
#
# Poissons Ratio (x) = 0.13912 0.21202
# Poissons Ratio (y) = 0.19513 0.35660
# Poissons Ratio (z) = 0.15628 0.18741
#
# Static dielectric constant tensor:
#      x y z
#    x 1.959810 -0.007190 -0.014090 
#    y -0.007190 2.019560 0.016630 
#    z -0.014090 0.016630 2.021680 
# 
# From -- ./inp_files/189906.got.cif
#   From: 2010.05.17/outbox.cif.g08.bks.cpg/sg2_95_cif.got.tgz:189906.got - 2010.06.03 11:33:40.
