data_PCOD9040072
_publ_section_title
;
Structure prediction by ZEFSAII (Michael W. Deem and Ramdas Pophale) SiO2 
 PCOD9040072
Probable space group: P -1
;
_chemical_formula_sum "Si O2"
_cell_formula_units_Z 14
_cell_length_a 21.360143
_cell_length_b 5.681192
_cell_length_c 16.157897
_cell_angle_alpha 68.181010
_cell_angle_beta 25.348971
_cell_angle_gamma 85.329531
_cell_volume 598.671623
_symmetry_space_group_name_H-M "P -1"
_symmetry_group_IT_number 2
_symmetry_cell_setting 'triclinic'
loop_
_space_group_symop_operation_xyz
x,y,z
-x,-y,-z
loop_
_atom_site_type_symbol
_atom_site_label
_atom_site_fract_x
_atom_site_fract_y
_atom_site_fract_z
Si Si1 0.335163 0.754128 0.795594
Si Si2 0.536444 0.632867 0.345956
Si Si3 0.983135 0.372442 0.446218
Si Si4 0.321491 0.398334 0.077365
Si Si5 0.647281 0.531847 0.574306
Si Si6 0.466222 0.069220 0.123718
Si Si7 0.065362 0.485196 0.685278
O O1 0.332828 0.443773 0.840987
O O2 0.500000 0.000000 0.500000
O O3 0.390348 0.000125 0.774549
O O4 0.128994 0.627572 0.030228
O O5 0.500000 0.500000 0.500000
O O6 0.358712 0.436464 0.520611
O O7 0.969607 0.563893 0.365012
O O8 0.000000 0.500000 0.500000
O O9 0.169538 0.404418 0.210838
O O10 0.798140 0.989654 0.716307
O O11 0.522727 0.601364 0.762220
O O12 0.383650 0.562438 0.072640
O O13 0.847296 0.671503 0.357681
O O14 0.517917 0.141763 0.801105
O O15 0.242148 0.878610 0.428343
O O16 0.500000 0.000000 0.000000
#
# Coordination Sequence:
#
# PCOD9040072 Si02
#       7
#     2   2   2   2   2   2   2
#     4  10  23  47  73 102 134 180 236 300 363 431
#     4  10  23  45  73  99 135 181 235 299 364 428
#     4  11  24  41  60  98 139 186 243 282 342 428
#     4  11  23  40  67  91 140 196 234 287 346 422
#     4  10  24  40  63  99 135 182 231 290 359 422
#     4  10  23  43  60  97 145 179 231 285 348 415
#     4  10  24  40  65 100 137 181 232 294 356 424
#
# _framework density 23.385104999999999
#
# number of rings (size 3 to 8) (size 9 to 14) (size 15 to 20)
#    0.857    0.857    0.000    3.429    6.000    3.429 
#    5.143    5.714    0.000    0.000    0.000    0.000 
#    0.000    0.000    0.000    0.000    0.000    0.000 
#
# Total GULP energy -77990.334381 kJ/mol
# GULP energy per Si atom -5570.738170 kJ/mol
# Density = 2.333188 g / cm^3
# Si number density = 23.385105 Si / 1000 Ang^3
#
#
#
# Elastic Constant Matrix: (Units=GPa)
#
#
# Indices 1 2 3 4 5 6 
#
# 1 166.0659 30.4907 35.0586 24.1966 -14.4705 10.4884
# 2 30.4907 129.6835 31.3959 8.5306 -9.9967 21.1648
# 3 35.0586 31.3959 118.5686 22.7659 -26.1859 6.3558
# 4 24.1966 8.5306 22.7659 39.9328 -11.4638 -10.9922
# 5 -14.4705 -9.9967 -26.1859 -11.4638 44.2632 5.4766
# 6 10.4884 21.1648 6.3558 -10.9922 5.4766 40.2652
#
#
#
# Elastic Compliance Matrix: (Units=1/GPa)
#
#
# Indices 1 2 3 4 5 6 
#
# 1 0.007181 -0.000718 -0.000768 -0.004213 0.000968 -0.002654
# 2 -0.000718 0.009258 -0.001340 -0.001842 0.001222 -0.005137
# 3 -0.000768 -0.001340 0.011280 -0.005000 0.005189 -0.002947
# 4 -0.004213 -0.001842 -0.005000 0.034954 0.002815 0.012014
# 5 0.000968 0.001222 0.005189 0.002815 0.027564 -0.004694
# 6 -0.002654 -0.005137 -0.002947 0.012014 -0.004694 0.032610
#
#
# Mechanical properties :
#
#
# Convention : Reuss Voigt Hill
#
# Bulk Modulus (GPa) = 45.31684 67.57869 56.44776
# Shear Modulus (GPa) = 36.80352 46.05044 41.42698
#
# Velocity S-wave (km/s) = 3.97142 4.44240 4.21350
# Velocity P-wave (km/s) = 6.36004 7.43466 6.91825
#
# Compressibility (1/GPa) = 0.02206685
#
# Stress axis : x y z
#
# Youngs Moduli (GPa) = 139.24693 108.01456 88.65186
#
# Poissons Ratio (x) = 0.07751 0.06812
# Poissons Ratio (y) = 0.09992 0.11883
# Poissons Ratio (z) = 0.10700 0.14478
#
# Static dielectric constant tensor:
#      x y z
#    x 1.975400 -0.073320 0.041610 
#    y -0.073320 2.003010 0.004360 
#    z 0.041610 0.004360 1.942820 
# 
# From -- ./inp_files/539712.got.cif
#   From: 2010.05.17/outbox.cif.g08.bks.cpg/sg2_270_cif.got.tgz:539712.got - 2010.06.03 11:33:40.
