data_PCOD9040515
_publ_section_title
;
Structure prediction by ZEFSAII (Michael W. Deem and Ramdas Pophale) SiO2 
 PCOD9040515
Probable space group: P -1
;
_chemical_formula_sum "Si O2"
_cell_formula_units_Z 16
_cell_length_a 11.861082
_cell_length_b 8.998338
_cell_length_c 16.127850
_cell_angle_alpha 48.838878
_cell_angle_beta 46.722463
_cell_angle_gamma 84.755366
_cell_volume 711.757865
_symmetry_space_group_name_H-M "P -1"
_symmetry_group_IT_number 2
_symmetry_cell_setting 'triclinic'
loop_
_space_group_symop_operation_xyz
x,y,z
-x,-y,-z
loop_
_atom_site_type_symbol
_atom_site_label
_atom_site_fract_x
_atom_site_fract_y
_atom_site_fract_z
Si Si1 0.797524 0.464480 0.605880
Si Si2 0.693528 0.671398 0.279904
Si Si3 0.374832 0.997990 0.918509
Si Si4 0.048492 0.279561 0.143874
Si Si5 0.527195 0.179479 0.218363
Si Si6 0.021311 0.150844 0.774309
Si Si7 0.146414 0.131435 0.455547
Si Si8 0.670615 0.231447 0.388452
O O1 0.578146 0.179607 0.805472
O O2 0.800436 0.611216 0.629032
O O3 0.000000 0.500000 0.500000
O O4 0.821117 0.621060 0.454005
O O5 0.500000 0.500000 0.500000
O O6 0.663297 0.844367 0.179936
O O7 0.685778 0.477510 0.294702
O O8 0.882846 0.802637 0.200234
O O9 0.403931 0.841462 0.898304
O O10 0.166006 0.848650 0.130348
O O11 0.881441 0.314070 0.219321
O O12 0.036044 0.111507 0.137410
O O13 0.270408 0.564249 0.934450
O O14 0.975487 0.089057 0.330058
O O15 0.357379 0.206172 0.295086
O O16 0.408734 0.908834 0.429433
O O17 0.000000 0.000000 0.500000
O O18 0.500000 0.000000 0.500000
#
# Coordination Sequence:
#
# PCOD9040515 Si02
#       8
#     2   2   2   2   2   2   2   2
#     4  11  24  44  69  94 125 167 213 267 320 376
#     4  12  22  42  65  93 133 171 210 261 314 376
#     4  12  25  41  67  95 130 170 213 261 318 376
#     4  10  24  41  63  93 128 165 209 258 311 375
#     4  11  23  41  62  93 125 166 209 256 313 370
#     4  11  24  43  65  96 131 167 214 260 316 379
#     4  10  23  43  67  92 123 163 209 262 319 372
#     4  11  24  39  62  89 126 167 208 254 309 368
#
# _framework density 22.479555000000001
#
# number of rings (size 3 to 8) (size 9 to 14) (size 15 to 20)
#    0.000    1.000    2.500    3.375    5.250    4.500 
#    0.000    0.000    0.000    0.000    0.000    0.000 
#    0.000    0.000    0.000    0.000    0.000    0.000 
#
# Total GULP energy -89483.304479 kJ/mol
# GULP energy per Si atom -5592.706530 kJ/mol
# Density = 2.242839 g / cm^3
# Si number density = 22.479555 Si / 1000 Ang^3
#
#
#
# Elastic Constant Matrix: (Units=GPa)
#
#
# Indices 1 2 3 4 5 6 
#
# 1 77.6712 35.5322 23.8706 -1.2332 -32.8811 7.3537
# 2 35.5322 162.6569 31.6028 11.2469 -13.7180 3.5060
# 3 23.8706 31.6028 106.4736 13.9546 -31.5076 2.8323
# 4 -1.2332 11.2469 13.9546 33.1560 0.4091 -8.1505
# 5 -32.8811 -13.7180 -31.5076 0.4091 42.2734 2.0336
# 6 7.3537 3.5060 2.8323 -8.1505 2.0336 34.5919
#
#
#
# Elastic Compliance Matrix: (Units=1/GPa)
#
#
# Indices 1 2 3 4 5 6 
#
# 1 0.021791 -0.003456 0.001366 -0.000139 0.017109 -0.005432
# 2 -0.003456 0.007220 -0.001534 -0.001976 -0.001457 -0.000251
# 3 0.001366 -0.001534 0.013687 -0.006149 0.010987 -0.003350
# 4 -0.000139 -0.001976 -0.006149 0.035834 -0.006137 0.009537
# 5 0.017109 -0.001457 0.010987 -0.006137 0.045147 -0.008489
# 6 -0.005432 -0.000251 -0.003350 0.009537 -0.008489 0.033109
#
#
# Mechanical properties :
#
#
# Convention : Reuss Voigt Hill
#
# Bulk Modulus (GPa) = 28.20844 58.75700 43.48272
# Shear Modulus (GPa) = 28.43298 39.05734 33.74516
#
# Velocity S-wave (km/s) = 3.56031 4.17281 3.87867
# Velocity P-wave (km/s) = 5.42926 7.02931 6.28045
#
# Compressibility (1/GPa) = 0.03545039
#
# Stress axis : x y z
#
# Youngs Moduli (GPa) = 45.89073 138.50382 73.06098
#
# Poissons Ratio (x) = 0.47867 -0.09979
# Poissons Ratio (y) = 0.15860 0.11206
# Poissons Ratio (z) = -0.06268 0.21243
#
# Static dielectric constant tensor:
#      x y z
#    x 1.826310 -0.003490 0.080720 
#    y -0.003490 1.775770 0.024490 
#    z 0.080720 0.024490 1.843320 
# 
# From -- ./inp_files/252733.got.cif
#   From: 2010.05.17/outbox.cif.g08.bks.cpg/sg2_127_cif.got.tgz:252733.got - 2010.06.03 11:33:40.
