data_PCOD9040291
_publ_section_title
;
Structure prediction by ZEFSAII (Michael W. Deem and Ramdas Pophale) SiO2 
 PCOD9040291
Probable space group: P -1
;
_chemical_formula_sum "Si O2"
_cell_formula_units_Z 16
_cell_length_a 12.058920
_cell_length_b 9.354746
_cell_length_c 22.091459
_cell_angle_alpha 46.047200
_cell_angle_beta 25.079128
_cell_angle_gamma 43.830821
_cell_volume 724.475757
_symmetry_space_group_name_H-M "P -1"
_symmetry_group_IT_number 2
_symmetry_cell_setting 'triclinic'
loop_
_space_group_symop_operation_xyz
x,y,z
-x,-y,-z
loop_
_atom_site_type_symbol
_atom_site_label
_atom_site_fract_x
_atom_site_fract_y
_atom_site_fract_z
Si Si1 0.087244 0.788437 0.239577
Si Si2 0.203220 0.166070 0.112803
Si Si3 0.512254 0.724674 0.948273
Si Si4 0.232961 0.005772 0.463636
Si Si5 0.497197 0.195626 0.487887
Si Si6 0.606625 0.082887 0.723688
Si Si7 0.725166 0.472506 0.208425
Si Si8 0.289203 0.439962 0.336621
O O1 0.272675 0.611160 0.243369
O O2 0.831711 0.712374 0.370558
O O3 0.026949 0.002718 0.244811
O O4 0.235755 0.821126 0.095442
O O5 0.249934 0.271100 0.121653
O O6 0.049127 0.346950 0.088473
O O7 0.500000 0.000000 0.000000
O O8 0.539747 0.872750 0.836638
O O9 0.500000 0.500000 0.000000
O O10 0.369427 0.878056 0.492057
O O11 0.902323 0.065637 0.612237
O O12 0.343147 0.895103 0.378582
O O13 0.310599 0.218659 0.363180
O O14 0.608679 0.371249 0.352269
O O15 0.500000 0.000000 0.500000
O O16 0.370936 0.280688 0.807551
O O17 0.549854 0.423494 0.254561
O O18 0.000000 0.500000 0.500000
#
# Coordination Sequence:
#
# PCOD9040291 Si02
#       8
#     2   2   2   2   2   2   2   2
#     4  11  22  41  67  99 133 174 224 278 344 410
#     4  10  23  43  65  95 130 177 228 280 339 408
#     4  11  25  46  67  87 133 190 232 278 341 409
#     4  11  23  41  66 101 142 174 222 280 343 419
#     4  12  21  38  71 103 134 171 220 283 353 402
#     4  11  25  43  65  99 138 183 230 280 343 405
#     4  12  23  39  72 101 135 176 223 290 343 402
#     4  12  20  37  69 106 137 169 224 286 343 405
#
# _framework density 22.084935999999999
#
# number of rings (size 3 to 8) (size 9 to 14) (size 15 to 20)
#    0.000    0.750    5.000    2.250    0.000    2.500 
#    0.000   15.000    0.000    0.000    0.000    0.000 
#    0.000    0.000    0.000    0.000    0.000    0.000 
#
# Total GULP energy -89383.063318 kJ/mol
# GULP energy per Si atom -5586.441457 kJ/mol
# Density = 2.203467 g / cm^3
# Si number density = 22.084936 Si / 1000 Ang^3
#
#
#
# Elastic Constant Matrix: (Units=GPa)
#
#
# Indices 1 2 3 4 5 6 
#
# 1 140.4137 50.3116 26.6226 5.3962 -6.0842 -16.0412
# 2 50.3116 118.8860 17.5395 -15.0049 -11.2610 1.9908
# 3 26.6226 17.5395 62.9159 -3.0313 -4.9356 -9.4379
# 4 5.3962 -15.0049 -3.0313 34.4129 -6.5333 -3.3804
# 5 -6.0842 -11.2610 -4.9356 -6.5333 28.9149 -2.2321
# 6 -16.0412 1.9908 -9.4379 -3.3804 -2.2321 41.5607
#
#
#
# Elastic Compliance Matrix: (Units=1/GPa)
#
#
# Indices 1 2 3 4 5 6 
#
# 1 0.009571 -0.004195 -0.002643 -0.003384 -0.000605 0.002987
# 2 -0.004195 0.011625 -0.001028 0.006384 0.004786 -0.001633
# 3 -0.002643 -0.001028 0.018180 0.002479 0.002979 0.003519
# 4 -0.003384 0.006384 0.002479 0.034763 0.010232 0.002328
# 5 -0.000605 0.004786 0.002979 0.010232 0.039385 0.003161
# 6 0.002987 -0.001633 0.003519 0.002328 0.003161 0.026451
#
#
# Mechanical properties :
#
#
# Convention : Reuss Voigt Hill
#
# Bulk Modulus (GPa) = 42.29234 56.79587 49.54411
# Shear Modulus (GPa) = 30.56482 36.16050 33.36266
#
# Velocity S-wave (km/s) = 3.72421 4.05079 3.89093
# Velocity P-wave (km/s) = 6.13876 6.90300 6.53207
#
# Compressibility (1/GPa) = 0.02364494
#
# Stress axis : x y z
#
# Youngs Moduli (GPa) = 104.48117 86.02389 55.00536
#
# Poissons Ratio (x) = 0.36087 0.14537
# Poissons Ratio (y) = 0.43829 0.05652
# Poissons Ratio (z) = 0.27613 0.08840
#
# Static dielectric constant tensor:
#      x y z
#    x 1.809990 -0.021120 -0.037750 
#    y -0.021120 1.842850 0.073060 
#    z -0.037750 0.073060 1.961670 
# 
# From -- ./inp_files/594016.got.cif
#   From: 2010.05.17/outbox.cif.g08.bks.cpg/sg2_298_cif.got.tgz:594016.got - 2010.06.03 11:33:40.
