data_PCOD9040919
_publ_section_title
;
Structure prediction by ZEFSAII (Michael W. Deem and Ramdas Pophale) SiO2 
 PCOD9040919
Probable space group: P -1
;
_chemical_formula_sum "Si O2"
_cell_formula_units_Z 16
_cell_length_a 12.591211
_cell_length_b 8.752857
_cell_length_c 14.010795
_cell_angle_alpha 104.664623
_cell_angle_beta 47.759089
_cell_angle_gamma 66.024825
_cell_volume 656.149130
_symmetry_space_group_name_H-M "P -1"
_symmetry_group_IT_number 2
_symmetry_cell_setting 'triclinic'
loop_
_space_group_symop_operation_xyz
x,y,z
-x,-y,-z
loop_
_atom_site_type_symbol
_atom_site_label
_atom_site_fract_x
_atom_site_fract_y
_atom_site_fract_z
Si Si1 0.709459 0.388866 0.063543
Si Si2 0.904358 0.111210 0.707652
Si Si3 0.378407 0.435681 0.568219
Si Si4 0.272461 0.962005 0.357645
Si Si5 0.462617 0.080101 0.144522
Si Si6 0.342880 0.485648 0.382872
Si Si7 0.924995 0.679422 0.934570
Si Si8 0.187568 0.151619 0.759256
O O1 0.975087 0.210651 0.899508
O O2 0.522359 0.700437 0.218871
O O3 0.585411 0.372971 0.204572
O O4 0.735894 0.291067 0.927102
O O5 0.043279 0.146430 0.594942
O O6 0.117700 0.802337 0.560257
O O7 0.769963 0.145664 0.707398
O O8 0.500000 0.500000 0.500000
O O9 0.347195 0.408677 0.472950
O O10 0.113119 0.657102 0.807627
O O11 0.564721 0.154231 0.464028
O O12 0.306184 0.088242 0.296305
O O13 0.339700 0.357446 0.282419
O O14 0.723644 0.858016 0.003414
O O15 0.500000 0.000000 0.000000
O O16 0.092553 0.374709 0.784262
O O17 0.800329 0.793454 0.131525
#
# Coordination Sequence:
#
# PCOD9040919 Si02
#       8
#     2   2   2   2   2   2   2   2
#     4  11  22  43  72 100 134 182 229 280 354 404
#     4  10  23  43  69  97 140 179 228 289 333 420
#     4  12  26  43  71 107 139 179 227 286 349 406
#     4  10  23  44  66 101 133 182 235 278 343 411
#     4  12  26  47  72 100 143 185 224 288 349 404
#     4  11  26  42  66 106 140 174 233 284 341 417
#     4  11  26  48  69 100 140 184 230 282 345 407
#     4  11  24  46  72  97 136 184 228 288 334 416
#
# _framework density 24.384701
#
# number of rings (size 3 to 8) (size 9 to 14) (size 15 to 20)
#    0.000    1.000    2.500    3.000    5.250    5.500 
#    0.000    0.000    0.000    0.000    0.000    0.000 
#    0.000    0.000    0.000    0.000    0.000    0.000 
#
# Total GULP energy -89660.069839 kJ/mol
# GULP energy per Si atom -5603.754365 kJ/mol
# Density = 2.432920 g / cm^3
# Si number density = 24.384701 Si / 1000 Ang^3
#
#
#
# Elastic Constant Matrix: (Units=GPa)
#
#
# Indices 1 2 3 4 5 6 
#
# 1 75.7469 0.2007 16.2779 3.1522 -6.2402 -4.3503
# 2 0.2007 78.4283 26.4579 -2.7804 -7.4658 10.0847
# 3 16.2779 26.4579 75.1874 -4.3103 -25.4888 -0.1796
# 4 3.1522 -2.7804 -4.3103 33.1299 -4.8567 -4.7836
# 5 -6.2402 -7.4658 -25.4888 -4.8567 42.6811 -4.8092
# 6 -4.3503 10.0847 -0.1796 -4.7836 -4.8092 42.1847
#
#
#
# Elastic Compliance Matrix: (Units=1/GPa)
#
#
# Indices 1 2 3 4 5 6 
#
# 1 0.014069 0.000940 -0.003421 -0.001535 0.000122 0.001051
# 2 0.000940 0.015110 -0.005967 -0.000316 -0.001238 -0.003718
# 3 -0.003421 -0.005967 0.020282 0.004569 0.011424 0.002981
# 4 -0.001535 -0.000316 0.004569 0.032504 0.006641 0.004380
# 5 0.000122 -0.001238 0.011424 0.006641 0.031337 0.004683
# 6 0.001051 -0.003718 0.002981 0.004380 0.004683 0.025746
#
#
# Mechanical properties :
#
#
# Convention : Reuss Voigt Hill
#
# Bulk Modulus (GPa) = 30.70742 35.02619 32.86680
# Shear Modulus (GPa) = 29.97623 36.02756 33.00190
#
# Velocity S-wave (km/s) = 3.50995 3.84795 3.68283
# Velocity P-wave (km/s) = 5.38949 5.84273 5.62068
#
# Compressibility (1/GPa) = 0.03256542
#
# Stress axis : x y z
#
# Youngs Moduli (GPa) = 71.07921 66.18061 49.30376
#
# Poissons Ratio (x) = -0.06221 0.16865
# Poissons Ratio (y) = -0.06681 0.29421
# Poissons Ratio (z) = 0.24314 0.39492
#
# Static dielectric constant tensor:
#      x y z
#    x 1.942850 0.013350 0.001680 
#    y 0.013350 1.947100 -0.002780 
#    z 0.001680 -0.002780 1.905050 
# 
# From -- ./inp_files/515873.got.cif
#   From: 2010.05.17/outbox.cif.g08.bks.cpg/sg2_258_cif.got.tgz:515873.got - 2010.06.03 11:33:40.
