data_PCOD9040558
_publ_section_title
;
Structure prediction by ZEFSAII (Michael W. Deem and Ramdas Pophale) SiO2 
 PCOD9040558
Probable space group: P -1
;
_chemical_formula_sum "Si O2"
_cell_formula_units_Z 16
_cell_length_a 12.266415
_cell_length_b 15.752572
_cell_length_c 8.989485
_cell_angle_alpha 133.028208
_cell_angle_beta 33.456717
_cell_angle_gamma 120.305236
_cell_volume 690.967716
_symmetry_space_group_name_H-M "P -1"
_symmetry_group_IT_number 2
_symmetry_cell_setting 'triclinic'
loop_
_space_group_symop_operation_xyz
x,y,z
-x,-y,-z
loop_
_atom_site_type_symbol
_atom_site_label
_atom_site_fract_x
_atom_site_fract_y
_atom_site_fract_z
Si Si1 0.663441 0.982557 0.924640
Si Si2 0.998726 0.195120 0.177649
Si Si3 0.335891 0.107467 0.867705
Si Si4 0.588127 0.213661 0.495699
Si Si5 0.848137 0.437630 0.196549
Si Si6 0.970190 0.448016 0.631458
Si Si7 0.858989 0.784715 0.294031
Si Si8 0.436519 0.385594 0.621750
O O1 0.848036 0.909911 0.535841
O O2 0.650702 0.893372 0.971689
O O3 0.500000 0.000000 0.000000
O O4 0.639644 0.106627 0.187953
O O5 0.779842 0.194162 0.360708
O O6 0.976179 0.311041 0.443567
O O7 0.119475 0.097759 0.032956
O O8 0.119389 0.202426 0.893110
O O9 0.405724 0.209974 0.813223
O O10 0.500000 0.000000 0.500000
O O11 0.532075 0.331175 0.603763
O O12 0.628340 0.427318 0.377389
O O13 0.848751 0.517535 0.436997
O O14 0.000000 0.500000 0.000000
O O15 0.958829 0.307725 0.959770
O O16 0.000000 0.500000 0.500000
O O17 0.755325 0.514301 0.014050
O O18 0.663124 0.720866 0.464598
#
# Coordination Sequence:
#
# PCOD9040558 Si02
#       8
#     2   2   2   2   2   2   2   2
#     4  11  23  43  71 101 135 185 222 281 357 409
#     4  12  23  43  66 103 135 177 239 284 336 412
#     4  10  23  43  67  96 137 174 229 292 334 407
#     4  11  22  43  71 100 137 183 230 286 342 408
#     4  11  26  44  65  99 142 181 231 287 347 412
#     4  11  22  41  67  99 135 178 233 286 337 411
#     4  11  22  43  66  98 141 176 234 283 336 422
#     4  11  21  44  71  96 137 186 227 279 349 401
#
# _framework density 23.155930999999999
#
# number of rings (size 3 to 8) (size 9 to 14) (size 15 to 20)
#    0.000    1.000    6.250    0.750    1.750    7.500 
#    2.250    1.250    0.000    0.000    0.000    0.000 
#    0.000    0.000    0.000    0.000    0.000    0.000 
#
# Total GULP energy -89228.779843 kJ/mol
# GULP energy per Si atom -5576.798740 kJ/mol
# Density = 2.310323 g / cm^3
# Si number density = 23.155931 Si / 1000 Ang^3
#
#
#
# Elastic Constant Matrix: (Units=GPa)
#
#
# Indices 1 2 3 4 5 6 
#
# 1 140.4346 31.6001 43.3198 3.6212 -24.7955 -1.5058
# 2 31.6001 55.3155 23.0730 -12.5769 -4.1965 -2.0014
# 3 43.3198 23.0730 101.4320 18.8138 -6.3291 7.2886
# 4 3.6212 -12.5769 18.8138 40.0684 3.4792 -3.1371
# 5 -24.7955 -4.1965 -6.3291 3.4792 40.9934 1.1077
# 6 -1.5058 -2.0014 7.2886 -3.1371 1.1077 50.4275
#
#
#
# Elastic Compliance Matrix: (Units=1/GPa)
#
#
# Indices 1 2 3 4 5 6 
#
# 1 0.009912 -0.004504 -0.002621 -0.001512 0.005250 0.000287
# 2 -0.004504 0.026067 -0.006570 0.012070 -0.002166 0.002648
# 3 -0.002621 -0.006570 0.014385 -0.008883 0.000798 -0.002988
# 4 -0.001512 0.012070 -0.008883 0.033708 -0.004017 0.003903
# 5 0.005250 -0.002166 0.000798 -0.004017 0.027837 -0.000906
# 6 0.000287 0.002648 -0.002988 0.003903 -0.000906 0.020639
#
#
# Mechanical properties :
#
#
# Convention : Reuss Voigt Hill
#
# Bulk Modulus (GPa) = 43.52870 54.79643 49.16256
# Shear Modulus (GPa) = 29.83368 39.57715 34.70542
#
# Velocity S-wave (km/s) = 3.59330 4.13868 3.87560
# Velocity P-wave (km/s) = 6.00455 6.82303 6.42683
#
# Compressibility (1/GPa) = 0.02297335
#
# Stress axis : x y z
#
# Youngs Moduli (GPa) = 100.88931 38.36203 69.51752
#
# Poissons Ratio (x) = 0.17279 0.18221
# Poissons Ratio (y) = 0.45443 0.45674
# Poissons Ratio (z) = 0.26444 0.25204
#
# Static dielectric constant tensor:
#      x y z
#    x 1.899410 0.026550 -0.040150 
#    y 0.026550 2.026160 -0.037830 
#    z -0.040150 -0.037830 1.939970 
# 
# From -- ./inp_files/274223.got.cif
#   From: 2010.05.17/outbox.cif.g08.bks.cpg/sg2_138_cif.got.tgz:274223.got - 2010.06.03 11:33:40.
