data_PCOD9040258
_publ_section_title
;
Structure prediction by ZEFSAII (Michael W. Deem and Ramdas Pophale) SiO2 
 PCOD9040258
Probable space group: P -1
;
_chemical_formula_sum "Si O2"
_cell_formula_units_Z 16
_cell_length_a 11.285041
_cell_length_b 19.519861
_cell_length_c 19.800866
_cell_angle_alpha 20.089803
_cell_angle_beta 152.987002
_cell_angle_gamma 144.265522
_cell_volume 671.720873
_symmetry_space_group_name_H-M "P -1"
_symmetry_group_IT_number 2
_symmetry_cell_setting 'triclinic'
loop_
_space_group_symop_operation_xyz
x,y,z
-x,-y,-z
loop_
_atom_site_type_symbol
_atom_site_label
_atom_site_fract_x
_atom_site_fract_y
_atom_site_fract_z
Si Si1 0.574776 0.807261 0.326253
Si Si2 0.092080 0.124873 0.773750
Si Si3 0.410809 0.632157 0.961248
Si Si4 0.699963 0.967907 0.386190
Si Si5 0.502773 0.559613 0.296491
Si Si6 0.875409 0.116691 0.531622
Si Si7 0.906651 0.707177 0.853347
Si Si8 0.214555 0.632627 0.509232
O O1 0.598870 0.909363 0.317405
O O2 0.553241 0.575075 0.543485
O O3 0.835832 0.842075 0.386415
O O4 0.295924 0.920652 0.052505
O O5 0.285132 0.295157 0.714358
O O6 0.883822 0.147442 0.586586
O O7 0.936062 0.150682 0.742171
O O8 0.346316 0.733175 0.761752
O O9 0.436750 0.820755 0.848362
O O10 0.166143 0.510981 0.963820
O O11 0.651390 0.468301 0.260758
O O12 0.727327 0.799426 0.614446
O O13 0.000000 0.000000 0.500000
O O14 0.604488 0.409274 0.426113
O O15 0.217068 0.679777 0.019438
O O16 0.853838 0.884987 0.717153
O O17 0.000000 0.500000 0.500000
#
# Coordination Sequence:
#
# PCOD9040258 Si02
#       8
#     2   2   2   2   2   2   2   2
#     4  12  22  37  62  96 124 158 205 261 313 360
#     4  11  25  44  59  85 134 172 207 244 300 376
#     4  11  22  39  64  94 124 160 207 254 310 368
#     4  11  18  32  55  91 125 147 188 255 320 355
#     4  11  22  38  67  95 121 160 206 261 313 362
#     4  11  24  40  62  94 125 167 204 257 309 356
#     4  11  21  37  63 100 125 151 203 269 317 355
#     4  10  23  43  65  90 123 167 203 249 309 375
#
# _framework density 23.819417000000001
#
# number of rings (size 3 to 8) (size 9 to 14) (size 15 to 20)
#    0.000    1.000    5.000    3.375    0.000    4.000 
#    0.000    5.625    0.000    0.000    0.000    0.000 
#    0.000    0.000    0.000    0.000    0.000    0.000 
#
# Total GULP energy -89395.408358 kJ/mol
# GULP energy per Si atom -5587.213022 kJ/mol
# Density = 2.376520 g / cm^3
# Si number density = 23.819417 Si / 1000 Ang^3
#
#
#
# Elastic Constant Matrix: (Units=GPa)
#
#
# Indices 1 2 3 4 5 6 
#
# 1 40.3939 22.4178 10.0177 -7.4626 -3.0354 -26.8892
# 2 22.4178 47.5518 -36.6142 11.9076 -5.8405 9.4003
# 3 10.0177 -36.6142 16.7211 8.6349 -8.9634 23.1744
# 4 -7.4626 11.9076 8.6349 36.3524 4.1398 -13.6805
# 5 -3.0354 -5.8405 -8.9634 4.1398 24.6976 2.6233
# 6 -26.8892 9.4003 23.1744 -13.6805 2.6233 13.7910
#
#
#
# Elastic Compliance Matrix: (Units=1/GPa)
#
#
# Indices 1 2 3 4 5 6 
#
# 1 0.016157 0.006063 0.014276 -0.004085 0.009550 -0.002489
# 2 0.006063 0.010895 -0.003912 0.004511 -0.000505 0.015540
# 3 0.014276 -0.003912 0.011396 0.008810 0.001382 0.019829
# 4 -0.004085 0.004511 0.008810 0.021117 0.000758 -0.005040
# 5 0.009550 -0.000505 0.001382 0.000758 0.040898 0.009613
# 6 -0.002489 0.015540 0.019829 -0.005040 0.009613 0.016917
#
#
# Mechanical properties :
#
#
# Convention : Reuss Voigt Hill
#
# Bulk Modulus (GPa) = 14.02480 10.70104 12.36292
# Shear Modulus (GPa) = 46.17145 22.22457 34.19801
#
# Velocity S-wave (km/s) = 4.40750 3.05789 3.79320
# Velocity P-wave (km/s) = 5.63934 4.11946 4.93822
#
# Compressibility (1/GPa) = 0.07130226
#
# Stress axis : x y z
#
# Youngs Moduli (GPa) = 61.89409 91.78156 87.75328
#
# Poissons Ratio (x) = -0.55650 -1.25277
# Poissons Ratio (y) = -0.37529 0.34330
# Poissons Ratio (z) = -0.88360 0.35905
#
# Static dielectric constant tensor:
#      x y z
#    x 1.996010 0.030660 0.009070 
#    y 0.030660 1.938190 -0.022030 
#    z 0.009070 -0.022030 1.964830 
# 
# From -- ./inp_files/596229.got.cif
#   From: 2010.05.17/outbox.cif.g08.bks.cpg/sg2_299_cif.got.tgz:596229.got - 2010.06.03 11:33:40.
