data_PCOD9040531
_publ_section_title
;
Structure prediction by ZEFSAII (Michael W. Deem and Ramdas Pophale) SiO2 
 PCOD9040531
Probable space group: P -1
;
_chemical_formula_sum "Si O2"
_cell_formula_units_Z 16
_cell_length_a 18.808134
_cell_length_b 22.771961
_cell_length_c 9.756059
_cell_angle_alpha 43.310185
_cell_angle_beta 126.828248
_cell_angle_gamma 162.582398
_cell_volume 760.892422
_symmetry_space_group_name_H-M "P -1"
_symmetry_group_IT_number 2
_symmetry_cell_setting 'triclinic'
loop_
_space_group_symop_operation_xyz
x,y,z
-x,-y,-z
loop_
_atom_site_type_symbol
_atom_site_label
_atom_site_fract_x
_atom_site_fract_y
_atom_site_fract_z
Si Si1 0.280582 0.955952 0.219319
Si Si2 0.332911 0.250154 0.867507
Si Si3 0.624500 0.780641 0.727191
Si Si4 0.659887 0.992957 0.487488
Si Si5 0.818594 0.329633 0.447708
Si Si6 0.117674 0.524789 0.012750
Si Si7 0.848981 0.691978 0.199682
Si Si8 0.233652 0.356080 0.512704
O O1 0.319962 0.023221 0.306563
O O2 0.188566 0.774101 0.433992
O O3 0.039349 0.796778 0.162159
O O4 0.569474 0.212817 0.044100
O O5 0.332181 0.351582 0.681677
O O6 0.550092 0.411627 0.737436
O O7 0.404206 0.286167 0.041682
O O8 0.039837 0.948599 0.998749
O O9 0.433220 0.557690 0.779558
O O10 0.541554 0.805673 0.586070
O O11 0.947273 0.080779 0.575619
O O12 0.468733 0.900381 0.440405
O O13 0.933395 0.276654 0.258266
O O14 0.896545 0.461256 0.187604
O O15 0.000000 0.500000 0.500000
O O16 0.000000 0.500000 0.000000
O O17 0.793615 0.617370 0.421599
#
# Coordination Sequence:
#
# PCOD9040531 Si02
#       8
#     2   2   2   2   2   2   2   2
#     4  11  21  39  62  86 122 162 210 255 307 368
#     4  10  23  44  67  93 127 166 202 253 317 376
#     4  11  23  40  66  94 129 165 207 260 309 370
#     4  11  21  40  61  86 121 164 208 251 309 367
#     4  11  23  38  58  88 125 155 205 262 305 362
#     4  11  21  39  64  83 112 170 211 249 311 366
#     4  11  23  40  65  95 126 166 207 259 311 369
#     4  10  23  43  67  94 127 163 205 254 312 382
#
# _framework density 21.027940000000001
#
# number of rings (size 3 to 8) (size 9 to 14) (size 15 to 20)
#    0.000    1.250    5.000    3.000    1.750    3.500 
#    0.000    3.750    0.000    0.000    0.000    0.000 
#    0.000    0.000    0.000    0.000    0.000    0.000 
#
# Total GULP energy -89285.620873 kJ/mol
# GULP energy per Si atom -5580.351305 kJ/mol
# Density = 2.098008 g / cm^3
# Si number density = 21.027940 Si / 1000 Ang^3
#
#
#
# Elastic Constant Matrix: (Units=GPa)
#
#
# Indices 1 2 3 4 5 6 
#
# 1 62.8796 14.5659 10.4317 1.5954 -12.9033 12.1734
# 2 14.5659 122.1614 30.0894 -7.0275 -23.7829 -14.4771
# 3 10.4317 30.0894 85.9079 -19.4213 -19.5568 -2.6621
# 4 1.5954 -7.0275 -19.4213 17.9166 13.5511 2.1812
# 5 -12.9033 -23.7829 -19.5568 13.5511 36.7910 -3.7972
# 6 12.1734 -14.4771 -2.6621 2.1812 -3.7972 25.1788
#
#
#
# Elastic Compliance Matrix: (Units=1/GPa)
#
#
# Indices 1 2 3 4 5 6 
#
# 1 0.020311 -0.002099 -0.002605 -0.009544 0.006924 -0.009431
# 2 -0.002099 0.011495 -0.002932 -0.005789 0.008203 0.009053
# 3 -0.002605 -0.002932 0.016894 0.017706 -0.000374 -0.000231
# 4 -0.009544 -0.005789 0.017706 0.102688 -0.036663 -0.011267
# 5 0.006924 0.008203 -0.000374 -0.036663 0.049451 0.011963
# 6 -0.009431 0.009053 -0.000231 -0.011267 0.011963 0.052236
#
#
# Mechanical properties :
#
#
# Convention : Reuss Voigt Hill
#
# Bulk Modulus (GPa) = 29.91502 42.34700 36.13101
# Shear Modulus (GPa) = 17.88977 30.36809 24.12893
#
# Velocity S-wave (km/s) = 2.91995 3.80436 3.39111
# Velocity P-wave (km/s) = 5.06215 6.28328 5.70548
#
# Compressibility (1/GPa) = 0.03342802
#
# Stress axis : x y z
#
# Youngs Moduli (GPa) = 49.23552 86.99392 59.19207
#
# Poissons Ratio (x) = 0.18258 0.15419
# Poissons Ratio (y) = 0.10334 0.17356
# Poissons Ratio (z) = 0.12825 0.25508
#
# Static dielectric constant tensor:
#      x y z
#    x 1.827400 0.029620 0.009190 
#    y 0.029620 1.812690 -0.008130 
#    z 0.009190 -0.008130 1.743660 
# 
# From -- ./inp_files/337621.got.cif
#   From: 2010.05.17/outbox.cif.g08.bks.cpg/sg2_169_cif.got.tgz:337621.got - 2010.06.03 11:33:40.
