data_PCOD9040507
_publ_section_title
;
Structure prediction by ZEFSAII (Michael W. Deem and Ramdas Pophale) SiO2 
 PCOD9040507
Probable space group: P -1
;
_chemical_formula_sum "Si O2"
_cell_formula_units_Z 16
_cell_length_a 17.685673
_cell_length_b 15.297499
_cell_length_c 8.903358
_cell_angle_alpha 147.629910
_cell_angle_beta 139.971811
_cell_angle_gamma 42.735573
_cell_volume 802.053212
_symmetry_space_group_name_H-M "P -1"
_symmetry_group_IT_number 2
_symmetry_cell_setting 'triclinic'
loop_
_space_group_symop_operation_xyz
x,y,z
-x,-y,-z
loop_
_atom_site_type_symbol
_atom_site_label
_atom_site_fract_x
_atom_site_fract_y
_atom_site_fract_z
Si Si1 0.714210 0.829339 0.726379
Si Si2 0.847410 0.409292 0.719995
Si Si3 0.074817 0.481929 0.321851
Si Si4 0.893951 0.022904 0.254280
Si Si5 0.577496 0.605707 0.682731
Si Si6 0.953509 0.847384 0.779334
Si Si7 0.324596 0.109908 0.592223
Si Si8 0.501214 0.148811 0.337186
O O1 0.820628 0.655690 0.634820
O O2 0.665881 0.880298 0.559106
O O3 0.613401 0.818577 0.678143
O O4 0.779145 0.974808 0.084299
O O5 0.874429 0.499660 0.740966
O O6 0.862602 0.212979 0.424251
O O7 0.711150 0.490578 0.682251
O O8 0.949893 0.425848 0.021437
O O9 0.040474 0.664624 0.612452
O O10 0.000000 0.000000 0.500000
O O11 0.937080 0.894958 0.997681
O O12 0.500000 0.500000 0.500000
O O13 0.509693 0.687850 0.546300
O O14 0.605469 0.758505 0.044054
O O15 0.817971 0.844042 0.514308
O O16 0.000000 0.000000 0.000000
O O17 0.384360 0.927859 0.492553
O O18 0.500000 0.000000 0.000000
#
# Coordination Sequence:
#
# PCOD9040507 Si02
#       8
#     2   2   2   2   2   2   2   2
#     4  11  23  43  68  96 134 178 225 278 344 399
#     4  11  22  40  67  98 140 174 224 288 338 404
#     4  11  22  41  71  98 137 181 219 282 347 408
#     4  11  24  38  62 100 131 172 222 275 337 410
#     4  11  24  45  67  99 130 181 230 280 332 407
#     4  11  23  43  66  97 138 174 224 276 344 401
#     4  10  24  44  65  97 135 179 225 280 334 401
#     4  10  23  43  67  90 126 178 225 274 331 393
#
# _framework density 19.948801
#
# number of rings (size 3 to 8) (size 9 to 14) (size 15 to 20)
#    0.000    1.250    5.000    0.375    3.500    5.000 
#    2.250    0.625    0.000    0.000    0.000    0.000 
#    0.000    0.000    0.000    0.000    0.000    0.000 
#
# Total GULP energy -89351.616823 kJ/mol
# GULP energy per Si atom -5584.476051 kJ/mol
# Density = 1.990340 g / cm^3
# Si number density = 19.948801 Si / 1000 Ang^3
#
#
#
# Elastic Constant Matrix: (Units=GPa)
#
#
# Indices 1 2 3 4 5 6 
#
# 1 113.4845 61.2237 25.0319 3.0309 16.5817 5.5412
# 2 61.2237 141.5873 31.7655 -12.5816 -3.1629 7.2007
# 3 25.0319 31.7655 72.6158 1.7357 6.3946 0.7076
# 4 3.0309 -12.5816 1.7357 22.2515 -0.1001 -4.1151
# 5 16.5817 -3.1629 6.3946 -0.1001 31.6705 5.8892
# 6 5.5412 7.2007 0.7076 -4.1151 5.8892 33.6364
#
#
#
# Elastic Compliance Matrix: (Units=1/GPa)
#
#
# Indices 1 2 3 4 5 6 
#
# 1 0.013740 -0.006318 -0.001175 -0.005428 -0.007563 -0.000226
# 2 -0.006318 0.011415 -0.003456 0.007353 0.005425 -0.001380
# 3 -0.001175 -0.003456 0.016025 -0.002912 -0.003121 0.000786
# 4 -0.005428 0.007353 -0.002912 0.051010 0.003391 0.005028
# 5 -0.007563 0.005425 -0.003121 0.003391 0.037844 -0.006061
# 6 -0.000226 -0.001380 0.000786 0.005028 -0.006061 0.031722
#
#
# Mechanical properties :
#
#
# Convention : Reuss Voigt Hill
#
# Bulk Modulus (GPa) = 51.85863 62.63663 57.24763
# Shear Modulus (GPa) = 26.30464 31.48946 28.89705
#
# Velocity S-wave (km/s) = 3.63520 3.97736 3.81013
# Velocity P-wave (km/s) = 6.60847 7.24979 6.93654
#
# Compressibility (1/GPa) = 0.01928320
#
# Stress axis : x y z
#
# Youngs Moduli (GPa) = 72.77876 87.60661 62.40424
#
# Poissons Ratio (x) = 0.55346 0.07332
# Poissons Ratio (y) = 0.45979 0.21564
# Poissons Ratio (z) = 0.08551 0.30273
#
# Static dielectric constant tensor:
#      x y z
#    x 1.713270 0.000700 0.004030 
#    y 0.000700 1.722060 -0.001600 
#    z 0.004030 -0.001600 1.704110 
# 
# From -- ./inp_files/217921.got.cif
#   From: 2010.05.17/outbox.cif.g08.bks.cpg/sg2_109_cif.got.tgz:217921.got - 2010.06.03 11:33:40.
