data_PCOD9040874
_publ_section_title
;
Structure prediction by ZEFSAII (Michael W. Deem and Ramdas Pophale) SiO2 
 PCOD9040874
Probable space group: P -1
;
_chemical_formula_sum "Si O2"
_cell_formula_units_Z 13
_cell_length_a 8.009145
_cell_length_b 6.311483
_cell_length_c 15.379329
_cell_angle_alpha 77.379478
_cell_angle_beta 55.099057
_cell_angle_gamma 63.183617
_cell_volume 568.190638
_symmetry_space_group_name_H-M "P -1"
_symmetry_group_IT_number 2
_symmetry_cell_setting 'triclinic'
loop_
_space_group_symop_operation_xyz
x,y,z
-x,-y,-z
loop_
_atom_site_type_symbol
_atom_site_label
_atom_site_fract_x
_atom_site_fract_y
_atom_site_fract_z
Si Si1 0.683651 0.856233 0.222181
Si Si2 0.671304 0.301000 0.730883
Si Si3 0.291274 0.941348 0.093947
Si Si4 0.463656 0.758955 0.627592
Si Si5 0.061852 0.636519 0.728232
Si Si6 0.080743 0.358922 0.577449
Si Si7 0.000000 0.000000 0.000000
O O1 0.451917 0.849320 0.262362
O O2 0.854165 0.584089 0.209640
O O3 0.648475 0.994257 0.310558
O O4 0.786446 0.972334 0.111279
O O5 0.631443 0.293497 0.846773
O O6 0.565145 0.557602 0.691872
O O7 0.935732 0.204207 0.644135
O O8 0.136265 0.939246 0.060112
O O9 0.135665 0.150207 0.186078
O O10 0.500000 0.000000 0.000000
O O11 0.275477 0.697029 0.643942
O O12 0.655580 0.753742 0.505890
O O13 0.009367 0.538114 0.663566
O O14 0.000000 0.500000 0.500000
#
# Coordination Sequence:
#
# PCOD9040874 Si02
#       7
#     2   2   2   2   2   2   1
#     4  11  24  45  72 102 144 188 236 293 352 419
#     4  10  24  44  67 107 141 182 236 292 347 415
#     4  12  26  46  75 104 137 187 238 293 360 418
#     4  10  23  46  73 100 144 188 236 286 352 426
#     4  11  25  46  70 103 145 179 240 293 349 426
#     4  10  23  43  69 105 141 187 232 290 350 417
#     4  12  24  46  72 102 138 186 240 294 358 410
#
# _framework density 22.879646999999999
#
# number of rings (size 3 to 8) (size 9 to 14) (size 15 to 20)
#    0.000    1.231    3.077    1.385    4.308    3.077 
#    5.538    2.308    0.000    0.000    0.000    0.000 
#    0.000    0.000    0.000    0.000    0.000    0.000 
#
# Total GULP energy -72443.660750 kJ/mol
# GULP energy per Si atom -5572.589288 kJ/mol
# Density = 2.282757 g / cm^3
# Si number density = 22.879647 Si / 1000 Ang^3
#
#
#
# Elastic Constant Matrix: (Units=GPa)
#
#
# Indices 1 2 3 4 5 6 
#
# 1 108.2062 21.6171 44.8939 -8.0746 -4.2348 20.2559
# 2 21.6171 57.7353 31.1593 -5.1363 -8.2520 -7.7740
# 3 44.8939 31.1593 132.1628 -33.5095 -29.0428 13.1810
# 4 -8.0746 -5.1363 -33.5095 27.6577 -0.4901 -4.1950
# 5 -4.2348 -8.2520 -29.0428 -0.4901 58.4552 -16.5873
# 6 20.2559 -7.7740 13.1810 -4.1950 -16.5873 32.0626
#
#
#
# Elastic Compliance Matrix: (Units=1/GPa)
#
#
# Indices 1 2 3 4 5 6 
#
# 1 0.013828 -0.005424 -0.004528 -0.004294 -0.005313 -0.011500
# 2 -0.005424 0.024064 -0.004118 0.000016 0.004767 0.013422
# 3 -0.004528 -0.004118 0.016133 0.017830 0.007693 0.001543
# 4 -0.004294 0.000016 0.017830 0.058075 0.011584 0.008979
# 5 -0.005313 0.004767 0.007693 0.011584 0.025935 0.016282
# 6 -0.011500 0.013422 0.001543 0.008979 0.016282 0.050673
#
#
# Mechanical properties :
#
#
# Convention : Reuss Voigt Hill
#
# Bulk Modulus (GPa) = 38.63159 54.82721 46.72940
# Shear Modulus (GPa) = 22.17544 36.99736 29.58640
#
# Velocity S-wave (km/s) = 3.11661 4.02561 3.59992
# Velocity P-wave (km/s) = 5.46556 6.75446 6.14390
#
# Compressibility (1/GPa) = 0.02588555
#
# Stress axis : x y z
#
# Youngs Moduli (GPa) = 72.31642 41.55650 61.98561
#
# Poissons Ratio (x) = 0.22539 0.28067
# Poissons Ratio (y) = 0.39222 0.25525
# Poissons Ratio (z) = 0.32744 0.17113
#
# Static dielectric constant tensor:
#      x y z
#    x 1.878560 -0.050130 -0.009120 
#    y -0.050130 1.886400 -0.027170 
#    z -0.009120 -0.027170 1.789780 
# 
# From -- ./inp_files/86723.got.cif
#   From: 2010.05.17/outbox.cif.g08.bks.cpg/sg2_44_cif.got.tgz:86723.got - 2010.06.03 11:33:40.
