data_PCOD9040403
_publ_section_title
;
Structure prediction by ZEFSAII (Michael W. Deem and Ramdas Pophale) SiO2 
 PCOD9040403
Probable space group: P -1
;
_chemical_formula_sum "Si O2"
_cell_formula_units_Z 16
_cell_length_a 11.830294
_cell_length_b 14.991217
_cell_length_c 5.062533
_cell_angle_alpha 99.184000
_cell_angle_beta 95.609543
_cell_angle_gamma 133.547436
_cell_volume 614.753784
_symmetry_space_group_name_H-M "P -1"
_symmetry_group_IT_number 2
_symmetry_cell_setting 'triclinic'
loop_
_space_group_symop_operation_xyz
x,y,z
-x,-y,-z
loop_
_atom_site_type_symbol
_atom_site_label
_atom_site_fract_x
_atom_site_fract_y
_atom_site_fract_z
Si Si1 0.971917 0.366953 0.616353
Si Si2 0.616487 0.412614 0.573966
Si Si3 0.417604 0.084589 0.932947
Si Si4 0.112938 0.146291 0.176316
Si Si5 0.394292 0.880959 0.615182
Si Si6 0.721206 0.365402 0.060685
Si Si7 0.702920 0.796670 0.250341
Si Si8 0.081701 0.321946 0.125716
O O1 0.090609 0.520632 0.760560
O O2 0.003925 0.345625 0.326414
O O3 0.778593 0.261549 0.552150
O O4 0.038233 0.330757 0.827726
O O5 0.631333 0.380343 0.265965
O O6 0.449594 0.320459 0.656860
O O7 0.724933 0.564537 0.699902
O O8 0.715899 0.403883 0.788600
O O9 0.468144 0.115164 0.267878
O O10 0.608780 0.212295 0.952397
O O11 0.319819 0.109822 0.788003
O O12 0.352682 0.945776 0.822592
O O13 0.155365 0.152658 0.493619
O O14 0.023924 0.189032 0.116809
O O15 0.263376 0.228319 0.039040
O O16 0.000000 0.000000 0.000000
O O17 0.500000 0.000000 0.500000
#
# Coordination Sequence:
#
# PCOD9040403 Si02
#       8
#     2   2   2   2   2   2   2   2
#     4  10  23  43  70  93 134 177 211 266 340 366
#     4   9  19  39  66  95 123 165 222 258 330 373
#     4  10  25  43  66  95 133 164 219 276 318 391
#     4  12  27  40  62 100 130 173 226 248 320 393
#     4  11  27  42  66 101 127 175 223 262 329 399
#     4   9  19  40  66  96 125 171 215 266 322 390
#     4  11  24  42  67  92 127 175 208 273 324 371
#     4  10  23  43  66  95 134 169 212 278 307 394
#
# _framework density 26.026679000000001
#
# number of rings (size 3 to 8) (size 9 to 14) (size 15 to 20)
#    0.000    1.750    0.000    2.625   12.250    1.500 
#    0.000    0.625    0.000    0.000    0.000    0.000 
#    0.000    0.000    0.000    0.000    0.000    0.000 
#
# Total GULP energy -89237.503804 kJ/mol
# GULP energy per Si atom -5577.343988 kJ/mol
# Density = 2.596744 g / cm^3
# Si number density = 26.026679 Si / 1000 Ang^3
#
#
#
# Elastic Constant Matrix: (Units=GPa)
#
#
# Indices 1 2 3 4 5 6 
#
# 1 77.3932 23.9837 23.7515 -6.8437 -9.1511 -10.6678
# 2 23.9837 111.9135 32.1950 8.1873 -10.2997 -12.2434
# 3 23.7515 32.1950 64.9021 -17.2379 1.4387 -3.7397
# 4 -6.8437 8.1873 -17.2379 57.3631 0.3253 -1.9922
# 5 -9.1511 -10.2997 1.4387 0.3253 38.0736 -9.6927
# 6 -10.6678 -12.2434 -3.7397 -1.9922 -9.6927 53.0120
#
#
#
# Elastic Compliance Matrix: (Units=1/GPa)
#
#
# Indices 1 2 3 4 5 6 
#
# 1 0.015883 -0.001251 -0.004912 0.000690 0.004528 0.003415
# 2 -0.001251 0.011958 -0.006394 -0.003708 0.003877 0.002629
# 3 -0.004912 -0.006394 0.022245 0.006986 -0.004166 -0.001395
# 4 0.000690 -0.003708 0.006986 0.020161 -0.001193 0.000315
# 5 0.004528 0.003877 -0.004166 -0.001193 0.030356 0.007018
# 6 0.003415 0.002629 -0.001395 0.000315 0.007018 0.021355
#
#
# Mechanical properties :
#
#
# Convention : Reuss Voigt Hill
#
# Bulk Modulus (GPa) = 40.04387 46.00769 43.02578
# Shear Modulus (GPa) = 32.17564 41.30832 36.74198
#
# Velocity S-wave (km/s) = 3.51986 3.98823 3.76134
# Velocity P-wave (km/s) = 5.65140 6.23887 5.95239
#
# Compressibility (1/GPa) = 0.02497261
#
# Stress axis : x y z
#
# Youngs Moduli (GPa) = 62.95871 83.62269 44.95461
#
# Poissons Ratio (x) = 0.10460 0.22084
# Poissons Ratio (y) = 0.07875 0.28742
# Poissons Ratio (z) = 0.30928 0.53465
#
# Static dielectric constant tensor:
#      x y z
#    x 2.324560 -0.071040 -0.014510 
#    y -0.071040 2.275950 -0.020080 
#    z -0.014510 -0.020080 2.208310 
# 
# From -- ./inp_files/78194.got.cif
#   From: 2010.05.17/outbox.cif.g08.bks.cpg/sg2_40_cif.got.tgz:78194.got - 2010.06.03 11:33:40.
