data_PCOD9040413
_publ_section_title
;
Structure prediction by ZEFSAII (Michael W. Deem and Ramdas Pophale) SiO2 
 PCOD9040413
Probable space group: P -1
;
_chemical_formula_sum "Si O2"
_cell_formula_units_Z 14
_cell_length_a 9.022884
_cell_length_b 12.728602
_cell_length_c 13.203485
_cell_angle_alpha 31.585102
_cell_angle_beta 96.915243
_cell_angle_gamma 75.759276
_cell_volume 585.059015
_symmetry_space_group_name_H-M "P -1"
_symmetry_group_IT_number 2
_symmetry_cell_setting 'triclinic'
loop_
_space_group_symop_operation_xyz
x,y,z
-x,-y,-z
loop_
_atom_site_type_symbol
_atom_site_label
_atom_site_fract_x
_atom_site_fract_y
_atom_site_fract_z
Si Si1 0.369250 0.009178 0.398362
Si Si2 0.523167 0.332686 0.833322
Si Si3 0.955584 0.270959 0.238701
Si Si4 0.188935 0.257504 0.649263
Si Si5 0.404152 0.548236 0.060336
Si Si6 0.443054 0.848344 0.320522
Si Si7 0.862623 0.559180 0.210385
O O1 0.455090 0.970275 0.326195
O O2 0.500000 0.000000 0.500000
O O3 0.422030 0.729411 0.642040
O O4 0.143122 0.211557 0.251331
O O5 0.478825 0.580720 0.567077
O O6 0.312937 0.409331 0.773724
O O7 0.626275 0.262396 0.012047
O O8 0.695677 0.032711 0.048969
O O9 0.793339 0.393414 0.034993
O O10 0.883521 0.453603 0.183721
O O11 0.000000 0.000000 0.500000
O O12 0.374153 0.244832 0.658035
O O13 0.000000 0.500000 0.500000
O O14 0.074547 0.337929 0.465364
O O15 0.500000 0.500000 0.000000
O O16 0.219995 0.135482 0.039520
#
# Coordination Sequence:
#
# PCOD9040413 Si02
#       7
#     2   2   2   2   2   2   2
#     4  11  23  35  55  91 132 170 214 258 305 373
#     4  10  23  43  66  96 135 170 210 268 322 387
#     4  12  21  34  62  92 127 180 214 245 315 385
#     4  11  26  46  70  94 122 167 222 279 336 385
#     4  11  20  36  59  90 132 172 209 249 305 381
#     4  10  24  43  62  95 133 164 212 275 324 383
#     4  11  23  41  67  93 131 171 219 264 323 390
#
# _framework density 23.929210999999999
#
# number of rings (size 3 to 8) (size 9 to 14) (size 15 to 20)
#    0.000    1.143    2.857    3.429    2.000    8.571 
#    0.000    1.429    0.000    0.000    0.000    0.000 
#    0.000    0.000    0.000    0.000    0.000    0.000 
#
# Total GULP energy -78015.855356 kJ/mol
# GULP energy per Si atom -5572.561097 kJ/mol
# Density = 2.387475 g / cm^3
# Si number density = 23.929211 Si / 1000 Ang^3
#
#
#
# Elastic Constant Matrix: (Units=GPa)
#
#
# Indices 1 2 3 4 5 6 
#
# 1 99.8070 7.9841 43.8604 -14.8480 10.3577 -17.8916
# 2 7.9841 81.8252 14.0583 -14.9477 -4.0865 -21.3251
# 3 43.8604 14.0583 183.8214 -41.4241 -13.3114 -7.5573
# 4 -14.8480 -14.9477 -41.4241 36.5390 1.4080 17.4710
# 5 10.3577 -4.0865 -13.3114 1.4080 48.7175 1.0234
# 6 -17.8916 -21.3251 -7.5573 17.4710 1.0234 26.9367
#
#
#
# Elastic Compliance Matrix: (Units=1/GPa)
#
#
# Indices 1 2 3 4 5 6 
#
# 1 0.013635 0.001532 -0.004064 -0.003947 -0.004015 0.011842
# 2 0.001532 0.015695 -0.001155 -0.000793 0.000412 0.013618
# 3 -0.004064 -0.001155 0.009189 0.012647 0.003109 -0.009357
# 4 -0.003947 -0.000793 0.012647 0.057353 0.003349 -0.037028
# 5 -0.004015 0.000412 0.003109 0.003349 0.022262 -0.004486
# 6 0.011842 0.013618 -0.009357 -0.037028 -0.004486 0.077332
#
#
# Mechanical properties :
#
#
# Convention : Reuss Voigt Hill
#
# Bulk Modulus (GPa) = 32.10762 55.25101 43.67931
# Shear Modulus (GPa) = 23.44989 42.40869 32.92929
#
# Velocity S-wave (km/s) = 3.13384 4.21438 3.71362
# Velocity P-wave (km/s) = 5.15184 6.84258 6.05650
#
# Compressibility (1/GPa) = 0.03114526
#
# Stress axis : x y z
#
# Youngs Moduli (GPa) = 73.34044 63.71531 108.83056
#
# Poissons Ratio (x) = -0.09764 0.44229
# Poissons Ratio (y) = -0.11239 0.12571
# Poissons Ratio (z) = 0.29806 0.07360
#
# Static dielectric constant tensor:
#      x y z
#    x 2.236550 1.882250 -0.451140 
#    y 1.882250 9.787610 -1.547630 
#    z -0.451140 -1.547630 2.424610 
# 
# From -- ./inp_files/504995.got.cif
#   From: 2010.05.17/outbox.cif.g08.bks.cpg/sg2_253_cif.got.tgz:504995.got - 2010.06.03 11:33:40.
