data_PCOD9040113
_publ_section_title
;
Structure prediction by ZEFSAII (Michael W. Deem and Ramdas Pophale) SiO2 
 PCOD9040113
Probable space group: P -1
;
_chemical_formula_sum "Si O2"
_cell_formula_units_Z 16
_cell_length_a 20.056845
_cell_length_b 5.269790
_cell_length_c 6.630391
_cell_angle_alpha 71.250918
_cell_angle_beta 96.116813
_cell_angle_gamma 111.873348
_cell_volume 615.770546
_symmetry_space_group_name_H-M "P -1"
_symmetry_group_IT_number 2
_symmetry_cell_setting 'triclinic'
loop_
_space_group_symop_operation_xyz
x,y,z
-x,-y,-z
loop_
_atom_site_type_symbol
_atom_site_label
_atom_site_fract_x
_atom_site_fract_y
_atom_site_fract_z
Si Si1 0.785238 0.706477 0.545316
Si Si2 0.660624 0.377055 0.280169
Si Si3 0.508860 0.700041 0.142257
Si Si4 0.291307 0.210207 0.139231
Si Si5 0.781482 0.197988 0.146506
Si Si6 0.067409 0.614786 0.848088
Si Si7 0.067677 0.208201 0.600383
Si Si8 0.403202 0.194814 0.493475
O O1 0.712557 0.544377 0.434793
O O2 0.761072 0.676633 0.776201
O O3 0.856614 0.639016 0.533513
O O4 0.801986 0.026769 0.383216
O O5 0.715913 0.260366 0.207551
O O6 0.591584 0.124924 0.413452
O O7 0.650616 0.559661 0.041767
O O8 0.450992 0.494652 0.332330
O O9 0.583139 0.748985 0.277324
O O10 0.500000 0.500000 0.000000
O O11 0.500000 0.000000 0.000000
O O12 0.332574 0.111030 0.352634
O O13 0.246411 0.981677 0.019824
O O14 0.858899 0.431274 0.061794
O O15 0.049697 0.436514 0.676544
O O16 0.083839 0.956679 0.789755
O O17 0.000000 0.500000 0.000000
O O18 0.000000 0.000000 0.500000
#
# Coordination Sequence:
#
# PCOD9040113 Si02
#       8
#     2   2   2   2   2   2   2   2
#     4  10  23  43  66  97 146 183 246 310 379 434
#     4  11  23  43  67 102 144 187 240 310 371 440
#     4  11  28  53  79 112 155 201 243 293 361 439
#     4  11  25  40  70 105 138 196 240 307 380 439
#     4  10  23  43  62  99 143 182 244 306 372 444
#     4  11  24  44  68  96 141 188 243 309 374 440
#     4  11  24  43  67  98 135 187 248 306 372 446
#     4  11  26  46  77 111 148 190 251 300 357 441
#
# _framework density 25.983702999999998
#
# number of rings (size 3 to 8) (size 9 to 14) (size 15 to 20)
#    0.000    1.250    2.500    1.500    5.250    5.000 
#    0.000    0.000    0.000    0.000    0.000    0.000 
#    0.000    0.000    0.000    0.000    0.000    0.000 
#
# Total GULP energy -89132.644837 kJ/mol
# GULP energy per Si atom -5570.790302 kJ/mol
# Density = 2.592456 g / cm^3
# Si number density = 25.983703 Si / 1000 Ang^3
#
#
#
# Elastic Constant Matrix: (Units=GPa)
#
#
# Indices 1 2 3 4 5 6 
#
# 1 73.9601 14.6707 59.4129 5.7591 7.0169 4.1230
# 2 14.6707 107.8625 63.9187 10.8058 -1.3379 -10.4478
# 3 59.4129 63.9187 159.7905 15.0336 1.1896 -15.0615
# 4 5.7591 10.8058 15.0336 52.3577 4.9204 -8.9466
# 5 7.0169 -1.3379 1.1896 4.9204 50.3719 11.3191
# 6 4.1230 -10.4478 -15.0615 -8.9466 11.3191 34.3799
#
#
#
# Elastic Compliance Matrix: (Units=1/GPa)
#
#
# Indices 1 2 3 4 5 6 
#
# 1 0.020861 0.002030 -0.009001 -0.000977 -0.001271 -0.005664
# 2 0.002030 0.012483 -0.005573 -0.001074 0.000107 0.000794
# 3 -0.009001 -0.005573 0.012333 -0.000581 -0.000184 0.004698
# 4 -0.000977 -0.001074 -0.000581 0.020941 -0.003288 0.006068
# 5 -0.001271 0.000107 -0.000184 -0.003288 0.022167 -0.008050
# 6 -0.005664 0.000794 0.004698 0.006068 -0.008050 0.036295
#
#
# Mechanical properties :
#
#
# Convention : Reuss Voigt Hill
#
# Bulk Modulus (GPa) = 48.56880 68.62420 58.59650
# Shear Modulus (GPa) = 31.84053 40.99596 36.41824
#
# Velocity S-wave (km/s) = 3.50437 3.97641 3.74783
# Velocity P-wave (km/s) = 5.92510 6.89567 6.42873
#
# Compressibility (1/GPa) = 0.02058935
#
# Stress axis : x y z
#
# Youngs Moduli (GPa) = 47.93571 80.10586 81.08148
#
# Poissons Ratio (x) = -0.16263 0.72982
# Poissons Ratio (y) = -0.09732 0.45190
# Poissons Ratio (z) = 0.43147 0.44646
#
# Static dielectric constant tensor:
#      x y z
#    x 2.267220 -0.069650 0.046830 
#    y -0.069650 2.247240 -0.110440 
#    z 0.046830 -0.110440 2.085260 
# 
# From -- ./inp_files/13290.got.cif
#   From: 2010.05.17/outbox.cif.g08.bks.cpg/sg2_7_cif.got.tgz:13290.got - 2010.06.03 11:33:40.
