data_PCOD9040997
_publ_section_title
;
Structure prediction by ZEFSAII (Michael W. Deem and Ramdas Pophale) SiO2 
 PCOD9040997
Probable space group: P -1
;
_chemical_formula_sum "Si O2"
_cell_formula_units_Z 14
_cell_length_a 13.709035
_cell_length_b 7.940096
_cell_length_c 9.132268
_cell_angle_alpha 118.633755
_cell_angle_beta 47.928346
_cell_angle_gamma 98.362033
_cell_volume 623.665192
_symmetry_space_group_name_H-M "P -1"
_symmetry_group_IT_number 2
_symmetry_cell_setting 'triclinic'
loop_
_space_group_symop_operation_xyz
x,y,z
-x,-y,-z
loop_
_atom_site_type_symbol
_atom_site_label
_atom_site_fract_x
_atom_site_fract_y
_atom_site_fract_z
Si Si1 0.451249 0.206801 0.973614
Si Si2 0.683830 0.823977 0.614576
Si Si3 0.046142 0.048606 0.632429
Si Si4 0.088382 0.633156 0.532250
Si Si5 0.335545 0.556382 0.697841
Si Si6 0.654053 0.460339 0.979997
Si Si7 0.092820 0.793633 0.895425
O O1 0.544331 0.336993 0.007717
O O2 0.540331 0.980575 0.782812
O O3 0.329662 0.222060 0.218432
O O4 0.410337 0.307870 0.899929
O O5 0.703491 0.631820 0.413711
O O6 0.800391 0.935938 0.524058
O O7 0.017102 0.861145 0.664159
O O8 0.000000 0.000000 0.500000
O O9 0.974215 0.227367 0.888726
O O10 0.227816 0.598973 0.285679
O O11 0.097538 0.629189 0.696470
O O12 0.000000 0.500000 0.500000
O O13 0.500000 0.500000 0.500000
O O14 0.252196 0.749645 0.767842
O O15 0.299754 0.576884 0.914982
O O16 0.000000 0.000000 0.000000
#
# Coordination Sequence:
#
# PCOD9040997 Si02
#       7
#     2   2   2   2   2   2   2
#     4  10  23  43  70 102 142 196 239 293 366 444
#     4  11  24  44  70 103 147 188 242 305 366 435
#     4  11  25  44  70 102 141 190 239 302 365 430
#     4  11  25  45  69 101 140 194 245 298 359 437
#     4  12  26  45  74 110 145 189 247 306 370 441
#     4  11  23  44  71 103 144 190 243 297 366 437
#     4  10  26  48  71 104 147 192 246 304 366 442
#
# _framework density 22.447939999999999
#
# number of rings (size 3 to 8) (size 9 to 14) (size 15 to 20)
#    0.000    1.143    2.857    1.714    8.000    1.143 
#    2.571    0.000    0.000    0.000    0.000    0.000 
#    0.000    0.000    0.000    0.000    0.000    0.000 
#
# Total GULP energy -78028.139755 kJ/mol
# GULP energy per Si atom -5573.438554 kJ/mol
# Density = 2.239685 g / cm^3
# Si number density = 22.447940 Si / 1000 Ang^3
#
#
#
# Elastic Constant Matrix: (Units=GPa)
#
#
# Indices 1 2 3 4 5 6 
#
# 1 133.7807 36.0582 50.1565 -1.8066 21.0569 -17.0180
# 2 36.0582 71.9111 9.7688 2.5482 10.5172 -2.1303
# 3 50.1565 9.7688 119.8698 -8.7808 26.2280 -0.2595
# 4 -1.8066 2.5482 -8.7808 27.0144 -5.1648 -9.9938
# 5 21.0569 10.5172 26.2280 -5.1648 38.3908 -2.3189
# 6 -17.0180 -2.1303 -0.2595 -9.9938 -2.3189 44.5442
#
#
#
# Elastic Compliance Matrix: (Units=1/GPa)
#
#
# Indices 1 2 3 4 5 6 
#
# 1 0.010935 -0.004636 -0.003714 0.001134 -0.001790 0.004096
# 2 -0.004636 0.016602 0.001085 -0.002794 -0.003229 -0.001766
# 3 -0.003714 0.001085 0.011190 0.001741 -0.005744 -0.001210
# 4 0.001134 -0.002794 0.001741 0.042699 0.005313 0.010166
# 5 -0.001790 -0.003229 -0.005744 0.005313 0.032675 0.002021
# 6 0.004096 -0.001766 -0.001210 0.010166 0.002021 0.026309
#
#
# Mechanical properties :
#
#
# Convention : Reuss Voigt Hill
#
# Bulk Modulus (GPa) = 41.32737 57.50319 49.41528
# Shear Modulus (GPa) = 30.67386 37.29508 33.98447
#
# Velocity S-wave (km/s) = 3.70056 4.08045 3.89514
# Velocity P-wave (km/s) = 6.05880 6.91896 6.50312
#
# Compressibility (1/GPa) = 0.02419704
#
# Stress axis : x y z
#
# Youngs Moduli (GPa) = 91.45040 60.23337 89.36870
#
# Poissons Ratio (x) = 0.27921 0.33191
# Poissons Ratio (y) = 0.42392 -0.09694
# Poissons Ratio (z) = 0.33964 -0.06534
#
# Static dielectric constant tensor:
#      x y z
#    x 1.915850 -0.097320 0.032080 
#    y -0.097320 1.868060 0.042350 
#    z 0.032080 0.042350 2.021720 
# 
# From -- ./inp_files/245284.got.cif
#   From: 2010.05.17/outbox.cif.g08.bks.cpg/sg2_123_cif.got.tgz:245284.got - 2010.06.03 11:33:40.
