data_PCOD9040284
_publ_section_title
;
Structure prediction by ZEFSAII (Michael W. Deem and Ramdas Pophale) SiO2 
 PCOD9040284
Probable space group: P -1
;
_chemical_formula_sum "Si O2"
_cell_formula_units_Z 10
_cell_length_a 14.057284
_cell_length_b 6.749323
_cell_length_c 5.373588
_cell_angle_alpha 80.392719
_cell_angle_beta 61.395161
_cell_angle_gamma 96.012383
_cell_volume 431.167198
_symmetry_space_group_name_H-M "P -1"
_symmetry_group_IT_number 2
_symmetry_cell_setting 'triclinic'
loop_
_space_group_symop_operation_xyz
x,y,z
-x,-y,-z
loop_
_atom_site_type_symbol
_atom_site_label
_atom_site_fract_x
_atom_site_fract_y
_atom_site_fract_z
Si Si1 0.636651 0.448187 0.084684
Si Si2 0.898345 0.464092 0.331546
Si Si3 0.979859 0.170135 0.677205
Si Si4 0.372521 0.305206 0.456875
Si Si5 0.762579 0.146828 0.224493
O O1 0.506300 0.343495 0.285650
O O2 0.661332 0.604141 0.257231
O O3 0.705756 0.270003 0.065686
O O4 0.655307 0.571776 0.776707
O O5 0.930490 0.329983 0.540861
O O6 0.795259 0.319756 0.359397
O O7 0.908369 0.695530 0.369617
O O8 0.000000 0.500000 0.000000
O O9 0.880023 0.093092 0.009652
O O10 0.000000 0.000000 0.500000
O O11 0.318592 0.064245 0.556165
#
# Coordination Sequence:
#
# PCOD9040284 Si02
#       5
#     2   2   2   2   2
#     4  10  24  45  68 105 145 176 230 292 342 415
#     4   9  22  42  60  93 130 173 223 285 338 400
#     4  10  23  43  65  94 136 177 225 286 347 403
#     4  10  24  44  71 104 141 183 226 287 353 410
#     4  11  24  41  71 100 133 185 234 278 348 419
#
# _framework density 23.19286
#
# number of rings (size 3 to 8) (size 9 to 14) (size 15 to 20)
#    0.000    2.000    0.000    0.600    5.600    9.600 
#    0.000    6.000    0.000    0.000    0.000    0.000 
#    0.000    0.000    0.000    0.000    0.000    0.000 
#
# Total GULP energy -55891.340612 kJ/mol
# GULP energy per Si atom -5589.134061 kJ/mol
# Density = 2.314007 g / cm^3
# Si number density = 23.192860 Si / 1000 Ang^3
#
#
#
# Elastic Constant Matrix: (Units=GPa)
#
#
# Indices 1 2 3 4 5 6 
#
# 1 90.0734 78.4263 39.4922 -17.9256 1.7297 17.2625
# 2 78.4263 205.6697 71.1891 -12.6471 -8.5009 31.8270
# 3 39.4922 71.1891 92.8524 -2.8821 8.8940 17.9132
# 4 -17.9256 -12.6471 -2.8821 44.6612 -8.5935 -0.6603
# 5 1.7297 -8.5009 8.8940 -8.5935 34.5637 0.2527
# 6 17.2625 31.8270 17.9132 -0.6603 0.2527 44.7115
#
#
#
# Elastic Compliance Matrix: (Units=1/GPa)
#
#
# Indices 1 2 3 4 5 6 
#
# 1 0.018728 -0.005320 -0.003322 0.005778 0.000060 -0.002028
# 2 -0.005320 0.009079 -0.004544 0.000855 0.003900 -0.002598
# 3 -0.003322 -0.004544 0.016554 -0.002713 -0.005870 -0.002122
# 4 0.005778 0.000855 -0.002713 0.026127 0.007125 -0.001407
# 5 0.000060 0.003900 -0.005870 0.007125 0.033174 -0.000530
# 6 -0.002028 -0.002598 -0.002122 -0.001407 -0.000530 0.025830
#
#
# Mechanical properties :
#
#
# Convention : Reuss Voigt Hill
#
# Bulk Modulus (GPa) = 55.58894 85.20117 70.39506
# Shear Modulus (GPa) = 30.89065 38.08648 34.48857
#
# Velocity S-wave (km/s) = 3.65348 4.05676 3.86039
# Velocity P-wave (km/s) = 6.46664 7.66543 7.09141
#
# Compressibility (1/GPa) = 0.01798919
#
# Stress axis : x y z
#
# Youngs Moduli (GPa) = 53.39663 110.13829 60.40777
#
# Poissons Ratio (x) = 0.58593 0.20066
# Poissons Ratio (y) = 0.28407 0.27451
# Poissons Ratio (z) = 0.17737 0.50051
#
# Static dielectric constant tensor:
#      x y z
#    x 1.933860 -0.040310 -0.085930 
#    y -0.040310 1.788980 -0.005030 
#    z -0.085930 -0.005030 1.879040 
# 
# From -- ./inp_files/1439.got.cif
#   From: 2010.05.17/outbox.cif.g08.bks.cpg/sg2_1_cif.got.tgz:1439.got - 2010.06.03 11:33:40.
