data_PCOD9040702
_publ_section_title
;
Structure prediction by ZEFSAII (Michael W. Deem and Ramdas Pophale) SiO2 
 PCOD9040702
Probable space group: P -1
;
_chemical_formula_sum "Si O2"
_cell_formula_units_Z 14
_cell_length_a 14.184279
_cell_length_b 10.048646
_cell_length_c 14.852229
_cell_angle_alpha 125.941153
_cell_angle_beta 152.134320
_cell_angle_gamma 72.892195
_cell_volume 644.529638
_symmetry_space_group_name_H-M "P -1"
_symmetry_group_IT_number 2
_symmetry_cell_setting 'triclinic'
loop_
_space_group_symop_operation_xyz
x,y,z
-x,-y,-z
loop_
_atom_site_type_symbol
_atom_site_label
_atom_site_fract_x
_atom_site_fract_y
_atom_site_fract_z
Si Si1 0.578760 0.063025 0.990121
Si Si2 0.777813 0.317643 0.966969
Si Si3 0.941393 0.845026 0.655700
Si Si4 0.346933 0.653438 0.528006
Si Si5 0.707430 0.901875 0.786548
Si Si6 0.492311 0.684811 0.094949
Si Si7 0.405431 0.378258 0.573868
O O1 0.865653 0.156733 0.245479
O O2 0.527861 0.218629 0.972704
O O3 0.500000 0.000000 0.000000
O O4 0.412835 0.858738 0.709446
O O5 0.731525 0.374636 0.049441
O O6 0.603697 0.342774 0.764628
O O7 0.703011 0.089421 0.824719
O O8 0.058795 0.469888 0.228519
O O9 0.745779 0.848011 0.430034
O O10 0.763469 0.652092 0.494998
O O11 0.108291 0.021004 0.940747
O O12 0.441279 0.714595 0.529910
O O13 0.496850 0.584200 0.681895
O O14 0.756784 0.801798 0.707409
O O15 0.500000 0.500000 0.000000
#
# Coordination Sequence:
#
# PCOD9040702 Si02
#       7
#     2   2   2   2   2   2   2
#     4  11  26  44  66  97 134 172 219 278 333 384
#     4  11  24  44  65  98 138 171 221 278 318 396
#     4  10  23  43  68  93 134 172 217 275 317 396
#     4  11  24  43  64  99 137 166 224 274 324 395
#     4  11  22  46  67  97 136 178 219 269 331 384
#     4  11  25  44  68  96 127 179 223 266 337 391
#     4  11  23  42  70  97 131 180 221 264 333 392
#
# _framework density 21.721266
#
# number of rings (size 3 to 8) (size 9 to 14) (size 15 to 20)
#    0.000    1.143    4.286    1.286    6.000    4.000 
#    0.000    0.000    0.000    0.000    0.000    0.000 
#    0.000    0.000    0.000    0.000    0.000    0.000 
#
# Total GULP energy -78199.034541 kJ/mol
# GULP energy per Si atom -5585.645324 kJ/mol
# Density = 2.167183 g / cm^3
# Si number density = 21.721266 Si / 1000 Ang^3
#
#
#
# Elastic Constant Matrix: (Units=GPa)
#
#
# Indices 1 2 3 4 5 6 
#
# 1 123.6569 59.8160 25.9740 2.9046 15.9593 6.4732
# 2 59.8160 113.6227 32.7956 8.0936 31.6540 9.9170
# 3 25.9740 32.7956 56.8589 -10.1206 26.6768 10.5401
# 4 2.9046 8.0936 -10.1206 35.8943 3.4205 -3.2752
# 5 15.9593 31.6540 26.6768 3.4205 34.3362 7.6920
# 6 6.4732 9.9170 10.5401 -3.2752 7.6920 31.9922
#
#
#
# Elastic Compliance Matrix: (Units=1/GPa)
#
#
# Indices 1 2 3 4 5 6 
#
# 1 0.011161 -0.005600 -0.003182 -0.000798 0.002565 -0.000173
# 2 -0.005600 0.015247 -0.002238 -0.002821 -0.009226 -0.000927
# 3 -0.003182 -0.002238 0.034125 0.012354 -0.023533 -0.002982
# 4 -0.000798 -0.002821 0.012354 0.033321 -0.010601 0.002926
# 5 0.002565 -0.009226 -0.023533 -0.010601 0.056818 -0.004652
# 6 -0.000173 -0.000927 -0.002982 0.002926 -0.004652 0.033980
#
#
# Mechanical properties :
#
#
# Convention : Reuss Voigt Hill
#
# Bulk Modulus (GPa) = 25.97912 59.03442 42.50677
# Shear Modulus (GPa) = 22.77662 32.14808 27.46235
#
# Velocity S-wave (km/s) = 3.24170 3.85129 3.55957
# Velocity P-wave (km/s) = 5.09879 6.85665 6.04199
#
# Compressibility (1/GPa) = 0.03849245
#
# Stress axis : x y z
#
# Youngs Moduli (GPa) = 89.59962 65.58618 29.30410
#
# Poissons Ratio (x) = 0.36727 0.09325
# Poissons Ratio (y) = 0.50174 0.06559
# Poissons Ratio (z) = 0.28512 0.14680
#
# Static dielectric constant tensor:
#      x y z
#    x 1.830870 0.027420 0.051010 
#    y 0.027420 1.782480 -0.005730 
#    z 0.051010 -0.005730 1.868690 
# 
# From -- ./inp_files/505834.got.cif
#   From: 2010.05.17/outbox.cif.g08.bks.cpg/sg2_253_cif.got.tgz:505834.got - 2010.06.03 11:33:40.
