data_PCOD9040966
_publ_section_title
;
Structure prediction by ZEFSAII (Michael W. Deem and Ramdas Pophale) SiO2 
 PCOD9040966
Probable space group: P -1
;
_chemical_formula_sum "Si O2"
_cell_formula_units_Z 15
_cell_length_a 10.362706
_cell_length_b 13.032669
_cell_length_c 5.022602
_cell_angle_alpha 110.257159
_cell_angle_beta 75.830328
_cell_angle_gamma 103.048592
_cell_volume 609.543953
_symmetry_space_group_name_H-M "P -1"
_symmetry_group_IT_number 2
_symmetry_cell_setting 'triclinic'
loop_
_space_group_symop_operation_xyz
x,y,z
-x,-y,-z
loop_
_atom_site_type_symbol
_atom_site_label
_atom_site_fract_x
_atom_site_fract_y
_atom_site_fract_z
Si Si1 0.675495 0.099754 0.637037
Si Si2 0.917856 0.685396 0.614929
Si Si3 0.000000 0.500000 0.500000
Si Si4 0.664376 0.697013 0.106063
Si Si5 0.595569 0.300267 0.071463
Si Si6 0.961118 0.068096 0.330625
Si Si7 0.207830 0.491673 0.870746
Si Si8 0.432154 0.124467 0.386511
O O1 0.803438 0.071475 0.398697
O O2 0.552014 0.108009 0.510557
O O3 0.632510 0.998748 0.775186
O O4 0.700071 0.220562 0.856930
O O5 0.022945 0.636674 0.707793
O O6 0.895938 0.563513 0.358391
O O7 0.971982 0.802688 0.568727
O O8 0.775357 0.699283 0.823124
O O9 0.864555 0.479378 0.796275
O O10 0.708086 0.607418 0.201101
O O11 0.674597 0.817017 0.342862
O O12 0.509754 0.666683 0.064175
O O13 0.686650 0.410528 0.218758
O O14 0.494695 0.216202 0.228568
O O15 0.000000 0.000000 0.500000
O O16 0.000000 0.000000 0.000000
#
# Coordination Sequence:
#
# PCOD9040966 Si02
#       8
#     2   2   1   2   2   2   2   2
#     4  10  25  44  69 104 139 191 238 306 369 439
#     4  10  25  46  70 103 144 195 242 306 371 444
#     4   8  24  44  66  94 138 198 228 292 368 428
#     4  11  23  41  72 101 142 182 242 307 381 436
#     4  11  24  42  74 104 138 188 241 307 375 443
#     4  12  30  48  79 110 151 199 254 308 378 453
#     4  10  24  44  67 101 144 185 246 298 371 447
#     4  10  23  43  70 100 142 180 240 305 373 443
#
# _framework density 24.608561999999999
#
# number of rings (size 3 to 8) (size 9 to 14) (size 15 to 20)
#    0.800    0.800    0.000    2.400    9.333    5.867 
#    0.000    0.000    0.000    0.000    0.000    0.000 
#    0.000    0.000    0.000    0.000    0.000    0.000 
#
# Total GULP energy -83613.293711 kJ/mol
# GULP energy per Si atom -5574.219581 kJ/mol
# Density = 2.455255 g / cm^3
# Si number density = 24.608562 Si / 1000 Ang^3
#
#
#
# Elastic Constant Matrix: (Units=GPa)
#
#
# Indices 1 2 3 4 5 6 
#
# 1 87.4364 72.4497 46.2055 22.8730 -23.5528 -25.0824
# 2 72.4497 174.7999 36.1340 18.0025 -2.9502 -13.4245
# 3 46.2055 36.1340 108.5673 5.6974 -29.5745 -18.8049
# 4 22.8730 18.0025 5.6974 32.0317 -9.9149 -5.7080
# 5 -23.5528 -2.9502 -29.5745 -9.9149 49.9111 9.7522
# 6 -25.0824 -13.4245 -18.8049 -5.7080 9.7522 27.2067
#
#
#
# Elastic Compliance Matrix: (Units=1/GPa)
#
#
# Indices 1 2 3 4 5 6 
#
# 1 0.030887 -0.009239 -0.005193 -0.011372 0.005578 0.015942
# 2 -0.009239 0.009428 -0.000734 -0.000265 -0.003682 -0.003108
# 3 -0.005193 -0.000734 0.013536 0.004023 0.005741 0.002993
# 4 -0.011372 -0.000265 0.004023 0.040163 0.005231 -0.001283
# 5 0.005578 -0.003682 0.005741 0.005231 0.027154 -0.001342
# 6 0.015942 -0.003108 0.002993 -0.001283 -0.001342 0.052200
#
#
# Mechanical properties :
#
#
# Convention : Reuss Voigt Hill
#
# Bulk Modulus (GPa) = 42.51438 75.59802 59.05620
# Shear Modulus (GPa) = 23.63640 36.23087 29.93363
#
# Velocity S-wave (km/s) = 3.10255 3.84120 3.49146
# Velocity P-wave (km/s) = 5.49073 7.10352 6.34855
#
# Compressibility (1/GPa) = 0.02352146
#
# Stress axis : x y z
#
# Youngs Moduli (GPa) = 32.37631 106.06642 73.87546
#
# Poissons Ratio (x) = 0.97991 0.38361
# Poissons Ratio (y) = 0.29911 0.05419
# Poissons Ratio (z) = 0.16812 0.07780
#
# Static dielectric constant tensor:
#      x y z
#    x 1.976710 -0.019140 0.060490 
#    y -0.019140 2.004490 -0.074610 
#    z 0.060490 -0.074610 2.061510 
# 
# From -- ./inp_files/72130.got.cif
#   From: 2010.05.17/outbox.cif.g08.bks.cpg/sg2_37_cif.got.tgz:72130.got - 2010.06.03 11:33:40.
