data_PCOD9040752
_publ_section_title
;
Structure prediction by ZEFSAII (Michael W. Deem and Ramdas Pophale) SiO2 
 PCOD9040752
Probable space group: P -1
;
_chemical_formula_sum "Si O2"
_cell_formula_units_Z 14
_cell_length_a 5.544733
_cell_length_b 19.317515
_cell_length_c 5.366143
_cell_angle_alpha 111.917442
_cell_angle_beta 90.289270
_cell_angle_gamma 67.749180
_cell_volume 487.263415
_symmetry_space_group_name_H-M "P -1"
_symmetry_group_IT_number 2
_symmetry_cell_setting 'triclinic'
loop_
_space_group_symop_operation_xyz
x,y,z
-x,-y,-z
loop_
_atom_site_type_symbol
_atom_site_label
_atom_site_fract_x
_atom_site_fract_y
_atom_site_fract_z
Si Si1 0.235109 0.536440 0.775344
Si Si2 0.287239 0.880727 0.121411
Si Si3 0.226586 0.260960 0.130833
Si Si4 0.643665 0.323989 0.974488
Si Si5 0.335844 0.031596 0.290950
Si Si6 0.100425 0.397079 0.639539
Si Si7 0.128360 0.817408 0.537532
O O1 0.302679 0.440959 0.672153
O O2 0.098108 0.564775 0.543846
O O3 0.436861 0.579211 0.870496
O O4 0.038222 0.576938 0.061115
O O5 0.230759 0.854962 0.357837
O O6 0.162744 0.977504 0.220875
O O7 0.603465 0.834793 0.023418
O O8 0.191523 0.841524 0.840396
O O9 0.208560 0.301141 0.457103
O O10 0.410239 0.300556 0.044368
O O11 0.929480 0.285734 0.066036
O O12 0.737526 0.278566 0.648890
O O13 0.182988 0.128666 0.418473
O O14 0.500000 0.000000 0.500000
O O15 0.500000 0.000000 0.000000
#
# Coordination Sequence:
#
# PCOD9040752 Si02
#       7
#     2   2   2   2   2   2   2
#     4   9  19  37  62  92 128 170 217 270 328 390
#     4  11  24  43  65  93 131 175 220 270 329 392
#     4  10  23  43  68  98 133 175 222 274 332 394
#     4  10  23  43  68  98 133 175 222 274 332 394
#     4  12  24  40  66  98 132 174 221 272 329 390
#     4   9  19  37  62  92 128 170 217 270 328 390
#     4  11  24  43  65  93 131 175 220 270 329 392
#
# _framework density 28.731891999999998
#
# number of rings (size 3 to 8) (size 9 to 14) (size 15 to 20)
#    0.000    1.714    0.000    3.429    0.000   13.143 
#    0.000    0.000    0.000   16.286    0.000    0.000 
#    0.000    0.000    0.000    0.000    0.000    0.000 
#
# Total GULP energy -78383.589398 kJ/mol
# GULP energy per Si atom -5598.827814 kJ/mol
# Density = 2.866650 g / cm^3
# Si number density = 28.731892 Si / 1000 Ang^3
#
#
#
# Elastic Constant Matrix: (Units=GPa)
#
#
# Indices 1 2 3 4 5 6 
#
# 1 117.5671 39.8616 64.0000 -18.7651 -5.7212 7.2226
# 2 39.8616 103.7057 61.8327 8.0897 0.4832 5.9689
# 3 64.0000 61.8327 181.6872 -3.1754 -3.5823 -10.7259
# 4 -18.7651 8.0897 -3.1754 61.9522 -3.7820 4.8034
# 5 -5.7212 0.4832 -3.5823 -3.7820 71.4806 -10.5011
# 6 7.2226 5.9689 -10.7259 4.8034 -10.5011 65.4465
#
#
#
# Elastic Compliance Matrix: (Units=1/GPa)
#
#
# Indices 1 2 3 4 5 6 
#
# 1 0.012070 -0.002898 -0.003284 0.004051 0.000774 -0.001779
# 2 -0.002898 0.013217 -0.003625 -0.002732 -0.000856 -0.001416
# 3 -0.003284 -0.003625 0.008023 -0.000245 0.000459 0.002100
# 4 0.004051 -0.002732 -0.000245 0.017885 0.001074 -0.001378
# 5 0.000774 -0.000856 0.000459 0.001074 0.014477 0.002312
# 6 -0.001779 -0.001416 0.002100 -0.001378 0.002312 0.016421
#
#
# Mechanical properties :
#
#
# Convention : Reuss Voigt Hill
#
# Bulk Modulus (GPa) = 73.02319 81.59427 77.30873
# Shear Modulus (GPa) = 47.04799 55.59359 51.32079
#
# Velocity S-wave (km/s) = 4.05097 4.40353 4.23093
# Velocity P-wave (km/s) = 6.88121 7.36987 7.12973
#
# Compressibility (1/GPa) = 0.01369428
#
# Stress axis : x y z
#
# Youngs Moduli (GPa) = 82.85057 75.66084 124.63612
#
# Poissons Ratio (x) = 0.21930 0.40933
# Poissons Ratio (y) = 0.24013 0.45184
# Poissons Ratio (z) = 0.27210 0.27429
#
# Static dielectric constant tensor:
#      x y z
#    x 2.323490 0.020170 0.043420 
#    y 0.020170 2.307820 0.006110 
#    z 0.043420 0.006110 2.186370 
# 
# From -- ./inp_files/9661.got.cif
#   From: 2010.05.17/outbox.cif.g08.bks.cpg/sg2_5_cif.got.tgz:9661.got - 2010.06.03 11:33:40.
