data_PCOD9040466
_publ_section_title
;
Structure prediction by ZEFSAII (Michael W. Deem and Ramdas Pophale) SiO2 
 PCOD9040466
Probable space group: P -1
;
_chemical_formula_sum "Si O2"
_cell_formula_units_Z 14
_cell_length_a 6.291529
_cell_length_b 14.983863
_cell_length_c 15.426286
_cell_angle_alpha 153.505324
_cell_angle_beta 83.329214
_cell_angle_gamma 86.487753
_cell_volume 597.898069
_symmetry_space_group_name_H-M "P -1"
_symmetry_group_IT_number 2
_symmetry_cell_setting 'triclinic'
loop_
_space_group_symop_operation_xyz
x,y,z
-x,-y,-z
loop_
_atom_site_type_symbol
_atom_site_label
_atom_site_fract_x
_atom_site_fract_y
_atom_site_fract_z
Si Si1 0.876315 0.824778 0.856205
Si Si2 0.030655 0.001516 0.331777
Si Si3 0.329499 0.394317 0.457770
Si Si4 0.257004 0.354364 0.618968
Si Si5 0.515178 0.708963 0.100419
Si Si6 0.834594 0.813594 0.040924
Si Si7 0.599599 0.231656 0.658263
O O1 0.712154 0.791029 0.759407
O O2 0.756805 0.858017 0.984649
O O3 0.085453 0.593909 0.647660
O O4 0.000000 0.000000 0.000000
O O5 0.128371 0.188722 0.485017
O O6 0.837967 0.055501 0.461916
O O7 0.246614 0.784630 0.153997
O O8 0.920823 0.985973 0.231211
O O9 0.500000 0.500000 0.500000
O O10 0.386864 0.328334 0.497875
O O11 0.429965 0.298784 0.642917
O O12 0.058344 0.590979 0.839540
O O13 0.511538 0.808930 0.282696
O O14 0.640191 0.794608 0.096349
O O15 0.639295 0.452161 0.872201
#
# Coordination Sequence:
#
# PCOD9040466 Si02
#       7
#     2   2   2   2   2   2   2
#     4  10  23  43  67 101 137 176 223 281 338 408
#     4  12  24  43  70  98 133 184 225 273 336 402
#     4  10  24  41  68  99 135 176 226 279 342 404
#     4  11  24  43  67  99 137 178 224 284 337 400
#     4  11  25  44  68 101 133 183 227 276 334 403
#     4  11  24  42  69  99 139 176 229 275 337 407
#     4  11  25  44  69  97 140 177 226 281 335 396
#
# _framework density 23.415365000000001
#
# number of rings (size 3 to 8) (size 9 to 14) (size 15 to 20)
#    0.000    1.143    2.857    2.143    2.000    8.000 
#    0.000    0.000    0.000    0.000    0.000    0.000 
#    0.000    0.000    0.000    0.000    0.000    0.000 
#
# Total GULP energy -78337.579652 kJ/mol
# GULP energy per Si atom -5595.541404 kJ/mol
# Density = 2.336207 g / cm^3
# Si number density = 23.415365 Si / 1000 Ang^3
#
#
#
# Elastic Constant Matrix: (Units=GPa)
#
#
# Indices 1 2 3 4 5 6 
#
# 1 96.9719 63.1147 41.0838 -30.1074 0.0867 3.0215
# 2 63.1147 157.7621 43.1243 -54.8617 2.7992 8.6828
# 3 41.0838 43.1243 105.5074 -34.6557 11.2123 -3.4686
# 4 -30.1074 -54.8617 -34.6557 49.2537 1.6235 -1.8557
# 5 0.0867 2.7992 11.2123 1.6235 44.0005 2.1880
# 6 3.0215 8.6828 -3.4686 -1.8557 2.1880 46.5476
#
#
#
# Elastic Compliance Matrix: (Units=1/GPa)
#
#
# Indices 1 2 3 4 5 6 
#
# 1 0.015381 -0.004560 -0.003721 0.001650 0.001168 -0.000414
# 2 -0.004560 0.011869 0.000561 0.010815 -0.001219 -0.001388
# 3 -0.003721 0.000561 0.013912 0.008333 -0.003965 0.001692
# 4 0.001650 0.010815 0.008333 0.039373 -0.004281 0.000267
# 5 0.001168 -0.001219 -0.003965 -0.004281 0.024042 -0.001445
# 6 -0.000414 -0.001388 0.001692 0.000267 -0.001445 0.021974
#
#
# Mechanical properties :
#
#
# Convention : Reuss Voigt Hill
#
# Bulk Modulus (GPa) = 38.87890 72.76524 55.82207
# Shear Modulus (GPa) = 33.20825 42.15492 37.68159
#
# Velocity S-wave (km/s) = 3.77002 4.24761 4.01592
# Velocity P-wave (km/s) = 5.96580 7.42964 6.73759
#
# Compressibility (1/GPa) = 0.02572089
#
# Stress axis : x y z
#
# Youngs Moduli (GPa) = 65.01509 84.25558 71.88101
#
# Poissons Ratio (x) = 0.38423 0.26747
# Poissons Ratio (y) = 0.29649 -0.04032
# Poissons Ratio (z) = 0.24192 -0.04726
#
# Static dielectric constant tensor:
#      x y z
#    x 1.857200 -0.003910 0.007880 
#    y -0.003910 1.891190 0.008770 
#    z 0.007880 0.008770 1.918450 
# 
# From -- ./inp_files/97917.got.cif
#   From: 2010.05.17/outbox.cif.g08.bks.cpg/sg2_49_cif.got.tgz:97917.got - 2010.06.03 11:33:40.
