data_PCOD9040579
_publ_section_title
;
Structure prediction by ZEFSAII (Michael W. Deem and Ramdas Pophale) SiO2 
 PCOD9040579
Probable space group: P -1
;
_chemical_formula_sum "Si O2"
_cell_formula_units_Z 16
_cell_length_a 17.771778
_cell_length_b 24.276957
_cell_length_c 14.615445
_cell_angle_alpha 31.190200
_cell_angle_beta 20.358110
_cell_angle_gamma 20.147035
_cell_volume 739.322445
_symmetry_space_group_name_H-M "P -1"
_symmetry_group_IT_number 2
_symmetry_cell_setting 'triclinic'
loop_
_space_group_symop_operation_xyz
x,y,z
-x,-y,-z
loop_
_atom_site_type_symbol
_atom_site_label
_atom_site_fract_x
_atom_site_fract_y
_atom_site_fract_z
Si Si1 0.230328 0.271633 0.635915
Si Si2 0.247908 0.025988 0.933238
Si Si3 0.536247 0.472092 0.889928
Si Si4 0.754097 0.620230 0.351825
Si Si5 0.157508 0.850268 0.969971
Si Si6 0.206843 0.343436 0.107436
Si Si7 0.542916 0.570441 0.430348
Si Si8 0.158156 0.847786 0.594487
O O1 0.295349 0.277873 0.657129
O O2 0.457744 0.265418 0.326564
O O3 0.345293 0.112780 0.699256
O O4 0.833141 0.423360 0.866659
O O5 0.559807 0.833258 0.865879
O O6 0.041299 0.080540 0.998360
O O7 0.029970 0.095527 0.175530
O O8 0.632035 0.549649 0.627304
O O9 0.500000 0.500000 0.000000
O O10 0.812502 0.277614 0.836829
O O11 0.530240 0.739923 0.352640
O O12 0.112762 0.461243 0.127971
O O13 0.000000 0.000000 0.000000
O O14 0.864079 0.428655 0.330552
O O15 0.388079 0.344132 0.822106
O O16 0.500000 0.500000 0.500000
O O17 0.219578 0.716138 0.654395
O O18 0.000000 0.000000 0.500000
#
# Coordination Sequence:
#
# PCOD9040579 Si02
#       8
#     2   2   2   2   2   2   2   2
#     4  12  24  44  72  97 134 180 229 271 356 402
#     4  12  25  46  65 105 141 173 232 283 334 411
#     4  12  23  46  68  96 135 175 230 285 333 411
#     4  11  25  43  68 101 136 182 227 277 339 409
#     4  12  29  46  69 103 137 177 230 287 341 404
#     4  10  25  42  64  99 141 178 220 289 337 396
#     4  10  23  43  67  97 136 182 233 272 341 404
#     4  11  21  45  70  94 142 177 216 284 327 400
#
# _framework density 21.641437
#
# number of rings (size 3 to 8) (size 9 to 14) (size 15 to 20)
#    0.000    0.750    6.250    0.375    5.250    2.500 
#    0.000    1.250    0.000    0.000    0.000    0.000 
#    0.000    0.000    0.000    0.000    0.000    0.000 
#
# Total GULP energy -89384.609981 kJ/mol
# GULP energy per Si atom -5586.538124 kJ/mol
# Density = 2.159218 g / cm^3
# Si number density = 21.641437 Si / 1000 Ang^3
#
#
#
# Elastic Constant Matrix: (Units=GPa)
#
#
# Indices 1 2 3 4 5 6 
#
# 1 116.9890 47.2013 23.4379 -8.7681 -3.7384 14.3530
# 2 47.2013 147.9182 11.6747 -3.5566 -8.3718 -8.9645
# 3 23.4379 11.6747 49.0416 -3.4497 4.0374 -7.2457
# 4 -8.7681 -3.5566 -3.4497 26.7379 5.6351 8.4966
# 5 -3.7384 -8.3718 4.0374 5.6351 27.0905 1.2967
# 6 14.3530 -8.9645 -7.2457 8.4966 1.2967 47.8836
#
#
#
# Elastic Compliance Matrix: (Units=1/GPa)
#
#
# Indices 1 2 3 4 5 6 
#
# 1 0.012270 -0.003687 -0.005618 0.004577 0.000728 -0.006050
# 2 -0.003687 0.008203 -0.000058 -0.001493 0.002209 0.002837
# 3 -0.005618 -0.000058 0.024321 0.000590 -0.004798 0.005379
# 4 0.004577 -0.001493 0.000590 0.043448 -0.008522 -0.009041
# 5 0.000728 0.002209 -0.004798 -0.008522 0.040190 -0.000107
# 6 -0.006050 0.002837 0.005379 -0.009041 -0.000107 0.025650
#
#
# Mechanical properties :
#
#
# Convention : Reuss Voigt Hill
#
# Bulk Modulus (GPa) = 38.36376 53.17517 45.76946
# Shear Modulus (GPa) = 27.54880 35.78473 31.66676
#
# Velocity S-wave (km/s) = 3.57173 4.07077 3.82939
# Velocity P-wave (km/s) = 5.89705 6.83515 6.38335
#
# Compressibility (1/GPa) = 0.02606627
#
# Stress axis : x y z
#
# Youngs Moduli (GPa) = 81.50201 121.90944 41.11701
#
# Poissons Ratio (x) = 0.44951 0.23100
# Poissons Ratio (y) = 0.30052 0.00240
# Poissons Ratio (z) = 0.45788 0.00710
#
# Static dielectric constant tensor:
#      x y z
#    x 2.381960 0.078890 -0.159670 
#    y 0.078890 1.788730 -0.000090 
#    z -0.159670 -0.000090 1.913790 
# 
# From -- ./inp_files/112768.got.cif
#   From: 2010.05.17/outbox.cif.g08.bks.cpg/sg2_57_cif.got.tgz:112768.got - 2010.06.03 11:33:40.
