data_PCOD9040251
_publ_section_title
;
Structure prediction by ZEFSAII (Michael W. Deem and Ramdas Pophale) SiO2 
 PCOD9040251
Probable space group: P -1
;
_chemical_formula_sum "Si O2"
_cell_formula_units_Z 12
_cell_length_a 6.859882
_cell_length_b 8.919961
_cell_length_c 12.352406
_cell_angle_alpha 95.241681
_cell_angle_beta 70.625243
_cell_angle_gamma 129.710378
_cell_volume 540.901908
_symmetry_space_group_name_H-M "P -1"
_symmetry_group_IT_number 2
_symmetry_cell_setting 'triclinic'
loop_
_space_group_symop_operation_xyz
x,y,z
-x,-y,-z
loop_
_atom_site_type_symbol
_atom_site_label
_atom_site_fract_x
_atom_site_fract_y
_atom_site_fract_z
Si Si1 0.837812 0.015401 0.123707
Si Si2 0.752459 0.769653 0.529045
Si Si3 0.156513 0.516215 0.577870
Si Si4 0.260095 0.593399 0.170351
Si Si5 0.286111 0.275072 0.215275
Si Si6 0.321081 0.786459 0.958126
O O1 0.843956 0.190460 0.093518
O O2 0.995295 0.081070 0.211891
O O3 0.531980 0.810830 0.172583
O O4 0.000000 0.000000 0.000000
O O5 0.472254 0.711176 0.536362
O O6 0.827458 0.657844 0.438815
O O7 0.706053 0.695044 0.656573
O O8 0.000000 0.000000 0.500000
O O9 0.000000 0.500000 0.500000
O O10 0.987600 0.494616 0.709242
O O11 0.342042 0.457198 0.154429
O O12 0.187990 0.630035 0.069599
O O13 0.493490 0.243749 0.141184
O O14 0.500000 0.000000 0.000000
#
# Coordination Sequence:
#
# PCOD9040251 Si02
#       6
#     2   2   2   2   2   2
#     4  11  25  44  70 104 145 184 231 286 355 419
#     4  11  29  46  75 102 141 188 237 299 348 426
#     4  11  26  52  68 105 140 185 242 290 363 406
#     4  11  25  45  72 100 144 185 231 299 341 424
#     4  12  25  45  69 107 136 185 245 277 360 421
#     4  10  23  43  65 105 139 182 229 286 351 412
#
# _framework density 22.185167
#
# number of rings (size 3 to 8) (size 9 to 14) (size 15 to 20)
#    0.000    1.000    5.000    0.500    9.333    2.667 
#    0.000    0.000    0.000    0.000    0.000    0.000 
#    0.000    0.000    0.000    0.000    0.000    0.000 
#
# Total GULP energy -67150.320521 kJ/mol
# GULP energy per Si atom -5595.860043 kJ/mol
# Density = 2.213467 g / cm^3
# Si number density = 22.185167 Si / 1000 Ang^3
#
#
#
# Elastic Constant Matrix: (Units=GPa)
#
#
# Indices 1 2 3 4 5 6 
#
# 1 157.0993 38.3003 37.3559 -3.3436 -8.6274 -0.1860
# 2 38.3003 104.9535 5.1309 -11.7133 -15.2358 -2.6763
# 3 37.3559 5.1309 55.1930 8.7166 -12.8106 -14.3897
# 4 -3.3436 -11.7133 8.7166 33.7033 -0.9878 -3.7055
# 5 -8.6274 -15.2358 -12.8106 -0.9878 42.0542 12.1699
# 6 -0.1860 -2.6763 -14.3897 -3.7055 12.1699 53.2486
#
#
#
# Elastic Compliance Matrix: (Units=1/GPa)
#
#
# Indices 1 2 3 4 5 6 
#
# 1 0.008531 -0.002801 -0.006289 0.001307 -0.000698 -0.001560
# 2 -0.002801 0.011465 0.001260 0.003524 0.003975 0.000244
# 3 -0.006289 0.001260 0.025870 -0.006128 0.005345 0.005384
# 4 0.001307 0.003524 -0.006128 0.032699 0.000230 0.000749
# 5 -0.000698 0.003975 0.005345 0.000230 0.028087 -0.004762
# 6 -0.001560 0.000244 0.005384 0.000749 -0.004762 0.021382
#
#
# Mechanical properties :
#
#
# Convention : Reuss Voigt Hill
#
# Bulk Modulus (GPa) = 33.10682 53.20221 43.15452
# Shear Modulus (GPa) = 32.51724 41.56514 37.04119
#
# Velocity S-wave (km/s) = 3.83263 4.33315 4.09055
# Velocity P-wave (km/s) = 5.87713 7.00486 6.46563
#
# Compressibility (1/GPa) = 0.03020526
#
# Stress axis : x y z
#
# Youngs Moduli (GPa) = 117.21418 87.22019 38.65498
#
# Poissons Ratio (x) = 0.24431 0.24311
# Poissons Ratio (y) = 0.32833 -0.04869
# Poissons Ratio (z) = 0.73717 -0.10986
#
# Static dielectric constant tensor:
#      x y z
#    x 1.842280 0.048690 0.041040 
#    y 0.048690 1.843070 0.014180 
#    z 0.041040 0.014180 1.775750 
# 
# From -- ./inp_files/480514.got.cif
#   From: 2010.05.17/outbox.cif.g08.bks.cpg/sg2_241_cif.got.tgz:480514.got - 2010.06.03 11:33:40.
