data_PCOD9040858
_publ_section_title
;
Structure prediction by ZEFSAII (Michael W. Deem and Ramdas Pophale) SiO2 
 PCOD9040858
Probable space group: P -1
;
_chemical_formula_sum "Si O2"
_cell_formula_units_Z 16
_cell_length_a 12.703972
_cell_length_b 15.519849
_cell_length_c 17.868783
_cell_angle_alpha 149.006559
_cell_angle_beta 22.751967
_cell_angle_gamma 141.284306
_cell_volume 700.685283
_symmetry_space_group_name_H-M "P -1"
_symmetry_group_IT_number 2
_symmetry_cell_setting 'triclinic'
loop_
_space_group_symop_operation_xyz
x,y,z
-x,-y,-z
loop_
_atom_site_type_symbol
_atom_site_label
_atom_site_fract_x
_atom_site_fract_y
_atom_site_fract_z
Si Si1 0.845135 0.952259 0.184388
Si Si2 0.017773 0.223751 0.379592
Si Si3 0.347204 0.055005 0.862221
Si Si4 0.576419 0.162675 0.023422
Si Si5 0.265265 0.420333 0.181001
Si Si6 0.322050 0.383603 0.479669
Si Si7 0.231965 0.404525 0.017072
Si Si8 0.026011 0.913207 0.523042
O O1 0.683024 0.980227 0.233473
O O2 0.774934 0.783387 0.147242
O O3 0.838075 0.105836 0.359994
O O4 0.162716 0.926654 0.930487
O O5 0.342740 0.186154 0.132113
O O6 0.942258 0.418936 0.560061
O O7 0.962122 0.168373 0.461165
O O8 0.659599 0.070542 0.691168
O O9 0.191584 0.236714 0.116811
O O10 0.515719 0.316666 0.234440
O O11 0.500000 0.000000 0.000000
O O12 0.876840 0.098663 0.754851
O O13 0.321501 0.382719 0.028439
O O14 0.543200 0.481066 0.080516
O O15 0.500000 0.500000 0.500000
O O16 0.060995 0.503014 0.718845
O O17 0.172698 0.217394 0.484030
#
# Coordination Sequence:
#
# PCOD9040858 Si02
#       8
#     2   2   2   2   2   2   2   2
#     4  10  23  33  55  82 113 139 178 216 275 319
#     4  10  18  34  54  85 103 140 180 225 259 319
#     4  10  21  40  51  80 112 149 170 217 276 322
#     4   8  18  32  50  79 107 138 172 226 269 303
#     4  10  17  33  57  74 107 138 181 218 268 312
#     4  10  18  30  53  83 105 136 180 223 264 309
#     4  10  18  31  53  82 104 139 176 226 256 321
#     4  10  19  36  57  76 111 140 179 222 264 313
#
# _framework density 22.834789000000001
#
# number of rings (size 3 to 8) (size 9 to 14) (size 15 to 20)
#    0.000    2.500    3.750    1.500    5.250    2.500 
#    0.000    0.625    0.000    0.750    0.000    0.000 
#    0.000    0.000    0.000    0.000    0.000    0.000 
#
# Total GULP energy -89183.093712 kJ/mol
# GULP energy per Si atom -5573.943357 kJ/mol
# Density = 2.278282 g / cm^3
# Si number density = 22.834789 Si / 1000 Ang^3
#
#
#
# Elastic Constant Matrix: (Units=GPa)
#
#
# Indices 1 2 3 4 5 6 
#
# 1 62.6454 31.3745 20.0602 13.5491 3.2689 19.3199
# 2 31.3745 101.3038 43.9794 -6.0767 -4.3725 29.2416
# 3 20.0602 43.9794 132.3640 0.4273 -15.3249 20.5384
# 4 13.5491 -6.0767 0.4273 38.6247 5.4584 5.1238
# 5 3.2689 -4.3725 -15.3249 5.4584 17.5857 1.3003
# 6 19.3199 29.2416 20.5384 5.1238 1.3003 34.8582
#
#
#
# Elastic Compliance Matrix: (Units=1/GPa)
#
#
# Indices 1 2 3 4 5 6 
#
# 1 0.022731 -0.005380 -0.001106 -0.007455 -0.003755 -0.006198
# 2 -0.005380 0.015923 -0.002836 0.005482 0.001494 -0.009567
# 3 -0.001106 -0.002836 0.010200 -0.001009 0.008939 -0.003203
# 4 -0.007455 0.005482 -0.001009 0.030981 -0.007440 -0.004148
# 5 -0.003755 0.001494 0.008939 -0.007440 0.068470 -0.005900
# 6 -0.006198 -0.009567 -0.003203 -0.004148 -0.005900 0.042865
#
#
# Mechanical properties :
#
#
# Convention : Reuss Voigt Hill
#
# Bulk Modulus (GPa) = 33.10114 54.12685 43.61399
# Shear Modulus (GPa) = 22.73924 31.60699 27.17312
#
# Velocity S-wave (km/s) = 3.15908 3.72447 3.45336
# Velocity P-wave (km/s) = 5.27577 6.50005 5.91965
#
# Compressibility (1/GPa) = 0.03021044
#
# Stress axis : x y z
#
# Youngs Moduli (GPa) = 43.99200 62.80104 98.03888
#
# Poissons Ratio (x) = 0.33787 0.10848
# Poissons Ratio (y) = 0.23668 0.27800
# Poissons Ratio (z) = 0.04868 0.17808
#
# Static dielectric constant tensor:
#      x y z
#    x 1.919840 -0.019490 0.049550 
#    y -0.019490 1.920820 -0.044790 
#    z 0.049550 -0.044790 1.932420 
# 
# From -- ./inp_files/611539.got.cif
#   From: 2010.05.17/outbox.cif.g08.bks.cpg/sg2_306_cif.got.tgz:611539.got - 2010.06.03 11:33:40.
