data_PCOD9040923
_publ_section_title
;
Structure prediction by ZEFSAII (Michael W. Deem and Ramdas Pophale) SiO2 
 PCOD9040923
Probable space group: P -1
;
_chemical_formula_sum "Si O2"
_cell_formula_units_Z 16
_cell_length_a 9.934665
_cell_length_b 5.087201
_cell_length_c 18.224791
_cell_angle_alpha 99.196818
_cell_angle_beta 42.554054
_cell_angle_gamma 92.796731
_cell_volume 611.614176
_symmetry_space_group_name_H-M "P -1"
_symmetry_group_IT_number 2
_symmetry_cell_setting 'triclinic'
loop_
_space_group_symop_operation_xyz
x,y,z
-x,-y,-z
loop_
_atom_site_type_symbol
_atom_site_label
_atom_site_fract_x
_atom_site_fract_y
_atom_site_fract_z
Si Si1 0.169018 0.151446 0.221869
Si Si2 0.034086 0.175572 0.612771
Si Si3 0.620805 0.453880 0.265397
Si Si4 0.215084 0.737621 0.409097
Si Si5 0.205936 0.207293 0.041918
Si Si6 0.978085 0.697093 0.087690
Si Si7 0.522029 0.951322 0.796756
Si Si8 0.732349 0.466070 0.383298
O O1 0.247359 0.148622 0.107999
O O2 0.335621 0.240421 0.214593
O O3 0.940893 0.296219 0.318327
O O4 0.135979 0.869461 0.261364
O O5 0.210949 0.251007 0.596208
O O6 0.945107 0.358632 0.588483
O O7 0.107893 0.914856 0.523911
O O8 0.383348 0.533804 0.369242
O O9 0.630544 0.227122 0.190077
O O10 0.714900 0.378844 0.302349
O O11 0.745060 0.697656 0.202229
O O12 0.344033 0.920566 0.312853
O O13 0.105853 0.510191 0.087289
O O14 0.059373 0.984177 0.065874
O O15 0.394978 0.159860 0.910025
O O16 0.000000 0.500000 0.000000
O O17 0.500000 0.500000 0.500000
#
# Coordination Sequence:
#
# PCOD9040923 Si02
#       8
#     2   2   2   2   2   2   2   2
#     4  11  25  46  68 101 141 186 237 299 360 434
#     4  10  23  45  68  96 138 182 239 304 359 431
#     4  12  24  40  67 101 136 185 232 299 355 436
#     4  10  23  43  69  98 133 186 242 297 362 429
#     4  12  26  47  71 110 144 199 243 296 364 432
#     4  12  25  43  72 103 151 185 241 299 357 429
#     4  11  25  44  70  99 139 187 241 295 359 431
#     4  12  25  41  67 101 136 179 228 298 364 431
#
# _framework density 26.160281000000001
#
# number of rings (size 3 to 8) (size 9 to 14) (size 15 to 20)
#    0.000    0.750    2.500    4.500    1.750    4.000 
#    0.000    6.250    0.000    0.000    0.000    0.000 
#    0.000    0.000    0.000    0.000    0.000    0.000 
#
# Total GULP energy -89383.114952 kJ/mol
# GULP energy per Si atom -5586.444684 kJ/mol
# Density = 2.610074 g / cm^3
# Si number density = 26.160281 Si / 1000 Ang^3
#
#
#
# Elastic Constant Matrix: (Units=GPa)
#
#
# Indices 1 2 3 4 5 6 
#
# 1 195.1136 29.6250 46.3547 1.2360 20.6797 -5.6169
# 2 29.6250 56.8076 10.6764 -0.6791 -3.3870 6.3694
# 3 46.3547 10.6764 121.2075 3.3000 -0.3756 1.8238
# 4 1.2360 -0.6791 3.3000 37.9753 -6.0306 -9.7270
# 5 20.6797 -3.3870 -0.3756 -6.0306 57.2417 0.8851
# 6 -5.6169 6.3694 1.8238 -9.7270 0.8851 41.7733
#
#
#
# Elastic Compliance Matrix: (Units=1/GPa)
#
#
# Indices 1 2 3 4 5 6 
#
# 1 0.006465 -0.003279 -0.002212 -0.000103 -0.002578 0.001496
# 2 -0.003279 0.019934 -0.000441 -0.000016 0.002414 -0.003516
# 3 -0.002212 -0.000441 0.009172 -0.000827 0.000759 -0.000839
# 4 -0.000103 -0.000016 -0.000827 0.028569 0.002938 0.006615
# 5 -0.002578 0.002414 0.000759 0.002938 0.018866 -0.000463
# 6 0.001496 -0.003516 -0.000839 0.006615 -0.000463 0.026263
#
#
# Mechanical properties :
#
#
# Convention : Reuss Voigt Hill
#
# Bulk Modulus (GPa) = 42.17811 60.71567 51.44689
# Shear Modulus (GPa) = 38.74912 46.49625 42.62268
#
# Velocity S-wave (km/s) = 3.85284 4.22045 4.04083
# Velocity P-wave (km/s) = 5.99587 6.85632 6.44048
#
# Compressibility (1/GPa) = 0.02370898
#
# Stress axis : x y z
#
# Youngs Moduli (GPa) = 154.66759 50.16556 109.02197
#
# Poissons Ratio (x) = 0.16448 0.24111
# Poissons Ratio (y) = 0.50713 0.04809
# Poissons Ratio (z) = 0.34206 0.02213
#
# Static dielectric constant tensor:
#      x y z
#    x 2.114180 -0.025520 -0.041130 
#    y -0.025520 2.192580 0.007130 
#    z -0.041130 0.007130 2.088650 
# 
# From -- ./inp_files/37971.got.cif
#   From: 2010.05.17/outbox.cif.g08.bks.cpg/sg2_19_cif.got.tgz:37971.got - 2010.06.03 11:33:40.
