data_PCOD9040690
_publ_section_title
;
Structure prediction by ZEFSAII (Michael W. Deem and Ramdas Pophale) SiO2 
 PCOD9040690
Probable space group: P -1
;
_chemical_formula_sum "Si O2"
_cell_formula_units_Z 16
_cell_length_a 12.349201
_cell_length_b 5.672866
_cell_length_c 10.742806
_cell_angle_alpha 109.460874
_cell_angle_beta 84.655537
_cell_angle_gamma 67.296149
_cell_volume 632.982739
_symmetry_space_group_name_H-M "P -1"
_symmetry_group_IT_number 2
_symmetry_cell_setting 'triclinic'
loop_
_space_group_symop_operation_xyz
x,y,z
-x,-y,-z
loop_
_atom_site_type_symbol
_atom_site_label
_atom_site_fract_x
_atom_site_fract_y
_atom_site_fract_z
Si Si1 0.931477 0.312077 0.104447
Si Si2 0.486702 0.922781 0.777130
Si Si3 0.205017 0.516453 0.621760
Si Si4 0.959390 0.915208 0.618928
Si Si5 0.339044 0.854267 0.550117
Si Si6 0.881333 0.483762 0.868270
Si Si7 0.381139 0.384765 0.059536
Si Si8 0.680599 0.082420 0.706505
O O1 0.825087 0.350649 0.214546
O O2 0.033838 0.384172 0.166573
O O3 0.882685 0.498503 0.020258
O O4 0.000000 0.000000 0.000000
O O5 0.423292 0.847823 0.656002
O O6 0.614638 0.891140 0.705242
O O7 0.511678 0.759942 0.876881
O O8 0.414031 0.240082 0.895960
O O9 0.266017 0.187431 0.586444
O O10 0.072992 0.628352 0.592195
O O11 0.271976 0.670774 0.569005
O O12 0.943634 0.164958 0.759628
O O13 0.824685 0.937061 0.641253
O O14 0.000000 0.000000 0.500000
O O15 0.382480 0.752712 0.386121
O O16 0.739943 0.629468 0.877588
O O17 0.344123 0.711288 0.137018
#
# Coordination Sequence:
#
# PCOD9040690 Si02
#       8
#     2   2   2   2   2   2   2   2
#     4  11  23  39  70 102 151 187 249 297 372 445
#     4  11  26  48  74 109 141 204 248 326 369 449
#     4  12  27  48  73 115 148 205 239 316 375 452
#     4  11  23  46  71 107 152 192 244 302 378 450
#     4  12  29  49  80 107 156 195 261 305 379 448
#     4  10  23  43  68 109 145 198 242 309 370 455
#     4  10  25  46  74 103 152 188 261 312 386 436
#     4  11  26  47  74 109 143 202 250 313 374 457
#
# _framework density 25.277148
#
# number of rings (size 3 to 8) (size 9 to 14) (size 15 to 20)
#    0.000    1.000    2.500    2.250    8.750    1.000 
#    4.500    0.000    0.000    0.000    0.000    0.000 
#    0.000    0.000    0.000    0.000    0.000    0.000 
#
# Total GULP energy -89426.029183 kJ/mol
# GULP energy per Si atom -5589.126824 kJ/mol
# Density = 2.521962 g / cm^3
# Si number density = 25.277148 Si / 1000 Ang^3
#
#
#
# Elastic Constant Matrix: (Units=GPa)
#
#
# Indices 1 2 3 4 5 6 
#
# 1 137.1521 46.6717 28.4135 -0.0078 17.1876 2.7519
# 2 46.6717 105.1084 10.9587 0.7652 -1.6668 -2.7728
# 3 28.4135 10.9587 102.1330 -1.6418 5.5895 10.1019
# 4 -0.0078 0.7652 -1.6418 54.1324 4.6185 3.0055
# 5 17.1876 -1.6668 5.5895 4.6185 42.7721 -12.6958
# 6 2.7519 -2.7728 10.1019 3.0055 -12.6958 37.2457
#
#
#
# Elastic Compliance Matrix: (Units=1/GPa)
#
#
# Indices 1 2 3 4 5 6 
#
# 1 0.009721 -0.004263 -0.001779 0.000513 -0.004530 -0.002139
# 2 -0.004263 0.011569 -0.000462 -0.000564 0.002987 0.002365
# 3 -0.001779 -0.000462 0.010794 0.000685 -0.001829 -0.003509
# 4 0.000513 -0.000564 0.000685 0.018937 -0.003221 -0.002892
# 5 -0.004530 0.002987 -0.001829 -0.003221 0.029253 0.011284
# 6 -0.002139 0.002365 -0.003509 -0.002892 0.011284 0.032214
#
#
# Mechanical properties :
#
#
# Convention : Reuss Voigt Hill
#
# Bulk Modulus (GPa) = 52.42294 57.38681 54.90488
# Shear Modulus (GPa) = 37.92039 44.05335 40.98687
#
# Velocity S-wave (km/s) = 3.87742 4.17923 4.03115
# Velocity P-wave (km/s) = 6.38985 6.78530 6.59054
#
# Compressibility (1/GPa) = 0.01907562
#
# Stress axis : x y z
#
# Youngs Moduli (GPa) = 102.86921 86.43846 92.64477
#
# Poissons Ratio (x) = 0.36848 0.16484
# Poissons Ratio (y) = 0.43853 0.04279
# Poissons Ratio (z) = 0.18304 0.03992
#
# Static dielectric constant tensor:
#      x y z
#    x 2.005190 -0.040020 0.013080 
#    y -0.040020 2.047770 0.020360 
#    z 0.013080 0.020360 2.083250 
# 
# From -- ./inp_files/411071.got.cif
#   From: 2010.05.17/outbox.cif.g08.bks.cpg/sg2_206_cif.got.tgz:411071.got - 2010.06.03 11:33:40.
