data_PCOD9040913
_publ_section_title
;
Structure prediction by ZEFSAII (Michael W. Deem and Ramdas Pophale) SiO2 
 PCOD9040913
Probable space group: P -1
;
_chemical_formula_sum "Si O2"
_cell_formula_units_Z 16
_cell_length_a 15.081685
_cell_length_b 9.147856
_cell_length_c 20.359296
_cell_angle_alpha 58.909652
_cell_angle_beta 17.979132
_cell_angle_gamma 68.725981
_cell_volume 649.078693
_symmetry_space_group_name_H-M "P -1"
_symmetry_group_IT_number 2
_symmetry_cell_setting 'triclinic'
loop_
_space_group_symop_operation_xyz
x,y,z
-x,-y,-z
loop_
_atom_site_type_symbol
_atom_site_label
_atom_site_fract_x
_atom_site_fract_y
_atom_site_fract_z
Si Si1 0.322079 0.104513 0.345386
Si Si2 0.215298 0.174287 0.631588
Si Si3 0.258037 0.706647 0.125923
Si Si4 0.180016 0.737009 0.315219
Si Si5 0.085429 0.857255 0.014025
Si Si6 0.158885 0.482295 0.815825
Si Si7 0.927637 0.753413 0.945735
Si Si8 0.245539 0.735510 0.415644
O O1 0.080168 0.183771 0.519265
O O2 0.181226 0.883400 0.470232
O O3 0.510958 0.219655 0.118182
O O4 0.557401 0.125240 0.236584
O O5 0.529268 0.352560 0.403152
O O6 0.041692 0.244857 0.685305
O O7 0.963120 0.101197 0.887069
O O8 0.189149 0.965106 0.683893
O O9 0.384809 0.785725 0.091783
O O10 0.079180 0.472333 0.307088
O O11 0.000000 0.500000 0.500000
O O12 0.347854 0.806900 0.251797
O O13 0.833247 0.634169 0.225682
O O14 0.000000 0.000000 0.000000
O O15 0.942752 0.587252 0.929498
O O16 0.987574 0.299842 0.029754
O O17 0.559743 0.717198 0.221261
#
# Coordination Sequence:
#
# PCOD9040913 Si02
#       8
#     2   2   2   2   2   2   2   2
#     4  11  24  46  68  96 139 175 217 278 337 386
#     4  11  21  42  62  91 133 171 220 270 333 396
#     4  10  23  43  69  97 131 175 218 276 334 399
#     4  10  25  43  72 100 129 173 227 278 328 409
#     4  11  22  40  62  94 131 174 216 268 323 394
#     4  11  23  37  64  90 133 171 222 265 336 390
#     4  11  22  39  63  96 126 177 211 284 325 389
#     4  11  21  44  67  93 135 170 223 273 339 391
#
# _framework density 24.650323
#
# number of rings (size 3 to 8) (size 9 to 14) (size 15 to 20)
#    0.000    1.250    5.000    1.125    3.500    2.500 
#    2.250    2.500    0.000    0.000    0.000    0.000 
#    0.000    0.000    0.000    0.000    0.000    0.000 
#
# Total GULP energy -89276.712001 kJ/mol
# GULP energy per Si atom -5579.794500 kJ/mol
# Density = 2.459422 g / cm^3
# Si number density = 24.650323 Si / 1000 Ang^3
#
#
#
# Elastic Constant Matrix: (Units=GPa)
#
#
# Indices 1 2 3 4 5 6 
#
# 1 67.9770 34.8065 6.4705 3.0180 0.8249 1.6853
# 2 34.8065 182.4878 43.8867 -13.6097 -12.0512 -4.9196
# 3 6.4705 43.8867 57.8108 -4.6687 2.5173 0.2760
# 4 3.0180 -13.6097 -4.6687 36.9686 -5.7135 -2.2819
# 5 0.8249 -12.0512 2.5173 -5.7135 28.6205 -3.5255
# 6 1.6853 -4.9196 0.2760 -2.2819 -3.5255 30.4438
#
#
#
# Elastic Compliance Matrix: (Units=1/GPa)
#
#
# Indices 1 2 3 4 5 6 
#
# 1 0.016898 -0.003988 0.001015 -0.003350 -0.003196 -0.002210
# 2 -0.003988 0.008313 -0.005810 0.003602 0.005151 0.002483
# 3 0.001015 -0.005810 0.021782 -0.000301 -0.004668 -0.001756
# 4 -0.003350 0.003602 -0.000301 0.030115 0.008140 0.003970
# 5 -0.003196 0.005151 -0.004668 0.008140 0.040012 0.006295
# 6 -0.002210 0.002483 -0.001756 0.003970 0.006295 0.034414
#
#
# Mechanical properties :
#
#
# Convention : Reuss Voigt Hill
#
# Bulk Modulus (GPa) = 33.98047 53.17812 43.57929
# Shear Modulus (GPa) = 27.94708 34.08068 31.01388
#
# Velocity S-wave (km/s) = 3.37076 3.72232 3.55089
# Velocity P-wave (km/s) = 5.38185 6.33199 5.87615
#
# Compressibility (1/GPa) = 0.02942867
#
# Stress axis : x y z
#
# Youngs Moduli (GPa) = 59.17719 120.28729 45.90910
#
# Poissons Ratio (x) = 0.47967 -0.04660
# Poissons Ratio (y) = 0.23598 0.26673
# Poissons Ratio (z) = -0.06007 0.69887
#
# Static dielectric constant tensor:
#      x y z
#    x 1.981500 -0.037560 0.024140 
#    y -0.037560 2.061680 0.077260 
#    z 0.024140 0.077260 2.087380 
# 
# From -- ./inp_files/597341.got.cif
#   From: 2010.05.17/outbox.cif.g08.bks.cpg/sg2_299_cif.got.tgz:597341.got - 2010.06.03 11:33:40.
