data_PCOD9040406
_publ_section_title
;
Structure prediction by ZEFSAII (Michael W. Deem and Ramdas Pophale) SiO2 
 PCOD9040406
Probable space group: P -1
;
_chemical_formula_sum "Si O2"
_cell_formula_units_Z 14
_cell_length_a 14.310365
_cell_length_b 12.409670
_cell_length_c 11.694152
_cell_angle_alpha 131.198912
_cell_angle_beta 45.470900
_cell_angle_gamma 154.976997
_cell_volume 624.359437
_symmetry_space_group_name_H-M "P -1"
_symmetry_group_IT_number 2
_symmetry_cell_setting 'triclinic'
loop_
_space_group_symop_operation_xyz
x,y,z
-x,-y,-z
loop_
_atom_site_type_symbol
_atom_site_label
_atom_site_fract_x
_atom_site_fract_y
_atom_site_fract_z
Si Si1 0.703277 0.437120 0.027657
Si Si2 0.746296 0.322382 0.130397
Si Si3 0.618142 0.671394 0.631659
Si Si4 0.020675 0.238943 0.596420
Si Si5 0.759816 0.146128 0.195512
Si Si6 0.117367 0.503523 0.494840
Si Si7 0.552268 0.378765 0.862494
O O1 0.626449 0.257169 0.068757
O O2 0.593591 0.480468 0.209162
O O3 0.624871 0.383230 0.927236
O O4 0.978323 0.655839 0.930950
O O5 0.821220 0.527566 0.286561
O O6 0.642834 0.110078 0.156545
O O7 0.000000 0.500000 0.000000
O O8 0.500000 0.500000 0.500000
O O9 0.802204 0.727213 0.567497
O O10 0.789400 0.959023 0.652461
O O11 0.957643 0.280957 0.571721
O O12 0.739595 0.255683 0.380936
O O13 0.673735 0.924223 0.174778
O O14 0.260305 0.509152 0.311212
O O15 0.000000 0.500000 0.500000
O O16 0.500000 0.500000 0.000000
#
# Coordination Sequence:
#
# PCOD9040406 Si02
#       7
#     2   2   2   2   2   2   2
#     4  11  23  41  67 104 130 172 226 273 341 400
#     4   9  20  40  64  96 128 161 217 281 333 381
#     4  11  23  41  66 101 135 174 217 272 356 401
#     4  10  23  43  66  95 136 173 217 284 327 402
#     4  10  24  46  70  96 139 175 226 287 328 400
#     4  11  23  50  69  98 135 186 234 267 334 403
#     4  12  27  45  69 102 138 184 224 276 336 403
#
# _framework density 22.422982000000001
#
# number of rings (size 3 to 8) (size 9 to 14) (size 15 to 20)
#    0.000    1.429    2.857    1.286    4.000    3.429 
#    5.143    0.000    0.000    0.000    0.000    0.000 
#    0.000    0.000    0.000    0.000    0.000    0.000 
#
# Total GULP energy -77979.818542 kJ/mol
# GULP energy per Si atom -5569.987039 kJ/mol
# Density = 2.237195 g / cm^3
# Si number density = 22.422982 Si / 1000 Ang^3
#
#
#
# Elastic Constant Matrix: (Units=GPa)
#
#
# Indices 1 2 3 4 5 6 
#
# 1 125.3094 29.2880 22.9867 0.3639 8.0826 -22.9538
# 2 29.2880 73.8270 26.6920 23.8472 1.2747 -32.0947
# 3 22.9867 26.6920 140.3179 -2.8828 -7.5074 -3.7704
# 4 0.3639 23.8472 -2.8828 15.2758 -2.9286 -7.0290
# 5 8.0826 1.2747 -7.5074 -2.9286 44.0148 0.6798
# 6 -22.9538 -32.0947 -3.7704 -7.0290 0.6798 32.5952
#
#
#
# Elastic Compliance Matrix: (Units=1/GPa)
#
#
# Indices 1 2 3 4 5 6 
#
# 1 0.010022 -0.004816 -0.000498 0.008875 -0.001260 0.004198
# 2 -0.004816 0.069823 -0.013786 -0.093294 -0.010374 0.043863
# 3 -0.000498 -0.013786 0.010219 0.020288 0.003714 -0.008446
# 4 0.008875 -0.093294 0.020288 0.199570 0.018438 -0.040613
# 5 -0.001260 -0.010374 0.003714 0.018438 0.025223 -0.007223
# 6 0.004198 0.043863 -0.008446 -0.040613 -0.007223 0.067241
#
#
# Mechanical properties :
#
#
# Convention : Reuss Voigt Hill
#
# Bulk Modulus (GPa) = 19.28120 55.26531 37.27325
# Shear Modulus (GPa) = 11.42634 35.74300 23.58467
#
# Velocity S-wave (km/s) = 2.25984 3.99687 3.24668
# Velocity P-wave (km/s) = 3.92768 6.78234 5.54197
#
# Compressibility (1/GPa) = 0.05186400
#
# Stress axis : x y z
#
# Youngs Moduli (GPa) = 99.78387 14.32195 97.85368
#
# Poissons Ratio (x) = 0.06897 0.04872
# Poissons Ratio (y) = 0.48053 1.34904
# Poissons Ratio (z) = 0.04969 0.19745
#
# Static dielectric constant tensor:
#      x y z
#    x 1.875370 -0.023140 -0.074850 
#    y -0.023140 1.369020 -0.902190 
#    z -0.074850 -0.902190 0.006730 
# 
# From -- ./inp_files/97537.got.cif
#   From: 2010.05.17/outbox.cif.g08.bks.cpg/sg2_49_cif.got.tgz:97537.got - 2010.06.03 11:33:40.
