data_PCOD9040053
_publ_section_title
;
Structure prediction by ZEFSAII (Michael W. Deem and Ramdas Pophale) SiO2 
 PCOD9040053
Probable space group: P -1
;
_chemical_formula_sum "Si O2"
_cell_formula_units_Z 12
_cell_length_a 11.358507
_cell_length_b 9.885702
_cell_length_c 10.952610
_cell_angle_alpha 53.025097
_cell_angle_beta 141.425474
_cell_angle_gamma 101.366403
_cell_volume 512.320279
_symmetry_space_group_name_H-M "P -1"
_symmetry_group_IT_number 2
_symmetry_cell_setting 'triclinic'
loop_
_space_group_symop_operation_xyz
x,y,z
-x,-y,-z
loop_
_atom_site_type_symbol
_atom_site_label
_atom_site_fract_x
_atom_site_fract_y
_atom_site_fract_z
Si Si1 0.902804 0.927877 0.680698
Si Si2 0.366761 0.742879 0.257875
Si Si3 0.070713 0.525058 0.411323
Si Si4 0.279682 0.228181 0.196063
Si Si5 0.327041 0.133638 0.680982
Si Si6 0.349382 0.708578 0.531900
O O1 0.872695 0.766241 0.820308
O O2 0.775717 0.132507 0.546577
O O3 0.166142 0.839833 0.944844
O O4 0.782841 0.960236 0.437018
O O5 0.500000 0.500000 0.500000
O O6 0.535367 0.811400 0.328438
O O7 0.264162 0.808500 0.274816
O O8 0.133497 0.338720 0.476677
O O9 0.285386 0.544264 0.580449
O O10 0.000000 0.500000 0.500000
O O11 0.863014 0.719752 0.070894
O O12 0.389311 0.360962 0.219473
O O13 0.500000 0.000000 0.500000
O O14 0.500000 0.000000 0.000000
#
# Coordination Sequence:
#
# PCOD9040053 Si02
#       6
#     2   2   2   2   2   2
#     4  11  25  43  76 105 142 186 245 291 367 434
#     4  12  24  45  76 107 144 183 250 304 357 432
#     4  12  29  48  71 105 149 191 244 301 369 431
#     4  10  23  42  76 106 139 183 245 296 360 425
#     4  12  30  48  69 107 154 192 238 310 369 424
#     4  11  24  44  75 107 136 190 240 297 354 434
#
# _framework density 23.422847999999998
#
# number of rings (size 3 to 8) (size 9 to 14) (size 15 to 20)
#    0.000    0.667    5.000    0.500   11.667    2.667 
#    0.000    0.000    0.000    0.000    0.000    0.000 
#    0.000    0.000    0.000    0.000    0.000    0.000 
#
# Total GULP energy -67179.247026 kJ/mol
# GULP energy per Si atom -5598.270586 kJ/mol
# Density = 2.336954 g / cm^3
# Si number density = 23.422848 Si / 1000 Ang^3
#
#
#
# Elastic Constant Matrix: (Units=GPa)
#
#
# Indices 1 2 3 4 5 6 
#
# 1 74.4592 4.2288 5.8297 9.4118 -11.2000 -13.5468
# 2 4.2288 98.9020 29.3858 22.0120 -5.0337 -32.4809
# 3 5.8297 29.3858 83.4678 18.0390 -0.7353 -18.5731
# 4 9.4118 22.0120 18.0390 40.7763 -0.4046 6.3327
# 5 -11.2000 -5.0337 -0.7353 -0.4046 32.7621 6.6793
# 6 -13.5468 -32.4809 -18.5731 6.3327 6.6793 41.2275
#
#
#
# Elastic Compliance Matrix: (Units=1/GPa)
#
#
# Indices 1 2 3 4 5 6 
#
# 1 0.016561 0.004182 0.001392 -0.008198 0.004207 0.009941
# 2 0.004182 0.019255 0.000219 -0.014371 0.000385 0.018788
# 3 0.001392 0.000219 0.015781 -0.008874 -0.001139 0.009287
# 4 -0.008198 -0.014371 -0.008874 0.041908 0.000303 -0.024500
# 5 0.004207 0.000385 -0.001139 0.000303 0.032854 -0.004196
# 6 0.009941 0.018788 0.009287 -0.024500 -0.004196 0.050951
#
#
# Mechanical properties :
#
#
# Convention : Reuss Voigt Hill
#
# Bulk Modulus (GPa) = 15.82715 37.30197 26.56456
# Shear Modulus (GPa) = 26.76852 37.44549 32.10701
#
# Velocity S-wave (km/s) = 3.38426 4.00268 3.70639
# Velocity P-wave (km/s) = 4.69497 6.10917 5.44815
#
# Compressibility (1/GPa) = 0.06318258
#
# Stress axis : x y z
#
# Youngs Moduli (GPa) = 60.38104 51.93324 63.36844
#
# Poissons Ratio (x) = -0.21718 -0.08820
# Poissons Ratio (y) = -0.25251 -0.01385
# Poissons Ratio (z) = -0.08405 -0.01135
#
# Static dielectric constant tensor:
#      x y z
#    x 1.865890 -0.006120 0.025020 
#    y -0.006120 1.979000 -0.098210 
#    z 0.025020 -0.098210 2.092350 
# 
# From -- ./inp_files/420741.got.cif
#   From: 2010.05.17/outbox.cif.g08.bks.cpg/sg2_211_cif.got.tgz:420741.got - 2010.06.03 11:33:40.
