data_PCOD9040851
_publ_section_title
;
Structure prediction by ZEFSAII (Michael W. Deem and Ramdas Pophale) SiO2 
 PCOD9040851
Probable space group: P -1
;
_chemical_formula_sum "Si O2"
_cell_formula_units_Z 14
_cell_length_a 8.191004
_cell_length_b 5.293619
_cell_length_c 17.868802
_cell_angle_alpha 128.148614
_cell_angle_beta 79.998635
_cell_angle_gamma 109.724707
_cell_volume 572.920100
_symmetry_space_group_name_H-M "P -1"
_symmetry_group_IT_number 2
_symmetry_cell_setting 'triclinic'
loop_
_space_group_symop_operation_xyz
x,y,z
-x,-y,-z
loop_
_atom_site_type_symbol
_atom_site_label
_atom_site_fract_x
_atom_site_fract_y
_atom_site_fract_z
Si Si1 0.310240 0.966632 0.304641
Si Si2 0.204740 0.020250 0.827320
Si Si3 0.519550 0.828707 0.818958
Si Si4 0.020314 0.893602 0.563434
Si Si5 0.216319 0.723932 0.020856
Si Si6 0.106679 0.357237 0.119437
Si Si7 0.331416 0.071988 0.677427
O O1 0.246947 0.581669 0.208440
O O2 0.490945 0.041195 0.352068
O O3 0.353599 0.175928 0.261785
O O4 0.141894 0.030426 0.367037
O O5 0.188597 0.901623 0.721009
O O6 0.398300 0.036105 0.834749
O O7 0.197390 0.393189 0.914268
O O8 0.072334 0.748491 0.840068
O O9 0.402137 0.453707 0.769450
O O10 0.599847 0.034131 0.922970
O O11 0.000000 0.500000 0.500000
O O12 0.000000 0.000000 0.500000
O O13 0.216139 0.060640 0.610840
O O14 0.134791 0.576627 0.081750
O O15 0.141141 0.999211 0.038803
#
# Coordination Sequence:
#
# PCOD9040851 Si02
#       7
#     2   2   2   2   2   2   2
#     4  10  25  49  76 105 152 189 242 299 368 445
#     4  11  25  39  68 104 147 198 250 299 344 427
#     4  10  23  43  69 102 146 201 236 293 359 426
#     4  12  32  52  81 114 141 183 242 309 379 453
#     4  11  24  42  64 106 147 198 250 294 345 408
#     4  11  24  42  69 101 147 199 241 298 355 413
#     4  11  26  47  78 106 148 200 238 300 378 432
#
# _framework density 24.436214
#
# number of rings (size 3 to 8) (size 9 to 14) (size 15 to 20)
#    0.000    1.143    1.429    2.143   16.000    1.714 
#    0.000    0.000    0.000    0.000    0.000    0.000 
#    0.000    0.000    0.000    0.000    0.000    0.000 
#
# Total GULP energy -78200.596408 kJ/mol
# GULP energy per Si atom -5585.756886 kJ/mol
# Density = 2.438060 g / cm^3
# Si number density = 24.436214 Si / 1000 Ang^3
#
#
#
# Elastic Constant Matrix: (Units=GPa)
#
#
# Indices 1 2 3 4 5 6 
#
# 1 114.7078 23.4645 55.4035 -9.2699 13.7331 -8.7068
# 2 23.4645 116.1823 37.2249 -6.1002 -2.3043 -4.6538
# 3 55.4035 37.2249 60.7786 -9.9335 3.2446 7.1620
# 4 -9.2699 -6.1002 -9.9335 40.4991 0.8466 -1.3443
# 5 13.7331 -2.3043 3.2446 0.8466 46.4964 0.2497
# 6 -8.7068 -4.6538 7.1620 -1.3443 0.2497 45.4949
#
#
#
# Elastic Compliance Matrix: (Units=1/GPa)
#
#
# Indices 1 2 3 4 5 6 
#
# 1 0.018254 0.002514 -0.018713 0.000274 -0.004002 0.006727
# 2 0.002514 0.011317 -0.009616 0.000016 0.000472 0.003150
# 3 -0.018713 -0.009616 0.041225 0.003971 0.002160 -0.010949
# 4 0.000274 0.000016 0.003971 0.025755 -0.000827 0.000194
# 5 -0.004002 0.000472 0.002160 -0.000827 0.022583 -0.001206
# 6 0.006727 0.003150 -0.010949 0.000194 -0.001206 0.025326
#
#
# Mechanical properties :
#
#
# Convention : Reuss Voigt Hill
#
# Bulk Modulus (GPa) = 52.18161 58.20606 55.19384
# Shear Modulus (GPa) = 24.69366 38.20313 31.44840
#
# Velocity S-wave (km/s) = 3.18234 3.95825 3.59131
# Velocity P-wave (km/s) = 5.90793 6.69041 6.31131
#
# Compressibility (1/GPa) = 0.01916384
#
# Stress axis : x y z
#
# Youngs Moduli (GPa) = 54.78251 88.36252 24.25694
#
# Poissons Ratio (x) = -0.22211 0.45393
# Poissons Ratio (y) = -0.13770 0.23327
# Poissons Ratio (z) = 1.02517 0.84973
#
# Static dielectric constant tensor:
#      x y z
#    x 2.064160 0.039500 0.029600 
#    y 0.039500 2.084660 -0.039620 
#    z 0.029600 -0.039620 1.986200 
# 
# From -- ./inp_files/88425.got.cif
#   From: 2010.05.17/outbox.cif.g08.bks.cpg/sg2_45_cif.got.tgz:88425.got - 2010.06.03 11:33:40.
