data_PCOD9040148
_publ_section_title
;
Structure prediction by ZEFSAII (Michael W. Deem and Ramdas Pophale) SiO2 
 PCOD9040148
Probable space group: P -1
;
_chemical_formula_sum "Si O2"
_cell_formula_units_Z 16
_cell_length_a 10.976431
_cell_length_b 8.084607
_cell_length_c 14.686059
_cell_angle_alpha 125.493924
_cell_angle_beta 105.596166
_cell_angle_gamma 43.092977
_cell_volume 696.140843
_symmetry_space_group_name_H-M "P -1"
_symmetry_group_IT_number 2
_symmetry_cell_setting 'triclinic'
loop_
_space_group_symop_operation_xyz
x,y,z
-x,-y,-z
loop_
_atom_site_type_symbol
_atom_site_label
_atom_site_fract_x
_atom_site_fract_y
_atom_site_fract_z
Si Si1 0.955847 0.141696 0.304986
Si Si2 0.425789 0.275876 0.631674
Si Si3 0.289675 0.132192 0.687473
Si Si4 0.968646 0.811199 0.467035
Si Si5 0.479555 0.246560 0.116305
Si Si6 0.664033 0.759714 0.733054
Si Si7 0.680724 0.164323 0.796132
Si Si8 0.118849 0.218144 0.867278
O O1 0.731161 0.419563 0.356683
O O2 0.024466 0.177142 0.420320
O O3 0.097131 0.072066 0.237648
O O4 0.982723 0.869599 0.209477
O O5 0.294854 0.342208 0.707089
O O6 0.591682 0.191383 0.690218
O O7 0.500000 0.000000 0.500000
O O8 0.171392 0.264520 0.797761
O O9 0.213690 0.065345 0.576464
O O10 0.503057 0.849257 0.667724
O O11 0.141492 0.485272 0.356914
O O12 0.000000 0.000000 0.500000
O O13 0.350996 0.349209 0.211678
O O14 0.403429 0.508451 0.116568
O O15 0.685219 0.063699 0.134498
O O16 0.500000 0.000000 0.000000
O O17 0.626803 0.048455 0.819422
O O18 0.000000 0.500000 0.000000
#
# Coordination Sequence:
#
# PCOD9040148 Si02
#       8
#     2   2   2   2   2   2   2   2
#     4  12  23  41  66 101 133 175 225 270 343 408
#     4  11  23  42  66  98 140 179 219 279 341 411
#     4  10  23  43  63  97 137 174 223 275 339 402
#     4  12  23  38  66 102 139 176 222 278 337 414
#     4  11  24  45  72  96 131 180 232 288 342 400
#     4  10  25  43  65  99 136 176 225 278 339 413
#     4  11  23  43  67  96 138 178 225 280 344 404
#     4  11  24  45  68  95 133 175 232 283 337 406
#
# _framework density 22.983853
#
# number of rings (size 3 to 8) (size 9 to 14) (size 15 to 20)
#    0.000    1.000    2.500    4.500    1.750    2.500 
#    0.000    1.875    0.000    0.000    0.000    0.000 
#    0.000    0.000    0.000    0.000    0.000    0.000 
#
# Total GULP energy -89293.280826 kJ/mol
# GULP energy per Si atom -5580.830052 kJ/mol
# Density = 2.293154 g / cm^3
# Si number density = 22.983853 Si / 1000 Ang^3
#
#
#
# Elastic Constant Matrix: (Units=GPa)
#
#
# Indices 1 2 3 4 5 6 
#
# 1 108.3737 25.0188 17.3955 14.1591 4.8638 -12.0275
# 2 25.0188 74.3770 23.0064 16.2363 10.4543 -19.2805
# 3 17.3955 23.0064 69.7357 16.4568 14.2748 0.2141
# 4 14.1591 16.2363 16.4568 25.7983 3.7648 6.6561
# 5 4.8638 10.4543 14.2748 3.7648 28.2832 -3.2700
# 6 -12.0275 -19.2805 0.2141 6.6561 -3.2700 36.7015
#
#
#
# Elastic Compliance Matrix: (Units=1/GPa)
#
#
# Indices 1 2 3 4 5 6 
#
# 1 0.010823 -0.001059 -0.001087 -0.005670 0.000302 0.004052
# 2 -0.001059 0.021705 -0.002994 -0.014202 -0.002891 0.013391
# 3 -0.001087 -0.002994 0.019069 -0.008301 -0.007363 -0.001191
# 4 -0.005670 -0.014202 -0.008301 0.061393 -0.000118 -0.020415
# 5 0.000302 -0.002891 -0.007363 -0.000118 0.040364 0.002241
# 6 0.004052 0.013391 -0.001191 -0.020415 0.002241 0.039519
#
#
# Mechanical properties :
#
#
# Convention : Reuss Voigt Hill
#
# Bulk Modulus (GPa) = 24.20272 42.59199 33.39735
# Shear Modulus (GPa) = 23.04938 30.62763 26.83851
#
# Velocity S-wave (km/s) = 3.17022 3.65440 3.42089
# Velocity P-wave (km/s) = 4.89424 6.03139 5.49232
#
# Compressibility (1/GPa) = 0.04131768
#
# Stress axis : x y z
#
# Youngs Moduli (GPa) = 92.39439 46.07128 52.44194
#
# Poissons Ratio (x) = 0.04878 0.05699
# Poissons Ratio (y) = 0.09782 0.15704
# Poissons Ratio (z) = 0.10040 0.13796
#
# Static dielectric constant tensor:
#      x y z
#    x 1.914320 -0.093510 -0.066190 
#    y -0.093510 2.321510 0.193110 
#    z -0.066190 0.193110 1.952980 
# 
# From -- ./inp_files/516269.got.cif
#   From: 2010.05.17/outbox.cif.g08.bks.cpg/sg2_259_cif.got.tgz:516269.got - 2010.06.03 11:33:40.
