data_PCOD9040988
_publ_section_title
;
Structure prediction by ZEFSAII (Michael W. Deem and Ramdas Pophale) SiO2 
 PCOD9040988
Probable space group: P -1
;
_chemical_formula_sum "Si O2"
_cell_formula_units_Z 14
_cell_length_a 6.409842
_cell_length_b 24.396960
_cell_length_c 8.459199
_cell_angle_alpha 147.034302
_cell_angle_beta 102.837864
_cell_angle_gamma 64.244735
_cell_volume 620.346018
_symmetry_space_group_name_H-M "P -1"
_symmetry_group_IT_number 2
_symmetry_cell_setting 'triclinic'
loop_
_space_group_symop_operation_xyz
x,y,z
-x,-y,-z
loop_
_atom_site_type_symbol
_atom_site_label
_atom_site_fract_x
_atom_site_fract_y
_atom_site_fract_z
Si Si1 0.085011 0.197778 0.292099
Si Si2 0.386386 0.570857 0.303426
Si Si3 0.737000 0.883218 0.213551
Si Si4 0.736419 0.656241 0.732196
Si Si5 0.708698 0.526736 0.669710
Si Si6 0.980151 0.895662 0.599105
Si Si7 0.410987 0.909100 0.822005
O O1 0.339463 0.200255 0.363762
O O2 0.857833 0.313944 0.487991
O O3 0.028346 0.162753 0.373705
O O4 0.150436 0.120369 0.951988
O O5 0.581251 0.604466 0.493910
O O6 0.325385 0.483943 0.180461
O O7 0.500000 0.500000 0.000000
O O8 0.919708 0.856163 0.328362
O O9 0.500000 0.000000 0.500000
O O10 0.670746 0.779985 0.960140
O O11 0.684445 0.642740 0.874694
O O12 0.023930 0.574981 0.567696
O O13 0.500000 0.500000 0.500000
O O14 0.240862 0.890307 0.625289
O O15 0.769971 0.026188 0.907211
O O16 0.500000 0.000000 0.000000
#
# Coordination Sequence:
#
# PCOD9040988 Si02
#       7
#     2   2   2   2   2   2   2
#     4  11  24  45  71 105 149 185 248 301 355 449
#     4  11  25  46  71 105 142 190 246 309 378 425
#     4  12  25  46  76 108 149 200 243 292 374 441
#     4  10  23  45  72 106 145 184 250 307 359 449
#     4   9  20  44  74  96 139 181 237 311 362 418
#     4  10  23  43  70 101 145 190 237 300 366 419
#     4   9  20  44  69  98 142 191 243 297 345 437
#
# _framework density 22.568051000000001
#
# number of rings (size 3 to 8) (size 9 to 14) (size 15 to 20)
#    0.000    1.714    2.857    0.000    2.000    5.143 
#    7.714    8.571    3.143    0.000    0.000    0.000 
#    0.000    0.000    0.000    0.000    0.000    0.000 
#
# Total GULP energy -78009.787567 kJ/mol
# GULP energy per Si atom -5572.127683 kJ/mol
# Density = 2.251668 g / cm^3
# Si number density = 22.568051 Si / 1000 Ang^3
#
#
#
# Elastic Constant Matrix: (Units=GPa)
#
#
# Indices 1 2 3 4 5 6 
#
# 1 129.1348 69.9393 35.0913 -9.2380 -4.7369 -13.6392
# 2 69.9393 131.5702 42.1207 -20.2892 -7.2752 12.6617
# 3 35.0913 42.1207 70.8274 -14.4407 -9.5192 6.0333
# 4 -9.2380 -20.2892 -14.4407 36.0101 -2.9319 -4.4303
# 5 -4.7369 -7.2752 -9.5192 -2.9319 34.7273 1.4948
# 6 -13.6392 12.6617 6.0333 -4.4303 1.4948 53.5028
#
#
#
# Elastic Compliance Matrix: (Units=1/GPa)
#
#
# Indices 1 2 3 4 5 6 
#
# 1 0.012417 -0.006271 -0.003169 -0.001076 -0.000792 0.004940
# 2 -0.006271 0.013089 -0.003303 0.004068 0.001498 -0.004029
# 3 -0.003169 -0.003303 0.019541 0.005313 0.004763 -0.001923
# 4 -0.001076 0.004068 0.005313 0.032400 0.004867 0.000711
# 5 -0.000792 0.001498 0.004763 0.004867 0.030785 -0.001551
# 6 0.004940 -0.004029 -0.001923 0.000711 -0.001551 0.021222
#
#
# Mechanical properties :
#
#
# Convention : Reuss Voigt Hill
#
# Bulk Modulus (GPa) = 51.12443 69.53721 60.33082
# Shear Modulus (GPa) = 30.96690 37.14012 34.05351
#
# Velocity S-wave (km/s) = 3.70828 4.06112 3.88870
# Velocity P-wave (km/s) = 6.40607 7.27113 6.85227
#
# Compressibility (1/GPa) = 0.01956012
#
# Stress axis : x y z
#
# Youngs Moduli (GPa) = 80.53281 76.39733 51.17507
#
# Poissons Ratio (x) = 0.47910 0.16219
# Poissons Ratio (y) = 0.50504 0.16905
# Poissons Ratio (z) = 0.25523 0.25236
#
# Static dielectric constant tensor:
#      x y z
#    x 1.880740 0.006430 -0.008920 
#    y 0.006430 1.963690 -0.008240 
#    z -0.008920 -0.008240 1.819880 
# 
# From -- ./inp_files/143194.got.cif
#   From: 2010.05.17/outbox.cif.g08.bks.cpg/sg2_72_cif.got.tgz:143194.got - 2010.06.03 11:33:40.
