data_PCOD9040744
_publ_section_title
;
Structure prediction by ZEFSAII (Michael W. Deem and Ramdas Pophale) SiO2 
 PCOD9040744
Probable space group: P -1
;
_chemical_formula_sum "Si O2"
_cell_formula_units_Z 10
_cell_length_a 6.840042
_cell_length_b 9.217429
_cell_length_c 15.299425
_cell_angle_alpha 37.746498
_cell_angle_beta 65.166312
_cell_angle_gamma 88.514472
_cell_volume 447.168715
_symmetry_space_group_name_H-M "P -1"
_symmetry_group_IT_number 2
_symmetry_cell_setting 'triclinic'
loop_
_space_group_symop_operation_xyz
x,y,z
-x,-y,-z
loop_
_atom_site_type_symbol
_atom_site_label
_atom_site_fract_x
_atom_site_fract_y
_atom_site_fract_z
Si Si1 0.670671 0.738043 0.234221
Si Si2 0.734866 0.158789 0.311653
Si Si3 0.762332 0.815464 0.806665
Si Si4 0.369800 0.754825 0.433687
Si Si5 0.171643 0.236834 0.986807
O O1 0.427581 0.667767 0.371373
O O2 0.754192 0.522391 0.350287
O O3 0.628806 0.717617 0.148518
O O4 0.902410 0.043384 0.078426
O O5 0.787799 0.465314 0.139100
O O6 0.998472 0.189761 0.273201
O O7 0.500000 0.000000 0.500000
O O8 0.635531 0.972804 0.331082
O O9 0.751431 0.061837 0.643797
O O10 0.500000 0.500000 0.000000
O O11 0.805574 0.887045 0.867990
#
# Coordination Sequence:
#
# PCOD9040744 Si02
#       5
#     2   2   2   2   2
#     4  10  23  43  68  97 141 181 213 285 351 394
#     4  12  24  46  71  98 140 183 226 280 335 401
#     4  12  25  42  74 105 132 177 236 279 330 405
#     4  11  23  45  68  98 137 181 227 277 340 405
#     4  11  22  43  69  98 136 180 223 278 341 399
#
# _framework density 22.362924
#
# number of rings (size 3 to 8) (size 9 to 14) (size 15 to 20)
#    0.000    0.800    6.000    1.800    0.000    2.400 
#    0.000    0.000    0.000    0.000    0.000    0.000 
#    0.000    0.000    0.000    0.000    0.000    0.000 
#
# Total GULP energy -55873.769600 kJ/mol
# GULP energy per Si atom -5587.376960 kJ/mol
# Density = 2.231203 g / cm^3
# Si number density = 22.362924 Si / 1000 Ang^3
#
#
#
# Elastic Constant Matrix: (Units=GPa)
#
#
# Indices 1 2 3 4 5 6 
#
# 1 81.2662 7.6150 24.9635 5.2894 -3.0858 -15.9305
# 2 7.6150 90.2646 20.5081 10.5517 -5.7137 3.0392
# 3 24.9635 20.5081 85.2411 -7.9628 4.0096 -9.9814
# 4 5.2894 10.5517 -7.9628 43.6428 -8.7148 4.2889
# 5 -3.0858 -5.7137 4.0096 -8.7148 24.5602 0.0490
# 6 -15.9305 3.0392 -9.9814 4.2889 0.0490 24.2081
#
#
#
# Elastic Compliance Matrix: (Units=1/GPa)
#
#
# Indices 1 2 3 4 5 6 
#
# 1 0.015564 -0.000321 -0.003750 -0.003134 0.001363 0.009289
# 2 -0.000321 0.012515 -0.003626 -0.002888 0.002444 -0.002771
# 3 -0.003750 -0.003626 0.014517 0.003128 -0.002582 0.003424
# 4 -0.003134 -0.002888 0.003128 0.026643 0.007888 -0.005146
# 5 0.001363 0.002444 -0.002582 0.007888 0.044680 -0.001963
# 6 0.009289 -0.002771 0.003424 -0.005146 -0.001963 0.050096
#
#
# Mechanical properties :
#
#
# Convention : Reuss Voigt Hill
#
# Bulk Modulus (GPa) = 36.76337 40.32724 38.54530
# Shear Modulus (GPa) = 26.52854 32.06124 29.29489
#
# Velocity S-wave (km/s) = 3.44797 3.79050 3.62329
# Velocity P-wave (km/s) = 5.68563 6.10159 5.89728
#
# Compressibility (1/GPa) = 0.02720099
#
# Stress axis : x y z
#
# Youngs Moduli (GPa) = 64.25200 79.90330 68.88678
#
# Poissons Ratio (x) = 0.02567 0.25831
# Poissons Ratio (y) = 0.02064 0.24979
# Poissons Ratio (z) = 0.24093 0.28974
#
# Static dielectric constant tensor:
#      x y z
#    x 1.815090 -0.006760 -0.038760 
#    y -0.006760 1.847380 0.072330 
#    z -0.038760 0.072330 1.912690 
# 
# From -- ./inp_files/15807.got.cif
#   From: 2010.05.17/outbox.cif.g08.bks.cpg/sg2_8_cif.got.tgz:15807.got - 2010.06.03 11:33:40.
