data_PCOD9040001
_publ_section_title
;
Structure prediction by ZEFSAII (Michael W. Deem and Ramdas Pophale) SiO2 
 PCOD9040001
Probable space group: P -1
;
_chemical_formula_sum "Si O2"
_cell_formula_units_Z 16
_cell_length_a 13.529179
_cell_length_b 5.313544
_cell_length_c 18.968456
_cell_angle_alpha 87.195670
_cell_angle_beta 28.748142
_cell_angle_gamma 79.922472
_cell_volume 629.804891
_symmetry_space_group_name_H-M "P -1"
_symmetry_group_IT_number 2
_symmetry_cell_setting 'triclinic'
loop_
_space_group_symop_operation_xyz
x,y,z
-x,-y,-z
loop_
_atom_site_type_symbol
_atom_site_label
_atom_site_fract_x
_atom_site_fract_y
_atom_site_fract_z
Si Si1 0.207901 0.016148 0.277388
Si Si2 0.105685 0.638792 0.874537
Si Si3 0.483869 0.248367 0.334601
Si Si4 0.040553 0.013336 0.148435
Si Si5 0.084683 0.645304 0.636840
Si Si6 0.747531 0.535195 0.668100
Si Si7 0.726334 0.328227 0.884619
Si Si8 0.634252 0.847690 0.352598
O O1 0.257589 0.750028 0.295521
O O2 0.271366 0.925750 0.159954
O O3 0.311354 0.228632 0.241584
O O4 0.962795 0.173510 0.407162
O O5 0.270353 0.750901 0.814914
O O6 0.911858 0.806124 0.945067
O O7 0.271191 0.459388 0.716617
O O8 0.000000 0.500000 0.000000
O O9 0.318391 0.448756 0.487163
O O10 0.384040 0.341941 0.320201
O O11 0.503916 0.966133 0.361651
O O12 0.946773 0.184428 0.274363
O O13 0.855574 0.920784 0.226893
O O14 0.222905 0.768760 0.066315
O O15 0.915372 0.465575 0.745612
O O16 0.000000 0.500000 0.500000
O O17 0.500000 0.500000 0.000000
O O18 0.500000 0.000000 0.500000
#
# Coordination Sequence:
#
# PCOD9040001 Si02
#       8
#     2   2   2   2   2   2   2   2
#     4  11  24  44  68 103 157 192 251 306 376 453
#     4  11  26  49  67 106 150 196 250 312 383 459
#     4  11  25  41  74 104 140 196 248 311 380 453
#     4  10  23  42  73  99 142 189 248 314 377 446
#     4  11  22  45  71 108 143 188 256 316 378 453
#     4  12  24  43  69 106 150 197 243 306 379 452
#     4  11  24  46  70 108 145 198 254 314 382 456
#     4  11  23  45  74 106 138 185 250 313 375 447
#
# _framework density 25.404693000000002
#
# number of rings (size 3 to 8) (size 9 to 14) (size 15 to 20)
#    0.000    1.000    2.500    3.375    1.750    8.000 
#    9.000    0.000    0.000    0.000    0.000    0.000 
#    0.000    0.000    0.000    0.000    0.000    0.000 
#
# Total GULP energy -89274.908971 kJ/mol
# GULP energy per Si atom -5579.681811 kJ/mol
# Density = 2.534687 g / cm^3
# Si number density = 25.404693 Si / 1000 Ang^3
#
#
#
# Elastic Constant Matrix: (Units=GPa)
#
#
# Indices 1 2 3 4 5 6 
#
# 1 179.7402 73.9067 26.2424 -0.3292 -13.8289 -52.1521
# 2 73.9067 131.2126 12.7877 4.5525 -11.0309 -43.9342
# 3 26.2424 12.7877 49.1568 -5.4608 -23.6324 -11.8562
# 4 -0.3292 4.5525 -5.4608 31.9782 -2.6755 0.4576
# 5 -13.8289 -11.0309 -23.6324 -2.6755 34.5756 9.6914
# 6 -52.1521 -43.9342 -11.8562 0.4576 9.6914 74.6813
#
#
#
# Elastic Compliance Matrix: (Units=1/GPa)
#
#
# Indices 1 2 3 4 5 6 
#
# 1 0.008321 -0.003278 -0.003184 -0.000115 -0.000882 0.003493
# 2 -0.003278 0.010947 0.000234 -0.001519 0.001087 0.004057
# 3 -0.003184 0.000234 0.033594 0.007528 0.022258 0.000313
# 4 -0.000115 -0.001519 0.007528 0.033410 0.007467 -0.000953
# 5 -0.000882 0.001087 0.022258 0.007467 0.045373 -0.002376
# 6 0.003493 0.004057 0.000313 -0.000953 -0.002376 0.018580
#
#
# Mechanical properties :
#
#
# Convention : Reuss Voigt Hill
#
# Bulk Modulus (GPa) = 24.74763 65.10924 44.92844
# Shear Modulus (GPa) = 28.38495 44.72523 36.55509
#
# Velocity S-wave (km/s) = 3.34625 4.20040 3.79741
# Velocity P-wave (km/s) = 4.96914 7.01491 6.07870
#
# Compressibility (1/GPa) = 0.04040790
#
# Stress axis : x y z
#
# Youngs Moduli (GPa) = 120.17077 91.35051 29.76703
#
# Poissons Ratio (x) = 0.29940 0.09478
# Poissons Ratio (y) = 0.39386 -0.00697
# Poissons Ratio (z) = 0.38263 -0.02140
#
# Static dielectric constant tensor:
#      x y z
#    x 1.972670 -0.035970 0.011750 
#    y -0.035970 2.379440 0.128960 
#    z 0.011750 0.128960 2.172120 
# 
# From -- ./inp_files/596641.got.cif
#   From: 2010.05.17/outbox.cif.g08.bks.cpg/sg2_299_cif.got.tgz:596641.got - 2010.06.03 11:33:40.
