data_PCOD9040642
_publ_section_title
;
Structure prediction by ZEFSAII (Michael W. Deem and Ramdas Pophale) SiO2 
 PCOD9040642
Probable space group: P -1
;
_chemical_formula_sum "Si O2"
_cell_formula_units_Z 14
_cell_length_a 14.452752
_cell_length_b 7.341892
_cell_length_c 9.400861
_cell_angle_alpha 58.481709
_cell_angle_beta 41.857203
_cell_angle_gamma 58.177415
_cell_volume 550.497756
_symmetry_space_group_name_H-M "P -1"
_symmetry_group_IT_number 2
_symmetry_cell_setting 'triclinic'
loop_
_space_group_symop_operation_xyz
x,y,z
-x,-y,-z
loop_
_atom_site_type_symbol
_atom_site_label
_atom_site_fract_x
_atom_site_fract_y
_atom_site_fract_z
Si Si1 0.698062 0.962801 0.951463
Si Si2 0.178689 0.620527 0.410238
Si Si3 0.976996 0.715211 0.843947
Si Si4 0.856012 0.130539 0.184673
Si Si5 0.434770 0.876446 0.407314
Si Si6 0.562982 0.536532 0.636039
Si Si7 0.265715 0.489497 0.059555
O O1 0.814849 0.853022 0.981807
O O2 0.708780 0.764468 0.908815
O O3 0.759237 0.162028 0.748279
O O4 0.464869 0.980029 0.832158
O O5 0.298754 0.460969 0.432628
O O6 0.175340 0.549421 0.280704
O O7 0.028219 0.661676 0.646012
O O8 0.089413 0.835385 0.734282
O O9 0.000000 0.500000 0.000000
O O10 0.723481 0.020907 0.397451
O O11 0.797447 0.354504 0.067365
O O12 0.000000 0.000000 0.000000
O O13 0.524223 0.739419 0.489444
O O14 0.418025 0.685410 0.391940
O O15 0.420845 0.539032 0.888181
#
# Coordination Sequence:
#
# PCOD9040642 Si02
#       7
#     2   2   2   2   2   2   2
#     4  11  24  43  71 103 141 180 232 286 352 409
#     4  12  24  42  70 104 144 176 230 290 352 408
#     4  12  24  46  69  96 137 190 229 277 350 414
#     4  11  22  44  72 101 137 182 239 285 335 417
#     4   9  19  41  72  97 134 186 232 280 342 411
#     4   9  18  39  68  97 133 183 224 278 341 408
#     4  10  23  43  68 101 142 176 228 289 346 406
#
# _framework density 25.431531
#
# number of rings (size 3 to 8) (size 9 to 14) (size 15 to 20)
#    0.000    1.429    2.857    3.429    0.000    2.857 
#    2.571    7.857    0.000    0.000    0.000    0.000 
#    0.000    0.000    0.000    0.000    0.000    0.000 
#
# Total GULP energy -78430.215771 kJ/mol
# GULP energy per Si atom -5602.158269 kJ/mol
# Density = 2.537365 g / cm^3
# Si number density = 25.431531 Si / 1000 Ang^3
#
#
#
# Elastic Constant Matrix: (Units=GPa)
#
#
# Indices 1 2 3 4 5 6 
#
# 1 99.6178 21.3559 31.4622 5.0876 -5.6003 -11.2714
# 2 21.3559 63.7828 32.1963 2.1888 -13.8333 9.8916
# 3 31.4622 32.1963 152.4473 22.2731 -20.6767 5.3271
# 4 5.0876 2.1888 22.2731 32.4093 -5.2460 -13.7272
# 5 -5.6003 -13.8333 -20.6767 -5.2460 49.8485 5.9370
# 6 -11.2714 9.8916 5.3271 -13.7272 5.9370 38.3544
#
#
#
# Elastic Compliance Matrix: (Units=1/GPa)
#
#
# Indices 1 2 3 4 5 6 
#
# 1 0.012163 -0.004165 -0.002347 0.002326 -0.001232 0.005998
# 2 -0.004165 0.020546 -0.002316 -0.001516 0.005009 -0.007519
# 3 -0.002347 -0.002316 0.009079 -0.007113 0.002624 -0.004305
# 4 0.002326 -0.001516 -0.007113 0.042772 -0.000690 0.017478
# 5 -0.001232 0.005009 0.002624 -0.000690 0.023022 -0.005829
# 6 0.005998 -0.007519 -0.004305 0.017478 -0.005829 0.037530
#
#
# Mechanical properties :
#
#
# Convention : Reuss Voigt Hill
#
# Bulk Modulus (GPa) = 41.43911 53.98629 47.71270
# Shear Modulus (GPa) = 29.27173 39.51135 34.39154
#
# Velocity S-wave (km/s) = 3.39632 3.94590 3.68138
# Velocity P-wave (km/s) = 5.63114 6.48339 6.07223
#
# Compressibility (1/GPa) = 0.02413180
#
# Stress axis : x y z
#
# Youngs Moduli (GPa) = 82.21588 48.67044 110.14684
#
# Poissons Ratio (x) = 0.20271 0.25854
# Poissons Ratio (y) = 0.34242 0.25511
# Poissons Ratio (z) = 0.19298 0.11273
#
# Static dielectric constant tensor:
#      x y z
#    x 2.033100 0.032340 0.053750 
#    y 0.032340 2.074180 0.037870 
#    z 0.053750 0.037870 2.016110 
# 
# From -- ./inp_files/185673.got.cif
#   From: 2010.05.17/outbox.cif.g08.bks.cpg/sg2_93_cif.got.tgz:185673.got - 2010.06.03 11:33:40.
