data_PCOD9040374
_publ_section_title
;
Structure prediction by ZEFSAII (Michael W. Deem and Ramdas Pophale) SiO2 
 PCOD9040374
Probable space group: P -1
;
_chemical_formula_sum "Si O2"
_cell_formula_units_Z 14
_cell_length_a 9.140646
_cell_length_b 8.824746
_cell_length_c 24.614357
_cell_angle_alpha 152.456915
_cell_angle_beta 138.404935
_cell_angle_gamma 49.080808
_cell_volume 609.293223
_symmetry_space_group_name_H-M "P -1"
_symmetry_group_IT_number 2
_symmetry_cell_setting 'triclinic'
loop_
_space_group_symop_operation_xyz
x,y,z
-x,-y,-z
loop_
_atom_site_type_symbol
_atom_site_label
_atom_site_fract_x
_atom_site_fract_y
_atom_site_fract_z
Si Si1 0.520479 0.526759 0.579655
Si Si2 0.897316 0.433114 0.735881
Si Si3 0.401896 0.800278 0.325142
Si Si4 0.747922 0.554459 0.930382
Si Si5 0.693818 0.263556 0.090512
Si Si6 0.906547 0.278254 0.450822
Si Si7 0.126413 0.344113 0.630446
O O1 0.500000 0.500000 0.500000
O O2 0.756548 0.561269 0.685705
O O3 0.354200 0.792827 0.640542
O O4 0.422370 0.181940 0.466250
O O5 0.739239 0.400302 0.733685
O O6 0.124615 0.640257 0.873573
O O7 0.975027 0.065750 0.628670
O O8 0.312446 0.744990 0.221732
O O9 0.653452 0.696451 0.356485
O O10 0.558970 0.615202 0.943258
O O11 0.000000 0.500000 0.000000
O O12 0.711268 0.880383 0.987183
O O13 0.794791 0.453969 0.231902
O O14 0.000000 0.500000 0.500000
O O15 0.959211 0.487210 0.586613
O O16 0.000000 0.000000 0.500000
#
# Coordination Sequence:
#
# PCOD9040374 Si02
#       7
#     2   2   2   2   2   2   2
#     4  12  25  37  66 101 131 170 212 259 326 390
#     4  12  24  43  63  99 138 165 204 273 327 395
#     4  11  23  42  64  92 135 169 212 265 323 379
#     4  10  25  44  66  92 119 169 227 270 302 383
#     4  10  23  43  66  88 126 167 212 265 330 365
#     4  12  23  36  58  95 135 169 199 249 328 382
#     4  11  20  40  65  93 128 169 207 263 320 384
#
# _framework density 22.977443000000001
#
# number of rings (size 3 to 8) (size 9 to 14) (size 15 to 20)
#    0.000    0.857    4.286    3.000    6.000    0.571 
#    0.000    0.714    0.000    0.000    0.000    0.000 
#    0.000    0.000    0.000    0.000    0.000    0.000 
#
# Total GULP energy -78123.985526 kJ/mol
# GULP energy per Si atom -5580.284680 kJ/mol
# Density = 2.292515 g / cm^3
# Si number density = 22.977443 Si / 1000 Ang^3
#
#
#
# Elastic Constant Matrix: (Units=GPa)
#
#
# Indices 1 2 3 4 5 6 
#
# 1 145.3803 33.6945 3.6537 -5.7540 43.4441 -23.9929
# 2 33.6945 82.5595 -3.6176 -27.0145 11.4110 -30.5166
# 3 3.6537 -3.6176 51.4363 -3.3659 17.2822 -16.6548
# 4 -5.7540 -27.0145 -3.3659 27.2213 -9.4205 15.8373
# 5 43.4441 11.4110 17.2822 -9.4205 42.4126 -3.2471
# 6 -23.9929 -30.5166 -16.6548 15.8373 -3.2471 49.3678
#
#
#
# Elastic Compliance Matrix: (Units=1/GPa)
#
#
# Indices 1 2 3 4 5 6 
#
# 1 0.014021 -0.002791 0.007465 -0.011008 -0.018338 0.009932
# 2 -0.002791 0.022664 0.006381 0.016778 -0.001397 0.009331
# 3 0.007465 0.006381 0.032888 -0.007290 -0.022890 0.019500
# 4 -0.011008 0.016778 -0.007290 0.068780 0.023635 -0.017948
# 5 -0.018338 -0.001397 -0.022890 0.023635 0.055675 -0.021418
# 6 0.009932 0.009331 0.019500 -0.017948 -0.021418 0.041779
#
#
# Mechanical properties :
#
#
# Convention : Reuss Voigt Hill
#
# Bulk Modulus (GPa) = 10.90734 38.53748 24.72241
# Shear Modulus (GPa) = 20.47011 40.17671 30.32341
#
# Velocity S-wave (km/s) = 2.98800 4.18608 3.63671
# Velocity P-wave (km/s) = 4.08184 6.33819 5.33076
#
# Compressibility (1/GPa) = 0.09168140
#
# Stress axis : x y z
#
# Youngs Moduli (GPa) = 71.32043 44.12370 30.40604
#
# Poissons Ratio (x) = 0.12317 -0.22697
# Poissons Ratio (y) = 0.19909 -0.19402
# Poissons Ratio (z) = -0.53238 -0.28156
#
# Static dielectric constant tensor:
#      x y z
#    x 2.175700 -0.072630 0.167100 
#    y -0.072630 1.991050 -0.060080 
#    z 0.167100 -0.060080 1.987480 
# 
# From -- ./inp_files/202842.got.cif
#   From: 2010.05.17/outbox.cif.g08.bks.cpg/sg2_102_cif.got.tgz:202842.got - 2010.06.03 11:33:40.
