data_PCOD9040950
_publ_section_title
;
Structure prediction by ZEFSAII (Michael W. Deem and Ramdas Pophale) SiO2 
 PCOD9040950
Probable space group: P -1
;
_chemical_formula_sum "Si O2"
_cell_formula_units_Z 16
_cell_length_a 16.285323
_cell_length_b 10.577449
_cell_length_c 8.911496
_cell_angle_alpha 63.537512
_cell_angle_beta 57.849859
_cell_angle_gamma 109.367555
_cell_volume 769.075928
_symmetry_space_group_name_H-M "P -1"
_symmetry_group_IT_number 2
_symmetry_cell_setting 'triclinic'
loop_
_space_group_symop_operation_xyz
x,y,z
-x,-y,-z
loop_
_atom_site_type_symbol
_atom_site_label
_atom_site_fract_x
_atom_site_fract_y
_atom_site_fract_z
Si Si1 0.345323 0.977988 0.043163
Si Si2 0.604777 0.980262 0.381123
Si Si3 0.055062 0.204875 0.771506
Si Si4 0.905368 0.268335 0.062824
Si Si5 0.365250 0.667310 0.250422
Si Si6 0.565265 0.434446 0.056688
Si Si7 0.934644 0.269496 0.364990
Si Si8 0.890703 0.773685 0.642911
O O1 0.339914 0.807074 0.187138
O O2 0.204555 0.896613 0.301735
O O3 0.351550 0.986168 0.853236
O O4 0.497417 0.205544 0.840648
O O5 0.500000 0.000000 0.500000
O O6 0.748011 0.163229 0.244826
O O7 0.537209 0.758892 0.623405
O O8 0.213013 0.424786 0.567832
O O9 0.069105 0.202486 0.582251
O O10 0.940624 0.198722 0.933806
O O11 0.000000 0.000000 0.000000
O O12 0.904594 0.189856 0.265546
O O13 0.025443 0.522411 0.801291
O O14 0.406704 0.649993 0.056933
O O15 0.721247 0.634899 0.878839
O O16 0.500000 0.500000 0.000000
O O17 0.074114 0.337661 0.255517
O O18 0.000000 0.000000 0.500000
#
# Coordination Sequence:
#
# PCOD9040950 Si02
#       8
#     2   2   2   2   2   2   2   2
#     4  11  23  42  71 103 137 175 230 296 342 415
#     4  12  25  41  69 100 134 179 233 281 340 415
#     4  11  24  43  68  99 139 181 229 286 344 422
#     4  11  25  41  69 101 134 179 231 285 356 407
#     4  10  23  43  69  99 138 181 227 285 353 407
#     4  11  26  47  70  99 146 186 225 283 351 423
#     4  11  24  43  68 101 138 175 228 296 344 411
#     4  11  26  45  70 100 137 185 232 286 344 417
#
# _framework density 20.804189000000001
#
# number of rings (size 3 to 8) (size 9 to 14) (size 15 to 20)
#    0.000    1.000    2.500    3.000   10.500    3.000 
#    0.000    0.625    0.000    0.000    0.000    0.000 
#    0.000    0.000    0.000    0.000    0.000    0.000 
#
# Total GULP energy -89425.151439 kJ/mol
# GULP energy per Si atom -5589.071965 kJ/mol
# Density = 2.075684 g / cm^3
# Si number density = 20.804189 Si / 1000 Ang^3
#
#
#
# Elastic Constant Matrix: (Units=GPa)
#
#
# Indices 1 2 3 4 5 6 
#
# 1 100.2524 14.5568 57.5135 -6.0626 -7.9523 19.2409
# 2 14.5568 68.9657 32.0509 -10.7234 -2.6369 11.9944
# 3 57.5135 32.0509 115.1606 -0.4326 -0.5359 13.6756
# 4 -6.0626 -10.7234 -0.4326 32.6456 3.1366 0.1730
# 5 -7.9523 -2.6369 -0.5359 3.1366 36.5907 -0.7664
# 6 19.2409 11.9944 13.6756 0.1730 -0.7664 39.0813
#
#
#
# Elastic Compliance Matrix: (Units=1/GPa)
#
#
# Indices 1 2 3 4 5 6 
#
# 1 0.015552 0.001803 -0.007589 0.003119 0.003016 -0.005509
# 2 0.001803 0.018480 -0.005462 0.006260 0.001009 -0.004656
# 3 -0.007589 -0.005462 0.013913 -0.002870 -0.001582 0.000526
# 4 0.003119 0.006260 -0.002870 0.033420 -0.001833 -0.002637
# 5 0.003016 0.001009 -0.001582 -0.001833 0.028177 -0.000680
# 6 -0.005509 -0.004656 0.000526 -0.002637 -0.000680 0.029543
#
#
# Mechanical properties :
#
#
# Convention : Reuss Voigt Hill
#
# Bulk Modulus (GPa) = 39.29608 54.73568 47.01588
# Shear Modulus (GPa) = 29.40071 33.68068 31.54070
#
# Velocity S-wave (km/s) = 3.76335 4.02797 3.89790
# Velocity P-wave (km/s) = 6.14925 6.92818 6.55031
#
# Compressibility (1/GPa) = 0.02544783
#
# Stress axis : x y z
#
# Youngs Moduli (GPa) = 64.30152 54.11344 71.87475
#
# Poissons Ratio (x) = -0.09754 0.54543
# Poissons Ratio (y) = -0.11591 0.39260
# Poissons Ratio (z) = 0.48796 0.29558
#
# Static dielectric constant tensor:
#      x y z
#    x 1.747150 -0.009070 -0.001860 
#    y -0.009070 1.750770 -0.012580 
#    z -0.001860 -0.012580 1.770430 
# 
# From -- ./inp_files/306737.got.cif
#   From: 2010.05.17/outbox.cif.g08.bks.cpg/sg2_154_cif.got.tgz:306737.got - 2010.06.03 11:33:40.
