data_PCOD9040534
_publ_section_title
;
Structure prediction by ZEFSAII (Michael W. Deem and Ramdas Pophale) SiO2 
 PCOD9040534
Probable space group: P -1
;
_chemical_formula_sum "Si O2"
_cell_formula_units_Z 16
_cell_length_a 12.459872
_cell_length_b 8.001389
_cell_length_c 12.094686
_cell_angle_alpha 128.809615
_cell_angle_beta 67.661063
_cell_angle_gamma 127.693774
_cell_volume 743.482708
_symmetry_space_group_name_H-M "P -1"
_symmetry_group_IT_number 2
_symmetry_cell_setting 'triclinic'
loop_
_space_group_symop_operation_xyz
x,y,z
-x,-y,-z
loop_
_atom_site_type_symbol
_atom_site_label
_atom_site_fract_x
_atom_site_fract_y
_atom_site_fract_z
Si Si1 0.916668 0.123980 0.129071
Si Si2 0.819148 0.463374 0.691037
Si Si3 0.894015 0.817881 0.618212
Si Si4 0.688303 0.738130 0.225967
Si Si5 0.880111 0.211704 0.938065
Si Si6 0.805993 0.960233 0.499864
Si Si7 0.552971 0.353474 0.843527
Si Si8 0.382224 0.811069 0.047125
O O1 0.034802 0.381474 0.242982
O O2 0.806855 0.953289 0.192726
O O3 0.851899 0.161021 0.058886
O O4 0.000000 0.000000 0.000000
O O5 0.836090 0.558093 0.598065
O O6 0.767857 0.173518 0.605914
O O7 0.708218 0.517004 0.810891
O O8 0.036592 0.894823 0.539572
O O9 0.919910 0.025349 0.787636
O O10 0.801203 0.830932 0.564063
O O11 0.551561 0.740646 0.255003
O O12 0.667893 0.473905 0.086296
O O13 0.724780 0.775891 0.355464
O O14 0.748076 0.165354 0.905700
O O15 0.000000 0.500000 0.000000
O O16 0.500000 0.500000 0.000000
O O17 0.555005 0.153197 0.840981
O O18 0.500000 0.000000 0.000000
#
# Coordination Sequence:
#
# PCOD9040534 Si02
#       8
#     2   2   2   2   2   2   2   2
#     4  12  21  38  68  98 129 168 219 283 336 388
#     4  12  24  43  70  99 135 182 223 266 350 399
#     4  11  24  40  69  96 139 177 219 284 327 395
#     4  11  24  43  65  96 135 174 225 277 326 405
#     4  12  23  39  66 104 131 167 223 285 342 394
#     4  11  24  46  64 100 137 182 228 269 326 409
#     4  10  23  43  67  94 134 170 215 283 337 398
#     4  11  24  41  65  98 131 172 217 277 352 394
#
# _framework density 21.520339
#
# number of rings (size 3 to 8) (size 9 to 14) (size 15 to 20)
#    0.000    0.750    2.500    6.375    3.500    1.500 
#    2.250    0.625    0.000    0.000    0.000    0.000 
#    0.000    0.000    0.000    0.000    0.000    0.000 
#
# Total GULP energy -89464.632545 kJ/mol
# GULP energy per Si atom -5591.539534 kJ/mol
# Density = 2.147136 g / cm^3
# Si number density = 21.520339 Si / 1000 Ang^3
#
#
#
# Elastic Constant Matrix: (Units=GPa)
#
#
# Indices 1 2 3 4 5 6 
#
# 1 125.2675 15.2659 26.4412 -14.3660 12.6708 -13.7918
# 2 15.2659 38.1117 6.5875 -19.1742 3.4686 -0.5274
# 3 26.4412 6.5875 67.1886 -6.4023 12.2984 -7.7055
# 4 -14.3660 -19.1742 -6.4023 28.4855 -8.3719 5.0723
# 5 12.6708 3.4686 12.2984 -8.3719 43.6267 -14.0654
# 6 -13.7918 -0.5274 -7.7055 5.0723 -14.0654 38.0932
#
#
#
# Elastic Compliance Matrix: (Units=1/GPa)
#
#
# Indices 1 2 3 4 5 6 
#
# 1 0.009411 -0.002139 -0.002924 0.002064 -0.000605 0.002288
# 2 -0.002139 0.040818 -0.001296 0.027263 0.001874 -0.003410
# 3 -0.002924 -0.001296 0.016935 0.000264 -0.003434 0.001046
# 4 0.002064 0.027263 0.000264 0.057278 0.006891 -0.003904
# 5 -0.000605 0.001874 -0.003434 0.006891 0.027989 0.008529
# 6 0.002288 -0.003410 0.001046 -0.003904 0.008529 0.030913
#
#
# Mechanical properties :
#
#
# Convention : Reuss Voigt Hill
#
# Bulk Modulus (GPa) = 18.36718 36.35079 27.35899
# Shear Modulus (GPa) = 23.34156 34.19262 28.76709
#
# Velocity S-wave (km/s) = 3.29694 3.99036 3.66011
# Velocity P-wave (km/s) = 4.80067 6.17727 5.53196
#
# Compressibility (1/GPa) = 0.05444494
#
# Stress axis : x y z
#
# Youngs Moduli (GPa) = 106.26396 24.49890 59.04986
#
# Poissons Ratio (x) = 0.05240 0.17265
# Poissons Ratio (y) = 0.22730 0.07655
# Poissons Ratio (z) = 0.31070 0.03176
#
# Static dielectric constant tensor:
#      x y z
#    x 1.807680 -0.018840 0.015520 
#    y -0.018840 1.766430 -0.003510 
#    z 0.015520 -0.003510 1.797690 
# 
# From -- ./inp_files/419962.got.cif
#   From: 2010.05.17/outbox.cif.g08.bks.cpg/sg2_210_cif.got.tgz:419962.got - 2010.06.03 11:33:40.
