data_PCOD9040194
_publ_section_title
;
Structure prediction by ZEFSAII (Michael W. Deem and Ramdas Pophale) SiO2 
 PCOD9040194
Probable space group: P -1
;
_chemical_formula_sum "Si O2"
_cell_formula_units_Z 14
_cell_length_a 12.971232
_cell_length_b 21.084354
_cell_length_c 22.979527
_cell_angle_alpha 12.599615
_cell_angle_beta 25.242005
_cell_angle_gamma 28.516200
_cell_volume 584.063129
_symmetry_space_group_name_H-M "P -1"
_symmetry_group_IT_number 2
_symmetry_cell_setting 'triclinic'
loop_
_space_group_symop_operation_xyz
x,y,z
-x,-y,-z
loop_
_atom_site_type_symbol
_atom_site_label
_atom_site_fract_x
_atom_site_fract_y
_atom_site_fract_z
Si Si1 0.409358 0.792211 0.368330
Si Si2 0.945939 0.658102 0.220103
Si Si3 0.517129 0.649459 0.098183
Si Si4 0.383601 0.847398 0.639050
Si Si5 0.144018 0.304963 0.538480
Si Si6 0.084751 0.376467 0.284254
Si Si7 0.752662 0.157015 0.472236
O O1 0.314670 0.679892 0.580070
O O2 0.192800 0.721563 0.498617
O O3 0.666442 0.666763 0.336182
O O4 0.452032 0.133616 0.056930
O O5 0.036243 0.987245 0.893247
O O6 0.980477 0.464007 0.432940
O O7 0.093962 0.533278 0.202047
O O8 0.252853 0.498794 0.362340
O O9 0.712406 0.397865 0.228580
O O10 0.562937 0.878463 0.816703
O O11 0.604474 0.738881 0.586049
O O12 0.500000 0.000000 0.500000
O O13 0.239470 0.091801 0.460739
O O14 0.197032 0.595888 0.982516
O O15 0.000000 0.000000 0.500000
#
# Coordination Sequence:
#
# PCOD9040194 Si02
#       7
#     2   2   2   2   2   2   2
#     4  10  29  42  71  97 140 176 223 266 339 394
#     4  12  25  46  65  99 136 181 223 270 325 404
#     4  10  25  43  65 100 128 172 221 275 328 391
#     4  12  24  45  68 102 133 172 226 275 338 383
#     4  12  26  42  72  97 136 176 224 277 331 392
#     4  12  25  43  72  98 135 175 222 280 328 395
#     4  10  23  43  64  95 133 171 219 270 330 389
#
# _framework density 23.970012000000001
#
# number of rings (size 3 to 8) (size 9 to 14) (size 15 to 20)
#    0.857    0.000    2.857    3.000    8.000    1.143 
#    0.000    2.857    0.000    0.000    0.000    0.000 
#    0.000    0.000    0.000    0.000    0.000    0.000 
#
# Total GULP energy -78297.335012 kJ/mol
# GULP energy per Si atom -5592.666787 kJ/mol
# Density = 2.391546 g / cm^3
# Si number density = 23.970012 Si / 1000 Ang^3
#
#
#
# Elastic Constant Matrix: (Units=GPa)
#
#
# Indices 1 2 3 4 5 6 
#
# 1 44.4683 -1.3939 38.4206 -9.0592 -10.7051 -9.3381
# 2 -1.3939 90.6844 44.8153 -2.3310 6.0601 -23.7649
# 3 38.4206 44.8153 119.0773 -20.3019 2.2996 -23.0425
# 4 -9.0592 -2.3310 -20.3019 39.7270 -13.7909 0.1851
# 5 -10.7051 6.0601 2.2996 -13.7909 40.5224 3.8046
# 6 -9.3381 -23.7649 -23.0425 0.1851 3.8046 47.9466
#
#
#
# Elastic Compliance Matrix: (Units=1/GPa)
#
#
# Indices 1 2 3 4 5 6 
#
# 1 0.040249 0.008142 -0.014415 0.006457 0.012059 0.003965
# 2 0.008142 0.016738 -0.008000 -0.001636 -0.001030 0.006125
# 3 -0.014415 -0.008000 0.017134 0.004189 -0.002311 0.001629
# 4 0.006457 -0.001636 0.004189 0.033151 0.012872 0.001311
# 5 0.012059 -0.001030 -0.002311 0.012872 0.032709 -0.001918
# 6 0.003965 0.006125 0.001629 0.001311 -0.001918 0.025595
#
#
# Mechanical properties :
#
#
# Convention : Reuss Voigt Hill
#
# Bulk Modulus (GPa) = 21.94254 46.43487 34.18871
# Shear Modulus (GPa) = 23.88745 37.13175 30.50960
#
# Velocity S-wave (km/s) = 3.16025 3.94012 3.57154
# Velocity P-wave (km/s) = 4.74239 6.33352 5.59481
#
# Compressibility (1/GPa) = 0.04557357
#
# Stress axis : x y z
#
# Youngs Moduli (GPa) = 24.84532 59.74449 58.36325
#
# Poissons Ratio (x) = -0.48643 0.84134
# Poissons Ratio (y) = -0.20229 0.46691
# Poissons Ratio (z) = 0.35816 0.47796
#
# Static dielectric constant tensor:
#      x y z
#    x 1.961420 0.013970 -0.032280 
#    y 0.013970 1.964160 0.007640 
#    z -0.032280 0.007640 1.909040 
# 
# From -- ./inp_files/623719.got.cif
#   From: 2010.05.17/outbox.cif.g08.bks.cpg/sg2_312_cif.got.tgz:623719.got - 2010.06.03 11:33:40.
