data_PCOD9040394
_publ_section_title
;
Structure prediction by ZEFSAII (Michael W. Deem and Ramdas Pophale) SiO2 
 PCOD9040394
Probable space group: P -1
;
_chemical_formula_sum "Si O2"
_cell_formula_units_Z 14
_cell_length_a 19.331051
_cell_length_b 7.799002
_cell_length_c 16.922159
_cell_angle_alpha 137.441672
_cell_angle_beta 20.851403
_cell_angle_gamma 126.790338
_cell_volume 570.205018
_symmetry_space_group_name_H-M "P -1"
_symmetry_group_IT_number 2
_symmetry_cell_setting 'triclinic'
loop_
_space_group_symop_operation_xyz
x,y,z
-x,-y,-z
loop_
_atom_site_type_symbol
_atom_site_label
_atom_site_fract_x
_atom_site_fract_y
_atom_site_fract_z
Si Si1 0.909834 0.598557 0.414853
Si Si2 0.139362 0.189718 0.728741
Si Si3 0.299029 0.777449 0.204328
Si Si4 0.775007 0.156564 0.331010
Si Si5 0.024172 0.227569 0.316936
Si Si6 0.446484 0.019598 0.885773
Si Si7 0.638835 0.474303 0.114127
O O1 0.946307 0.480290 0.424715
O O2 0.802448 0.922231 0.626455
O O3 0.786658 0.437097 0.447871
O O4 0.138342 0.509840 0.101137
O O5 0.329920 0.141437 0.448897
O O6 0.242607 0.035800 0.645804
O O7 0.995148 0.029332 0.796499
O O8 0.000000 0.500000 0.000000
O O9 0.494964 0.785065 0.048904
O O10 0.131175 0.743733 0.433381
O O11 0.363219 0.562700 0.991716
O O12 0.556123 0.272292 0.558589
O O13 0.000000 0.000000 0.000000
O O14 0.258359 0.163601 0.075255
O O15 0.372316 0.801313 0.933331
#
# Coordination Sequence:
#
# PCOD9040394 Si02
#       7
#     2   2   2   2   2   2   2
#     4  11  24  44  68 101 139 171 228 274 331 405
#     4  10  23  43  66  94 132 173 227 280 333 393
#     4  11  24  44  68  99 139 181 219 275 334 401
#     4  11  25  44  68  97 132 176 224 280 337 393
#     4  10  24  43  64 102 135 177 219 278 336 393
#     4  11  22  41  68  94 135 178 218 271 338 391
#     4  12  24  41  71  99 132 180 225 271 339 397
#
# _framework density 24.552574
#
# number of rings (size 3 to 8) (size 9 to 14) (size 15 to 20)
#    0.000    1.143    2.857    2.571    2.000    1.714 
#    2.571    4.286    0.000    0.000    0.000    0.000 
#    0.000    0.000    0.000    0.000    0.000    0.000 
#
# Total GULP energy -78453.744701 kJ/mol
# GULP energy per Si atom -5603.838907 kJ/mol
# Density = 2.449669 g / cm^3
# Si number density = 24.552574 Si / 1000 Ang^3
#
#
#
# Elastic Constant Matrix: (Units=GPa)
#
#
# Indices 1 2 3 4 5 6 
#
# 1 74.0837 26.6975 20.4442 0.3412 -22.8905 -12.6857
# 2 26.6975 108.0943 32.3679 -6.8374 -9.0787 -21.5011
# 3 20.4442 32.3679 128.1645 0.5652 -28.2079 -7.9170
# 4 0.3412 -6.8374 0.5652 40.9109 0.1345 0.7304
# 5 -22.8905 -9.0787 -28.2079 0.1345 44.2414 -10.6766
# 6 -12.6857 -21.5011 -7.9170 0.7304 -10.6766 43.0502
#
#
#
# Elastic Compliance Matrix: (Units=1/GPa)
#
#
# Indices 1 2 3 4 5 6 
#
# 1 0.019046 -0.002503 0.000576 -0.000754 0.011479 0.007328
# 2 -0.002503 0.011661 -0.002033 0.001907 0.000984 0.004924
# 3 0.000576 -0.002033 0.009897 -0.000552 0.006840 0.002680
# 4 -0.000754 0.001907 -0.000552 0.024775 -0.000399 0.000109
# 5 0.011479 0.000984 0.006840 -0.000399 0.036534 0.014199
# 6 0.007328 0.004924 0.002680 0.000109 0.014199 0.031860
#
#
# Mechanical properties :
#
#
# Convention : Reuss Voigt Hill
#
# Bulk Modulus (GPa) = 30.59472 52.15130 41.37301
# Shear Modulus (GPa) = 32.76802 41.02935 36.89869
#
# Velocity S-wave (km/s) = 3.65719 4.09232 3.88086
# Velocity P-wave (km/s) = 5.50648 6.60426 6.08020
#
# Compressibility (1/GPa) = 0.03268538
#
# Stress axis : x y z
#
# Youngs Moduli (GPa) = 52.50384 85.75655 101.03591
#
# Poissons Ratio (x) = 0.21461 -0.05823
# Poissons Ratio (y) = 0.13139 0.20544
# Poissons Ratio (z) = -0.03026 0.17438
#
# Static dielectric constant tensor:
#      x y z
#    x 1.988840 0.011240 -0.016240 
#    y 0.011240 1.914040 -0.023960 
#    z -0.016240 -0.023960 2.015160 
# 
# From -- ./inp_files/577462.got.cif
#   From: 2010.05.17/outbox.cif.g08.bks.cpg/sg2_289_cif.got.tgz:577462.got - 2010.06.03 11:33:40.
