data_PCOD9040837
_publ_section_title
;
Structure prediction by ZEFSAII (Michael W. Deem and Ramdas Pophale) SiO2 
 PCOD9040837
Probable space group: P -1
;
_chemical_formula_sum "Si O2"
_cell_formula_units_Z 16
_cell_length_a 11.387292
_cell_length_b 5.117093
_cell_length_c 17.640758
_cell_angle_alpha 58.944423
_cell_angle_beta 129.336881
_cell_angle_gamma 105.087578
_cell_volume 677.615762
_symmetry_space_group_name_H-M "P -1"
_symmetry_group_IT_number 2
_symmetry_cell_setting 'triclinic'
loop_
_space_group_symop_operation_xyz
x,y,z
-x,-y,-z
loop_
_atom_site_type_symbol
_atom_site_label
_atom_site_fract_x
_atom_site_fract_y
_atom_site_fract_z
Si Si1 0.575791 0.476310 0.811977
Si Si2 0.995142 0.971745 0.770246
Si Si3 0.104284 0.246415 0.533200
Si Si4 0.818482 0.544295 0.161267
Si Si5 0.446319 0.337553 0.397630
Si Si6 0.737566 0.452743 0.579658
Si Si7 0.395157 0.911450 0.791348
Si Si8 0.111582 0.920029 0.987024
O O1 0.550975 0.616993 0.696914
O O2 0.513530 0.735081 0.807247
O O3 0.478402 0.180490 0.825339
O O4 0.753088 0.348691 0.907949
O O5 0.051777 0.719592 0.770827
O O6 0.113592 0.240037 0.779230
O O7 0.014682 0.853308 0.882255
O O8 0.823692 0.113500 0.665797
O O9 0.157684 0.372694 0.456948
O O10 0.000000 0.500000 0.500000
O O11 0.248838 0.089971 0.662361
O O12 0.000000 0.000000 0.500000
O O13 0.674237 0.362088 0.148925
O O14 0.805348 0.779209 0.049881
O O15 0.577918 0.519602 0.460782
O O16 0.292134 0.461047 0.358514
O O17 0.500000 0.000000 0.500000
O O18 0.000000 0.000000 0.000000
#
# Coordination Sequence:
#
# PCOD9040837 Si02
#       8
#     2   2   2   2   2   2   2   2
#     4  12  27  46  73 102 142 187 227 299 343 418
#     4  10  23  43  69 102 135 174 238 279 355 399
#     4  12  25  42  71 101 142 184 228 288 343 414
#     4  10  24  45  70 103 132 183 229 287 345 409
#     4  11  26  44  70  99 140 184 232 285 357 418
#     4  11  24  43  67 101 135 183 230 290 346 419
#     4  12  25  47  70 105 144 178 243 278 359 417
#     4  10  26  48  71 104 140 181 241 285 351 412
#
# _framework density 23.612200000000001
#
# number of rings (size 3 to 8) (size 9 to 14) (size 15 to 20)
#    0.750    0.250    1.250    4.500    7.000    1.500 
#    0.000    0.000    0.000    0.000    0.000    0.000 
#    0.000    0.000    0.000    0.000    0.000    0.000 
#
# Total GULP energy -89439.117612 kJ/mol
# GULP energy per Si atom -5589.944851 kJ/mol
# Density = 2.355846 g / cm^3
# Si number density = 23.612200 Si / 1000 Ang^3
#
#
#
# Elastic Constant Matrix: (Units=GPa)
#
#
# Indices 1 2 3 4 5 6 
#
# 1 122.5864 10.9580 32.5628 -11.1325 2.1330 -4.8630
# 2 10.9580 88.1424 3.5059 -15.6769 11.0836 -6.2137
# 3 32.5628 3.5059 100.4446 -7.8879 13.7259 4.6177
# 4 -11.1325 -15.6769 -7.8879 33.1155 -4.1436 9.9488
# 5 2.1330 11.0836 13.7259 -4.1436 44.2752 -12.4607
# 6 -4.8630 -6.2137 4.6177 9.9488 -12.4607 28.8231
#
#
#
# Elastic Compliance Matrix: (Units=1/GPa)
#
#
# Indices 1 2 3 4 5 6 
#
# 1 0.009257 -0.000785 -0.003134 0.001582 0.001423 0.001964
# 2 -0.000785 0.012778 0.000724 0.005823 -0.003075 -0.000833
# 3 -0.003134 0.000724 0.012154 0.003242 -0.005081 -0.005635
# 4 0.001582 0.005823 0.003242 0.037900 -0.002723 -0.013256
# 5 0.001423 -0.003075 -0.005081 -0.002723 0.028443 0.013627
# 6 0.001964 -0.000833 -0.005635 -0.013256 0.013627 0.046216
#
#
# Mechanical properties :
#
#
# Convention : Reuss Voigt Hill
#
# Bulk Modulus (GPa) = 35.97247 45.02521 40.49884
# Shear Modulus (GPa) = 30.78745 38.85255 34.82000
#
# Velocity S-wave (km/s) = 3.61484 4.06081 3.84430
# Velocity P-wave (km/s) = 5.71757 6.41069 6.07402
#
# Compressibility (1/GPa) = 0.02779904
#
# Stress axis : x y z
#
# Youngs Moduli (GPa) = 108.02616 78.26130 82.27423
#
# Poissons Ratio (x) = 0.06146 0.25786
# Poissons Ratio (y) = 0.08484 -0.05960
# Poissons Ratio (z) = 0.33857 -0.05669
#
# Static dielectric constant tensor:
#      x y z
#    x 1.942270 0.100500 -0.070920 
#    y 0.100500 1.962970 -0.041000 
#    z -0.070920 -0.041000 1.986730 
# 
# From -- ./inp_files/585500.got.cif
#   From: 2010.05.17/outbox.cif.g08.bks.cpg/sg2_293_cif.got.tgz:585500.got - 2010.06.03 11:33:40.
