data_PCOD9040230
_publ_section_title
;
Structure prediction by ZEFSAII (Michael W. Deem and Ramdas Pophale) SiO2 
 PCOD9040230
Probable space group: P -1
;
_chemical_formula_sum "Si O2"
_cell_formula_units_Z 14
_cell_length_a 9.837760
_cell_length_b 13.219083
_cell_length_c 10.662447
_cell_angle_alpha 145.659454
_cell_angle_beta 121.001069
_cell_angle_gamma 52.146329
_cell_volume 617.502094
_symmetry_space_group_name_H-M "P -1"
_symmetry_group_IT_number 2
_symmetry_cell_setting 'triclinic'
loop_
_space_group_symop_operation_xyz
x,y,z
-x,-y,-z
loop_
_atom_site_type_symbol
_atom_site_label
_atom_site_fract_x
_atom_site_fract_y
_atom_site_fract_z
Si Si1 0.976402 0.160904 0.046644
Si Si2 0.646235 0.395488 0.864385
Si Si3 0.849598 0.639280 0.159028
Si Si4 0.554982 0.874489 0.067539
Si Si5 0.924067 0.994419 0.597869
Si Si6 0.370993 0.600841 0.748982
Si Si7 0.291044 0.265054 0.268210
O O1 0.008945 0.057433 0.820242
O O2 0.779443 0.308664 0.126763
O O3 0.110774 0.264136 0.227871
O O4 0.000000 0.000000 0.000000
O O5 0.734665 0.165220 0.680252
O O6 0.551516 0.460539 0.752823
O O7 0.500000 0.500000 0.000000
O O8 0.786795 0.490443 0.047715
O O9 0.919701 0.785022 0.408912
O O10 0.684106 0.782532 0.148935
O O11 0.000000 0.500000 0.000000
O O12 0.416271 0.773554 0.889371
O O13 0.669058 0.815829 0.936646
O O14 0.443655 0.103813 0.255712
O O15 0.000000 0.000000 0.500000
O O16 0.306360 0.471852 0.496260
#
# Coordination Sequence:
#
# PCOD9040230 Si02
#       7
#     2   2   2   2   2   2   2
#     4  12  26  45  67 103 142 178 228 282 345 412
#     4  11  24  44  70 101 134 176 233 290 342 405
#     4  11  24  43  69 101 134 177 232 287 343 404
#     4  10  23  43  65 101 134 171 239 278 338 412
#     4  12  25  47  73 100 140 183 233 288 338 410
#     4  11  23  44  66  97 138 175 229 288 343 400
#     4  11  23  42  70  93 135 189 221 275 345 415
#
# _framework density 22.671989
#
# number of rings (size 3 to 8) (size 9 to 14) (size 15 to 20)
#    0.000    0.857    4.286    2.571    0.000    4.000 
#    0.000    0.000    0.000    0.000    0.000    0.000 
#    0.000    0.000    0.000    0.000    0.000    0.000 
#
# Total GULP energy -78268.692206 kJ/mol
# GULP energy per Si atom -5590.620872 kJ/mol
# Density = 2.262039 g / cm^3
# Si number density = 22.671989 Si / 1000 Ang^3
#
#
#
# Elastic Constant Matrix: (Units=GPa)
#
#
# Indices 1 2 3 4 5 6 
#
# 1 132.3472 -13.4794 28.0968 5.7801 6.0165 -10.9826
# 2 -13.4794 43.7642 6.2210 -0.4783 -3.6861 1.5398
# 3 28.0968 6.2210 105.6193 14.9617 11.4381 -11.2656
# 4 5.7801 -0.4783 14.9617 30.1658 -1.4963 -2.8976
# 5 6.0165 -3.6861 11.4381 -1.4963 38.7145 2.0940
# 6 -10.9826 1.5398 -11.2656 -2.8976 2.0940 24.7602
#
#
#
# Elastic Compliance Matrix: (Units=1/GPa)
#
#
# Indices 1 2 3 4 5 6 
#
# 1 0.008536 0.002766 -0.002027 -0.000358 -0.000624 0.002703
# 2 0.002766 0.024420 -0.002841 0.001248 0.002874 -0.001682
# 3 -0.002027 -0.002841 0.011809 -0.005288 -0.003885 0.004360
# 4 -0.000358 0.001248 -0.005288 0.036141 0.003062 0.001328
# 5 -0.000624 0.002874 -0.003885 0.003062 0.027694 -0.004207
# 6 0.002703 -0.001682 0.004360 0.001328 -0.004207 0.044186
#
#
# Mechanical properties :
#
#
# Convention : Reuss Voigt Hill
#
# Bulk Modulus (GPa) = 24.65465 35.93416 30.29441
# Shear Modulus (GPa) = 29.32332 36.12093 32.72213
#
# Velocity S-wave (km/s) = 3.60025 3.99582 3.80318
# Velocity P-wave (km/s) = 5.30853 6.09694 5.71635
#
# Compressibility (1/GPa) = 0.04056030
#
# Stress axis : x y z
#
# Youngs Moduli (GPa) = 117.14784 40.94944 84.67814
#
# Poissons Ratio (x) = -0.11325 0.17165
# Poissons Ratio (y) = -0.32400 0.24061
# Poissons Ratio (z) = 0.23747 0.11636
#
# Static dielectric constant tensor:
#      x y z
#    x 1.829730 -0.006850 0.030370 
#    y -0.006850 1.906660 -0.050630 
#    z 0.030370 -0.050630 1.829230 
# 
# From -- ./inp_files/185467.got.cif
#   From: 2010.05.17/outbox.cif.g08.bks.cpg/sg2_93_cif.got.tgz:185467.got - 2010.06.03 11:33:40.
