data_PCOD9040809
_publ_section_title
;
Structure prediction by ZEFSAII (Michael W. Deem and Ramdas Pophale) SiO2 
 PCOD9040809
Probable space group: P -1
;
_chemical_formula_sum "Si O2"
_cell_formula_units_Z 16
_cell_length_a 18.838185
_cell_length_b 7.941993
_cell_length_c 9.429217
_cell_angle_alpha 100.856415
_cell_angle_beta 123.098181
_cell_angle_gamma 37.821569
_cell_volume 638.482441
_symmetry_space_group_name_H-M "P -1"
_symmetry_group_IT_number 2
_symmetry_cell_setting 'triclinic'
loop_
_space_group_symop_operation_xyz
x,y,z
-x,-y,-z
loop_
_atom_site_type_symbol
_atom_site_label
_atom_site_fract_x
_atom_site_fract_y
_atom_site_fract_z
Si Si1 0.340219 0.281941 0.150466
Si Si2 0.091972 0.112582 0.646709
Si Si3 0.823456 0.078870 0.850589
Si Si4 0.361850 0.013016 0.594137
Si Si5 0.208693 0.275494 0.758436
Si Si6 0.273301 0.692359 0.517228
Si Si7 0.390807 0.858812 0.306619
Si Si8 0.094373 0.651720 0.268046
O O1 0.250288 0.610320 0.141545
O O2 0.518038 0.032831 0.276430
O O3 0.335693 0.143714 0.246464
O O4 0.276418 0.297273 0.943883
O O5 0.154140 0.196076 0.765332
O O6 0.940743 0.393806 0.429052
O O7 0.041985 0.089781 0.724270
O O8 0.216312 0.820604 0.632871
O O9 0.806042 0.071083 0.662175
O O10 0.733517 0.080312 0.835529
O O11 0.001350 0.780765 0.043556
O O12 0.324805 0.025943 0.717113
O O13 0.194491 0.329887 0.391703
O O14 0.437536 0.777776 0.511508
O O15 0.453521 0.422053 0.657238
O O16 0.211942 0.608604 0.397126
#
# Coordination Sequence:
#
# PCOD9040809 Si02
#       8
#     2   2   2   2   2   2   2   2
#     4  12  24  46  71 104 145 182 234 292 349 419
#     4  10  23  43  69 100 143 188 234 290 353 416
#     4  12  27  44  76 109 139 183 245 287 350 425
#     4  11  23  45  72  98 146 187 230 289 361 413
#     4  10  23  43  69 102 139 188 238 290 348 415
#     4  12  23  44  70 102 144 184 231 291 355 420
#     4  12  26  47  72 107 144 186 230 295 358 417
#     4  11  24  45  69 104 141 189 236 290 351 418
#
# _framework density 25.059422999999999
#
# number of rings (size 3 to 8) (size 9 to 14) (size 15 to 20)
#    0.000    0.750    2.500    4.875    1.750    2.500 
#    2.250    1.250    0.000    0.000    0.000    0.000 
#    0.000    0.000    0.000    0.000    0.000    0.000 
#
# Total GULP energy -89539.235844 kJ/mol
# GULP energy per Si atom -5596.202240 kJ/mol
# Density = 2.500239 g / cm^3
# Si number density = 25.059423 Si / 1000 Ang^3
#
#
#
# Elastic Constant Matrix: (Units=GPa)
#
#
# Indices 1 2 3 4 5 6 
#
# 1 120.3449 23.0010 23.4283 -2.4827 12.1692 4.7767
# 2 23.0010 76.9891 14.2445 6.2437 10.8389 -12.7710
# 3 23.4283 14.2445 76.1549 -2.6334 19.0896 5.3272
# 4 -2.4827 6.2437 -2.6334 33.6033 -9.5796 -2.0233
# 5 12.1692 10.8389 19.0896 -9.5796 43.9395 7.8764
# 6 4.7767 -12.7710 5.3272 -2.0233 7.8764 44.2283
#
#
#
# Elastic Compliance Matrix: (Units=1/GPa)
#
#
# Indices 1 2 3 4 5 6 
#
# 1 0.009350 -0.002602 -0.002113 0.000749 -0.000623 -0.001361
# 2 -0.002602 0.015978 -0.001615 -0.004216 -0.004459 0.005690
# 3 -0.002113 -0.001615 0.015566 -0.000314 -0.005647 -0.001122
# 4 0.000749 -0.004216 -0.000314 0.032882 0.008361 -0.001245
# 5 -0.000623 -0.004459 -0.005647 0.008361 0.029269 -0.005370
# 6 -0.001361 0.005690 -0.001122 -0.001245 -0.005370 0.025435
#
#
# Mechanical properties :
#
#
# Convention : Reuss Voigt Hill
#
# Bulk Modulus (GPa) = 35.41414 43.87072 39.64243
# Shear Modulus (GPa) = 33.21141 38.54191 35.87666
#
# Velocity S-wave (km/s) = 3.64443 3.92602 3.78784
# Velocity P-wave (km/s) = 5.64552 6.17221 5.91473
#
# Compressibility (1/GPa) = 0.02823731
#
# Stress axis : x y z
#
# Youngs Moduli (GPa) = 106.94702 62.58460 64.24197
#
# Poissons Ratio (x) = 0.16282 0.13573
# Poissons Ratio (y) = 0.27823 0.10372
# Poissons Ratio (z) = 0.22595 0.10104
#
# Static dielectric constant tensor:
#      x y z
#    x 2.035920 0.009300 -0.041820 
#    y 0.009300 2.118800 0.024500 
#    z -0.041820 0.024500 1.919710 
# 
# From -- ./inp_files/261507.got.cif
#   From: 2010.05.17/outbox.cif.g08.bks.cpg/sg2_131_cif.got.tgz:261507.got - 2010.06.03 11:33:40.
