data_PCOD9040902
_publ_section_title
;
Structure prediction by ZEFSAII (Michael W. Deem and Ramdas Pophale) SiO2 
 PCOD9040902
Probable space group: P -1
;
_chemical_formula_sum "Si O2"
_cell_formula_units_Z 16
_cell_length_a 6.723500
_cell_length_b 17.343577
_cell_length_c 14.030063
_cell_angle_alpha 150.463274
_cell_angle_beta 118.199199
_cell_angle_gamma 66.148721
_cell_volume 710.722871
_symmetry_space_group_name_H-M "P -1"
_symmetry_group_IT_number 2
_symmetry_cell_setting 'triclinic'
loop_
_space_group_symop_operation_xyz
x,y,z
-x,-y,-z
loop_
_atom_site_type_symbol
_atom_site_label
_atom_site_fract_x
_atom_site_fract_y
_atom_site_fract_z
Si Si1 0.435229 0.009651 0.383041
Si Si2 0.140172 0.160681 0.723455
Si Si3 0.893082 0.243305 0.937403
Si Si4 0.433181 0.423220 0.002594
Si Si5 0.809436 0.653475 0.718143
Si Si6 0.600645 0.160471 0.239610
Si Si7 0.991867 0.309410 0.385982
Si Si8 0.487273 0.287918 0.554505
O O1 0.455980 0.176833 0.519582
O O2 0.500000 0.000000 0.500000
O O3 0.620644 0.906268 0.258701
O O4 0.189643 0.930771 0.239051
O O5 0.983577 0.246620 0.854824
O O6 0.232775 0.291878 0.811102
O O7 0.000000 0.000000 0.500000
O O8 0.666639 0.342398 0.001024
O O9 0.097388 0.297748 0.107014
O O10 0.380538 0.557846 0.212989
O O11 0.500000 0.500000 0.000000
O O12 0.558430 0.705156 0.695890
O O13 0.858236 0.470903 0.523177
O O14 0.960792 0.740982 0.765701
O O15 0.849713 0.188572 0.286100
O O16 0.588453 0.191658 0.384337
O O17 0.500000 0.000000 0.000000
O O18 0.238589 0.337245 0.516635
#
# Coordination Sequence:
#
# PCOD9040902 Si02
#       8
#     2   2   2   2   2   2   2   2
#     4  11  24  45  68  96 141 181 229 283 346 414
#     4  11  25  44  68  98 135 182 231 278 350 413
#     4  11  24  42  71  98 130 185 229 277 351 413
#     4  11  26  46  69 100 141 180 236 292 341 414
#     4  10  23  43  69  96 130 178 226 277 344 409
#     4  11  27  42  67 105 138 173 229 288 347 416
#     4  10  23  46  68  94 137 177 222 283 344 409
#     4  11  25  44  69 101 137 182 229 286 348 409
#
# _framework density 22.51229
#
# number of rings (size 3 to 8) (size 9 to 14) (size 15 to 20)
#    0.000    1.250    2.500    1.875    7.000    2.500 
#    0.000    0.000    0.000    0.000    0.000    0.000 
#    0.000    0.000    0.000    0.000    0.000    0.000 
#
# Total GULP energy -89304.968600 kJ/mol
# GULP energy per Si atom -5581.560537 kJ/mol
# Density = 2.246105 g / cm^3
# Si number density = 22.512290 Si / 1000 Ang^3
#
#
#
# Elastic Constant Matrix: (Units=GPa)
#
#
# Indices 1 2 3 4 5 6 
#
# 1 84.0453 6.8604 30.4895 8.4376 7.8773 30.5380
# 2 6.8604 82.6526 22.9428 8.6446 1.1409 16.9347
# 3 30.4895 22.9428 98.2565 3.5221 -0.2871 38.2262
# 4 8.4376 8.6446 3.5221 30.6426 5.9191 -1.2821
# 5 7.8773 1.1409 -0.2871 5.9191 33.9942 7.9643
# 6 30.5380 16.9347 38.2262 -1.2821 7.9643 34.2087
#
#
#
# Elastic Compliance Matrix: (Units=1/GPa)
#
#
# Indices 1 2 3 4 5 6 
#
# 1 0.019475 0.003094 0.002056 -0.007756 0.001892 -0.021945
# 2 0.003094 0.014631 0.000060 -0.005896 0.002359 -0.010842
# 3 0.002056 0.000060 0.019687 -0.005189 0.006587 -0.025592
# 4 -0.007756 -0.005896 -0.005189 0.039671 -0.009486 0.019336
# 5 0.001892 0.002359 0.006587 -0.009486 0.034992 -0.018720
# 6 -0.021945 -0.010842 -0.025592 0.019336 -0.018720 0.087871
#
#
# Mechanical properties :
#
#
# Convention : Reuss Voigt Hill
#
# Bulk Modulus (GPa) = 15.57316 42.83777 29.20546
# Shear Modulus (GPa) = 21.99611 33.41321 27.70466
#
# Velocity S-wave (km/s) = 3.12920 3.85674 3.51186
# Velocity P-wave (km/s) = 4.47085 6.23719 5.42637
#
# Compressibility (1/GPa) = 0.06421306
#
# Stress axis : x y z
#
# Youngs Moduli (GPa) = 51.34728 68.34836 50.79399
#
# Poissons Ratio (x) = -0.21149 -0.10441
# Poissons Ratio (y) = -0.15889 -0.00304
# Poissons Ratio (z) = -0.10554 -0.00409
#
# Static dielectric constant tensor:
#      x y z
#    x 1.846440 0.010530 -0.018920 
#    y 0.010530 1.847100 -0.000990 
#    z -0.018920 -0.000990 1.966210 
# 
# From -- ./inp_files/306087.got.cif
#   From: 2010.05.17/outbox.cif.g08.bks.cpg/sg2_154_cif.got.tgz:306087.got - 2010.06.03 11:33:40.
