data_PCOD9040638
_publ_section_title
;
Structure prediction by ZEFSAII (Michael W. Deem and Ramdas Pophale) SiO2 
 PCOD9040638
Probable space group: P -1
;
_chemical_formula_sum "Si O2"
_cell_formula_units_Z 16
_cell_length_a 11.731645
_cell_length_b 14.112151
_cell_length_c 9.211090
_cell_angle_alpha 68.820710
_cell_angle_beta 116.523530
_cell_angle_gamma 58.212781
_cell_volume 719.479956
_symmetry_space_group_name_H-M "P -1"
_symmetry_group_IT_number 2
_symmetry_cell_setting 'triclinic'
loop_
_space_group_symop_operation_xyz
x,y,z
-x,-y,-z
loop_
_atom_site_type_symbol
_atom_site_label
_atom_site_fract_x
_atom_site_fract_y
_atom_site_fract_z
Si Si1 0.561471 0.619104 0.614003
Si Si2 0.404356 0.271699 0.136546
Si Si3 0.855383 0.861716 0.575931
Si Si4 0.139360 0.510362 0.581797
Si Si5 0.059485 0.357395 0.022751
Si Si6 0.601784 0.215416 0.869337
Si Si7 0.361859 0.611271 0.011691
Si Si8 0.257668 0.103777 0.812481
O O1 0.553451 0.701786 0.700281
O O2 0.390203 0.752558 0.311043
O O3 0.530885 0.530569 0.722966
O O4 0.818926 0.465142 0.790173
O O5 0.244097 0.278489 0.060093
O O6 0.650234 0.075734 0.333704
O O7 0.271080 0.428408 0.857632
O O8 0.827579 0.803717 0.725607
O O9 0.831021 0.813476 0.444209
O O10 0.102693 0.746920 0.774643
O O11 0.340419 0.365957 0.665022
O O12 0.000000 0.500000 0.500000
O O13 0.957393 0.714523 0.322203
O O14 0.000000 0.500000 0.000000
O O15 0.654190 0.266916 0.991054
O O16 0.719676 0.030079 0.065977
O O17 0.500000 0.500000 0.000000
O O18 0.500000 0.000000 0.000000
#
# Coordination Sequence:
#
# PCOD9040638 Si02
#       8
#     2   2   2   2   2   2   2   2
#     4  10  23  43  68 101 139 181 236 285 355 420
#     4  11  21  41  68 102 138 185 229 293 354 418
#     4  11  23  42  66 104 137 180 245 287 345 423
#     4  12  23  45  68 101 143 184 237 292 354 418
#     4   9  19  35  64  94 136 180 219 285 347 412
#     4  12  25  46  71 101 142 191 229 294 356 417
#     4  11  25  49  77  97 137 191 244 292 347 420
#     4  12  25  41  70 105 143 182 234 290 357 425
#
# _framework density 22.238287
#
# number of rings (size 3 to 8) (size 9 to 14) (size 15 to 20)
#    0.000    1.000    2.500    5.250    3.500    0.500 
#    9.000    0.625    0.000    0.000    0.000    0.000 
#    0.000    0.000    0.000    0.000    0.000    0.000 
#
# Total GULP energy -89231.983367 kJ/mol
# GULP energy per Si atom -5576.998960 kJ/mol
# Density = 2.218767 g / cm^3
# Si number density = 22.238287 Si / 1000 Ang^3
#
#
#
# Elastic Constant Matrix: (Units=GPa)
#
#
# Indices 1 2 3 4 5 6 
#
# 1 92.9627 25.4094 33.1786 -8.5016 -15.0226 8.7786
# 2 25.4094 88.4685 44.0822 -23.5809 -13.2397 8.1218
# 3 33.1786 44.0822 103.9261 -10.9189 -24.1739 2.1598
# 4 -8.5016 -23.5809 -10.9189 49.5693 -1.1630 -0.4627
# 5 -15.0226 -13.2397 -24.1739 -1.1630 31.9311 -2.0519
# 6 8.7786 8.1218 2.1598 -0.4627 -2.0519 37.0340
#
#
#
# Elastic Compliance Matrix: (Units=1/GPa)
#
#
# Indices 1 2 3 4 5 6 
#
# 1 0.012940 -0.001427 -0.002568 0.001033 0.003435 -0.002401
# 2 -0.001427 0.016733 -0.005369 0.006560 0.002261 -0.002811
# 3 -0.002568 -0.005369 0.014513 0.000395 0.007655 0.001369
# 4 0.001033 0.006560 0.000395 0.023648 0.004291 -0.001173
# 5 0.003435 0.002261 0.007655 0.004291 0.039855 0.000505
# 6 -0.002401 -0.002811 0.001369 -0.001173 0.000505 0.028121
#
#
# Mechanical properties :
#
#
# Convention : Reuss Voigt Hill
#
# Bulk Modulus (GPa) = 39.27985 54.52196 46.90091
# Shear Modulus (GPa) = 30.67005 35.88604 33.27805
#
# Velocity S-wave (km/s) = 3.71773 4.02145 3.87257
# Velocity P-wave (km/s) = 6.01084 6.79214 6.41340
#
# Compressibility (1/GPa) = 0.02545835
#
# Stress axis : x y z
#
# Youngs Moduli (GPa) = 77.27958 59.76110 68.90301
#
# Poissons Ratio (x) = 0.08527 0.17697
# Poissons Ratio (y) = 0.11027 0.36992
# Poissons Ratio (z) = 0.19849 0.32084
#
# Static dielectric constant tensor:
#      x y z
#    x 1.830460 -0.020020 -0.020440 
#    y -0.020020 1.930100 0.022550 
#    z -0.020440 0.022550 1.838030 
# 
# From -- ./inp_files/272688.got.cif
#   From: 2010.05.17/outbox.cif.g08.bks.cpg/sg2_137_cif.got.tgz:272688.got - 2010.06.03 11:33:40.
