data_PCOD9040005
_publ_section_title
;
Structure prediction by ZEFSAII (Michael W. Deem and Ramdas Pophale) SiO2 
 PCOD9040005
Probable space group: P -1
;
_chemical_formula_sum "Si O2"
_cell_formula_units_Z 16
_cell_length_a 10.226393
_cell_length_b 9.461888
_cell_length_c 9.417304
_cell_angle_alpha 82.735073
_cell_angle_beta 90.207589
_cell_angle_gamma 125.736738
_cell_volume 730.917253
_symmetry_space_group_name_H-M "P -1"
_symmetry_group_IT_number 2
_symmetry_cell_setting 'triclinic'
loop_
_space_group_symop_operation_xyz
x,y,z
-x,-y,-z
loop_
_atom_site_type_symbol
_atom_site_label
_atom_site_fract_x
_atom_site_fract_y
_atom_site_fract_z
Si Si1 0.005582 0.169725 0.445096
Si Si2 0.792708 0.037462 0.189633
Si Si3 0.628920 0.489333 0.587638
Si Si4 0.271948 0.199601 0.033908
Si Si5 0.632680 0.448065 0.913926
Si Si6 0.466132 0.886140 0.375070
Si Si7 0.140086 0.670123 0.059391
Si Si8 0.184639 0.887818 0.271742
O O1 0.937052 0.146508 0.289209
O O2 0.888204 0.159566 0.565659
O O3 0.187459 0.339616 0.444288
O O4 0.000000 0.000000 0.500000
O O5 0.787714 0.165679 0.065682
O O6 0.798179 0.903506 0.102841
O O7 0.629319 0.939389 0.292424
O O8 0.500000 0.500000 0.500000
O O9 0.583819 0.473131 0.755598
O O10 0.622533 0.319430 0.565156
O O11 0.467720 0.309745 0.014454
O O12 0.256586 0.358573 0.038939
O O13 0.203391 0.054817 0.177434
O O14 0.730161 0.367010 0.899784
O O15 0.358142 0.920991 0.273583
O O16 0.500000 0.000000 0.500000
O O17 0.081736 0.719755 0.189954
O O18 0.000000 0.500000 0.000000
#
# Coordination Sequence:
#
# PCOD9040005 Si02
#       8
#     2   2   2   2   2   2   2   2
#     4  12  27  46  73 104 146 184 235 293 355 421
#     4  11  23  45  72 105 140 184 232 288 353 412
#     4  12  27  47  73 101 143 186 238 291 353 421
#     4  10  23  42  74 100 138 185 229 288 339 421
#     4  11  22  44  71 102 138 180 241 281 348 410
#     4  12  24  43  72 103 141 183 237 287 349 417
#     4  11  24  43  68 101 141 181 229 289 348 415
#     4  11  24  45  68 103 141 183 231 284 354 411
#
# _framework density 21.890305000000001
#
# number of rings (size 3 to 8) (size 9 to 14) (size 15 to 20)
#    0.000    0.750    3.750    3.000    1.750    4.500 
#    2.250    3.125    0.000    0.000    0.000    0.000 
#    0.000    0.000    0.000    0.000    0.000    0.000 
#
# Total GULP energy -89513.607260 kJ/mol
# GULP energy per Si atom -5594.600454 kJ/mol
# Density = 2.184048 g / cm^3
# Si number density = 21.890305 Si / 1000 Ang^3
#
#
#
# Elastic Constant Matrix: (Units=GPa)
#
#
# Indices 1 2 3 4 5 6 
#
# 1 76.0000 29.9685 30.7157 -0.2115 10.1864 1.8648
# 2 29.9685 163.2952 51.1179 19.7957 -3.6657 -10.5517
# 3 30.7157 51.1179 109.1058 22.1416 8.5823 -5.7199
# 4 -0.2115 19.7957 22.1416 35.4891 1.2127 -2.9774
# 5 10.1864 -3.6657 8.5823 1.2127 30.1772 0.9330
# 6 1.8648 -10.5517 -5.7199 -2.9774 0.9330 38.1733
#
#
#
# Elastic Compliance Matrix: (Units=1/GPa)
#
#
# Indices 1 2 3 4 5 6 
#
# 1 0.016441 -0.002467 -0.003989 0.003989 -0.004824 -0.001654
# 2 -0.002467 0.007874 -0.002550 -0.002767 0.002575 0.001636
# 3 -0.003989 -0.002550 0.013064 -0.006585 -0.002444 0.000994
# 4 0.003989 -0.002767 -0.006585 0.033955 -0.001197 0.000731
# 5 -0.004824 0.002575 -0.002444 -0.001197 0.035834 -0.000388
# 6 -0.001654 0.001636 0.000994 0.000731 -0.000388 0.026945
#
#
# Mechanical properties :
#
#
# Convention : Reuss Voigt Hill
#
# Bulk Modulus (GPa) = 51.63662 63.55614 57.59638
# Shear Modulus (GPa) = 31.52947 36.54117 34.03532
#
# Velocity S-wave (km/s) = 3.79930 4.09012 3.94739
# Velocity P-wave (km/s) = 6.54876 7.16955 6.86617
#
# Compressibility (1/GPa) = 0.01936610
#
# Stress axis : x y z
#
# Youngs Moduli (GPa) = 60.82193 127.00396 76.54692
#
# Poissons Ratio (x) = 0.31336 0.30538
# Poissons Ratio (y) = 0.15007 0.19517
# Poissons Ratio (z) = 0.24265 0.32382
#
# Static dielectric constant tensor:
#      x y z
#    x 1.809860 0.021820 -0.018190 
#    y 0.021820 1.802750 0.043750 
#    z -0.018190 0.043750 1.822250 
# 
# From -- ./inp_files/243557.got.cif
#   From: 2010.05.17/outbox.cif.g08.bks.cpg/sg2_122_cif.got.tgz:243557.got - 2010.06.03 11:33:40.
