data_PCOD9040321
_publ_section_title
;
Structure prediction by ZEFSAII (Michael W. Deem and Ramdas Pophale) SiO2 
 PCOD9040321
Probable space group: P -1
;
_chemical_formula_sum "Si O2"
_cell_formula_units_Z 14
_cell_length_a 12.291653
_cell_length_b 6.448470
_cell_length_c 11.418686
_cell_angle_alpha 132.784922
_cell_angle_beta 70.933433
_cell_angle_gamma 114.485604
_cell_volume 603.119690
_symmetry_space_group_name_H-M "P -1"
_symmetry_group_IT_number 2
_symmetry_cell_setting 'triclinic'
loop_
_space_group_symop_operation_xyz
x,y,z
-x,-y,-z
loop_
_atom_site_type_symbol
_atom_site_label
_atom_site_fract_x
_atom_site_fract_y
_atom_site_fract_z
Si Si1 0.333407 0.874085 0.766523
Si Si2 0.952713 0.383352 0.664642
Si Si3 0.426204 0.358461 0.586551
Si Si4 0.842619 0.197190 0.387622
Si Si5 0.982673 0.185290 0.824650
Si Si6 0.565883 0.261315 0.727386
Si Si7 0.799358 0.783674 0.899928
O O1 0.337624 0.565637 0.703915
O O2 0.287233 0.842015 0.636387
O O3 0.463430 0.115525 0.804696
O O4 0.236338 0.993184 0.914367
O O5 0.863096 0.259602 0.541628
O O6 0.969676 0.185468 0.689183
O O7 0.900917 0.629061 0.840825
O O8 0.074823 0.529344 0.609387
O O9 0.500000 0.500000 0.500000
O O10 0.502117 0.377155 0.685531
O O11 0.388594 0.016366 0.435686
O O12 0.902519 0.935303 0.238523
O O13 0.861419 0.963641 0.833398
O O14 0.000000 0.500000 0.000000
O O15 0.676927 0.526574 0.828218
#
# Coordination Sequence:
#
# PCOD9040321 Si02
#       7
#     2   2   2   2   2   2   2
#     4  11  23  42  69  98 132 178 219 272 333 393
#     4  10  23  43  65  98 133 171 218 280 325 392
#     4   9  22  41  65  94 128 179 218 270 326 394
#     4  10  23  43  67  97 132 169 227 268 330 398
#     4  11  23  43  69  97 134 176 219 275 338 388
#     4  10  23  44  64  97 137 173 222 270 334 389
#     4  11  25  42  65 102 134 171 221 280 324 399
#
# _framework density 23.212637999999998
#
# number of rings (size 3 to 8) (size 9 to 14) (size 15 to 20)
#    0.000    1.714    0.000    2.571    6.000    8.571 
#    5.143    0.000    0.000    0.000    0.000    0.000 
#    0.000    0.000    0.000    0.000    0.000    0.000 
#
# Total GULP energy -78226.279487 kJ/mol
# GULP energy per Si atom -5587.591392 kJ/mol
# Density = 2.315981 g / cm^3
# Si number density = 23.212638 Si / 1000 Ang^3
#
#
#
# Elastic Constant Matrix: (Units=GPa)
#
#
# Indices 1 2 3 4 5 6 
#
# 1 73.4400 55.2261 14.9623 6.1887 -3.2205 -4.2058
# 2 55.2261 118.8837 24.5016 -8.3284 0.0872 -22.4485
# 3 14.9623 24.5016 85.9662 9.6135 -17.1372 -23.9021
# 4 6.1887 -8.3284 9.6135 36.5945 -2.1957 -7.4668
# 5 -3.2205 0.0872 -17.1372 -2.1957 34.3067 0.3282
# 6 -4.2058 -22.4485 -23.9021 -7.4668 0.3282 39.3117
#
#
#
# Elastic Compliance Matrix: (Units=1/GPa)
#
#
# Indices 1 2 3 4 5 6 
#
# 1 0.023673 -0.012587 -0.001372 -0.007867 0.001133 -0.006992
# 2 -0.012587 0.016785 -0.001275 0.008034 -0.001433 0.009001
# 3 -0.001372 -0.001275 0.016449 -0.002141 0.007872 0.008655
# 4 -0.007867 0.008034 -0.002141 0.032830 0.000190 0.008678
# 5 0.001133 -0.001433 0.007872 0.000190 0.033166 0.003848
# 6 -0.006992 0.009001 0.008655 0.008678 0.003848 0.036708
#
#
# Mechanical properties :
#
#
# Convention : Reuss Voigt Hill
#
# Bulk Modulus (GPa) = 37.81911 51.96333 44.89122
# Shear Modulus (GPa) = 25.13938 34.28258 29.71098
#
# Velocity S-wave (km/s) = 3.29447 3.84721 3.58152
# Velocity P-wave (km/s) = 5.54971 6.49377 6.04021
#
# Compressibility (1/GPa) = 0.02644166
#
# Stress axis : x y z
#
# Youngs Moduli (GPa) = 42.24190 59.57763 60.79240
#
# Poissons Ratio (x) = 0.74989 0.08338
# Poissons Ratio (y) = 0.53169 0.07748
# Poissons Ratio (z) = 0.05794 0.07594
#
# Static dielectric constant tensor:
#      x y z
#    x 1.872780 0.020150 -0.030450 
#    y 0.020150 1.882790 0.022570 
#    z -0.030450 0.022570 1.933010 
# 
# From -- ./inp_files/68178.got.cif
#   From: 2010.05.17/outbox.cif.g08.bks.cpg/sg2_35_cif.got.tgz:68178.got - 2010.06.03 11:33:40.
