data_PCOD9040012
_publ_section_title
;
Structure prediction by ZEFSAII (Michael W. Deem and Ramdas Pophale) SiO2 
 PCOD9040012
Probable space group: P -1
;
_chemical_formula_sum "Si O2"
_cell_formula_units_Z 14
_cell_length_a 14.235771
_cell_length_b 8.948433
_cell_length_c 15.787274
_cell_angle_alpha 37.608344
_cell_angle_beta 140.225689
_cell_angle_gamma 148.196433
_cell_volume 617.742246
_symmetry_space_group_name_H-M "P -1"
_symmetry_group_IT_number 2
_symmetry_cell_setting 'triclinic'
loop_
_space_group_symop_operation_xyz
x,y,z
-x,-y,-z
loop_
_atom_site_type_symbol
_atom_site_label
_atom_site_fract_x
_atom_site_fract_y
_atom_site_fract_z
Si Si1 0.517956 0.445380 0.635182
Si Si2 0.990024 0.502131 0.132700
Si Si3 0.915088 0.791225 0.805084
Si Si4 0.154700 0.485860 0.654401
Si Si5 0.529332 0.305172 0.354098
Si Si6 0.218837 0.136630 0.083186
Si Si7 0.310992 0.755963 0.814853
O O1 0.500000 0.500000 0.500000
O O2 0.726213 0.727426 0.678537
O O3 0.406156 0.475809 0.616830
O O4 0.481732 0.120464 0.775366
O O5 0.850652 0.333066 0.190899
O O6 0.025373 0.289580 0.202434
O O7 0.893426 0.575050 0.962358
O O8 0.180647 0.840762 0.140426
O O9 0.058463 0.141799 0.776976
O O10 0.308435 0.546745 0.669060
O O11 0.243094 0.718171 0.689361
O O12 0.000000 0.500000 0.500000
O O13 0.340447 0.203527 0.221158
O O14 0.500000 0.000000 0.500000
O O15 0.330456 0.483359 0.965278
O O16 0.000000 0.000000 0.000000
#
# Coordination Sequence:
#
# PCOD9040012 Si02
#       7
#     2   2   2   2   2   2   2
#     4  12  27  46  68 105 145 187 238 300 356 431
#     4  10  23  42  74 102 138 181 234 301 353 423
#     4  11  24  45  69 102 144 183 236 292 364 418
#     4  12  27  45  69 104 146 193 237 293 359 432
#     4  12  28  46  74 106 148 191 240 296 364 427
#     4  10  23  44  76 106 141 185 239 301 353 422
#     4  11  24  44  73 102 142 189 242 295 360 422
#
# _framework density 22.663176
#
# number of rings (size 3 to 8) (size 9 to 14) (size 15 to 20)
#    0.000    0.857    1.429    5.143   10.000    5.143 
#    0.000    2.857    0.000    0.000    0.000    0.000 
#    0.000    0.000    0.000    0.000    0.000    0.000 
#
# Total GULP energy -78193.852849 kJ/mol
# GULP energy per Si atom -5585.275203 kJ/mol
# Density = 2.261159 g / cm^3
# Si number density = 22.663176 Si / 1000 Ang^3
#
#
#
# Elastic Constant Matrix: (Units=GPa)
#
#
# Indices 1 2 3 4 5 6 
#
# 1 126.3272 9.9210 19.2359 20.0520 -23.5803 -7.5009
# 2 9.9210 89.2057 19.1858 -8.2310 -9.4331 -9.8017
# 3 19.2359 19.1858 93.2642 9.4606 -14.0980 3.7791
# 4 20.0520 -8.2310 9.4606 41.6664 -6.9831 -7.1561
# 5 -23.5803 -9.4331 -14.0980 -6.9831 31.5754 2.0427
# 6 -7.5009 -9.8017 3.7791 -7.1561 2.0427 37.9715
#
#
#
# Elastic Compliance Matrix: (Units=1/GPa)
#
#
# Indices 1 2 3 4 5 6 
#
# 1 0.009793 -0.000533 -0.000681 -0.003504 0.006019 0.000881
# 2 -0.000533 0.013093 -0.002776 0.004717 0.003041 0.004276
# 3 -0.000681 -0.002776 0.012408 -0.002897 0.003745 -0.002833
# 4 -0.003504 0.004717 -0.002897 0.028905 0.003499 0.006073
# 5 0.006019 0.003041 0.003745 0.003499 0.039511 0.000135
# 6 0.000881 0.004276 -0.002833 0.006073 0.000135 0.029033
#
#
# Mechanical properties :
#
#
# Convention : Reuss Voigt Hill
#
# Bulk Modulus (GPa) = 36.60825 45.05363 40.83094
# Shear Modulus (GPa) = 33.37181 39.60629 36.48905
#
# Velocity S-wave (km/s) = 3.84150 4.18497 4.01691
# Velocity P-wave (km/s) = 5.98869 6.57836 6.29044
#
# Compressibility (1/GPa) = 0.02731625
#
# Stress axis : x y z
#
# Youngs Moduli (GPa) = 102.11019 76.37723 80.59033
#
# Poissons Ratio (x) = 0.04070 0.05486
# Poissons Ratio (y) = 0.05441 0.22369
# Poissons Ratio (z) = 0.06951 0.21199
#
# Static dielectric constant tensor:
#      x y z
#    x 1.883210 -0.021200 0.049540 
#    y -0.021200 1.789490 0.012880 
#    z 0.049540 0.012880 1.758800 
# 
# From -- ./inp_files/529313.got.cif
#   From: 2010.05.17/outbox.cif.g08.bks.cpg/sg2_265_cif.got.tgz:529313.got - 2010.06.03 11:33:40.
