data_PCOD9040970
_publ_section_title
;
Structure prediction by ZEFSAII (Michael W. Deem and Ramdas Pophale) SiO2 
 PCOD9040970
Probable space group: P -1
;
_chemical_formula_sum "Si O2"
_cell_formula_units_Z 15
_cell_length_a 10.268642
_cell_length_b 5.363633
_cell_length_c 11.620324
_cell_angle_alpha 90.543714
_cell_angle_beta 73.289086
_cell_angle_gamma 72.154009
_cell_volume 580.137406
_symmetry_space_group_name_H-M "P -1"
_symmetry_group_IT_number 2
_symmetry_cell_setting 'triclinic'
loop_
_space_group_symop_operation_xyz
x,y,z
-x,-y,-z
loop_
_atom_site_type_symbol
_atom_site_label
_atom_site_fract_x
_atom_site_fract_y
_atom_site_fract_z
Si Si1 0.576194 0.193709 0.836430
Si Si2 0.838772 0.494820 0.261379
Si Si3 0.730370 0.793767 0.000550
Si Si4 0.231271 0.174730 0.393851
Si Si5 0.798037 0.429586 0.788304
Si Si6 0.411606 0.304648 0.538540
Si Si7 0.060563 0.054224 0.641052
Si Si8 0.000000 0.500000 0.000000
O O1 0.630679 0.448062 0.826801
O O2 0.667009 0.010175 0.918170
O O3 0.637257 0.048810 0.700825
O O4 0.411063 0.233980 0.904458
O O5 0.668519 0.627899 0.319332
O O6 0.895399 0.725438 0.296832
O O7 0.872017 0.238142 0.332213
O O8 0.911322 0.402351 0.121754
O O9 0.823350 0.515107 0.910959
O O10 0.863078 0.802483 0.041902
O O11 0.165330 0.373706 0.308517
O O12 0.295766 0.340330 0.466192
O O13 0.120529 0.083913 0.499135
O O14 0.892191 0.147184 0.717018
O O15 0.500000 0.500000 0.500000
O O16 0.500000 0.000000 0.500000
#
# Coordination Sequence:
#
# PCOD9040970 Si02
#       8
#     2   2   2   2   2   2   2   1
#     4  10  23  43  70 100 146 186 244 302 365 435
#     4  11  26  46  70 104 144 187 239 298 362 432
#     4  10  23  45  65 105 139 191 243 310 357 436
#     4  10  25  40  69 105 136 189 240 291 375 432
#     4  11  22  41  71 102 141 188 243 300 362 441
#     4  11  25  46  70 100 146 186 239 300 357 435
#     4  11  24  46  69 104 148 180 234 302 363 428
#     4  12  24  46  74 100 148 190 256 290 376 428
#
# _framework density 25.855944000000001
#
# number of rings (size 3 to 8) (size 9 to 14) (size 15 to 20)
#    0.000    1.333    1.333    3.200    9.333    1.067 
#    2.400    0.000    0.000    0.000    0.000    0.000 
#    0.000    0.000    0.000    0.000    0.000    0.000 
#
# Total GULP energy -83653.119140 kJ/mol
# GULP energy per Si atom -5576.874609 kJ/mol
# Density = 2.579709 g / cm^3
# Si number density = 25.855944 Si / 1000 Ang^3
#
#
#
# Elastic Constant Matrix: (Units=GPa)
#
#
# Indices 1 2 3 4 5 6 
#
# 1 83.3204 34.7659 43.5505 -11.6840 -46.5567 2.9253
# 2 34.7659 129.0595 49.6065 -3.0243 -17.8923 0.1489
# 3 43.5505 49.6065 185.4398 -11.6943 -43.4076 3.7146
# 4 -11.6840 -3.0243 -11.6943 34.8852 -0.4561 -10.5191
# 5 -46.5567 -17.8923 -43.4076 -0.4561 56.7591 8.6278
# 6 2.9253 0.1489 3.7146 -10.5191 8.6278 49.6711
#
#
#
# Elastic Compliance Matrix: (Units=1/GPa)
#
#
# Indices 1 2 3 4 5 6 
#
# 1 0.026904 -0.004227 0.000474 0.007974 0.021723 -0.003692
# 2 -0.004227 0.009364 -0.002118 -0.001188 -0.002222 0.000514
# 3 0.000474 -0.002118 0.007287 0.002171 0.005472 -0.001057
# 4 0.007974 -0.001188 0.002171 0.033632 0.007302 0.005226
# 5 0.021723 -0.002222 0.005472 0.007302 0.040058 -0.007094
# 6 -0.003692 0.000514 -0.001057 0.005226 -0.007094 0.022766
#
#
# Mechanical properties :
#
#
# Convention : Reuss Voigt Hill
#
# Bulk Modulus (GPa) = 31.43271 72.62951 52.03111
# Shear Modulus (GPa) = 30.79635 46.25618 38.52626
#
# Velocity S-wave (km/s) = 3.45494 4.23424 3.86428
# Velocity P-wave (km/s) = 5.30082 7.21499 6.33067
#
# Compressibility (1/GPa) = 0.03181399
#
# Stress axis : x y z
#
# Youngs Moduli (GPa) = 37.16959 106.78658 137.23562
#
# Poissons Ratio (x) = 0.45137 -0.06507
# Poissons Ratio (y) = 0.15711 0.29064
# Poissons Ratio (z) = -0.01762 0.22615
#
# Static dielectric constant tensor:
#      x y z
#    x 1.353620 -0.118210 -0.382220 
#    y -0.118210 2.042010 0.002150 
#    z -0.382220 0.002150 1.908930 
# 
# From -- ./inp_files/409109.got.cif
#   From: 2010.05.17/outbox.cif.g08.bks.cpg/sg2_205_cif.got.tgz:409109.got - 2010.06.03 11:33:40.
