data_PCOD9040821
_publ_section_title
;
Structure prediction by ZEFSAII (Michael W. Deem and Ramdas Pophale) SiO2 
 PCOD9040821
Probable space group: P -1
;
_chemical_formula_sum "Si O2"
_cell_formula_units_Z 12
_cell_length_a 4.953921
_cell_length_b 13.031007
_cell_length_c 8.153895
_cell_angle_alpha 104.932585
_cell_angle_beta 61.339287
_cell_angle_gamma 87.068310
_cell_volume 436.699326
_symmetry_space_group_name_H-M "P -1"
_symmetry_group_IT_number 2
_symmetry_cell_setting 'triclinic'
loop_
_space_group_symop_operation_xyz
x,y,z
-x,-y,-z
loop_
_atom_site_type_symbol
_atom_site_label
_atom_site_fract_x
_atom_site_fract_y
_atom_site_fract_z
Si Si1 0.579855 0.410353 0.298833
Si Si2 0.070836 0.252679 0.684534
Si Si3 0.787888 0.181178 0.059045
Si Si4 0.256717 0.883517 0.479334
Si Si5 0.160295 0.497324 0.173333
Si Si6 0.390216 0.006383 0.814652
O O1 0.500000 0.500000 0.500000
O O2 0.661745 0.282405 0.256010
O O3 0.278663 0.433795 0.279023
O O4 0.909000 0.435375 0.139846
O O5 0.003803 0.182809 0.519895
O O6 0.009786 0.377854 0.707504
O O7 0.415787 0.205324 0.633465
O O8 0.825526 0.232073 0.890012
O O9 0.587457 0.087724 0.096238
O O10 0.132937 0.113655 0.974366
O O11 0.312697 0.957489 0.337580
O O12 0.243787 0.953930 0.676248
O O13 0.500000 0.500000 0.000000
#
# Coordination Sequence:
#
# PCOD9040821 Si02
#       6
#     2   2   2   2   2   2
#     4  12  28  48  72 107 144 185 237 294 354 416
#     4  11  24  42  72  99 139 180 230 288 345 417
#     4  10  23  43  69 101 140 182 229 289 349 413
#     4  10  23  44  69 102 133 180 231 283 350 416
#     4  12  26  47  74 105 138 191 239 289 354 421
#     4   9  22  43  69 100 139 180 229 286 347 415
#
# _framework density 27.478861999999999
#
# number of rings (size 3 to 8) (size 9 to 14) (size 15 to 20)
#    0.000    1.333    1.667    2.000    9.333    6.667 
#    0.000    6.667    0.000    0.000    0.000    0.000 
#    0.000    0.000    0.000    0.000    0.000    0.000 
#
# Total GULP energy -67273.302739 kJ/mol
# GULP energy per Si atom -5606.108562 kJ/mol
# Density = 2.741632 g / cm^3
# Si number density = 27.478862 Si / 1000 Ang^3
#
#
#
# Elastic Constant Matrix: (Units=GPa)
#
#
# Indices 1 2 3 4 5 6 
#
# 1 137.7748 46.8685 4.5302 10.8573 -2.3755 0.6605
# 2 46.8685 198.0519 32.1958 34.7845 -11.8913 -6.3885
# 3 4.5302 32.1958 87.2050 15.2458 -24.7977 -16.9098
# 4 10.8573 34.7845 15.2458 63.6482 2.8769 -8.2987
# 5 -2.3755 -11.8913 -24.7977 2.8769 36.2806 1.2634
# 6 0.6605 -6.3885 -16.9098 -8.2987 1.2634 42.2852
#
#
#
# Elastic Compliance Matrix: (Units=1/GPa)
#
#
# Indices 1 2 3 4 5 6 
#
# 1 0.007918 -0.001844 0.000338 -0.000480 0.000196 -0.000367
# 2 -0.001844 0.006285 -0.001419 -0.002859 0.001202 -0.000186
# 3 0.000338 -0.001419 0.016721 -0.003065 0.011036 0.005536
# 4 -0.000480 -0.002859 -0.003065 0.018576 -0.004610 0.002134
# 5 0.000196 0.001202 0.011036 -0.004610 0.035787 0.002618
# 6 -0.000367 -0.000186 0.005536 0.002134 0.002618 0.026181
#
#
# Mechanical properties :
#
#
# Convention : Reuss Voigt Hill
#
# Bulk Modulus (GPa) = 39.88361 65.58007 52.73184
# Shear Modulus (GPa) = 39.78505 51.07193 45.42849
#
# Velocity S-wave (km/s) = 3.80918 4.31581 4.07039
# Velocity P-wave (km/s) = 5.82171 6.98230 6.42825
#
# Compressibility (1/GPa) = 0.02507296
#
# Stress axis : x y z
#
# Youngs Moduli (GPa) = 126.30241 159.11987 59.80527
#
# Poissons Ratio (x) = 0.29347 -0.02022
# Poissons Ratio (y) = 0.23294 0.08485
# Poissons Ratio (z) = -0.04270 0.22576
#
# Static dielectric constant tensor:
#      x y z
#    x 2.052040 -0.015860 0.005060 
#    y -0.015860 2.103170 -0.109830 
#    z 0.005060 -0.109830 2.344520 
# 
# From -- ./inp_files/48871.got.cif
#   From: 2010.05.17/outbox.cif.g08.bks.cpg/sg2_25_cif.got.tgz:48871.got - 2010.06.03 11:33:40.
