data_PCOD9040648
_publ_section_title
;
Structure prediction by ZEFSAII (Michael W. Deem and Ramdas Pophale) SiO2 
 PCOD9040648
Probable space group: P -1
;
_chemical_formula_sum "Si O2"
_cell_formula_units_Z 16
_cell_length_a 10.333340
_cell_length_b 8.428956
_cell_length_c 10.274960
_cell_angle_alpha 77.522486
_cell_angle_beta 70.128528
_cell_angle_gamma 118.199256
_cell_volume 660.731059
_symmetry_space_group_name_H-M "P -1"
_symmetry_group_IT_number 2
_symmetry_cell_setting 'triclinic'
loop_
_space_group_symop_operation_xyz
x,y,z
-x,-y,-z
loop_
_atom_site_type_symbol
_atom_site_label
_atom_site_fract_x
_atom_site_fract_y
_atom_site_fract_z
Si Si1 0.354616 0.101424 0.946571
Si Si2 0.974137 0.795360 0.588794
Si Si3 0.677467 0.128056 0.546583
Si Si4 0.094257 0.412131 0.627876
Si Si5 0.545363 0.717002 0.613090
Si Si6 0.675002 0.693098 0.849834
Si Si7 0.268199 0.261823 0.719593
Si Si8 0.285235 0.756701 0.190627
O O1 0.276752 0.139450 0.089736
O O2 0.328589 0.894157 0.024078
O O3 0.562733 0.270359 0.846630
O O4 0.270345 0.112987 0.843728
O O5 0.912362 0.656144 0.505944
O O6 0.835731 0.689871 0.769586
O O7 0.155388 0.853031 0.560047
O O8 0.000000 0.000000 0.500000
O O9 0.735587 0.355744 0.457552
O O10 0.679384 0.129812 0.703132
O O11 0.525219 0.899073 0.595914
O O12 0.105884 0.258259 0.738326
O O13 0.921879 0.393438 0.715634
O O14 0.638479 0.739323 0.712087
O O15 0.388256 0.481880 0.706967
O O16 0.648867 0.740169 0.443672
O O17 0.500000 0.500000 0.000000
#
# Coordination Sequence:
#
# PCOD9040648 Si02
#       8
#     2   2   2   2   2   2   2   2
#     4  11  24  42  70 105 137 180 226 293 349 409
#     4  11  20  40  69  99 133 178 245 286 328 408
#     4  11  23  40  68 100 134 186 237 286 330 420
#     4  11  24  42  69 102 143 182 230 285 351 413
#     4  11  23  43  65 101 136 181 236 279 342 418
#     4  12  22  37  68 100 135 173 236 289 332 408
#     4  11  25  43  70 102 138 183 229 286 347 416
#     4  10  23  43  68 102 140 179 230 284 351 409
#
# _framework density 24.215603000000002
#
# number of rings (size 3 to 8) (size 9 to 14) (size 15 to 20)
#    0.000    1.000    5.000    2.250    7.000    1.000 
#    0.000    0.000    0.000    2.250    0.000    0.000 
#    0.000    0.000    0.000    0.000    0.000    0.000 
#
# Total GULP energy -89312.175953 kJ/mol
# GULP energy per Si atom -5582.010997 kJ/mol
# Density = 2.416049 g / cm^3
# Si number density = 24.215603 Si / 1000 Ang^3
#
#
#
# Elastic Constant Matrix: (Units=GPa)
#
#
# Indices 1 2 3 4 5 6 
#
# 1 82.1851 9.0498 39.7989 10.9530 -4.9419 -16.9033
# 2 9.0498 71.2366 0.9364 -6.8438 -12.4141 19.9143
# 3 39.7989 0.9364 117.0113 -0.8274 9.7450 -6.8371
# 4 10.9530 -6.8438 -0.8274 40.7678 -7.9865 -2.3805
# 5 -4.9419 -12.4141 9.7450 -7.9865 50.6773 -7.8268
# 6 -16.9033 19.9143 -6.8371 -2.3805 -7.8268 36.7965
#
#
#
# Elastic Compliance Matrix: (Units=1/GPa)
#
#
# Indices 1 2 3 4 5 6 
#
# 1 0.018562 -0.005243 -0.005902 -0.004883 0.002511 0.010486
# 2 -0.005243 0.018863 0.000748 0.004480 0.002884 -0.011575
# 3 -0.005902 0.000748 0.010672 0.001351 -0.002474 -0.001572
# 4 -0.004883 0.004480 0.001351 0.027386 0.004414 -0.001706
# 5 0.002511 0.002884 -0.002474 0.004414 0.022505 0.004205
# 6 0.010486 -0.011575 -0.001572 -0.001706 0.004205 0.038750
#
#
# Mechanical properties :
#
#
# Convention : Reuss Voigt Hill
#
# Bulk Modulus (GPa) = 36.63031 41.11147 38.87089
# Shear Modulus (GPa) = 30.00620 40.35818 35.18219
#
# Velocity S-wave (km/s) = 3.52394 4.08685 3.81579
# Velocity P-wave (km/s) = 5.63180 6.26769 5.95823
#
# Compressibility (1/GPa) = 0.02729980
#
# Stress axis : x y z
#
# Youngs Moduli (GPa) = 53.87451 53.01449 93.70744
#
# Poissons Ratio (x) = 0.27798 0.55309
# Poissons Ratio (y) = 0.28248 -0.07006
# Poissons Ratio (z) = 0.31798 -0.03963
#
# Static dielectric constant tensor:
#      x y z
#    x 2.076820 0.002820 0.013350 
#    y 0.002820 2.042560 -0.115350 
#    z 0.013350 -0.115350 1.953370 
# 
# From -- ./inp_files/444194.got.cif
#   From: 2010.05.17/outbox.cif.g08.bks.cpg/sg2_223_cif.got.tgz:444194.got - 2010.06.03 11:33:40.
