data_PCOD9040686
_publ_section_title
;
Structure prediction by ZEFSAII (Michael W. Deem and Ramdas Pophale) SiO2 
 PCOD9040686
Probable space group: P -1
;
_chemical_formula_sum "Si O2"
_cell_formula_units_Z 16
_cell_length_a 16.528030
_cell_length_b 11.536512
_cell_length_c 19.297849
_cell_angle_alpha 149.802519
_cell_angle_beta 158.102698
_cell_angle_gamma 31.275009
_cell_volume 662.393910
_symmetry_space_group_name_H-M "P -1"
_symmetry_group_IT_number 2
_symmetry_cell_setting 'triclinic'
loop_
_space_group_symop_operation_xyz
x,y,z
-x,-y,-z
loop_
_atom_site_type_symbol
_atom_site_label
_atom_site_fract_x
_atom_site_fract_y
_atom_site_fract_z
Si Si1 0.641049 0.226367 0.655067
Si Si2 0.762916 0.689913 0.523902
Si Si3 0.309254 0.048055 0.931288
Si Si4 0.082747 0.810458 0.407140
Si Si5 0.785295 0.230209 0.035811
Si Si6 0.389909 0.403081 0.284301
Si Si7 0.913586 0.689613 0.878785
Si Si8 0.356155 0.609260 0.836284
O O1 0.423303 0.355905 0.595160
O O2 0.618815 0.332510 0.614585
O O3 0.669448 0.944625 0.541568
O O4 0.862203 0.269796 0.888371
O O5 0.804550 0.492586 0.394450
O O6 0.974134 0.715177 0.749625
O O7 0.067101 0.074578 0.718544
O O8 0.385212 0.837601 0.937642
O O9 0.295587 0.289675 0.085894
O O10 0.500000 0.000000 0.000000
O O11 0.350751 0.748146 0.578113
O O12 0.032779 0.553992 0.248854
O O13 0.000000 0.000000 0.500000
O O14 0.727465 0.299060 0.106322
O O15 0.589918 0.401192 0.923239
O O16 0.801232 0.950998 0.891420
O O17 0.244171 0.370353 0.216976
#
# Coordination Sequence:
#
# PCOD9040686 Si02
#       8
#     2   2   2   2   2   2   2   2
#     4  10  23  44  71 101 145 186 241 296 363 430
#     4  10  23  43  68 106 140 194 237 295 360 432
#     4  12  25  46  73 108 150 192 236 305 371 425
#     4  12  28  43  71 108 145 191 241 300 361 436
#     4  10  24  47  71 108 144 190 245 298 360 438
#     4  12  24  46  74 107 144 191 243 302 368 435
#     4  11  24  49  73 106 148 191 242 303 368 433
#     4  11  24  44  74 105 147 191 241 301 362 433
#
# _framework density 24.154810999999999
#
# number of rings (size 3 to 8) (size 9 to 14) (size 15 to 20)
#    0.000    1.000    3.750    1.875    1.750    2.000 
#    2.250    1.875    0.000    0.000    0.000    0.000 
#    0.000    0.000    0.000    0.000    0.000    0.000 
#
# Total GULP energy -89631.827929 kJ/mol
# GULP energy per Si atom -5601.989246 kJ/mol
# Density = 2.409983 g / cm^3
# Si number density = 24.154811 Si / 1000 Ang^3
#
#
#
# Elastic Constant Matrix: (Units=GPa)
#
#
# Indices 1 2 3 4 5 6 
#
# 1 71.9731 21.6909 33.5899 -8.2833 14.3136 10.4470
# 2 21.6909 119.7877 21.4190 -2.5201 7.1935 16.9204
# 3 33.5899 21.4190 95.8161 -9.7918 6.0074 -1.0070
# 4 -8.2833 -2.5201 -9.7918 41.6105 -12.9026 -6.4745
# 5 14.3136 7.1935 6.0074 -12.9026 42.6651 6.6578
# 6 10.4470 16.9204 -1.0070 -6.4745 6.6578 38.2471
#
#
#
# Elastic Compliance Matrix: (Units=1/GPa)
#
#
# Indices 1 2 3 4 5 6 
#
# 1 0.018566 -0.001503 -0.005906 0.000242 -0.004487 -0.003740
# 2 -0.001503 0.009485 -0.001693 -0.000889 -0.000518 -0.003890
# 3 -0.005906 -0.001693 0.013128 0.002498 0.000704 0.003008
# 4 0.000242 -0.000889 0.002498 0.027509 0.007451 0.003753
# 5 -0.004487 -0.000518 0.000704 0.007451 0.027506 -0.002053
# 6 -0.003740 -0.003890 0.003008 0.003753 -0.002053 0.029960
#
#
# Mechanical properties :
#
#
# Convention : Reuss Voigt Hill
#
# Bulk Modulus (GPa) = 43.52357 48.99739 46.26048
# Shear Modulus (GPa) = 32.89123 38.56300 35.72712
#
# Velocity S-wave (km/s) = 3.69410 3.99995 3.85006
# Velocity P-wave (km/s) = 6.02104 6.45458 6.24157
#
# Compressibility (1/GPa) = 0.02297606
#
# Stress axis : x y z
#
# Youngs Moduli (GPa) = 53.86048 105.43096 76.17201
#
# Poissons Ratio (x) = 0.15847 0.44988
# Poissons Ratio (y) = 0.08096 0.12893
# Poissons Ratio (z) = 0.31810 0.17845
#
# Static dielectric constant tensor:
#      x y z
#    x 1.920370 -0.030780 -0.017050 
#    y -0.030780 1.954800 0.015140 
#    z -0.017050 0.015140 1.920430 
# 
# From -- ./inp_files/600137.got.cif
#   From: 2010.05.17/outbox.cif.g08.bks.cpg/sg2_301_cif.got.tgz:600137.got - 2010.06.03 11:33:40.
