data_PCOD9040293
_publ_section_title
;
Structure prediction by ZEFSAII (Michael W. Deem and Ramdas Pophale) SiO2 
 PCOD9040293
Probable space group: P -1
;
_chemical_formula_sum "Si O2"
_cell_formula_units_Z 14
_cell_length_a 6.825704
_cell_length_b 14.432082
_cell_length_c 8.507020
_cell_angle_alpha 94.323181
_cell_angle_beta 139.325976
_cell_angle_gamma 89.878718
_cell_volume 542.670998
_symmetry_space_group_name_H-M "P -1"
_symmetry_group_IT_number 2
_symmetry_cell_setting 'triclinic'
loop_
_space_group_symop_operation_xyz
x,y,z
-x,-y,-z
loop_
_atom_site_type_symbol
_atom_site_label
_atom_site_fract_x
_atom_site_fract_y
_atom_site_fract_z
Si Si1 0.271936 0.415557 0.907905
Si Si2 0.630993 0.287624 0.286059
Si Si3 0.372783 0.122779 0.277593
Si Si4 0.874092 0.595018 0.504804
Si Si5 0.305125 0.814830 0.186598
Si Si6 0.713343 0.379233 0.692910
Si Si7 0.360687 0.030868 0.752896
O O1 0.235537 0.360525 0.716980
O O2 0.989445 0.455038 0.829031
O O3 0.500000 0.500000 0.000000
O O4 0.347797 0.340483 0.070036
O O5 0.560843 0.180513 0.261463
O O6 0.693872 0.329556 0.504121
O O7 0.856469 0.327051 0.289177
O O8 0.527171 0.151619 0.541810
O O9 0.441145 0.018597 0.264339
O O10 0.026504 0.148790 0.049723
O O11 0.595632 0.579193 0.445340
O O12 0.000000 0.500000 0.500000
O O13 0.255532 0.703186 0.172160
O O14 0.541390 0.859491 0.205524
O O15 0.000000 0.000000 0.500000
O O16 0.500000 0.000000 0.000000
#
# Coordination Sequence:
#
# PCOD9040293 Si02
#       7
#     2   2   2   2   2   2   2
#     4  11  22  43  62  98 128 172 230 290 353 410
#     4  10  23  43  65  95 131 179 232 285 350 408
#     4  11  23  45  72  96 143 184 235 284 343 421
#     4  11  24  43  62  95 133 177 229 292 354 414
#     4  11  23  46  70 100 136 190 235 279 351 419
#     4  10  25  42  68  94 134 182 234 284 352 422
#     4  12  26  42  69 112 143 180 227 288 350 414
#
# _framework density 25.798321000000001
#
# number of rings (size 3 to 8) (size 9 to 14) (size 15 to 20)
#    0.000    1.143    2.857    2.571    2.000    5.143 
#    0.000    0.000    0.000    0.000    0.000    0.000 
#    0.000    0.000    0.000    0.000    0.000    0.000 
#
# Total GULP energy -77975.178116 kJ/mol
# GULP energy per Si atom -5569.655580 kJ/mol
# Density = 2.573960 g / cm^3
# Si number density = 25.798321 Si / 1000 Ang^3
#
#
#
# Elastic Constant Matrix: (Units=GPa)
#
#
# Indices 1 2 3 4 5 6 
#
# 1 146.0931 43.2658 48.5719 4.3488 33.6986 33.0744
# 2 43.2658 110.2311 16.1311 -15.8707 22.3586 36.9301
# 3 48.5719 16.1311 130.0358 -18.5108 12.8651 10.5808
# 4 4.3488 -15.8707 -18.5108 33.4218 6.5768 -0.7412
# 5 33.6986 22.3586 12.8651 6.5768 53.8468 1.3598
# 6 33.0744 36.9301 10.5808 -0.7412 1.3598 45.4816
#
#
#
# Elastic Compliance Matrix: (Units=1/GPa)
#
#
# Indices 1 2 3 4 5 6 
#
# 1 0.010952 -0.001153 -0.003373 -0.002983 -0.005050 -0.006141
# 2 -0.001153 0.016399 0.001558 0.009973 -0.007364 -0.012457
# 3 -0.003373 0.001558 0.010015 0.007051 -0.001765 -0.000974
# 4 -0.002983 0.009973 0.007051 0.040522 -0.008740 -0.006647
# 5 -0.005050 -0.007364 -0.001765 -0.008740 0.026048 0.009141
# 6 -0.006141 -0.012457 -0.000974 -0.006647 0.009141 0.036413
#
#
# Mechanical properties :
#
#
# Convention : Reuss Voigt Hill
#
# Bulk Modulus (GPa) = 31.81665 66.92195 49.36930
# Shear Modulus (GPa) = 31.89570 45.10946 38.50258
#
# Velocity S-wave (km/s) = 3.51999 4.18609 3.86741
# Velocity P-wave (km/s) = 5.37402 7.02576 6.25465
#
# Compressibility (1/GPa) = 0.03143008
#
# Stress axis : x y z
#
# Youngs Moduli (GPa) = 91.30985 60.97784 99.85499
#
# Poissons Ratio (x) = 0.07029 0.33682
# Poissons Ratio (y) = 0.10526 -0.15558
# Poissons Ratio (z) = 0.30800 -0.09501
#
# Static dielectric constant tensor:
#      x y z
#    x 1.907300 -0.107830 -0.082220 
#    y -0.107830 2.138590 0.048170 
#    z -0.082220 0.048170 2.239970 
# 
# From -- ./inp_files/55651.got.cif
#   From: 2010.05.17/outbox.cif.g08.bks.cpg/sg2_28_cif.got.tgz:55651.got - 2010.06.03 11:33:40.
