data_PCOD9040508
_publ_section_title
;
Structure prediction by ZEFSAII (Michael W. Deem and Ramdas Pophale) SiO2 
 PCOD9040508
Probable space group: P -1
;
_chemical_formula_sum "Si O2"
_cell_formula_units_Z 14
_cell_length_a 28.734765
_cell_length_b 14.269653
_cell_length_c 6.304681
_cell_angle_alpha 104.791473
_cell_angle_beta 122.709775
_cell_angle_gamma 25.595404
_cell_volume 723.316744
_symmetry_space_group_name_H-M "P -1"
_symmetry_group_IT_number 2
_symmetry_cell_setting 'triclinic'
loop_
_space_group_symop_operation_xyz
x,y,z
-x,-y,-z
loop_
_atom_site_type_symbol
_atom_site_label
_atom_site_fract_x
_atom_site_fract_y
_atom_site_fract_z
Si Si1 0.760932 0.896546 0.296802
Si Si2 0.518060 0.607446 0.789603
Si Si3 0.547010 0.781125 0.933016
Si Si4 0.052505 0.551376 0.203775
Si Si5 0.737080 0.758853 0.843306
Si Si6 0.286515 0.314002 0.869045
Si Si7 0.267124 0.929955 0.050463
O O1 0.876557 0.661394 0.626894
O O2 0.604997 0.194862 0.202734
O O3 0.717028 0.875710 0.034499
O O4 0.815662 0.884346 0.250301
O O5 0.586117 0.604323 0.959132
O O6 0.406758 0.768383 0.401119
O O7 0.650398 0.306379 0.945490
O O8 0.411852 0.003032 0.544306
O O9 0.452196 0.986245 0.015712
O O10 0.688522 0.618651 0.113179
O O11 0.110464 0.463389 0.054112
O O12 0.143744 0.491799 0.503849
O O13 0.866383 0.864883 0.979715
O O14 0.744048 0.649885 0.936287
#
# Coordination Sequence:
#
# PCOD9040508 Si02
#       7
#     2   2   2   2   2   2   2
#     4  11  19  37  57  81 106 143 190 222 268 314
#     4  11  22  38  55  82 108 146 185 219 270 327
#     4  10  17  35  55  83 107 138 182 226 268 320
#     4  10  21  36  54  84 111 141 182 223 272 321
#     4  10  17  33  56  83 110 134 179 229 273 311
#     4   9  19  32  58  82 108 135 181 229 273 311
#     4  11  24  37  54  77 117 149 177 223 267 324
#
# _framework density 19.355283
#
# number of rings (size 3 to 8) (size 9 to 14) (size 15 to 20)
#    0.000    1.714    5.714    1.286    0.000    4.571 
#    0.000    0.714    0.000    0.857    0.000    0.000 
#    0.000    0.000    0.000    0.000    0.000    0.000 
#
# Total GULP energy -78133.399506 kJ/mol
# GULP energy per Si atom -5580.957108 kJ/mol
# Density = 1.931123 g / cm^3
# Si number density = 19.355283 Si / 1000 Ang^3
#
#
#
# Elastic Constant Matrix: (Units=GPa)
#
#
# Indices 1 2 3 4 5 6 
#
# 1 128.1345 37.4660 20.2925 3.3267 8.0766 -8.6440
# 2 37.4660 94.9612 11.0296 6.0105 4.2990 -8.5563
# 3 20.2925 11.0296 37.1980 2.1139 -1.0843 -5.5508
# 4 3.3267 6.0105 2.1139 21.5180 -7.6680 -0.9928
# 5 8.0766 4.2990 -1.0843 -7.6680 24.8644 14.0501
# 6 -8.6440 -8.5563 -5.5508 -0.9928 14.0501 27.2172
#
#
#
# Elastic Compliance Matrix: (Units=1/GPa)
#
#
# Indices 1 2 3 4 5 6 
#
# 1 0.009992 -0.002596 -0.004015 -0.002499 -0.006438 0.004771
# 2 -0.002596 0.012878 -0.001394 -0.005075 -0.006446 0.006082
# 3 -0.004015 -0.001394 0.030259 -0.001847 -0.000263 0.004526
# 4 -0.002499 -0.005075 -0.001847 0.057715 0.027927 -0.015078
# 5 -0.006438 -0.006446 -0.000263 0.027927 0.075929 -0.042302
# 6 0.004771 0.006082 0.004526 -0.015078 -0.042302 0.062379
#
#
# Mechanical properties :
#
#
# Convention : Reuss Voigt Hill
#
# Bulk Modulus (GPa) = 26.94036 44.20776 35.57406
# Shear Modulus (GPa) = 18.01579 27.48696 22.75138
#
# Velocity S-wave (km/s) = 3.05420 3.77255 3.43222
# Velocity P-wave (km/s) = 5.13679 6.47038 5.84177
#
# Compressibility (1/GPa) = 0.03711903
#
# Stress axis : x y z
#
# Youngs Moduli (GPa) = 100.08187 77.65220 33.04763
#
# Poissons Ratio (x) = 0.20161 0.13268
# Poissons Ratio (y) = 0.25985 0.04607
# Poissons Ratio (z) = 0.40180 0.10825
#
# Static dielectric constant tensor:
#      x y z
#    x 1.724010 -0.010560 -0.002620 
#    y -0.010560 1.657260 0.029200 
#    z -0.002620 0.029200 1.701460 
# 
# From -- ./inp_files/51679.got.cif
#   From: 2010.05.17/outbox.cif.g08.bks.cpg/sg2_26_cif.got.tgz:51679.got - 2010.06.03 11:33:40.
