data_PCOD9040399
_publ_section_title
;
Structure prediction by ZEFSAII (Michael W. Deem and Ramdas Pophale) SiO2 
 PCOD9040399
Probable space group: P -1
;
_chemical_formula_sum "Si O2"
_cell_formula_units_Z 16
_cell_length_a 9.944049
_cell_length_b 15.052674
_cell_length_c 15.667249
_cell_angle_alpha 35.418690
_cell_angle_beta 48.823791
_cell_angle_gamma 76.047174
_cell_volume 752.703700
_symmetry_space_group_name_H-M "P -1"
_symmetry_group_IT_number 2
_symmetry_cell_setting 'triclinic'
loop_
_space_group_symop_operation_xyz
x,y,z
-x,-y,-z
loop_
_atom_site_type_symbol
_atom_site_label
_atom_site_fract_x
_atom_site_fract_y
_atom_site_fract_z
Si Si1 0.517826 0.348522 0.158638
Si Si2 0.442297 0.979465 0.440489
Si Si3 0.264149 0.091304 0.209176
Si Si4 0.040154 0.269611 0.240681
Si Si5 0.189587 0.005593 0.834161
Si Si6 0.312708 0.370024 0.600772
Si Si7 0.771234 0.466122 0.651782
Si Si8 0.933623 0.855986 0.374431
O O1 0.487403 0.185170 0.239209
O O2 0.296551 0.215573 0.420704
O O3 0.500000 0.500000 0.000000
O O4 0.770752 0.498540 0.984631
O O5 0.500000 0.000000 0.500000
O O6 0.160364 0.782623 0.697858
O O7 0.610009 0.973045 0.316797
O O8 0.189864 0.218231 0.174107
O O9 0.115980 0.891650 0.489478
O O10 0.552685 0.245944 0.959382
O O11 0.156990 0.001116 0.230561
O O12 0.314176 0.195955 0.699563
O O13 0.049198 0.032778 0.804125
O O14 0.972479 0.776136 0.141053
O O15 0.500000 0.500000 0.500000
O O16 0.346717 0.506577 0.400078
O O17 0.871716 0.649386 0.532885
O O18 0.000000 0.500000 0.500000
#
# Coordination Sequence:
#
# PCOD9040399 Si02
#       8
#     2   2   2   2   2   2   2   2
#     4  12  22  40  65  97 133 176 218 265 343 399
#     4  12  25  42  65 101 140 172 225 279 330 401
#     4  11  21  40  65  93 134 172 215 266 339 404
#     4  11  23  37  65  98 130 180 215 262 333 407
#     4  10  23  43  66  95 130 176 223 278 328 402
#     4  10  23  46  70  90 130 182 226 274 343 397
#     4  11  26  41  67  99 128 168 229 286 332 398
#     4  11  21  42  67  90 133 176 213 274 340 400
#
# _framework density 21.256706000000001
#
# number of rings (size 3 to 8) (size 9 to 14) (size 15 to 20)
#    0.000    1.000    5.000    1.500    1.750    2.000 
#    2.250    0.000    0.000    0.000    0.000    0.000 
#    0.000    0.000    0.000    0.000    0.000    0.000 
#
# Total GULP energy -89456.431275 kJ/mol
# GULP energy per Si atom -5591.026955 kJ/mol
# Density = 2.120832 g / cm^3
# Si number density = 21.256706 Si / 1000 Ang^3
#
#
#
# Elastic Constant Matrix: (Units=GPa)
#
#
# Indices 1 2 3 4 5 6 
#
# 1 63.5818 32.0806 18.9518 -7.1226 -13.7204 15.6477
# 2 32.0806 123.1521 34.0148 2.4501 -28.7072 7.2052
# 3 18.9518 34.0148 94.5642 4.6381 -25.5982 1.8734
# 4 -7.1226 2.4501 4.6381 38.0221 0.5481 -10.4850
# 5 -13.7204 -28.7072 -25.5982 0.5481 37.2710 1.9454
# 6 15.6477 7.2052 1.8734 -10.4850 1.9454 35.4444
#
#
#
# Elastic Compliance Matrix: (Units=1/GPa)
#
#
# Indices 1 2 3 4 5 6 
#
# 1 0.021233 -0.003631 -0.001752 0.002118 0.004210 -0.008148
# 2 -0.003631 0.011043 -0.001432 -0.001697 0.006284 -0.001413
# 3 -0.001752 -0.001432 0.013648 -0.002214 0.007696 -0.000734
# 4 0.002118 -0.001697 -0.002214 0.029434 -0.002919 0.008394
# 5 0.004210 0.006284 0.007696 -0.002919 0.038891 -0.006541
# 6 -0.008148 -0.001413 -0.000734 0.008394 -0.006541 0.034978
#
#
# Mechanical properties :
#
#
# Convention : Reuss Voigt Hill
#
# Bulk Modulus (GPa) = 30.96652 50.15472 40.56062
# Shear Modulus (GPa) = 28.79838 35.23088 32.01463
#
# Velocity S-wave (km/s) = 3.68474 4.07553 3.88505
# Velocity P-wave (km/s) = 5.71862 6.76703 6.26479
#
# Compressibility (1/GPa) = 0.03229294
#
# Stress axis : x y z
#
# Youngs Moduli (GPa) = 47.09624 90.55736 73.27326
#
# Poissons Ratio (x) = 0.32883 0.12837
# Poissons Ratio (y) = 0.17102 0.10493
# Poissons Ratio (z) = 0.08251 0.12968
#
# Static dielectric constant tensor:
#      x y z
#    x 1.862410 -0.010110 0.061970 
#    y -0.010110 1.750210 -0.014110 
#    z 0.061970 -0.014110 1.769410 
# 
# From -- ./inp_files/505232.got.cif
#   From: 2010.05.17/outbox.cif.g08.bks.cpg/sg2_253_cif.got.tgz:505232.got - 2010.06.03 11:33:40.
