data_PCOD9040086
_publ_section_title
;
Structure prediction by ZEFSAII (Michael W. Deem and Ramdas Pophale) SiO2 
 PCOD9040086
Probable space group: P -1
;
_chemical_formula_sum "Si O2"
_cell_formula_units_Z 16
_cell_length_a 19.878075
_cell_length_b 16.181835
_cell_length_c 8.635510
_cell_angle_alpha 119.593211
_cell_angle_beta 51.280893
_cell_angle_gamma 158.937641
_cell_volume 737.780599
_symmetry_space_group_name_H-M "P -1"
_symmetry_group_IT_number 2
_symmetry_cell_setting 'triclinic'
loop_
_space_group_symop_operation_xyz
x,y,z
-x,-y,-z
loop_
_atom_site_type_symbol
_atom_site_label
_atom_site_fract_x
_atom_site_fract_y
_atom_site_fract_z
Si Si1 0.768774 0.133759 0.134396
Si Si2 0.689031 0.622219 0.778937
Si Si3 0.704181 0.429363 0.634345
Si Si4 0.873871 0.888377 0.241495
Si Si5 0.179935 0.650064 0.500055
Si Si6 0.802764 0.504199 0.213446
Si Si7 0.610974 0.104606 0.103411
Si Si8 0.454506 0.581273 0.551771
O O1 0.832461 0.295643 0.281880
O O2 0.733119 0.132236 0.006215
O O3 0.545340 0.864077 0.276294
O O4 0.959356 0.248757 0.978487
O O5 0.691889 0.526931 0.786960
O O6 0.626427 0.535870 0.610863
O O7 0.500000 0.500000 0.000000
O O8 0.932812 0.910953 0.723238
O O9 0.833873 0.477453 0.579110
O O10 0.808471 0.537640 0.414738
O O11 0.712652 0.817285 0.409306
O O12 0.695905 0.626790 0.299534
O O13 0.000000 0.000000 0.000000
O O14 0.000000 0.500000 0.500000
O O15 0.416780 0.912431 0.330021
O O16 0.752404 0.342089 0.132740
O O17 0.612492 0.376392 0.297502
O O18 0.500000 0.000000 0.000000
#
# Coordination Sequence:
#
# PCOD9040086 Si02
#       8
#     2   2   2   2   2   2   2   2
#     4  11  22  42  64  87 135 172 211 272 324 391
#     4  11  23  44  73  97 132 179 221 274 345 400
#     4  10  23  43  61  97 128 167 226 267 325 397
#     4  11  23  47  68  96 135 169 215 286 335 394
#     4  11  22  40  64  92 130 174 215 270 327 393
#     4  11  22  40  66  92 126 173 215 263 328 387
#     4  11  22  39  60  92 128 168 216 263 322 389
#     4  10  25  44  68 100 130 174 226 267 339 404
#
# _framework density 21.686665000000001
#
# number of rings (size 3 to 8) (size 9 to 14) (size 15 to 20)
#    0.000    1.250    3.750    2.250    3.500    1.000 
#    9.000    0.000    0.000    0.000    0.000    0.000 
#    0.000    0.000    0.000    0.000    0.000    0.000 
#
# Total GULP energy -89277.391073 kJ/mol
# GULP energy per Si atom -5579.836942 kJ/mol
# Density = 2.163730 g / cm^3
# Si number density = 21.686665 Si / 1000 Ang^3
#
#
#
# Elastic Constant Matrix: (Units=GPa)
#
#
# Indices 1 2 3 4 5 6 
#
# 1 85.9842 0.6349 44.9034 -13.0096 -22.5785 3.5716
# 2 0.6349 40.0276 16.1184 -11.3940 -12.1410 13.3874
# 3 44.9034 16.1184 109.0623 -21.8558 -19.7220 2.3773
# 4 -13.0096 -11.3940 -21.8558 29.9133 12.9734 -4.7039
# 5 -22.5785 -12.1410 -19.7220 12.9734 37.0281 -2.8237
# 6 3.5716 13.3874 2.3773 -4.7039 -2.8237 37.8710
#
#
#
# Elastic Compliance Matrix: (Units=1/GPa)
#
#
# Indices 1 2 3 4 5 6 
#
# 1 0.017382 0.006051 -0.006191 0.001169 0.008678 -0.002597
# 2 0.006051 0.035281 -0.004318 0.006964 0.009665 -0.011186
# 3 -0.006191 -0.004318 0.013493 0.005782 0.000122 0.001991
# 4 0.001169 0.006964 0.005782 0.045311 -0.009649 0.001973
# 5 0.008678 0.009665 0.000122 -0.009649 0.038718 -0.002554
# 6 -0.002597 -0.011186 0.001991 0.001973 -0.002554 0.030534
#
#
# Mechanical properties :
#
#
# Convention : Reuss Voigt Hill
#
# Bulk Modulus (GPa) = 17.47039 39.82082 28.64561
# Shear Modulus (GPa) = 23.95619 32.52363 28.23991
#
# Velocity S-wave (km/s) = 3.32723 3.87681 3.61249
# Velocity P-wave (km/s) = 4.77849 6.20010 5.53512
#
# Compressibility (1/GPa) = 0.05723970
#
# Stress axis : x y z
#
# Youngs Moduli (GPa) = 57.53165 28.34417 74.11033
#
# Poissons Ratio (x) = -0.17150 0.45878
# Poissons Ratio (y) = -0.34811 0.32003
# Poissons Ratio (z) = 0.35615 0.12240
#
# Static dielectric constant tensor:
#      x y z
#    x 1.878370 0.043240 -0.042110 
#    y 0.043240 1.843150 -0.010160 
#    z -0.042110 -0.010160 1.814750 
# 
# From -- ./inp_files/348501.got.cif
#   From: 2010.05.17/outbox.cif.g08.bks.cpg/sg2_175_cif.got.tgz:348501.got - 2010.06.03 11:33:40.
