data_PCOD9040860
_publ_section_title
;
Structure prediction by ZEFSAII (Michael W. Deem and Ramdas Pophale) SiO2 
 PCOD9040860
Probable space group: P -1
;
_chemical_formula_sum "Si O2"
_cell_formula_units_Z 12
_cell_length_a 10.031665
_cell_length_b 5.315204
_cell_length_c 22.291108
_cell_angle_alpha 88.510920
_cell_angle_beta 152.397389
_cell_angle_gamma 98.901869
_cell_volume 527.793307
_symmetry_space_group_name_H-M "P -1"
_symmetry_group_IT_number 2
_symmetry_cell_setting 'triclinic'
loop_
_space_group_symop_operation_xyz
x,y,z
-x,-y,-z
loop_
_atom_site_type_symbol
_atom_site_label
_atom_site_fract_x
_atom_site_fract_y
_atom_site_fract_z
Si Si1 0.101653 0.469634 0.900077
Si Si2 0.136485 0.566351 0.417565
Si Si3 0.667667 0.833901 0.108955
Si Si4 0.831538 0.207870 0.907827
Si Si5 0.106885 0.004267 0.612854
Si Si6 0.156108 0.317467 0.308120
O O1 0.218903 0.330035 0.893945
O O2 0.907818 0.259110 0.868043
O O3 0.917493 0.634316 0.790385
O O4 0.406753 0.661164 0.048402
O O5 0.057422 0.503969 0.316125
O O6 0.496153 0.656306 0.554703
O O7 0.023933 0.289884 0.410381
O O8 0.021462 0.785063 0.403960
O O9 0.951459 0.036279 0.249262
O O10 0.500000 0.000000 0.000000
O O11 0.469799 0.098736 0.766885
O O12 0.000000 0.500000 0.000000
O O13 0.000000 0.000000 0.000000
O O14 0.000000 0.000000 0.500000
#
# Coordination Sequence:
#
# PCOD9040860 Si02
#       6
#     2   2   2   2   2   2
#     4  10  23  43  69 103 143 189 243 302 383 436
#     4  11  27  45  75 108 145 187 258 302 369 442
#     4   9  21  38  68  98 136 179 232 301 370 427
#     4  12  30  48  75 110 148 200 251 307 364 446
#     4  12  28  51  76 106 154 206 246 302 367 453
#     4  10  24  42  74 107 142 190 239 324 372 433
#
# _framework density 22.736170999999999
#
# number of rings (size 3 to 8) (size 9 to 14) (size 15 to 20)
#    0.000    1.333    0.000    2.500   14.000    6.667 
#    0.000    0.000    0.000    0.000    0.000    0.000 
#    0.000    0.000    0.000    0.000    0.000    0.000 
#
# Total GULP energy -66997.254511 kJ/mol
# GULP energy per Si atom -5583.104543 kJ/mol
# Density = 2.268442 g / cm^3
# Si number density = 22.736171 Si / 1000 Ang^3
#
#
#
# Elastic Constant Matrix: (Units=GPa)
#
#
# Indices 1 2 3 4 5 6 
#
# 1 121.8833 58.2331 73.5300 -2.1565 9.0489 -0.0992
# 2 58.2331 141.5125 67.3525 3.6286 5.5383 -10.3065
# 3 73.5300 67.3525 141.0045 22.0076 11.0199 -3.0698
# 4 -2.1565 3.6286 22.0076 32.7233 5.7579 -4.0286
# 5 9.0489 5.5383 11.0199 5.7579 33.5957 -5.0773
# 6 -0.0992 -10.3065 -3.0698 -4.0286 -5.0773 38.7668
#
#
#
# Elastic Compliance Matrix: (Units=1/GPa)
#
#
# Indices 1 2 3 4 5 6 
#
# 1 0.013772 -0.002597 -0.006723 0.006005 -0.002235 -0.000856
# 2 -0.002597 0.009988 -0.003609 0.001396 0.000384 0.002558
# 3 -0.006723 -0.003609 0.013809 -0.009328 -0.000667 -0.000940
# 4 0.006005 0.001396 -0.009328 0.038304 -0.004901 0.002986
# 5 -0.002235 0.000384 -0.000667 -0.004901 0.031925 0.003715
# 6 -0.000856 0.002558 -0.000940 0.002986 0.003715 0.027196
#
#
# Mechanical properties :
#
#
# Convention : Reuss Voigt Hill
#
# Bulk Modulus (GPa) = 85.37614 89.18128 87.27871
# Shear Modulus (GPa) = 30.34794 34.70282 32.52538
#
# Velocity S-wave (km/s) = 3.65744 3.91106 3.78637
# Velocity P-wave (km/s) = 7.44769 7.72689 7.58857
#
# Compressibility (1/GPa) = 0.01171287
#
# Stress axis : x y z
#
# Youngs Moduli (GPa) = 72.60929 100.11712 72.41466
#
# Poissons Ratio (x) = 0.25996 0.48683
# Poissons Ratio (y) = 0.18853 0.26136
# Poissons Ratio (z) = 0.48814 0.36134
#
# Static dielectric constant tensor:
#      x y z
#    x 1.857810 -0.018280 -0.031920 
#    y -0.018280 1.951890 -0.043770 
#    z -0.031920 -0.043770 2.022270 
# 
# From -- ./inp_files/60819.got.cif
#   From: 2010.05.17/outbox.cif.g08.bks.cpg/sg2_31_cif.got.tgz:60819.got - 2010.06.03 11:33:40.
