data_PCOD9040438
_publ_section_title
;
Structure prediction by ZEFSAII (Michael W. Deem and Ramdas Pophale) SiO2 
 PCOD9040438
Probable space group: P -1
;
_chemical_formula_sum "Si O2"
_cell_formula_units_Z 16
_cell_length_a 12.323184
_cell_length_b 8.708890
_cell_length_c 21.838905
_cell_angle_alpha 110.272869
_cell_angle_beta 160.938186
_cell_angle_gamma 68.522723
_cell_volume 712.298686
_symmetry_space_group_name_H-M "P -1"
_symmetry_group_IT_number 2
_symmetry_cell_setting 'triclinic'
loop_
_space_group_symop_operation_xyz
x,y,z
-x,-y,-z
loop_
_atom_site_type_symbol
_atom_site_label
_atom_site_fract_x
_atom_site_fract_y
_atom_site_fract_z
Si Si1 0.791456 0.709028 0.697147
Si Si2 0.759815 0.718502 0.434220
Si Si3 0.231486 0.826099 0.605370
Si Si4 0.209974 0.894458 0.352989
Si Si5 0.265527 0.049885 0.198462
Si Si6 0.345617 0.436809 0.144624
Si Si7 0.163660 0.769208 0.779334
Si Si8 0.125343 0.386742 0.891765
O O1 0.398831 0.776590 0.488997
O O2 0.913872 0.845697 0.826914
O O3 0.962261 0.709951 0.721754
O O4 0.886617 0.529785 0.751057
O O5 0.589668 0.554066 0.320506
O O6 0.943237 0.727208 0.467285
O O7 0.007209 0.719396 0.624367
O O8 0.488631 0.882131 0.316310
O O9 0.473603 0.833846 0.676480
O O10 0.520585 0.755122 0.798394
O O11 0.000000 0.000000 0.500000
O O12 0.078818 0.763797 0.219091
O O13 0.500000 0.000000 0.500000
O O14 0.912441 0.031615 0.233317
O O15 0.000000 0.000000 0.000000
O O16 0.285017 0.466788 0.045545
O O17 0.000000 0.500000 0.000000
O O18 0.550370 0.697277 0.983423
#
# Coordination Sequence:
#
# PCOD9040438 Si02
#       8
#     2   2   2   2   2   2   2   2
#     4  11  24  45  69 104 137 184 228 287 348 401
#     4  11  23  46  70 105 142 183 230 280 359 414
#     4  10  23  43  66  99 139 182 224 280 348 410
#     4  10  24  45  70  95 134 189 229 279 340 412
#     4  11  23  45  72 104 140 179 236 287 342 416
#     4  12  26  42  73 104 139 183 233 292 343 410
#     4  11  24  45  72  99 143 183 227 281 348 420
#     4  12  25  45  67 105 140 176 239 284 346 409
#
# _framework density 22.462485999999998
#
# number of rings (size 3 to 8) (size 9 to 14) (size 15 to 20)
#    0.000    1.000    2.500    3.750    3.500    2.000 
#    4.500    1.250    0.000    0.000    0.000    0.000 
#    0.000    0.000    0.000    0.000    0.000    0.000 
#
# Total GULP energy -89124.584955 kJ/mol
# GULP energy per Si atom -5570.286560 kJ/mol
# Density = 2.241136 g / cm^3
# Si number density = 22.462486 Si / 1000 Ang^3
#
#
#
# Elastic Constant Matrix: (Units=GPa)
#
#
# Indices 1 2 3 4 5 6 
#
# 1 73.4522 25.4161 5.0515 3.5271 5.2303 2.8175
# 2 25.4161 132.3075 49.6693 -24.2124 -0.7113 -7.2414
# 3 5.0515 49.6693 57.2979 -14.8918 1.2715 -7.7482
# 4 3.5271 -24.2124 -14.8918 47.8238 -5.6174 -5.4653
# 5 5.2303 -0.7113 1.2715 -5.6174 37.0880 -3.7993
# 6 2.8175 -7.2414 -7.7482 -5.4653 -3.7993 23.1392
#
#
#
# Elastic Compliance Matrix: (Units=1/GPa)
#
#
# Indices 1 2 3 4 5 6 
#
# 1 0.015651 -0.004290 0.000768 -0.003998 -0.003381 -0.004491
# 2 -0.004290 0.012849 -0.009244 0.004523 0.002147 0.002869
# 3 0.000768 -0.009244 0.027630 0.004745 0.000247 0.007427
# 4 -0.003998 0.004523 0.004745 0.026868 0.005660 0.010766
# 5 -0.003381 0.002147 0.000247 0.005660 0.029075 0.007277
# 6 -0.004491 0.002869 0.007427 0.010766 0.007277 0.050886
#
#
# Mechanical properties :
#
#
# Convention : Reuss Voigt Hill
#
# Bulk Modulus (GPa) = 32.68238 47.03682 39.85960
# Shear Modulus (GPa) = 25.16472 33.80491 29.48481
#
# Velocity S-wave (km/s) = 3.35072 3.88358 3.62695
# Velocity P-wave (km/s) = 5.43609 6.41055 5.94333
#
# Compressibility (1/GPa) = 0.03059753
#
# Stress axis : x y z
#
# Youngs Moduli (GPa) = 63.89351 77.82718 36.19225
#
# Poissons Ratio (x) = 0.33391 -0.02780
# Poissons Ratio (y) = 0.27413 0.33456
# Poissons Ratio (z) = -0.04908 0.71944
#
# Static dielectric constant tensor:
#      x y z
#    x 1.868530 0.005770 0.028750 
#    y 0.005770 1.865840 -0.002150 
#    z 0.028750 -0.002150 1.866500 
# 
# From -- ./inp_files/594138.got.cif
#   From: 2010.05.17/outbox.cif.g08.bks.cpg/sg2_298_cif.got.tgz:594138.got - 2010.06.03 11:33:40.
