data_PCOD9040930
_publ_section_title
;
Structure prediction by ZEFSAII (Michael W. Deem and Ramdas Pophale) SiO2 
 PCOD9040930
Probable space group: P -1
;
_chemical_formula_sum "Si O2"
_cell_formula_units_Z 16
_cell_length_a 5.527250
_cell_length_b 11.818849
_cell_length_c 11.610093
_cell_angle_alpha 68.240725
_cell_angle_beta 92.805928
_cell_angle_gamma 96.522419
_cell_volume 699.820323
_symmetry_space_group_name_H-M "P -1"
_symmetry_group_IT_number 2
_symmetry_cell_setting 'triclinic'
loop_
_space_group_symop_operation_xyz
x,y,z
-x,-y,-z
loop_
_atom_site_type_symbol
_atom_site_label
_atom_site_fract_x
_atom_site_fract_y
_atom_site_fract_z
Si Si1 0.401024 0.705443 0.161284
Si Si2 0.168858 0.126778 0.938306
Si Si3 0.636179 0.623948 0.413524
Si Si4 0.438534 0.845435 0.463499
Si Si5 0.251861 0.483646 0.074624
Si Si6 0.611189 0.109848 0.296028
Si Si7 0.042622 0.785100 0.316289
Si Si8 0.126490 0.206052 0.156060
O O1 0.541246 0.827785 0.062217
O O2 0.587699 0.638798 0.271029
O O3 0.287109 0.596158 0.121294
O O4 0.217146 0.751761 0.230625
O O5 0.138233 0.144798 0.792243
O O6 0.087965 0.207561 0.015136
O O7 0.000000 0.000000 0.000000
O O8 0.500000 0.500000 0.500000
O O9 0.533743 0.731275 0.444495
O O10 0.923749 0.658296 0.416290
O O11 0.411017 0.824273 0.605856
O O12 0.179864 0.860349 0.391910
O O13 0.605647 0.968280 0.388053
O O14 0.211323 0.340069 0.160468
O O15 0.500000 0.500000 0.000000
O O16 0.000000 0.500000 0.000000
O O17 0.360930 0.130249 0.214044
O O18 0.865542 0.155124 0.222987
#
# Coordination Sequence:
#
# PCOD9040930 Si02
#       8
#     2   2   2   2   2   2   2   2
#     4  10  24  42  65 102 134 190 228 297 360 426
#     4  11  24  41  69 100 142 183 235 297 352 434
#     4  10  24  42  70 100 135 176 242 297 363 424
#     4  10  25  46  69  98 144 181 240 303 364 422
#     4  12  25  45  69  99 147 188 232 291 354 430
#     4  11  28  45  72 106 139 194 237 299 359 438
#     4  10  23  43  69  98 137 185 233 296 364 419
#     4  12  27  45  72 107 142 189 247 284 368 435
#
# _framework density 22.863011
#
# number of rings (size 3 to 8) (size 9 to 14) (size 15 to 20)
#    0.000    1.250    1.250    2.250   14.000    4.500 
#    0.000    0.000    0.000    0.000    0.000    0.000 
#    0.000    0.000    0.000    0.000    0.000    0.000 
#
# Total GULP energy -89141.999353 kJ/mol
# GULP energy per Si atom -5571.374960 kJ/mol
# Density = 2.281097 g / cm^3
# Si number density = 22.863011 Si / 1000 Ang^3
#
#
#
# Elastic Constant Matrix: (Units=GPa)
#
#
# Indices 1 2 3 4 5 6 
#
# 1 97.4240 20.7068 31.5178 -10.8307 -29.7270 20.5310
# 2 20.7068 115.5675 18.7010 -5.8032 -12.2287 26.1721
# 3 31.5178 18.7010 81.3771 3.7122 -17.5431 15.7619
# 4 -10.8307 -5.8032 3.7122 49.1062 15.6590 -8.1804
# 5 -29.7270 -12.2287 -17.5431 15.6590 36.8111 -7.2287
# 6 20.5310 26.1721 15.7619 -8.1804 -7.2287 41.7142
#
#
#
# Elastic Compliance Matrix: (Units=1/GPa)
#
#
# Indices 1 2 3 4 5 6 
#
# 1 0.015240 -0.000169 -0.002724 -0.000501 0.010245 -0.004688
# 2 -0.000169 0.010313 -0.000738 -0.000355 0.001941 -0.005842
# 3 -0.002724 -0.000738 0.015841 -0.004544 0.006254 -0.003989
# 4 -0.000501 -0.000355 -0.004544 0.025374 -0.012501 0.004996
# 5 0.010245 0.001941 0.006254 -0.012501 0.043694 -0.003503
# 6 -0.004688 -0.005842 -0.003989 0.004996 -0.003503 0.031825
#
#
# Mechanical properties :
#
#
# Convention : Reuss Voigt Hill
#
# Bulk Modulus (GPa) = 29.29847 48.46886 38.88367
# Shear Modulus (GPa) = 31.06969 40.42249 35.74609
#
# Velocity S-wave (km/s) = 3.69039 4.20936 3.95839
# Velocity P-wave (km/s) = 5.56788 6.69855 6.15922
#
# Compressibility (1/GPa) = 0.03413147
#
# Stress axis : x y z
#
# Youngs Moduli (GPa) = 65.61649 96.96230 63.12549
#
# Poissons Ratio (x) = 0.01640 0.17196
# Poissons Ratio (y) = 0.01110 0.04661
# Poissons Ratio (z) = 0.17875 0.07159
#
# Static dielectric constant tensor:
#      x y z
#    x 2.067900 0.020590 0.102350 
#    y 0.020590 1.906530 -0.054990 
#    z 0.102350 -0.054990 1.908010 
# 
# From -- ./inp_files/363896.got.cif
#   From: 2010.05.17/outbox.cif.g08.bks.cpg/sg2_182_cif.got.tgz:363896.got - 2010.06.03 11:33:40.
