data_PCOD9040431
_publ_section_title
;
Structure prediction by ZEFSAII (Michael W. Deem and Ramdas Pophale) SiO2 
 PCOD9040431
Probable space group: P -1
;
_chemical_formula_sum "Si O2"
_cell_formula_units_Z 16
_cell_length_a 8.193421
_cell_length_b 7.855345
_cell_length_c 13.298643
_cell_angle_alpha 74.602152
_cell_angle_beta 59.091903
_cell_angle_gamma 62.006980
_cell_volume 648.124588
_symmetry_space_group_name_H-M "P -1"
_symmetry_group_IT_number 2
_symmetry_cell_setting 'triclinic'
loop_
_space_group_symop_operation_xyz
x,y,z
-x,-y,-z
loop_
_atom_site_type_symbol
_atom_site_label
_atom_site_fract_x
_atom_site_fract_y
_atom_site_fract_z
Si Si1 0.054162 0.253420 0.898194
Si Si2 0.055144 0.854391 0.635459
Si Si3 0.841489 0.607636 0.624803
Si Si4 0.701105 0.196754 0.609075
Si Si5 0.465593 0.932016 0.763301
Si Si6 0.388773 0.732060 0.010716
Si Si7 0.083479 0.656897 0.859823
Si Si8 0.556468 0.434599 0.789657
O O1 0.053129 0.469136 0.853363
O O2 0.848126 0.221893 0.944234
O O3 0.228621 0.082413 0.808765
O O4 0.076022 0.242836 0.015285
O O5 0.271735 0.797667 0.518280
O O6 0.064438 0.805964 0.755356
O O7 0.953865 0.720412 0.633926
O O8 0.924181 0.075994 0.610125
O O9 0.602630 0.773886 0.661889
O O10 0.766908 0.470034 0.738413
O O11 0.000000 0.500000 0.500000
O O12 0.590565 0.397532 0.665815
O O13 0.575394 0.077310 0.703143
O O14 0.480849 0.827928 0.882995
O O15 0.425126 0.744331 0.116324
O O16 0.500000 0.500000 0.000000
O O17 0.315291 0.581940 0.846805
#
# Coordination Sequence:
#
# PCOD9040431 Si02
#       8
#     2   2   2   2   2   2   2   2
#     4  11  24  44  65 105 142 176 225 284 339 409
#     4  10  23  44  71  96 133 185 225 283 332 402
#     4  11  22  43  71  94 134 178 225 273 340 398
#     4  10  23  43  66  98 136 172 235 278 333 400
#     4  11  24  43  69 100 139 176 226 288 336 400
#     4  12  24  42  70 100 137 181 223 277 348 407
#     4  11  24  41  70 100 140 180 228 275 344 397
#     4  12  23  43  66 103 133 180 229 276 337 409
#
# _framework density 24.686610999999999
#
# number of rings (size 3 to 8) (size 9 to 14) (size 15 to 20)
#    0.000    1.000    5.000    1.125    3.500    1.000 
#    0.000    0.000    0.000    7.500    0.000    0.000 
#    0.000    0.000    0.000    0.000    0.000    0.000 
#
# Total GULP energy -89160.403434 kJ/mol
# GULP energy per Si atom -5572.525215 kJ/mol
# Density = 2.463042 g / cm^3
# Si number density = 24.686611 Si / 1000 Ang^3
#
#
#
# Elastic Constant Matrix: (Units=GPa)
#
#
# Indices 1 2 3 4 5 6 
#
# 1 56.3458 14.4824 33.0658 6.4483 -20.1446 2.7240
# 2 14.4824 75.9483 32.6953 26.5448 -5.8218 2.6640
# 3 33.0658 32.6953 121.0569 5.8063 -22.3071 -6.2875
# 4 6.4483 26.5448 5.8063 59.6914 -3.5048 -13.2880
# 5 -20.1446 -5.8218 -22.3071 -3.5048 37.6296 -2.1875
# 6 2.7240 2.6640 -6.2875 -13.2880 -2.1875 26.1466
#
#
#
# Elastic Compliance Matrix: (Units=1/GPa)
#
#
# Indices 1 2 3 4 5 6 
#
# 1 0.024753 -0.001088 -0.004752 -0.001995 0.009859 -0.003800
# 2 -0.001088 0.019217 -0.005241 -0.009893 -0.002121 -0.008310
# 3 -0.004752 -0.005241 0.011929 0.003257 0.004364 0.005918
# 4 -0.001995 -0.009893 0.003257 0.024453 0.002461 0.014632
# 5 0.009859 -0.002121 0.004364 0.002461 0.034596 0.004383
# 6 -0.003800 -0.008310 0.005918 0.014632 0.004383 0.048715
#
#
# Mechanical properties :
#
#
# Convention : Reuss Voigt Hill
#
# Bulk Modulus (GPa) = 29.64091 45.98198 37.81144
# Shear Modulus (GPa) = 25.37168 36.23402 30.80285
#
# Velocity S-wave (km/s) = 3.20933 3.83529 3.53619
# Velocity P-wave (km/s) = 5.07603 6.18703 5.65886
#
# Compressibility (1/GPa) = 0.03373716
#
# Stress axis : x y z
#
# Youngs Moduli (GPa) = 40.39973 52.03688 83.82624
#
# Poissons Ratio (x) = 0.05662 0.39835
# Poissons Ratio (y) = 0.04396 0.43932
# Poissons Ratio (z) = 0.19198 0.27272
#
# Static dielectric constant tensor:
#      x y z
#    x 2.033690 0.048390 -0.003350 
#    y 0.048390 2.136010 0.064890 
#    z -0.003350 0.064890 2.081250 
# 
# From -- ./inp_files/187366.got.cif
#   From: 2010.05.17/outbox.cif.g08.bks.cpg/sg2_94_cif.got.tgz:187366.got - 2010.06.03 11:33:40.
