data_PCOD9040183
_publ_section_title
;
Structure prediction by ZEFSAII (Michael W. Deem and Ramdas Pophale) SiO2 
 PCOD9040183
Probable space group: P -1
;
_chemical_formula_sum "Si O2"
_cell_formula_units_Z 14
_cell_length_a 5.173395
_cell_length_b 18.163676
_cell_length_c 10.601451
_cell_angle_alpha 147.105241
_cell_angle_beta 73.335345
_cell_angle_gamma 107.051264
_cell_volume 515.669087
_symmetry_space_group_name_H-M "P -1"
_symmetry_group_IT_number 2
_symmetry_cell_setting 'triclinic'
loop_
_space_group_symop_operation_xyz
x,y,z
-x,-y,-z
loop_
_atom_site_type_symbol
_atom_site_label
_atom_site_fract_x
_atom_site_fract_y
_atom_site_fract_z
Si Si1 0.888275 0.157825 0.892808
Si Si2 0.134849 0.776492 0.441215
Si Si3 0.478547 0.675432 0.695474
Si Si4 0.627076 0.896599 0.431002
Si Si5 0.796105 0.580023 0.056993
Si Si6 0.166626 0.069767 0.964373
Si Si7 0.041820 0.581541 0.416204
O O1 0.121102 0.157487 0.756021
O O2 0.025888 0.164739 0.021797
O O3 0.735885 0.005826 0.679789
O O4 0.680287 0.274208 0.086837
O O5 0.408236 0.767566 0.307798
O O6 0.103598 0.699498 0.468937
O O7 0.196816 0.936730 0.686351
O O8 0.870196 0.726559 0.324144
O O9 0.262364 0.606385 0.529470
O O10 0.739663 0.590101 0.525739
O O11 0.598334 0.829507 0.859832
O O12 0.500000 0.000000 0.500000
O O13 0.897882 0.551791 0.862027
O O14 0.500000 0.500000 0.000000
O O15 0.000000 0.500000 0.000000
O O16 0.000000 0.000000 0.000000
#
# Coordination Sequence:
#
# PCOD9040183 Si02
#       7
#     2   2   2   2   2   2   2
#     4  11  23  39  61  94 138 177 216 259 329 397
#     4  11  22  40  65  94 135 169 218 271 330 390
#     4  12  22  40  63  93 136 168 206 269 333 397
#     4  11  23  40  61  93 139 179 220 264 317 405
#     4  10  23  43  64  92 130 171 222 271 325 385
#     4  12  23  37  62 103 132 168 206 268 343 405
#     4  11  24  39  65  95 128 174 214 272 330 387
#
# _framework density 27.149196
#
# number of rings (size 3 to 8) (size 9 to 14) (size 15 to 20)
#    0.000    0.857    5.714    1.714    2.000    2.286 
#    0.000    0.000    0.000    1.714    0.000    0.000 
#    0.000    0.000    0.000    0.000    0.000    0.000 
#
# Total GULP energy -78263.700370 kJ/mol
# GULP energy per Si atom -5590.264312 kJ/mol
# Density = 2.708740 g / cm^3
# Si number density = 27.149196 Si / 1000 Ang^3
#
#
#
# Elastic Constant Matrix: (Units=GPa)
#
#
# Indices 1 2 3 4 5 6 
#
# 1 157.4915 50.4331 73.5010 -0.1678 19.4344 48.0116
# 2 50.4331 123.5252 25.5819 -2.9925 -0.3036 26.9757
# 3 73.5010 25.5819 182.1281 2.1133 -7.3713 15.9299
# 4 -0.1678 -2.9925 2.1133 41.5017 -6.0101 -8.0449
# 5 19.4344 -0.3036 -7.3713 -6.0101 54.0824 1.3725
# 6 48.0116 26.9757 15.9299 -8.0449 1.3725 53.1156
#
#
#
# Elastic Compliance Matrix: (Units=1/GPa)
#
#
# Indices 1 2 3 4 5 6 
#
# 1 0.012337 -0.002304 -0.004044 -0.002384 -0.005034 -0.008999
# 2 -0.002304 0.009682 -0.000152 0.000300 0.000965 -0.002768
# 3 -0.004044 -0.000152 0.007100 0.000267 0.002410 0.001582
# 4 -0.002384 0.000300 0.000267 0.025726 0.003608 0.005726
# 5 -0.005034 0.000965 0.002410 0.003608 0.020949 0.003343
# 6 -0.008999 -0.002768 0.001582 0.005726 0.003343 0.028674
#
#
# Mechanical properties :
#
#
# Convention : Reuss Voigt Hill
#
# Bulk Modulus (GPa) = 62.04310 84.68632 73.36471
# Shear Modulus (GPa) = 40.70263 50.64853 45.67558
#
# Velocity S-wave (km/s) = 3.87618 4.32390 4.10615
# Velocity P-wave (km/s) = 6.55250 7.49592 7.04003
#
# Compressibility (1/GPa) = 0.01611783
#
# Stress axis : x y z
#
# Youngs Moduli (GPa) = 81.05785 103.28444 140.84132
#
# Poissons Ratio (x) = 0.23799 0.56957
# Poissons Ratio (y) = 0.18678 0.02145
# Poissons Ratio (z) = 0.32780 0.01573
#
# Static dielectric constant tensor:
#      x y z
#    x 2.370090 0.013860 -0.187760 
#    y 0.013860 2.201680 0.029500 
#    z -0.187760 0.029500 2.266360 
# 
# From -- ./inp_files/371102.got.cif
#   From: 2010.05.17/outbox.cif.g08.bks.cpg/sg2_186_cif.got.tgz:371102.got - 2010.06.03 11:33:40.
