data_PCOD9040571
_publ_section_title
;
Structure prediction by ZEFSAII (Michael W. Deem and Ramdas Pophale) SiO2 
 PCOD9040571
Probable space group: P -1
;
_chemical_formula_sum "Si O2"
_cell_formula_units_Z 14
_cell_length_a 9.959101
_cell_length_b 9.769798
_cell_length_c 11.779217
_cell_angle_alpha 110.922972
_cell_angle_beta 126.880709
_cell_angle_gamma 41.701665
_cell_volume 600.891101
_symmetry_space_group_name_H-M "P -1"
_symmetry_group_IT_number 2
_symmetry_cell_setting 'triclinic'
loop_
_space_group_symop_operation_xyz
x,y,z
-x,-y,-z
loop_
_atom_site_type_symbol
_atom_site_label
_atom_site_fract_x
_atom_site_fract_y
_atom_site_fract_z
Si Si1 0.235692 0.475848 0.303402
Si Si2 0.273027 0.039171 0.371751
Si Si3 0.716528 0.782827 0.194241
Si Si4 0.307770 0.937303 0.912123
Si Si5 0.255362 0.145793 0.161367
Si Si6 0.556538 0.369231 0.628002
Si Si7 0.093589 0.840259 0.606249
O O1 0.241489 0.328207 0.185106
O O2 0.471559 0.340854 0.460417
O O3 0.248053 0.626051 0.293865
O O4 0.998542 0.601535 0.296212
O O5 0.349354 0.825963 0.312279
O O6 0.500000 0.000000 0.500000
O O7 0.142315 0.185154 0.237475
O O8 0.111424 0.126657 0.427762
O O9 0.681533 0.945729 0.144192
O O10 0.537378 0.925745 0.248231
O O11 0.577758 0.743009 0.040304
O O12 0.188135 0.878834 0.770632
O O13 0.178858 0.092937 0.001478
O O14 0.317925 0.601339 0.613669
O O15 0.000000 0.000000 0.500000
#
# Coordination Sequence:
#
# PCOD9040571 Si02
#       7
#     2   2   2   2   2   2   2
#     4  11  21  40  69 104 130 185 227 284 332 408
#     4  12  27  45  68 103 139 185 221 289 351 399
#     4   9  20  38  66  97 136 173 227 273 336 396
#     4   9  21  43  66 100 135 183 219 281 344 405
#     4  10  23  43  67  96 144 172 236 275 337 412
#     4  11  25  39  68 103 140 177 240 271 348 405
#     4  12  26  46  73 100 143 176 226 291 341 411
#
# _framework density 23.298729999999999
#
# number of rings (size 3 to 8) (size 9 to 14) (size 15 to 20)
#    0.857    0.571    1.429    4.286    4.000    2.857 
#    2.571    1.429    0.000    0.000    0.000    0.000 
#    0.000    0.000    0.000    0.000    0.000    0.000 
#
# Total GULP energy -78043.248547 kJ/mol
# GULP energy per Si atom -5574.517753 kJ/mol
# Density = 2.324570 g / cm^3
# Si number density = 23.298730 Si / 1000 Ang^3
#
#
#
# Elastic Constant Matrix: (Units=GPa)
#
#
# Indices 1 2 3 4 5 6 
#
# 1 114.8821 19.0565 22.2524 -0.4244 2.8746 -4.5640
# 2 19.0565 79.8151 0.2266 14.1320 8.6743 -0.6051
# 3 22.2524 0.2266 115.6133 13.6768 18.2461 6.2097
# 4 -0.4244 14.1320 13.6768 27.6765 0.5228 1.3759
# 5 2.8746 8.6743 18.2461 0.5228 40.9329 1.5913
# 6 -4.5640 -0.6051 6.2097 1.3759 1.5913 42.1928
#
#
#
# Elastic Compliance Matrix: (Units=1/GPa)
#
#
# Indices 1 2 3 4 5 6 
#
# 1 0.009681 -0.002876 -0.002390 0.002719 0.000912 0.001235
# 2 -0.002876 0.015189 0.002176 -0.008803 -0.003875 0.000020
# 3 -0.002390 0.002176 0.010701 -0.006272 -0.004928 -0.001412
# 4 0.002719 -0.008803 -0.006272 0.043718 0.003931 -0.000483
# 5 0.000912 -0.003875 -0.004928 0.003931 0.027349 -0.000391
# 6 0.001235 0.000020 -0.001412 -0.000483 -0.000391 0.024073
#
#
# Mechanical properties :
#
#
# Convention : Reuss Voigt Hill
#
# Bulk Modulus (GPa) = 34.02361 43.70904 38.86633
# Shear Modulus (GPa) = 34.08623 40.07877 37.08250
#
# Velocity S-wave (km/s) = 3.82908 4.15204 3.99383
# Velocity P-wave (km/s) = 5.84671 6.46428 6.16324
#
# Compressibility (1/GPa) = 0.02939135
#
# Stress axis : x y z
#
# Youngs Moduli (GPa) = 103.29804 65.83577 93.45136
#
# Poissons Ratio (x) = 0.18933 0.22331
# Poissons Ratio (y) = 0.29706 -0.20331
# Poissons Ratio (z) = 0.24683 -0.14323
#
# Static dielectric constant tensor:
#      x y z
#    x 1.933190 -0.038610 0.035690 
#    y -0.038610 1.920300 0.022720 
#    z 0.035690 0.022720 1.949070 
# 
# From -- ./inp_files/383013.got.cif
#   From: 2010.05.17/outbox.cif.g08.bks.cpg/sg2_192_cif.got.tgz:383013.got - 2010.06.03 11:33:40.
