data_PCOD9040356
_publ_section_title
;
Structure prediction by ZEFSAII (Michael W. Deem and Ramdas Pophale) SiO2 
 PCOD9040356
Probable space group: P -1
;
_chemical_formula_sum "Si O2"
_cell_formula_units_Z 16
_cell_length_a 12.202970
_cell_length_b 8.870153
_cell_length_c 14.251355
_cell_angle_alpha 75.493863
_cell_angle_beta 149.164527
_cell_angle_gamma 111.177414
_cell_volume 731.522436
_symmetry_space_group_name_H-M "P -1"
_symmetry_group_IT_number 2
_symmetry_cell_setting 'triclinic'
loop_
_space_group_symop_operation_xyz
x,y,z
-x,-y,-z
loop_
_atom_site_type_symbol
_atom_site_label
_atom_site_fract_x
_atom_site_fract_y
_atom_site_fract_z
Si Si1 0.468391 0.122562 0.642292
Si Si2 0.642076 0.613290 0.936535
Si Si3 0.129022 0.881275 0.568029
Si Si4 0.630944 0.187481 0.071733
Si Si5 0.305473 0.338788 0.350481
Si Si6 0.182437 0.641037 0.003773
Si Si7 0.739188 0.892863 0.824281
Si Si8 0.743947 0.627380 0.218841
O O1 0.311396 0.205877 0.455689
O O2 0.326540 0.000589 0.634955
O O3 0.590613 0.016224 0.687933
O O4 0.662312 0.263330 0.813800
O O5 0.687284 0.792661 0.899881
O O6 0.380685 0.527581 0.783727
O O7 0.736552 0.511556 0.945703
O O8 0.765151 0.600861 0.127707
O O9 0.212310 0.790443 0.727136
O O10 0.967522 0.744193 0.406628
O O11 0.000000 0.000000 0.500000
O O12 0.764267 0.242668 0.066221
O O13 0.442915 0.277450 0.928920
O O14 0.500000 0.000000 0.000000
O O15 0.500000 0.500000 0.500000
O O16 0.324213 0.242028 0.283707
O O17 0.078246 0.389367 0.165097
O O18 0.000000 0.000000 0.000000
#
# Coordination Sequence:
#
# PCOD9040356 Si02
#       8
#     2   2   2   2   2   2   2   2
#     4  12  26  45  73 106 136 184 238 292 354 417
#     4  10  24  45  72  98 143 191 228 281 365 414
#     4  12  22  36  69 104 138 174 225 287 345 423
#     4  11  20  37  65 101 136 175 224 276 355 407
#     4  12  29  47  72 101 138 185 240 291 351 416
#     4  11  24  46  70  99 142 186 228 291 345 420
#     4  12  27  47  76 101 140 189 239 299 345 409
#     4  10  23  43  66 101 142 181 224 287 347 430
#
# _framework density 21.872192999999999
#
# number of rings (size 3 to 8) (size 9 to 14) (size 15 to 20)
#    0.000    0.750    3.750    3.375    3.500    3.000 
#    0.000   10.000    0.000    0.000    0.000    0.000 
#    0.000    0.000    0.000    0.000    0.000    0.000 
#
# Total GULP energy -89493.610049 kJ/mol
# GULP energy per Si atom -5593.350628 kJ/mol
# Density = 2.182241 g / cm^3
# Si number density = 21.872193 Si / 1000 Ang^3
#
#
#
# Elastic Constant Matrix: (Units=GPa)
#
#
# Indices 1 2 3 4 5 6 
#
# 1 79.9886 28.1374 25.0822 4.6772 -5.5634 -14.9322
# 2 28.1374 88.5858 24.0518 9.1411 -1.8146 2.3630
# 3 25.0822 24.0518 115.2050 17.1143 -11.4443 -7.9797
# 4 4.6772 9.1411 17.1143 40.0560 -4.1309 -8.3727
# 5 -5.5634 -1.8146 -11.4443 -4.1309 36.6181 -3.7921
# 6 -14.9322 2.3630 -7.9797 -8.3727 -3.7921 51.1099
#
#
#
# Elastic Compliance Matrix: (Units=1/GPa)
#
#
# Indices 1 2 3 4 5 6 
#
# 1 0.015789 -0.004669 -0.002113 0.001369 0.002167 0.004884
# 2 -0.004669 0.013553 -0.001748 -0.002496 -0.001151 -0.002758
# 3 -0.002113 -0.001748 0.010301 -0.003349 0.002507 0.000709
# 4 0.001369 -0.002496 -0.003349 0.028086 0.002703 0.004794
# 5 0.002167 -0.001151 0.002507 0.002703 0.029050 0.003676
# 6 0.004884 -0.002758 0.000709 0.004794 0.003676 0.022289
#
#
# Mechanical properties :
#
#
# Convention : Reuss Voigt Hill
#
# Bulk Modulus (GPa) = 44.27651 48.70244 46.48947
# Shear Modulus (GPa) = 34.80564 39.32400 37.06482
#
# Velocity S-wave (km/s) = 3.99346 4.24476 4.12103
# Velocity P-wave (km/s) = 6.44600 6.80729 6.62911
#
# Compressibility (1/GPa) = 0.02258534
#
# Stress axis : x y z
#
# Youngs Moduli (GPa) = 63.33563 73.78196 97.08096
#
# Poissons Ratio (x) = 0.34445 0.20509
# Poissons Ratio (y) = 0.29568 0.16967
# Poissons Ratio (z) = 0.13380 0.12895
#
# Static dielectric constant tensor:
#      x y z
#    x 1.854620 -0.012050 -0.043170 
#    y -0.012050 1.837080 0.010860 
#    z -0.043170 0.010860 1.810660 
# 
# From -- ./inp_files/273796.got.cif
#   From: 2010.05.17/outbox.cif.g08.bks.cpg/sg2_137_cif.got.tgz:273796.got - 2010.06.03 11:33:40.
