data_PCOD9040993
_publ_section_title
;
Structure prediction by ZEFSAII (Michael W. Deem and Ramdas Pophale) SiO2 
 PCOD9040993
Probable space group: P -1
;
_chemical_formula_sum "Si O2"
_cell_formula_units_Z 16
_cell_length_a 23.717468
_cell_length_b 5.583589
_cell_length_c 12.084211
_cell_angle_alpha 108.007996
_cell_angle_beta 28.900794
_cell_angle_gamma 114.030465
_cell_volume 702.304324
_symmetry_space_group_name_H-M "P -1"
_symmetry_group_IT_number 2
_symmetry_cell_setting 'triclinic'
loop_
_space_group_symop_operation_xyz
x,y,z
-x,-y,-z
loop_
_atom_site_type_symbol
_atom_site_label
_atom_site_fract_x
_atom_site_fract_y
_atom_site_fract_z
Si Si1 0.742930 0.015495 0.915598
Si Si2 0.785754 0.477217 0.723121
Si Si3 0.013762 0.458700 0.797015
Si Si4 0.902485 0.102616 0.116817
Si Si5 0.520071 0.055187 0.603116
Si Si6 0.523025 0.314611 0.032894
Si Si7 0.244192 0.618773 0.844722
Si Si8 0.633152 0.734734 0.493224
O O1 0.777302 0.237865 0.790819
O O2 0.800415 0.773998 0.785861
O O3 0.596582 0.871446 0.143469
O O4 0.765383 0.186504 0.014142
O O5 0.901051 0.511718 0.449962
O O6 0.661939 0.405542 0.852600
O O7 0.091422 0.632849 0.786877
O O8 0.954330 0.173868 0.914229
O O9 0.890207 0.528423 0.987247
O O10 0.764025 0.928692 0.330012
O O11 0.000000 0.000000 0.000000
O O12 0.523069 0.809203 0.634331
O O13 0.500000 0.000000 0.500000
O O14 0.661945 0.231240 0.392052
O O15 0.429214 0.350406 0.293441
O O16 0.500000 0.500000 0.000000
O O17 0.500000 0.000000 0.000000
O O18 0.321791 0.419488 0.707064
#
# Coordination Sequence:
#
# PCOD9040993 Si02
#       8
#     2   2   2   2   2   2   2   2
#     4  11  27  46  72 104 143 184 236 290 355 425
#     4  12  27  48  70 101 149 186 231 291 355 423
#     4  11  26  44  69  99 140 183 237 292 351 422
#     4  11  24  43  68 102 136 179 237 295 348 411
#     4  10  23  43  70 102 138 179 235 294 353 411
#     4  12  28  46  72 104 144 191 238 286 358 428
#     4  11  25  43  72 104 134 186 235 294 354 416
#     4  12  24  43  77 100 143 183 240 297 358 418
#
# _framework density 22.782146000000001
#
# number of rings (size 3 to 8) (size 9 to 14) (size 15 to 20)
#    0.000    0.750    3.750    2.250    8.750    2.000 
#    0.000    0.000    0.000    0.000    0.000    0.000 
#    0.000    0.000    0.000    0.000    0.000    0.000 
#
# Total GULP energy -89123.738412 kJ/mol
# GULP energy per Si atom -5570.233651 kJ/mol
# Density = 2.273029 g / cm^3
# Si number density = 22.782146 Si / 1000 Ang^3
#
#
#
# Elastic Constant Matrix: (Units=GPa)
#
#
# Indices 1 2 3 4 5 6 
#
# 1 65.5616 20.4338 29.6516 -10.0036 12.7424 -6.8632
# 2 20.4338 94.5556 35.9265 -0.1987 12.1215 13.2413
# 3 29.6516 35.9265 168.7099 -14.1885 19.3089 -0.4298
# 4 -10.0036 -0.1987 -14.1885 30.1872 -1.5067 1.3109
# 5 12.7424 12.1215 19.3089 -1.5067 39.4617 -9.4225
# 6 -6.8632 13.2413 -0.4298 1.3109 -9.4225 37.1999
#
#
#
# Elastic Compliance Matrix: (Units=1/GPa)
#
#
# Indices 1 2 3 4 5 6 
#
# 1 0.018930 -0.003539 -0.001786 0.005094 -0.003055 0.003778
# 2 -0.003539 0.013441 -0.002009 -0.001934 -0.003581 -0.006299
# 3 -0.001786 -0.002009 0.007149 0.002651 -0.002250 -0.000195
# 4 0.005094 -0.001934 0.002651 0.035995 -0.000937 0.000153
# 5 -0.003055 -0.003581 -0.002250 -0.000937 0.030509 0.008446
# 6 0.003778 -0.006299 -0.000195 0.000153 0.008446 0.031953
#
#
# Mechanical properties :
#
#
# Convention : Reuss Voigt Hill
#
# Bulk Modulus (GPa) = 40.23781 55.65009 47.94395
# Shear Modulus (GPa) = 31.06968 37.55745 34.31356
#
# Velocity S-wave (km/s) = 3.69694 4.06464 3.88514
# Velocity P-wave (km/s) = 5.99362 6.81971 6.41996
#
# Compressibility (1/GPa) = 0.02485225
#
# Stress axis : x y z
#
# Youngs Moduli (GPa) = 52.82600 74.39876 139.88037
#
# Poissons Ratio (x) = 0.26331 0.24979
# Poissons Ratio (y) = 0.18696 0.28103
# Poissons Ratio (z) = 0.09433 0.14947
#
# Static dielectric constant tensor:
#      x y z
#    x 1.948990 -0.196720 -0.015050 
#    y -0.196720 2.359430 -0.036310 
#    z -0.015050 -0.036310 1.770560 
# 
# From -- ./inp_files/68985.got.cif
#   From: 2010.05.17/outbox.cif.g08.bks.cpg/sg2_35_cif.got.tgz:68985.got - 2010.06.03 11:33:40.
