data_PCOD9040058
_publ_section_title
;
Structure prediction by ZEFSAII (Michael W. Deem and Ramdas Pophale) SiO2 
 PCOD9040058
Probable space group: P -1
;
_chemical_formula_sum "Si O2"
_cell_formula_units_Z 13
_cell_length_a 9.317961
_cell_length_b 9.631825
_cell_length_c 13.615861
_cell_angle_alpha 133.867916
_cell_angle_beta 75.266321
_cell_angle_gamma 134.532177
_cell_volume 560.587803
_symmetry_space_group_name_H-M "P -1"
_symmetry_group_IT_number 2
_symmetry_cell_setting 'triclinic'
loop_
_space_group_symop_operation_xyz
x,y,z
-x,-y,-z
loop_
_atom_site_type_symbol
_atom_site_label
_atom_site_fract_x
_atom_site_fract_y
_atom_site_fract_z
Si Si1 0.130661 0.936397 0.983128
Si Si2 0.416044 0.571901 0.971031
Si Si3 0.781079 0.300913 0.788931
Si Si4 0.247715 0.133061 0.622157
Si Si5 0.500000 0.000000 0.500000
Si Si6 0.728600 0.923176 0.747093
Si Si7 0.754239 0.607357 0.444224
O O1 0.364162 0.143714 0.986767
O O2 0.187388 0.004953 0.122138
O O3 0.970753 0.594463 0.835776
O O4 0.000000 0.000000 0.000000
O O5 0.260226 0.301339 0.789625
O O6 0.500000 0.500000 0.000000
O O7 0.301121 0.627871 0.080128
O O8 0.592918 0.054116 0.622999
O O9 0.861459 0.195506 0.785192
O O10 0.259899 0.263584 0.583400
O O11 0.446233 0.175180 0.622069
O O12 0.010546 0.784552 0.491350
O O13 0.728792 0.711575 0.597037
O O14 0.466563 0.738393 0.697754
#
# Coordination Sequence:
#
# PCOD9040058 Si02
#       7
#     2   2   2   2   1   2   2
#     4  12  25  44  73 101 140 195 240 292 367 430
#     4  12  24  46  71 104 142 188 240 297 357 434
#     4  12  27  45  72 107 147 186 240 304 358 424
#     4  11  22  45  72 104 140 191 240 295 353 438
#     4  12  24  46  72 102 150 176 244 304 350 424
#     4  11  24  46  69 109 145 188 243 302 355 433
#     4  10  23  42  76  99 145 192 236 288 373 421
#
# _framework density 23.189944000000001
#
# number of rings (size 3 to 8) (size 9 to 14) (size 15 to 20)
#    0.000    0.615    6.154    1.385    0.000    1.846 
#    0.000    1.538    0.000    0.000    0.000    0.000 
#    0.000    0.000    0.000    0.000    0.000    0.000 
#
# Total GULP energy -72494.868938 kJ/mol
# GULP energy per Si atom -5576.528380 kJ/mol
# Density = 2.313716 g / cm^3
# Si number density = 23.189944 Si / 1000 Ang^3
#
#
#
# Elastic Constant Matrix: (Units=GPa)
#
#
# Indices 1 2 3 4 5 6 
#
# 1 66.2074 26.2476 39.6917 -1.2398 4.5621 -12.3062
# 2 26.2476 99.8843 21.0930 2.5145 16.2301 -10.9200
# 3 39.6917 21.0930 116.4560 -29.8560 -2.2048 -3.2910
# 4 -1.2398 2.5145 -29.8560 42.7394 -5.6352 6.6515
# 5 4.5621 16.2301 -2.2048 -5.6352 31.0532 -3.5781
# 6 -12.3062 -10.9200 -3.2910 6.6515 -3.5781 30.1919
#
#
#
# Elastic Compliance Matrix: (Units=1/GPa)
#
#
# Indices 1 2 3 4 5 6 
#
# 1 0.023344 -0.002538 -0.009197 -0.007382 -0.003075 0.008856
# 2 -0.002538 0.012790 -0.002513 -0.004010 -0.006827 0.003392
# 3 -0.009197 -0.002513 0.015210 0.011990 0.005343 -0.005008
# 4 -0.007382 -0.004010 0.011990 0.034510 0.009180 -0.009667
# 5 -0.003075 -0.006827 0.005343 0.009180 0.038195 -0.000636
# 6 0.008856 0.003392 -0.005008 -0.009667 -0.000636 0.039466
#
#
# Mechanical properties :
#
#
# Convention : Reuss Voigt Hill
#
# Bulk Modulus (GPa) = 43.76736 50.73468 47.25102
# Shear Modulus (GPa) = 25.04658 33.83127 29.43892
#
# Velocity S-wave (km/s) = 3.29000 3.82367 3.56683
# Velocity P-wave (km/s) = 5.77464 6.43578 6.11415
#
# Compressibility (1/GPa) = 0.02284808
#
# Stress axis : x y z
#
# Youngs Moduli (GPa) = 42.83797 78.18380 65.74523
#
# Poissons Ratio (x) = 0.19847 0.60465
# Poissons Ratio (y) = 0.10874 0.16520
# Poissons Ratio (z) = 0.39398 0.19646
#
# Static dielectric constant tensor:
#      x y z
#    x 1.653940 0.131570 0.200310 
#    y 0.131570 1.916770 0.032600 
#    z 0.200310 0.032600 1.716770 
# 
# From -- ./inp_files/381105.got.cif
#   From: 2010.05.17/outbox.cif.g08.bks.cpg/sg2_191_cif.got.tgz:381105.got - 2010.06.03 11:33:40.
