data_PCOD9040082
_publ_section_title
;
Structure prediction by ZEFSAII (Michael W. Deem and Ramdas Pophale) SiO2 
 PCOD9040082
Probable space group: P -1
;
_chemical_formula_sum "Si O2"
_cell_formula_units_Z 14
_cell_length_a 8.601356
_cell_length_b 11.561558
_cell_length_c 9.224676
_cell_angle_alpha 111.578876
_cell_angle_beta 131.851922
_cell_angle_gamma 95.469306
_cell_volume 553.237329
_symmetry_space_group_name_H-M "P -1"
_symmetry_group_IT_number 2
_symmetry_cell_setting 'triclinic'
loop_
_space_group_symop_operation_xyz
x,y,z
-x,-y,-z
loop_
_atom_site_type_symbol
_atom_site_label
_atom_site_fract_x
_atom_site_fract_y
_atom_site_fract_z
Si Si1 0.755261 0.851904 0.781991
Si Si2 0.505256 0.018590 0.682594
Si Si3 0.728348 0.587985 0.785480
Si Si4 0.564434 0.654082 0.000562
Si Si5 0.162901 0.255939 0.491180
Si Si6 0.879807 0.347817 0.148334
Si Si7 0.711990 0.976195 0.186413
O O1 0.803751 0.750356 0.867093
O O2 0.681224 0.772359 0.543883
O O3 0.563522 0.898516 0.724661
O O4 0.000000 0.000000 0.000000
O O5 0.275276 0.993927 0.618285
O O6 0.500000 0.000000 0.500000
O O7 0.702218 0.181812 0.916897
O O8 0.500000 0.500000 0.500000
O O9 0.635243 0.571878 0.885589
O O10 0.948674 0.571940 0.846903
O O11 0.292031 0.600502 0.861294
O O12 0.709625 0.676414 0.249230
O O13 0.644584 0.812286 0.059349
O O14 0.051472 0.339906 0.374905
O O15 0.948040 0.097333 0.316754
O O16 0.500000 0.000000 0.000000
#
# Coordination Sequence:
#
# PCOD9040082 Si02
#       7
#     2   2   2   2   2   2   2
#     4  11  19  38  64  90 129 166 206 268 321 372
#     4  11  21  33  60  96 127 166 209 263 325 381
#     4  11  25  43  68  96 129 175 220 264 329 393
#     4  11  23  39  64  91 127 171 218 264 323 386
#     4  11  21  36  59  94 128 168 214 263 328 381
#     4  10  23  43  61  93 135 161 216 272 323 381
#     4  11  19  34  56  94 131 162 208 262 329 381
#
# _framework density 25.305593999999999
#
# number of rings (size 3 to 8) (size 9 to 14) (size 15 to 20)
#    0.000    1.143    5.714    3.857    2.000    0.571 
#    0.000    2.857    0.000   10.286    0.000    0.000 
#    0.000    0.000    0.000    0.000    0.000    0.000 
#
# Total GULP energy -78288.787379 kJ/mol
# GULP energy per Si atom -5592.056241 kJ/mol
# Density = 2.524800 g / cm^3
# Si number density = 25.305594 Si / 1000 Ang^3
#
#
#
# Elastic Constant Matrix: (Units=GPa)
#
#
# Indices 1 2 3 4 5 6 
#
# 1 203.4066 19.0847 56.6402 -1.0140 -31.0415 16.7771
# 2 19.0847 78.8235 15.5252 -3.0989 1.2764 1.4080
# 3 56.6402 15.5252 113.1331 -14.4189 -36.0639 -3.0853
# 4 -1.0140 -3.0989 -14.4189 37.1431 3.7649 -3.8781
# 5 -31.0415 1.2764 -36.0639 3.7649 51.7318 -6.1634
# 6 16.7771 1.4080 -3.0853 -3.8781 -6.1634 32.7137
#
#
#
# Elastic Compliance Matrix: (Units=1/GPa)
#
#
# Indices 1 2 3 4 5 6 
#
# 1 0.006295 -0.000998 -0.002799 -0.001505 0.001563 -0.003333
# 2 -0.000998 0.013413 -0.002101 0.000459 -0.002509 -0.000682
# 3 -0.002799 -0.002101 0.013936 0.004834 0.008329 0.004983
# 4 -0.001505 0.000459 0.004834 0.029210 0.000907 0.004841
# 5 0.001563 -0.002509 0.008329 0.000907 0.026694 0.005229
# 6 -0.003333 -0.000682 0.004983 0.004841 0.005229 0.034336
#
#
# Mechanical properties :
#
#
# Convention : Reuss Voigt Hill
#
# Bulk Modulus (GPa) = 45.77023 64.20702 54.98862
# Shear Modulus (GPa) = 34.97407 44.59195 39.78301
#
# Velocity S-wave (km/s) = 3.72165 4.20234 3.96928
# Velocity P-wave (km/s) = 6.04929 6.99814 6.54094
#
# Compressibility (1/GPa) = 0.02184826
#
# Stress axis : x y z
#
# Youngs Moduli (GPa) = 158.84804 74.55546 71.75631
#
# Poissons Ratio (x) = 0.07439 0.20086
# Poissons Ratio (y) = 0.15850 0.15076
# Poissons Ratio (z) = 0.44465 0.15664
#
# Static dielectric constant tensor:
#      x y z
#    x 2.045740 0.026890 -0.007370 
#    y 0.026890 2.045190 -0.043180 
#    z -0.007370 -0.043180 2.038590 
# 
# From -- ./inp_files/208534.got.cif
#   From: 2010.05.17/outbox.cif.g08.bks.cpg/sg2_105_cif.got.tgz:208534.got - 2010.06.03 11:33:40.
