data_PCOD9040017
_publ_section_title
;
Structure prediction by ZEFSAII (Michael W. Deem and Ramdas Pophale) SiO2 
 PCOD9040017
Probable space group: P -1
;
_chemical_formula_sum "Si O2"
_cell_formula_units_Z 16
_cell_length_a 7.109361
_cell_length_b 17.481619
_cell_length_c 6.765992
_cell_angle_alpha 111.050575
_cell_angle_beta 110.646176
_cell_angle_gamma 103.386593
_cell_volume 669.775589
_symmetry_space_group_name_H-M "P -1"
_symmetry_group_IT_number 2
_symmetry_cell_setting 'triclinic'
loop_
_space_group_symop_operation_xyz
x,y,z
-x,-y,-z
loop_
_atom_site_type_symbol
_atom_site_label
_atom_site_fract_x
_atom_site_fract_y
_atom_site_fract_z
Si Si1 0.216769 0.089752 0.135406
Si Si2 0.085467 0.521669 0.327152
Si Si3 0.372059 0.882647 0.421503
Si Si4 0.689358 0.602335 0.795118
Si Si5 0.412514 0.579449 0.014653
Si Si6 0.587925 0.962785 0.185879
Si Si7 0.919436 0.300828 0.661672
Si Si8 0.767428 0.721521 0.550020
O O1 0.390951 0.084016 0.353949
O O2 0.206085 0.182992 0.271274
O O3 0.291256 0.089471 0.934831
O O4 0.000000 0.000000 0.000000
O O5 0.277453 0.488811 0.319267
O O6 0.152409 0.539672 0.921760
O O7 0.150257 0.624387 0.387826
O O8 0.000000 0.500000 0.500000
O O9 0.274302 0.949081 0.547905
O O10 0.250735 0.781725 0.356058
O O11 0.408900 0.898782 0.216522
O O12 0.742139 0.656957 0.664715
O O13 0.475749 0.601492 0.828065
O O14 0.880745 0.651108 0.070000
O O15 0.557794 0.665480 0.279308
O O16 0.500000 0.500000 0.000000
O O17 0.500000 0.000000 0.000000
O O18 0.017847 0.265014 0.484634
#
# Coordination Sequence:
#
# PCOD9040017 Si02
#       8
#     2   2   2   2   2   2   2   2
#     4  11  25  43  70 102 145 184 234 294 368 435
#     4  12  24  47  72 101 144 200 243 302 367 424
#     4  10  23  42  74 103 140 188 231 299 359 431
#     4  11  25  44  69 101 141 193 246 306 358 426
#     4  11  24  45  69 100 148 188 247 303 359 433
#     4   9  21  45  70 103 134 176 231 287 359 430
#     4  11  24  44  67 102 140 182 246 293 353 438
#     4  11  25  46  68 106 144 190 241 305 363 433
#
# _framework density 23.8886
#
# number of rings (size 3 to 8) (size 9 to 14) (size 15 to 20)
#    0.000    1.250    3.750    1.125    1.750   10.500 
#    0.000    0.000    0.000    0.000    0.000    0.000 
#    0.000    0.000    0.000    0.000    0.000    0.000 
#
# Total GULP energy -89512.175875 kJ/mol
# GULP energy per Si atom -5594.510992 kJ/mol
# Density = 2.383423 g / cm^3
# Si number density = 23.888600 Si / 1000 Ang^3
#
#
#
# Elastic Constant Matrix: (Units=GPa)
#
#
# Indices 1 2 3 4 5 6 
#
# 1 101.8523 57.1084 44.8707 6.5450 -31.1003 0.9355
# 2 57.1084 198.4396 77.1821 -0.1688 -29.0137 8.5183
# 3 44.8707 77.1821 144.9786 -7.1016 -45.6287 -2.2756
# 4 6.5450 -0.1688 -7.1016 56.2315 1.3145 -12.3229
# 5 -31.1003 -29.0137 -45.6287 1.3145 49.2748 5.7469
# 6 0.9355 8.5183 -2.2756 -12.3229 5.7469 40.8440
#
#
#
# Elastic Compliance Matrix: (Units=1/GPa)
#
#
# Indices 1 2 3 4 5 6 
#
# 1 0.013853 -0.002590 -0.000983 -0.002208 0.006532 -0.001417
# 2 -0.002590 0.007014 -0.003004 -0.000425 -0.000079 -0.001688
# 3 -0.000983 -0.003004 0.011428 0.001491 0.008083 0.000598
# 4 -0.002208 -0.000425 0.001491 0.019659 -0.001530 0.006369
# 5 0.006532 -0.000079 0.008083 -0.001530 0.032446 -0.004710
# 6 -0.001417 -0.001688 0.000598 0.006369 -0.004710 0.027485
#
#
# Mechanical properties :
#
#
# Convention : Reuss Voigt Hill
#
# Bulk Modulus (GPa) = 52.24952 89.28813 70.76882
# Shear Modulus (GPa) = 38.04597 47.01067 42.52832
#
# Velocity S-wave (km/s) = 3.99512 4.44093 4.22391
# Velocity P-wave (km/s) = 6.57274 7.98460 7.31282
#
# Compressibility (1/GPa) = 0.01913893
#
# Stress axis : x y z
#
# Youngs Moduli (GPa) = 72.18618 142.57386 87.50722
#
# Poissons Ratio (x) = 0.36932 0.08602
# Poissons Ratio (y) = 0.18699 0.26291
# Poissons Ratio (z) = 0.07096 0.42835
#
# Static dielectric constant tensor:
#      x y z
#    x 2.024290 -0.024540 -0.008450 
#    y -0.024540 1.919530 0.013460 
#    z -0.008450 0.013460 1.963650 
# 
# From -- ./inp_files/45048.got.cif
#   From: 2010.05.17/outbox.cif.g08.bks.cpg/sg2_23_cif.got.tgz:45048.got - 2010.06.03 11:33:40.
