data_PCOD9040886
_publ_section_title
;
Structure prediction by ZEFSAII (Michael W. Deem and Ramdas Pophale) SiO2 
 PCOD9040886
Probable space group: P -1
;
_chemical_formula_sum "Si O2"
_cell_formula_units_Z 16
_cell_length_a 8.252313
_cell_length_b 16.773445
_cell_length_c 9.404730
_cell_angle_alpha 46.010735
_cell_angle_beta 80.315957
_cell_angle_gamma 105.842348
_cell_volume 771.287445
_symmetry_space_group_name_H-M "P -1"
_symmetry_group_IT_number 2
_symmetry_cell_setting 'triclinic'
loop_
_space_group_symop_operation_xyz
x,y,z
-x,-y,-z
loop_
_atom_site_type_symbol
_atom_site_label
_atom_site_fract_x
_atom_site_fract_y
_atom_site_fract_z
Si Si1 0.449482 0.252025 0.100647
Si Si2 0.352987 0.019168 0.595884
Si Si3 0.535892 0.844789 0.072298
Si Si4 0.366083 0.885005 0.318133
Si Si5 0.020787 0.639151 0.829348
Si Si6 0.655090 0.639830 0.382846
Si Si7 0.665415 0.539839 0.808938
Si Si8 0.929094 0.753846 0.960026
O O1 0.381023 0.152405 0.364989
O O2 0.257282 0.247321 0.076972
O O3 0.528516 0.206720 0.014948
O O4 0.619841 0.398979 0.937301
O O5 0.425545 0.037584 0.724694
O O6 0.500000 0.000000 0.500000
O O7 0.129475 0.897601 0.758587
O O8 0.385470 0.834412 0.225286
O O9 0.609285 0.753132 0.230804
O O10 0.685601 0.004310 0.833275
O O11 0.226859 0.765113 0.591795
O O12 0.868643 0.628875 0.748650
O O13 0.966402 0.665304 0.959497
O O14 0.000000 0.500000 0.000000
O O15 0.500000 0.500000 0.500000
O O16 0.652253 0.609945 0.585212
O O17 0.858185 0.694396 0.201311
O O18 0.500000 0.500000 0.000000
#
# Coordination Sequence:
#
# PCOD9040886 Si02
#       8
#     2   2   2   2   2   2   2   2
#     4  11  22  44  68  96 135 179 225 280 339 402
#     4  12  23  41  70  99 132 180 229 274 345 403
#     4  10  23  43  69  92 138 182 212 285 344 391
#     4  11  25  43  64  99 145 174 228 279 339 403
#     4  12  26  42  67 103 138 179 225 283 337 406
#     4  11  23  45  70  98 136 176 228 283 341 405
#     4  12  25  44  71 101 132 178 231 277 349 410
#     4  11  24  44  67  97 139 174 231 278 344 403
#
# _framework density 20.744534999999999
#
# number of rings (size 3 to 8) (size 9 to 14) (size 15 to 20)
#    0.000    0.750    6.250    1.125    5.250    3.000 
#    0.000    4.375    0.000    0.000    0.000    0.000 
#    0.000    0.000    0.000    0.000    0.000    0.000 
#
# Total GULP energy -89367.612910 kJ/mol
# GULP energy per Si atom -5585.475807 kJ/mol
# Density = 2.069732 g / cm^3
# Si number density = 20.744535 Si / 1000 Ang^3
#
#
#
# Elastic Constant Matrix: (Units=GPa)
#
#
# Indices 1 2 3 4 5 6 
#
# 1 28.4356 22.2862 17.2092 0.5691 4.5227 1.4005
# 2 22.2862 119.0260 42.1381 7.6840 5.9037 -19.0113
# 3 17.2092 42.1381 130.2808 6.7125 21.5210 -14.8999
# 4 0.5691 7.6840 6.7125 44.1232 1.4089 3.0843
# 5 4.5227 5.9037 21.5210 1.4089 35.2874 -3.1628
# 6 1.4005 -19.0113 -14.8999 3.0843 -3.1628 39.3517
#
#
#
# Elastic Compliance Matrix: (Units=1/GPa)
#
#
# Indices 1 2 3 4 5 6 
#
# 1 0.044614 -0.008200 -0.003720 0.002022 -0.002816 -0.007343
# 2 -0.008200 0.011622 -0.002121 -0.001999 0.000958 0.005337
# 3 -0.003720 -0.002121 0.010036 -0.001131 -0.005011 0.002594
# 4 0.002022 -0.001999 -0.001131 0.023406 -0.000469 -0.003338
# 5 -0.002816 0.000958 -0.005011 -0.000469 0.031727 0.001252
# 6 -0.007343 0.005337 0.002594 -0.003338 0.001252 0.029596
#
#
# Mechanical properties :
#
#
# Convention : Reuss Voigt Hill
#
# Bulk Modulus (GPa) = 26.18436 49.00104 37.59270
# Shear Modulus (GPa) = 26.06720 36.82638 31.44679
#
# Velocity S-wave (km/s) = 3.54868 4.21792 3.89769
# Velocity P-wave (km/s) = 5.42591 6.88430 6.19815
#
# Compressibility (1/GPa) = 0.03819073
#
# Stress axis : x y z
#
# Youngs Moduli (GPa) = 22.41430 86.04593 99.64465
#
# Poissons Ratio (x) = 0.70560 0.37064
# Poissons Ratio (y) = 0.18380 0.21131
# Poissons Ratio (z) = 0.08337 0.18247
#
# Static dielectric constant tensor:
#      x y z
#    x 1.783920 0.021710 -0.000370 
#    y 0.021710 1.787020 -0.040970 
#    z -0.000370 -0.040970 1.786420 
# 
# From -- ./inp_files/205605.got.cif
#   From: 2010.05.17/outbox.cif.g08.bks.cpg/sg2_103_cif.got.tgz:205605.got - 2010.06.03 11:33:40.
