data_PCOD9040805
_publ_section_title
;
Structure prediction by ZEFSAII (Michael W. Deem and Ramdas Pophale) SiO2 
 PCOD9040805
Probable space group: P -1
;
_chemical_formula_sum "Si O2"
_cell_formula_units_Z 16
_cell_length_a 9.127267
_cell_length_b 20.406682
_cell_length_c 11.653083
_cell_angle_alpha 139.026893
_cell_angle_beta 50.557416
_cell_angle_gamma 149.067656
_cell_volume 731.065353
_symmetry_space_group_name_H-M "P -1"
_symmetry_group_IT_number 2
_symmetry_cell_setting 'triclinic'
loop_
_space_group_symop_operation_xyz
x,y,z
-x,-y,-z
loop_
_atom_site_type_symbol
_atom_site_label
_atom_site_fract_x
_atom_site_fract_y
_atom_site_fract_z
Si Si1 0.537926 0.017445 0.705066
Si Si2 0.510088 0.407830 0.455376
Si Si3 0.738526 0.807141 0.063659
Si Si4 0.750442 0.138457 0.138187
Si Si5 0.290711 0.692233 0.939721
Si Si6 0.152377 0.467356 0.328101
Si Si7 0.631243 0.445503 0.898725
Si Si8 0.102704 0.907021 0.577266
O O1 0.810563 0.087919 0.589372
O O2 0.401070 0.894413 0.709053
O O3 0.310726 0.940545 0.613798
O O4 0.599531 0.149300 0.908502
O O5 0.500000 0.500000 0.500000
O O6 0.653139 0.367510 0.267956
O O7 0.660424 0.502537 0.622578
O O8 0.204859 0.250777 0.441827
O O9 0.592737 0.695984 0.096499
O O10 0.859566 0.960551 0.247541
O O11 0.485378 0.725023 0.989484
O O12 0.004673 0.847396 0.938871
O O13 0.915230 0.290335 0.188424
O O14 0.500000 0.000000 0.000000
O O15 0.947389 0.566835 0.958956
O O16 0.319060 0.576597 0.281983
O O17 0.000000 0.500000 0.500000
O O18 0.500000 0.500000 0.000000
#
# Coordination Sequence:
#
# PCOD9040805 Si02
#       8
#     2   2   2   2   2   2   2   2
#     4  10  23  43  69 100 142 177 238 292 348 417
#     4  12  26  44  74 102 141 184 237 289 358 422
#     4  11  25  45  72 102 139 188 244 288 351 427
#     4  12  26  45  71 100 143 192 235 287 359 424
#     4  11  24  46  72 102 138 190 236 294 354 426
#     4  12  27  46  67 105 142 185 237 293 357 425
#     4  12  26  46  70 102 144 184 236 295 358 420
#     4  10  24  43  69 104 133 180 237 294 347 417
#
# _framework density 21.885869
#
# number of rings (size 3 to 8) (size 9 to 14) (size 15 to 20)
#    0.000    0.750    2.500    4.125    5.250    5.000 
#    0.000    1.250    0.000    0.000    0.000    0.000 
#    0.000    0.000    0.000    0.000    0.000    0.000 
#
# Total GULP energy -89358.279271 kJ/mol
# GULP energy per Si atom -5584.892454 kJ/mol
# Density = 2.183606 g / cm^3
# Si number density = 21.885869 Si / 1000 Ang^3
#
#
#
# Elastic Constant Matrix: (Units=GPa)
#
#
# Indices 1 2 3 4 5 6 
#
# 1 90.0748 42.7459 18.1665 9.8985 9.8841 5.7111
# 2 42.7459 154.3348 37.3812 -4.4384 6.2676 1.9432
# 3 18.1665 37.3812 81.7001 -6.7674 10.3137 5.4304
# 4 9.8985 -4.4384 -6.7674 37.4945 5.0362 4.7975
# 5 9.8841 6.2676 10.3137 5.0362 33.1868 -8.9917
# 6 5.7111 1.9432 5.4304 4.7975 -8.9917 36.7346
#
#
#
# Elastic Compliance Matrix: (Units=1/GPa)
#
#
# Indices 1 2 3 4 5 6 
#
# 1 0.013883 -0.003492 -0.001261 -0.003625 -0.003094 -0.002071
# 2 -0.003492 0.008173 -0.002934 0.001254 0.000344 0.000465
# 3 -0.001261 -0.002934 0.015109 0.003907 -0.005363 -0.003705
# 4 -0.003625 0.001254 0.003907 0.030062 -0.006446 -0.005584
# 5 -0.003094 0.000344 -0.005363 -0.006446 0.036632 0.011064
# 6 -0.002071 0.000465 -0.003705 -0.005584 0.011064 0.031505
#
#
# Mechanical properties :
#
#
# Convention : Reuss Voigt Hill
#
# Bulk Modulus (GPa) = 45.88846 58.07744 51.98295
# Shear Modulus (GPa) = 31.64521 36.67091 34.15806
#
# Velocity S-wave (km/s) = 3.80665 4.09779 3.95490
# Velocity P-wave (km/s) = 6.35086 6.99881 6.68269
#
# Compressibility (1/GPa) = 0.02179197
#
# Stress axis : x y z
#
# Youngs Moduli (GPa) = 72.03199 122.34759 66.18370
#
# Poissons Ratio (x) = 0.42726 0.08347
# Poissons Ratio (y) = 0.25155 0.19415
# Poissons Ratio (z) = 0.09084 0.35891
#
# Static dielectric constant tensor:
#      x y z
#    x 1.767160 0.026420 0.026860 
#    y 0.026420 1.746530 0.013310 
#    z 0.026860 0.013310 1.812610 
# 
# From -- ./inp_files/405559.got.cif
#   From: 2010.05.17/outbox.cif.g08.bks.cpg/sg2_203_cif.got.tgz:405559.got - 2010.06.03 11:33:40.
