data_PCOD9040543
_publ_section_title
;
Structure prediction by ZEFSAII (Michael W. Deem and Ramdas Pophale) SiO2 
 PCOD9040543
Probable space group: P -1
;
_chemical_formula_sum "Si O2"
_cell_formula_units_Z 14
_cell_length_a 9.051279
_cell_length_b 8.326602
_cell_length_c 12.420732
_cell_angle_alpha 129.246816
_cell_angle_beta 54.739295
_cell_angle_gamma 128.518725
_cell_volume 540.626253
_symmetry_space_group_name_H-M "P -1"
_symmetry_group_IT_number 2
_symmetry_cell_setting 'triclinic'
loop_
_space_group_symop_operation_xyz
x,y,z
-x,-y,-z
loop_
_atom_site_type_symbol
_atom_site_label
_atom_site_fract_x
_atom_site_fract_y
_atom_site_fract_z
Si Si1 0.103259 0.996939 0.290638
Si Si2 0.530899 0.591126 0.275755
Si Si3 0.912219 0.191536 0.103115
Si Si4 0.767341 0.399271 0.971524
Si Si5 0.703849 0.835202 0.515915
Si Si6 0.071942 0.364329 0.328753
Si Si7 0.494378 0.146141 0.794399
O O1 0.262181 0.190235 0.382296
O O2 0.025438 0.112784 0.282349
O O3 0.192833 0.826630 0.138890
O O4 0.911934 0.866694 0.389166
O O5 0.550776 0.672703 0.425024
O O6 0.307978 0.472832 0.277595
O O7 0.609445 0.790895 0.236672
O O8 0.653612 0.440697 0.138311
O O9 0.970510 0.349166 0.251595
O O10 0.675682 0.049200 0.146985
O O11 0.034547 0.375499 0.039840
O O12 0.000000 0.000000 0.000000
O O13 0.617214 0.347657 0.910219
O O14 0.648836 0.053312 0.638578
O O15 0.000000 0.500000 0.500000
#
# Coordination Sequence:
#
# PCOD9040543 Si02
#       7
#     2   2   2   2   2   2   2
#     4  10  25  47  65  97 144 178 226 284 345 399
#     4  12  22  41  70 102 139 176 231 280 337 403
#     4  12  24  44  72 104 137 178 230 277 342 406
#     4  11  25  46  68 104 141 181 221 285 340 407
#     4  10  23  43  67  95 135 182 222 286 339 394
#     4  12  26  44  72 104 134 181 233 283 337 410
#     4  11  21  43  71 100 139 177 229 282 336 402
#
# _framework density 25.895893999999998
#
# number of rings (size 3 to 8) (size 9 to 14) (size 15 to 20)
#    0.000    0.857    2.857    4.286    4.000    1.714 
#    5.143    0.000    0.000    0.000    0.000    0.000 
#    0.000    0.000    0.000    0.000    0.000    0.000 
#
# Total GULP energy -78360.104605 kJ/mol
# GULP energy per Si atom -5597.150329 kJ/mol
# Density = 2.583695 g / cm^3
# Si number density = 25.895894 Si / 1000 Ang^3
#
#
#
# Elastic Constant Matrix: (Units=GPa)
#
#
# Indices 1 2 3 4 5 6 
#
# 1 90.5975 17.5935 25.8230 5.5052 13.2248 14.9433
# 2 17.5935 76.9364 11.1148 3.4704 5.2890 11.2009
# 3 25.8230 11.1148 136.8789 13.7751 -5.4106 0.5186
# 4 5.5052 3.4704 13.7751 23.4818 0.9351 -2.7192
# 5 13.2248 5.2890 -5.4106 0.9351 67.5554 15.4396
# 6 14.9433 11.2009 0.5186 -2.7192 15.4396 39.4181
#
#
#
# Elastic Compliance Matrix: (Units=1/GPa)
#
#
# Indices 1 2 3 4 5 6 
#
# 1 0.013016 -0.001905 -0.002163 -0.001879 -0.001668 -0.003841
# 2 -0.001905 0.014089 -0.000602 -0.001677 0.000021 -0.003397
# 3 -0.002163 -0.000602 0.008237 -0.004267 0.001159 0.000135
# 4 -0.001879 -0.001677 -0.004267 0.046433 -0.001650 0.005094
# 5 -0.001668 0.000021 0.001159 -0.001650 0.016617 -0.006011
# 6 -0.003841 -0.003397 0.000135 0.005094 -0.006011 0.030495
#
#
# Mechanical properties :
#
#
# Convention : Reuss Voigt Hill
#
# Bulk Modulus (GPa) = 38.45981 45.94171 42.20076
# Shear Modulus (GPa) = 34.03793 42.74983 38.39388
#
# Velocity S-wave (km/s) = 3.62942 4.06745 3.85466
# Velocity P-wave (km/s) = 5.69627 6.31176 6.01190
#
# Compressibility (1/GPa) = 0.02600117
#
# Stress axis : x y z
#
# Youngs Moduli (GPa) = 76.83138 70.97636 121.39791
#
# Poissons Ratio (x) = 0.13523 0.26258
# Poissons Ratio (y) = 0.14638 0.07310
# Poissons Ratio (z) = 0.16619 0.04274
#
# Static dielectric constant tensor:
#      x y z
#    x 2.209570 -0.211660 0.138800 
#    y -0.211660 2.341130 -0.128580 
#    z 0.138800 -0.128580 2.009910 
# 
# From -- ./inp_files/156940.got.cif
#   From: 2010.05.17/outbox.cif.g08.bks.cpg/sg2_79_cif.got.tgz:156940.got - 2010.06.03 11:33:40.
