data_PCOD9040870
_publ_section_title
;
Structure prediction by ZEFSAII (Michael W. Deem and Ramdas Pophale) SiO2 
 PCOD9040870
Probable space group: P -1
;
_chemical_formula_sum "Si O2"
_cell_formula_units_Z 12
_cell_length_a 7.757372
_cell_length_b 5.197142
_cell_length_c 15.409231
_cell_angle_alpha 112.226446
_cell_angle_beta 55.256577
_cell_angle_gamma 90.269335
_cell_volume 454.028679
_symmetry_space_group_name_H-M "P -1"
_symmetry_group_IT_number 2
_symmetry_cell_setting 'triclinic'
loop_
_space_group_symop_operation_xyz
x,y,z
-x,-y,-z
loop_
_atom_site_type_symbol
_atom_site_label
_atom_site_fract_x
_atom_site_fract_y
_atom_site_fract_z
Si Si1 0.875985 0.882277 0.682615
Si Si2 0.418464 0.489429 0.119275
Si Si3 0.645875 0.840714 0.516688
Si Si4 0.861965 0.332071 0.076243
Si Si5 0.278409 0.597913 0.412209
Si Si6 0.037982 0.599065 0.751561
O O1 0.702874 0.185575 0.775507
O O2 0.750295 0.631356 0.679269
O O3 0.028621 0.864254 0.722492
O O4 0.043433 0.776304 0.542081
O O5 0.630352 0.361186 0.101105
O O6 0.218497 0.346730 0.149853
O O7 0.500000 0.500000 0.000000
O O8 0.601487 0.604730 0.566880
O O9 0.859138 0.663783 0.378280
O O10 0.500000 0.000000 0.500000
O O11 0.644356 0.130642 0.606617
O O12 0.840227 0.433104 0.196387
O O13 0.000000 0.500000 0.000000
O O14 0.000000 0.000000 0.000000
#
# Coordination Sequence:
#
# PCOD9040870 Si02
#       6
#     2   2   2   2   2   2
#     4  10  24  42  73 104 144 193 244 299 358 438
#     4  12  25  47  77 102 146 196 243 303 368 431
#     4  11  24  43  68 108 149 190 239 303 359 433
#     4  12  29  49  72 108 144 188 248 305 359 434
#     4  10  23  43  69 104 146 190 244 292 361 431
#     4  11  26  46  73 106 149 191 248 298 370 434
#
# _framework density 26.430050999999999
#
# number of rings (size 3 to 8) (size 9 to 14) (size 15 to 20)
#    0.000    1.000    3.333    1.500    7.000    3.333 
#    0.000    0.000    0.000    0.000    0.000    0.000 
#    0.000    0.000    0.000    0.000    0.000    0.000 
#
# Total GULP energy -67088.826513 kJ/mol
# GULP energy per Si atom -5590.735543 kJ/mol
# Density = 2.636990 g / cm^3
# Si number density = 26.430051 Si / 1000 Ang^3
#
#
#
# Elastic Constant Matrix: (Units=GPa)
#
#
# Indices 1 2 3 4 5 6 
#
# 1 151.8888 24.2910 30.0023 -0.5314 2.2263 -61.6616
# 2 24.2910 137.5558 36.4579 22.5683 -1.4469 -32.5280
# 3 30.0023 36.4579 96.4195 -1.5741 9.2679 -19.3864
# 4 -0.5314 22.5683 -1.5741 56.2082 -10.3963 -0.3886
# 5 2.2263 -1.4469 9.2679 -10.3963 60.4036 0.4160
# 6 -61.6616 -32.5280 -19.3864 -0.3886 0.4160 49.5034
#
#
#
# Elastic Compliance Matrix: (Units=1/GPa)
#
#
# Indices 1 2 3 4 5 6 
#
# 1 0.013968 0.002421 -0.001531 -0.000847 -0.000494 0.018387
# 2 0.002421 0.010359 -0.002990 -0.004191 -0.000163 0.008620
# 3 -0.001531 -0.002990 0.012362 0.001223 -0.001708 0.000994
# 4 -0.000847 -0.004191 0.001223 0.020073 0.003220 -0.003199
# 5 -0.000494 -0.000163 -0.001708 0.003220 0.017396 -0.001513
# 6 0.018387 0.008620 0.000994 -0.003199 -0.001513 0.049145
#
#
# Mechanical properties :
#
#
# Convention : Reuss Voigt Hill
#
# Bulk Modulus (GPa) = 30.77940 63.04071 46.91006
# Shear Modulus (GPa) = 36.14478 52.89722 44.52100
#
# Velocity S-wave (km/s) = 3.70207 4.47856 4.10870
# Velocity P-wave (km/s) = 5.47217 7.11667 6.34790
#
# Compressibility (1/GPa) = 0.03248926
#
# Stress axis : x y z
#
# Youngs Moduli (GPa) = 71.59294 96.53568 80.89185
#
# Poissons Ratio (x) = -0.23372 0.12385
# Poissons Ratio (y) = -0.17333 0.24185
# Poissons Ratio (z) = 0.10961 0.28862
#
# Static dielectric constant tensor:
#      x y z
#    x 2.334890 -0.042530 0.075450 
#    y -0.042530 2.313810 -0.124120 
#    z 0.075450 -0.124120 2.059800 
# 
# From -- ./inp_files/552223.got.cif
#   From: 2010.05.17/outbox.cif.g08.bks.cpg/sg2_277_cif.got.tgz:552223.got - 2010.06.03 11:33:40.
