data_PCOD9040887
_publ_section_title
;
Structure prediction by ZEFSAII (Michael W. Deem and Ramdas Pophale) SiO2 
 PCOD9040887
Probable space group: P -1
;
_chemical_formula_sum "Si O2"
_cell_formula_units_Z 14
_cell_length_a 9.125435
_cell_length_b 7.400977
_cell_length_c 13.972162
_cell_angle_alpha 99.379625
_cell_angle_beta 55.170601
_cell_angle_gamma 73.950311
_cell_volume 680.036167
_symmetry_space_group_name_H-M "P -1"
_symmetry_group_IT_number 2
_symmetry_cell_setting 'triclinic'
loop_
_space_group_symop_operation_xyz
x,y,z
-x,-y,-z
loop_
_atom_site_type_symbol
_atom_site_label
_atom_site_fract_x
_atom_site_fract_y
_atom_site_fract_z
Si Si1 0.407066 0.202090 0.280616
Si Si2 0.390764 0.674821 0.633817
Si Si3 0.311133 0.072725 0.005385
Si Si4 0.123644 0.519797 0.045133
Si Si5 0.522949 0.527586 0.221130
Si Si6 0.177772 0.957022 0.357558
Si Si7 0.976857 0.065183 0.791908
O O1 0.465466 0.233557 0.368898
O O2 0.388769 0.405855 0.250914
O O3 0.223229 0.150231 0.342276
O O4 0.594215 0.017588 0.141338
O O5 0.500000 0.500000 0.500000
O O6 0.356440 0.570198 0.734178
O O7 0.187914 0.861765 0.690067
O O8 0.191430 0.318293 0.067110
O O9 0.163576 0.982582 0.086890
O O10 0.500000 0.000000 0.000000
O O11 0.006252 0.735633 0.160815
O O12 0.326913 0.512504 0.925106
O O13 0.000000 0.500000 0.000000
O O14 0.379066 0.767739 0.305011
O O15 0.128568 0.894010 0.267914
O O16 0.000000 0.000000 0.500000
#
# Coordination Sequence:
#
# PCOD9040887 Si02
#       7
#     2   2   2   2   2   2   2
#     4  10  23  44  72  90 138 176 215 276 345 375
#     4  10  23  46  67  93 136 185 222 265 329 403
#     4  12  23  42  71 102 137 171 219 279 343 397
#     4  12  25  40  68 106 136 170 222 278 340 398
#     4  10  23  43  69  92 139 176 218 273 342 387
#     4  12  26  46  67  99 133 179 230 272 326 405
#     4  12  25  43  70 104 134 171 228 280 332 396
#
# _framework density 20.587142
#
# number of rings (size 3 to 8) (size 9 to 14) (size 15 to 20)
#    0.857    0.000    4.286    2.571    2.000    3.429 
#    5.143    1.429    0.000    0.000    0.000    0.000 
#    0.000    0.000    0.000    0.000    0.000    0.000 
#
# Total GULP energy -78199.033140 kJ/mol
# GULP energy per Si atom -5585.645224 kJ/mol
# Density = 2.054028 g / cm^3
# Si number density = 20.587142 Si / 1000 Ang^3
#
#
#
# Elastic Constant Matrix: (Units=GPa)
#
#
# Indices 1 2 3 4 5 6 
#
# 1 89.9777 27.5035 11.8577 11.8251 8.5184 20.1839
# 2 27.5035 111.3248 16.3590 10.9092 0.1867 8.2639
# 3 11.8577 16.3590 87.8719 9.6440 9.4411 20.7513
# 4 11.8251 10.9092 9.6440 37.0767 5.2206 -6.5367
# 5 8.5184 0.1867 9.4411 5.2206 19.6519 7.3565
# 6 20.1839 8.2639 20.7513 -6.5367 7.3565 35.1574
#
#
#
# Elastic Compliance Matrix: (Units=1/GPa)
#
#
# Indices 1 2 3 4 5 6 
#
# 1 0.014767 -0.002617 0.001569 -0.005714 -0.002088 -0.009415
# 2 -0.002617 0.010133 -0.001297 -0.002391 0.002718 -0.001128
# 3 0.001569 -0.001297 0.014532 -0.005211 -0.002678 -0.009582
# 4 -0.005714 -0.002391 -0.005211 0.035018 -0.010119 0.015547
# 5 -0.002088 0.002718 -0.002678 -0.010119 0.060372 -0.012373
# 6 -0.009415 -0.001128 -0.009582 0.015547 -0.012373 0.045249
#
#
# Mechanical properties :
#
#
# Convention : Reuss Voigt Hill
#
# Bulk Modulus (GPa) = 28.78148 44.51274 36.64711
# Shear Modulus (GPa) = 25.46577 33.94079 29.70328
#
# Velocity S-wave (km/s) = 3.52088 4.06475 3.80255
# Velocity P-wave (km/s) = 5.52625 6.61046 6.09252
#
# Compressibility (1/GPa) = 0.03474456
#
# Stress axis : x y z
#
# Youngs Moduli (GPa) = 67.71664 98.68531 68.81162
#
# Poissons Ratio (x) = 0.25823 -0.10797
# Poissons Ratio (y) = 0.17719 0.08923
# Poissons Ratio (z) = -0.10626 0.12797
#
# Static dielectric constant tensor:
#      x y z
#    x 1.738820 0.020650 -0.000320 
#    y 0.020650 1.772950 -0.003980 
#    z -0.000320 -0.003980 1.707060 
# 
# From -- ./inp_files/493119.got.cif
#   From: 2010.05.17/outbox.cif.g08.bks.cpg/sg2_247_cif.got.tgz:493119.got - 2010.06.03 11:33:40.
