data_PCOD9040388
_publ_section_title
;
Structure prediction by ZEFSAII (Michael W. Deem and Ramdas Pophale) SiO2 
 PCOD9040388
Probable space group: P -1
;
_chemical_formula_sum "Si O2"
_cell_formula_units_Z 16
_cell_length_a 15.540654
_cell_length_b 12.996727
_cell_length_c 15.263863
_cell_angle_alpha 141.632137
_cell_angle_beta 152.333941
_cell_angle_gamma 58.011575
_cell_volume 729.246813
_symmetry_space_group_name_H-M "P -1"
_symmetry_group_IT_number 2
_symmetry_cell_setting 'triclinic'
loop_
_space_group_symop_operation_xyz
x,y,z
-x,-y,-z
loop_
_atom_site_type_symbol
_atom_site_label
_atom_site_fract_x
_atom_site_fract_y
_atom_site_fract_z
Si Si1 0.818839 0.017056 0.293085
Si Si2 0.309174 0.625155 0.278855
Si Si3 0.024922 0.382141 0.582617
Si Si4 0.477148 0.990476 0.370514
Si Si5 0.201044 0.704960 0.418539
Si Si6 0.473027 0.348915 0.799867
Si Si7 0.466515 0.564519 0.609229
Si Si8 0.032696 0.288717 0.320808
O O1 0.909283 0.190921 0.415850
O O2 0.713181 0.089373 0.317553
O O3 0.651632 0.799152 0.953780
O O4 0.000000 0.000000 0.500000
O O5 0.327004 0.727627 0.457102
O O6 0.490407 0.575542 0.388633
O O7 0.341719 0.788013 0.350960
O O8 0.064838 0.414427 0.917776
O O9 0.935180 0.524767 0.582214
O O10 0.024981 0.320501 0.440221
O O11 0.284735 0.526130 0.946035
O O12 0.534947 0.835600 0.286153
O O13 0.500000 0.000000 0.500000
O O14 0.219409 0.902567 0.055059
O O15 0.238317 0.552167 0.402794
O O16 0.247556 0.278263 0.496287
O O17 0.500000 0.500000 0.000000
O O18 0.500000 0.500000 0.500000
#
# Coordination Sequence:
#
# PCOD9040388 Si02
#       8
#     2   2   2   2   2   2   2   2
#     4  12  24  42  68 103 136 176 228 286 335 398
#     4  10  23  45  64  92 140 179 215 281 337 399
#     4   9  21  40  65  95 135 164 217 287 327 395
#     4  11  25  40  66  98 136 171 218 278 339 397
#     4  10  23  43  66  93 130 178 231 268 330 398
#     4   9  20  43  65  95 124 168 226 267 331 397
#     4  10  23  44  65  93 133 174 224 272 337 398
#     4   9  20  42  66  93 127 178 217 264 345 395
#
# _framework density 21.940445
#
# number of rings (size 3 to 8) (size 9 to 14) (size 15 to 20)
#    0.000    2.000    1.250    1.125    7.000    3.500 
#    6.750    0.000    0.000    0.000    0.000    0.000 
#    0.000    0.000    0.000    0.000    0.000    0.000 
#
# Total GULP energy -89193.191287 kJ/mol
# GULP energy per Si atom -5574.574455 kJ/mol
# Density = 2.189051 g / cm^3
# Si number density = 21.940445 Si / 1000 Ang^3
#
#
#
# Elastic Constant Matrix: (Units=GPa)
#
#
# Indices 1 2 3 4 5 6 
#
# 1 60.6684 39.9033 23.1029 8.4137 -16.8343 -2.1496
# 2 39.9033 104.7486 9.3049 -0.7931 7.0607 -14.1507
# 3 23.1029 9.3049 64.9327 -15.6492 -19.7480 -9.4970
# 4 8.4137 -0.7931 -15.6492 52.3780 -5.1306 4.5566
# 5 -16.8343 7.0607 -19.7480 -5.1306 25.4963 8.8042
# 6 -2.1496 -14.1507 -9.4970 4.5566 8.8042 38.5148
#
#
#
# Elastic Compliance Matrix: (Units=1/GPa)
#
#
# Indices 1 2 3 4 5 6 
#
# 1 0.038571 -0.017977 -0.004639 -0.003843 0.030241 -0.012055
# 2 -0.017977 0.019550 -0.001785 -0.000512 -0.022552 0.010955
# 3 -0.004639 -0.001785 0.025686 0.010324 0.019493 -0.000258
# 4 -0.003843 -0.000512 0.010324 0.024221 0.011643 -0.003384
# 5 0.030241 -0.022552 0.019493 0.011643 0.091165 -0.024009
# 6 -0.012055 0.010955 -0.000258 -0.003384 -0.024009 0.035141
#
#
# Mechanical properties :
#
#
# Convention : Reuss Voigt Hill
#
# Bulk Modulus (GPa) = 28.56871 41.66353 35.11612
# Shear Modulus (GPa) = 16.96033 33.81374 25.38703
#
# Velocity S-wave (km/s) = 2.78333 3.93002 3.40529
# Velocity P-wave (km/s) = 4.83514 6.29476 5.61260
#
# Compressibility (1/GPa) = 0.03500334
#
# Stress axis : x y z
#
# Youngs Moduli (GPa) = 25.92605 51.15145 38.93202
#
# Poissons Ratio (x) = 0.91957 0.18062
# Poissons Ratio (y) = 0.46608 0.06949
# Poissons Ratio (z) = 0.12028 0.09131
#
# Static dielectric constant tensor:
#      x y z
#    x 1.756760 0.136470 0.030420 
#    y 0.136470 1.743020 -0.112570 
#    z 0.030420 -0.112570 1.806050 
# 
# From -- ./inp_files/532743.got.cif
#   From: 2010.05.17/outbox.cif.g08.bks.cpg/sg2_267_cif.got.tgz:532743.got - 2010.06.03 11:33:40.
