data_PCOD9040451
_publ_section_title
;
Structure prediction by ZEFSAII (Michael W. Deem and Ramdas Pophale) SiO2 
 PCOD9040451
Probable space group: P -1
;
_chemical_formula_sum "Si O2"
_cell_formula_units_Z 16
_cell_length_a 4.904434
_cell_length_b 16.874430
_cell_length_c 9.431233
_cell_angle_alpha 91.792008
_cell_angle_beta 58.724749
_cell_angle_gamma 108.479386
_cell_volume 624.093109
_symmetry_space_group_name_H-M "P -1"
_symmetry_group_IT_number 2
_symmetry_cell_setting 'triclinic'
loop_
_space_group_symop_operation_xyz
x,y,z
-x,-y,-z
loop_
_atom_site_type_symbol
_atom_site_label
_atom_site_fract_x
_atom_site_fract_y
_atom_site_fract_z
Si Si1 0.200474 0.581809 0.280947
Si Si2 0.052565 0.388341 0.940743
Si Si3 0.062998 0.803700 0.960612
Si Si4 0.363619 0.862980 0.589607
Si Si5 0.434600 0.095828 0.949038
Si Si6 0.835868 0.977874 0.276705
Si Si7 0.832720 0.403299 0.300743
Si Si8 0.929393 0.691495 0.558544
O O1 0.554223 0.567458 0.206142
O O2 0.182726 0.613197 0.128285
O O3 0.898146 0.490814 0.369983
O O4 0.151497 0.652850 0.398053
O O5 0.024096 0.293617 0.986693
O O6 0.941494 0.426049 0.111356
O O7 0.330867 0.829551 0.758270
O O8 0.217173 0.855039 0.063986
O O9 0.757674 0.835177 0.000538
O O10 0.733555 0.905338 0.419656
O O11 0.123645 0.788294 0.551048
O O12 0.226407 0.940516 0.638527
O O13 0.409340 0.059747 0.795080
O O14 0.205307 0.019794 0.108652
O O15 0.447675 0.337375 0.405537
O O16 0.082256 0.359119 0.295309
#
# Coordination Sequence:
#
# PCOD9040451 Si02
#       8
#     2   2   2   2   2   2   2   2
#     4  12  26  46  72 106 140 182 236 287 347 415
#     4  12  25  43  71 106 137 186 230 294 341 411
#     4  11  24  42  68  96 138 177 231 281 341 406
#     4  10  23  43  67 100 136 182 228 280 344 413
#     4  10  23  44  69  98 133 179 223 289 343 400
#     4   9  22  43  70  98 136 176 229 283 340 411
#     4  12  25  48  73 102 141 186 231 287 351 414
#     4  12  26  45  72 103 142 186 229 288 349 414
#
# _framework density 25.6372
#
# number of rings (size 3 to 8) (size 9 to 14) (size 15 to 20)
#    0.000    1.000    1.250    4.500    7.000    5.000 
#    0.000    5.000    0.000    0.000    0.000    0.000 
#    0.000    0.000    0.000    0.000    0.000    0.000 
#
# Total GULP energy -89678.561436 kJ/mol
# GULP energy per Si atom -5604.910090 kJ/mol
# Density = 2.557885 g / cm^3
# Si number density = 25.637200 Si / 1000 Ang^3
#
#
#
# Elastic Constant Matrix: (Units=GPa)
#
#
# Indices 1 2 3 4 5 6 
#
# 1 67.1241 6.1933 -1.8906 -0.1760 -5.5414 6.6927
# 2 6.1933 153.9548 38.0963 8.8022 2.1573 2.9926
# 3 -1.8906 38.0963 87.0011 18.9230 -3.4850 8.6729
# 4 -0.1760 8.8022 18.9230 50.7628 -2.5595 6.6065
# 5 -5.5414 2.1573 -3.4850 -2.5595 34.2882 0.7756
# 6 6.6927 2.9926 8.6729 6.6065 0.7756 24.8338
#
#
#
# Elastic Compliance Matrix: (Units=1/GPa)
#
#
# Indices 1 2 3 4 5 6 
#
# 1 0.015732 -0.000912 0.001219 0.000526 0.002871 -0.004785
# 2 -0.000912 0.007362 -0.003303 -0.000174 -0.000973 0.000589
# 3 0.001219 -0.003303 0.014327 -0.004177 0.001637 -0.003874
# 4 0.000526 -0.000174 -0.004177 0.021951 0.001413 -0.004546
# 5 0.002871 -0.000973 0.001637 0.001413 0.030019 -0.002542
# 6 -0.004785 0.000589 -0.003874 -0.004546 -0.002542 0.044128
#
#
# Mechanical properties :
#
#
# Convention : Reuss Voigt Hill
#
# Bulk Modulus (GPa) = 31.81843 43.65312 37.73578
# Shear Modulus (GPa) = 33.33616 39.68903 36.51260
#
# Velocity S-wave (km/s) = 3.60989 3.93886 3.77796
# Velocity P-wave (km/s) = 5.46013 6.14414 5.81220
#
# Compressibility (1/GPa) = 0.03142833
#
# Stress axis : x y z
#
# Youngs Moduli (GPa) = 63.56579 135.84036 69.79707
#
# Poissons Ratio (x) = 0.12385 -0.08506
# Poissons Ratio (y) = 0.05795 0.23055
# Poissons Ratio (z) = -0.07747 0.44870
#
# Static dielectric constant tensor:
#      x y z
#    x 1.975500 -0.025510 -0.004580 
#    y -0.025510 2.007670 0.001130 
#    z -0.004580 0.001130 2.058680 
# 
# From -- ./inp_files/139117.got.cif
#   From: 2010.05.17/outbox.cif.g08.bks.cpg/sg2_70_cif.got.tgz:139117.got - 2010.06.03 11:33:40.
