data_PCOD9040484
_publ_section_title
;
Structure prediction by ZEFSAII (Michael W. Deem and Ramdas Pophale) SiO2 
 PCOD9040484
Probable space group: P -1
;
_chemical_formula_sum "Si O2"
_cell_formula_units_Z 12
_cell_length_a 14.243650
_cell_length_b 8.830866
_cell_length_c 10.650963
_cell_angle_alpha 121.010894
_cell_angle_beta 32.753137
_cell_angle_gamma 135.010083
_cell_volume 501.215772
_symmetry_space_group_name_H-M "P -1"
_symmetry_group_IT_number 2
_symmetry_cell_setting 'triclinic'
loop_
_space_group_symop_operation_xyz
x,y,z
-x,-y,-z
loop_
_atom_site_type_symbol
_atom_site_label
_atom_site_fract_x
_atom_site_fract_y
_atom_site_fract_z
Si Si1 0.051806 0.405286 0.245122
Si Si2 0.188270 0.865430 0.199712
Si Si3 0.726960 0.950311 0.348656
Si Si4 0.840388 0.856351 0.448791
Si Si5 0.586078 0.180905 0.740674
Si Si6 0.445044 0.408019 0.825881
O O1 0.131568 0.628466 0.182619
O O2 0.842580 0.325053 0.530281
O O3 0.252018 0.422762 0.085858
O O4 0.938341 0.195898 0.187791
O O5 0.050767 0.863727 0.237866
O O6 0.124414 0.944114 0.425249
O O7 0.437167 0.048773 0.968283
O O8 0.783735 0.874874 0.378880
O O9 0.644803 0.776726 0.258783
O O10 0.552663 0.995281 0.603228
O O11 0.642480 0.635231 0.642197
O O12 0.522604 0.327748 0.814776
#
# Coordination Sequence:
#
# PCOD9040484 Si02
#       6
#     2   2   2   2   2   2
#     4  10  24  43  69 100 131 180 217 276 335 388
#     4  11  24  47  66 101 136 174 230 273 333 396
#     4  10  23  43  67 103 131 178 222 270 338 395
#     4  11  24  43  71  98 136 180 221 278 333 395
#     4  10  24  43  69 102 130 178 220 274 336 389
#     4  12  22  45  70  99 140 171 224 275 332 402
#
# _framework density 23.941784999999999
#
# number of rings (size 3 to 8) (size 9 to 14) (size 15 to 20)
#    1.000    0.333    1.667    3.500    0.000    4.000 
#    3.000    2.500    0.000    0.000    0.000    0.000 
#    0.000    0.000    0.000    0.000    0.000    0.000 
#
# Total GULP energy -67198.246434 kJ/mol
# GULP energy per Si atom -5599.853869 kJ/mol
# Density = 2.388729 g / cm^3
# Si number density = 23.941785 Si / 1000 Ang^3
#
#
#
# Elastic Constant Matrix: (Units=GPa)
#
#
# Indices 1 2 3 4 5 6 
#
# 1 112.6824 66.4940 32.2291 7.0782 -14.6690 -22.2723
# 2 66.4940 168.5286 38.6848 -13.6284 -6.3599 -26.1851
# 3 32.2291 38.6848 121.7331 -0.5122 -29.4070 -18.9911
# 4 7.0782 -13.6284 -0.5122 44.4445 -4.1438 -3.7476
# 5 -14.6690 -6.3599 -29.4070 -4.1438 33.4543 5.6616
# 6 -22.2723 -26.1851 -18.9911 -3.7476 5.6616 47.3110
#
#
#
# Elastic Compliance Matrix: (Units=1/GPa)
#
#
# Indices 1 2 3 4 5 6 
#
# 1 0.012971 -0.004656 -0.000759 -0.002973 0.003329 0.002591
# 2 -0.004656 0.008729 -0.001560 0.003448 -0.001749 0.002496
# 3 -0.000759 -0.001560 0.011502 0.000831 0.009184 0.002363
# 4 -0.002973 0.003448 0.000831 0.024499 0.002700 0.002459
# 5 0.003329 -0.001749 0.009184 0.002700 0.039464 -0.000223
# 6 0.002591 0.002496 0.002363 0.002459 -0.000223 0.024908
#
#
# Mechanical properties :
#
#
# Convention : Reuss Voigt Hill
#
# Bulk Modulus (GPa) = 51.93861 75.30663 63.62262
# Shear Modulus (GPa) = 35.10219 42.74437 38.92328
#
# Velocity S-wave (km/s) = 3.83318 4.22992 4.03643
# Velocity P-wave (km/s) = 6.42899 7.44168 6.95379
#
# Compressibility (1/GPa) = 0.01925350
#
# Stress axis : x y z
#
# Youngs Moduli (GPa) = 77.09358 114.55510 86.94065
#
# Poissons Ratio (x) = 0.53336 0.06597
# Poissons Ratio (y) = 0.35895 0.13562
# Poissons Ratio (z) = 0.05849 0.17870
#
# Static dielectric constant tensor:
#      x y z
#    x 1.881260 0.025180 -0.011450 
#    y 0.025180 1.895390 0.041450 
#    z -0.011450 0.041450 1.942780 
# 
# From -- ./inp_files/296555.got.cif
#   From: 2010.05.17/outbox.cif.g08.bks.cpg/sg2_149_cif.got.tgz:296555.got - 2010.06.03 11:33:40.
