data_PCOD9040154
_publ_section_title
;
Structure prediction by ZEFSAII (Michael W. Deem and Ramdas Pophale) SiO2 
 PCOD9040154
Probable space group: P -1
;
_chemical_formula_sum "Si O2"
_cell_formula_units_Z 16
_cell_length_a 11.972779
_cell_length_b 9.624813
_cell_length_c 14.549030
_cell_angle_alpha 134.364487
_cell_angle_beta 137.088637
_cell_angle_gamma 37.231528
_cell_volume 662.675069
_symmetry_space_group_name_H-M "P -1"
_symmetry_group_IT_number 2
_symmetry_cell_setting 'triclinic'
loop_
_space_group_symop_operation_xyz
x,y,z
-x,-y,-z
loop_
_atom_site_type_symbol
_atom_site_label
_atom_site_fract_x
_atom_site_fract_y
_atom_site_fract_z
Si Si1 0.406000 0.579566 0.692479
Si Si2 0.618037 0.063031 0.532567
Si Si3 0.642102 0.381302 0.939334
Si Si4 0.404921 0.006020 0.849129
Si Si5 0.269642 0.030139 0.086242
Si Si6 0.039788 0.483024 0.808715
Si Si7 0.071735 0.858098 0.755888
Si Si8 0.876460 0.591625 0.372929
O O1 0.470884 0.348379 0.565995
O O2 0.526875 0.477829 0.816520
O O3 0.450424 0.748671 0.745659
O O4 0.176378 0.763063 0.675355
O O5 0.500000 0.000000 0.500000
O O6 0.694961 0.867678 0.407205
O O7 0.830977 0.002140 0.670967
O O8 0.728939 0.105144 0.884480
O O9 0.500000 0.500000 0.000000
O O10 0.816714 0.423109 0.058123
O O11 0.511649 0.070102 0.868535
O O12 0.169766 0.222323 0.810881
O O13 0.500000 0.000000 0.000000
O O14 0.161666 0.307886 0.168504
O O15 0.147447 0.995276 0.918365
O O16 0.006698 0.444447 0.665808
O O17 0.162786 0.610725 0.751139
O O18 0.000000 0.500000 0.500000
#
# Coordination Sequence:
#
# PCOD9040154 Si02
#       8
#     2   2   2   2   2   2   2   2
#     4  12  24  43  68 103 144 185 227 284 352 431
#     4  11  25  41  68  99 128 182 240 294 344 399
#     4  12  20  39  66 102 142 175 222 299 351 409
#     4  12  25  45  66 105 152 189 222 277 353 444
#     4  12  25  39  71 109 143 185 224 284 367 419
#     4  12  24  42  67  98 147 183 233 288 353 418
#     4  11  21  39  66 103 139 171 227 289 353 412
#     4  10  23  43  64 100 134 173 236 296 340 394
#
# _framework density 24.144563000000002
#
# number of rings (size 3 to 8) (size 9 to 14) (size 15 to 20)
#    0.000    0.500    7.500    1.125    3.500    1.500 
#    0.000    0.625    0.000    3.750    0.000    0.000 
#    0.000    0.000    0.000    0.000    0.000    0.000 
#
# Total GULP energy -89433.021547 kJ/mol
# GULP energy per Si atom -5589.563847 kJ/mol
# Density = 2.408961 g / cm^3
# Si number density = 24.144563 Si / 1000 Ang^3
#
#
#
# Elastic Constant Matrix: (Units=GPa)
#
#
# Indices 1 2 3 4 5 6 
#
# 1 59.5548 28.6895 18.3197 11.3320 11.0521 -9.4629
# 2 28.6895 132.2574 38.9650 35.5247 -3.6693 -1.0025
# 3 18.3197 38.9650 71.5812 3.6532 -11.5971 -11.7900
# 4 11.3320 35.5247 3.6532 53.4830 -5.7209 -3.9417
# 5 11.0521 -3.6693 -11.5971 -5.7209 35.6578 9.6954
# 6 -9.4629 -1.0025 -11.7900 -3.9417 9.6954 45.9911
#
#
#
# Elastic Compliance Matrix: (Units=1/GPa)
#
#
# Indices 1 2 3 4 5 6 
#
# 1 0.023405 -0.002892 -0.005159 -0.003487 -0.011288 0.005511
# 2 -0.002892 0.011721 -0.005709 -0.006981 -0.000235 -0.002352
# 3 -0.005159 -0.005709 0.019821 0.004528 0.007446 0.002713
# 4 -0.003487 -0.006981 0.004528 0.024435 0.005417 0.001243
# 5 -0.011288 -0.000235 0.007446 0.005417 0.036913 -0.007736
# 6 0.005511 -0.002352 0.002713 0.001243 -0.007736 0.025259
#
#
# Mechanical properties :
#
#
# Convention : Reuss Voigt Hill
#
# Bulk Modulus (GPa) = 36.46111 48.37130 42.41621
# Shear Modulus (GPa) = 28.05557 38.85434 33.45495
#
# Velocity S-wave (km/s) = 3.41249 4.01588 3.72642
# Velocity P-wave (km/s) = 5.53721 6.44830 6.01005
#
# Compressibility (1/GPa) = 0.02742648
#
# Stress axis : x y z
#
# Youngs Moduli (GPa) = 42.72534 85.31490 50.45243
#
# Poissons Ratio (x) = 0.24673 0.26028
# Poissons Ratio (y) = 0.12356 0.28806
# Poissons Ratio (z) = 0.22042 0.48710
#
# Static dielectric constant tensor:
#      x y z
#    x 1.926010 -0.032550 0.034050 
#    y -0.032550 1.972450 0.013000 
#    z 0.034050 0.013000 2.008030 
# 
# From -- ./inp_files/516279.got.cif
#   From: 2010.05.17/outbox.cif.g08.bks.cpg/sg2_259_cif.got.tgz:516279.got - 2010.06.03 11:33:40.
