data_PCOD9040939
_publ_section_title
;
Structure prediction by ZEFSAII (Michael W. Deem and Ramdas Pophale) SiO2 
 PCOD9040939
Probable space group: P -1
;
_chemical_formula_sum "Si O2"
_cell_formula_units_Z 15
_cell_length_a 20.048177
_cell_length_b 8.748733
_cell_length_c 9.042292
_cell_angle_alpha 114.096511
_cell_angle_beta 32.879153
_cell_angle_gamma 126.667920
_cell_volume 674.582081
_symmetry_space_group_name_H-M "P -1"
_symmetry_group_IT_number 2
_symmetry_cell_setting 'triclinic'
loop_
_space_group_symop_operation_xyz
x,y,z
-x,-y,-z
loop_
_atom_site_type_symbol
_atom_site_label
_atom_site_fract_x
_atom_site_fract_y
_atom_site_fract_z
Si Si1 0.843600 0.098169 0.782690
Si Si2 0.028209 0.494132 0.120217
Si Si3 0.863009 0.792337 0.837287
Si Si4 0.513214 0.912047 0.284557
Si Si5 0.745316 0.424131 0.719104
Si Si6 0.500000 0.000000 0.000000
Si Si7 0.145507 0.205051 0.824779
Si Si8 0.640392 0.525459 0.673935
O O1 0.889067 0.292625 0.872241
O O2 0.970011 0.149077 0.449607
O O3 0.848497 0.940447 0.817158
O O4 0.683908 0.000956 0.980493
O O5 0.873989 0.383171 0.443732
O O6 0.000000 0.500000 0.000000
O O7 0.107197 0.374726 0.949481
O O8 0.780270 0.576240 0.842889
O O9 0.803089 0.797527 0.108723
O O10 0.419770 0.676537 0.382980
O O11 0.500000 0.000000 0.500000
O O12 0.464861 0.955391 0.234075
O O13 0.598144 0.229417 0.938475
O O14 0.742197 0.530080 0.616471
O O15 0.272738 0.274393 0.498849
O O16 0.000000 0.000000 0.000000
O O17 0.500000 0.500000 0.000000
#
# Coordination Sequence:
#
# PCOD9040939 Si02
#       8
#     2   2   2   2   2   1   2   2
#     4  10  23  43  72  98 139 192 227 301 366 422
#     4  11  22  41  70  99 139 175 237 294 360 421
#     4  10  24  43  70 104 139 177 244 298 358 435
#     4  11  25  46  73 100 145 191 248 289 372 438
#     4  10  23  43  69  98 141 183 231 294 365 424
#     4  10  26  42  68 106 142 188 242 300 350 444
#     4  12  27  42  70 106 139 182 244 298 354 438
#     4  11  25  46  68  99 145 193 227 302 369 431
#
# _framework density 22.235987999999999
#
# number of rings (size 3 to 8) (size 9 to 14) (size 15 to 20)
#    0.000    1.333    1.333    2.400   13.067    2.133 
#    4.800    1.333    0.000    0.000    0.000    0.000 
#    0.000    0.000    0.000    0.000    0.000    0.000 
#
# Total GULP energy -83591.502245 kJ/mol
# GULP energy per Si atom -5572.766816 kJ/mol
# Density = 2.218538 g / cm^3
# Si number density = 22.235988 Si / 1000 Ang^3
#
#
#
# Elastic Constant Matrix: (Units=GPa)
#
#
# Indices 1 2 3 4 5 6 
#
# 1 39.8837 7.2710 15.5530 -11.9570 13.2626 9.5295
# 2 7.2710 93.1081 38.2576 -23.9425 21.5118 13.1167
# 3 15.5530 38.2576 85.8846 -16.7442 16.0579 1.8303
# 4 -11.9570 -23.9425 -16.7442 37.1986 -9.2212 1.0226
# 5 13.2626 21.5118 16.0579 -9.2212 33.5748 1.0220
# 6 9.5295 13.1167 1.8303 1.0226 1.0220 30.5688
#
#
#
# Elastic Compliance Matrix: (Units=1/GPa)
#
#
# Indices 1 2 3 4 5 6 
#
# 1 0.036856 0.007080 -0.004842 0.011333 -0.013235 -0.014174
# 2 0.007080 0.018476 -0.005754 0.009632 -0.008939 -0.009814
# 3 -0.004842 -0.005754 0.015563 0.001267 -0.001589 0.003057
# 4 0.011333 0.009632 0.001267 0.037364 -0.000719 -0.008968
# 5 -0.013235 -0.008939 -0.001589 -0.000719 0.041098 0.006707
# 6 -0.014174 -0.009814 0.003057 -0.008968 0.006707 0.041236
#
#
# Mechanical properties :
#
#
# Convention : Reuss Voigt Hill
#
# Bulk Modulus (GPa) = 15.65857 37.89332 26.77594
# Shear Modulus (GPa) = 22.84037 30.78810 26.81423
#
# Velocity S-wave (km/s) = 3.20844 3.72507 3.47637
# Velocity P-wave (km/s) = 4.55881 5.96489 5.30861
#
# Compressibility (1/GPa) = 0.06386279
#
# Stress axis : x y z
#
# Youngs Moduli (GPa) = 27.13279 54.12368 64.25668
#
# Poissons Ratio (x) = -0.38322 0.31113
# Poissons Ratio (y) = -0.19211 0.36975
# Poissons Ratio (z) = 0.13138 0.31144
#
# Static dielectric constant tensor:
#      x y z
#    x 1.839860 0.027030 0.019390 
#    y 0.027030 1.788070 0.028010 
#    z 0.019390 0.028010 1.940330 
# 
# From -- ./inp_files/343729.got.cif
#   From: 2010.05.17/outbox.cif.g08.bks.cpg/sg2_172_cif.got.tgz:343729.got - 2010.06.03 11:33:40.
