data_PCOD9040894
_publ_section_title
;
Structure prediction by ZEFSAII (Michael W. Deem and Ramdas Pophale) SiO2 
 PCOD9040894
Probable space group: P -1
;
_chemical_formula_sum "Si O2"
_cell_formula_units_Z 16
_cell_length_a 5.275549
_cell_length_b 16.488251
_cell_length_c 8.295478
_cell_angle_alpha 86.998770
_cell_angle_beta 98.087330
_cell_angle_gamma 116.253379
_cell_volume 640.669790
_symmetry_space_group_name_H-M "P -1"
_symmetry_group_IT_number 2
_symmetry_cell_setting 'triclinic'
loop_
_space_group_symop_operation_xyz
x,y,z
-x,-y,-z
loop_
_atom_site_type_symbol
_atom_site_label
_atom_site_fract_x
_atom_site_fract_y
_atom_site_fract_z
Si Si1 0.640954 0.940596 0.599743
Si Si2 0.947790 0.707270 0.591827
Si Si3 0.074983 0.132524 0.583589
Si Si4 0.876162 0.521702 0.150481
Si Si5 0.292153 0.354305 0.086294
Si Si6 0.405700 0.231906 0.872657
Si Si7 0.656660 0.941737 0.964798
Si Si8 0.309593 0.639889 0.406898
O O1 0.657584 0.864657 0.495448
O O2 0.568262 0.910311 0.777507
O O3 0.500000 0.000000 0.500000
O O4 0.949645 0.028043 0.635184
O O5 0.047273 0.814322 0.550092
O O6 0.926770 0.686223 0.782437
O O7 0.619406 0.656608 0.499751
O O8 0.141692 0.670294 0.518531
O O9 0.116992 0.186902 0.746364
O O10 0.576864 0.437271 0.169003
O O11 0.092145 0.544890 0.316886
O O12 0.806411 0.603611 0.077195
O O13 0.000000 0.500000 0.000000
O O14 0.372713 0.279934 0.023337
O O15 0.618330 0.299081 0.755410
O O16 0.459976 0.147252 0.928465
O O17 0.500000 0.000000 0.000000
O O18 0.000000 0.000000 0.000000
#
# Coordination Sequence:
#
# PCOD9040894 Si02
#       8
#     2   2   2   2   2   2   2   2
#     4  11  24  43  67 100 137 190 229 304 359 418
#     4  11  27  46  72 110 141 189 241 295 359 426
#     4  10  23  43  69  94 143 179 239 290 362 419
#     4  11  24  47  74 107 147 189 242 294 371 428
#     4  11  26  47  75 107 146 191 243 302 355 441
#     4  11  23  49  74 103 145 197 244 296 363 431
#     4  12  27  45  72 107 144 189 244 299 352 430
#     4  11  26  46  75 104 148 191 234 301 362 428
#
# _framework density 24.973862
#
# number of rings (size 3 to 8) (size 9 to 14) (size 15 to 20)
#    0.000    1.000    2.500    3.000   10.500    2.000 
#    2.250    0.000    0.000    0.000    0.000    0.000 
#    0.000    0.000    0.000    0.000    0.000    0.000 
#
# Total GULP energy -89442.280184 kJ/mol
# GULP energy per Si atom -5590.142512 kJ/mol
# Density = 2.491702 g / cm^3
# Si number density = 24.973862 Si / 1000 Ang^3
#
#
#
# Elastic Constant Matrix: (Units=GPa)
#
#
# Indices 1 2 3 4 5 6 
#
# 1 98.3159 -6.1295 14.1687 15.3022 -6.6774 -10.8840
# 2 -6.1295 46.1920 3.7551 8.5511 -1.0227 -6.5177
# 3 14.1687 3.7551 110.9398 0.4014 -15.6481 7.6502
# 4 15.3022 8.5511 0.4014 35.5755 4.7135 -1.2429
# 5 -6.6774 -1.0227 -15.6481 4.7135 46.5523 8.5878
# 6 -10.8840 -6.5177 7.6502 -1.2429 8.5878 32.7280
#
#
#
# Elastic Compliance Matrix: (Units=1/GPa)
#
#
# Indices 1 2 3 4 5 6 
#
# 1 0.012187 0.003572 -0.001847 -0.006040 0.000947 0.004718
# 2 0.003572 0.024461 -0.001671 -0.007193 0.000081 0.006156
# 3 -0.001847 -0.001671 0.010147 0.000419 0.003863 -0.004317
# 4 -0.006040 -0.007193 0.000419 0.032916 -0.003987 -0.001243
# 5 0.000947 0.000081 0.003863 -0.003987 0.024648 -0.007191
# 6 0.004718 0.006156 -0.004317 -0.001243 -0.007191 0.036199
#
#
# Mechanical properties :
#
#
# Convention : Reuss Voigt Hill
#
# Bulk Modulus (GPa) = 21.32085 31.00404 26.16245
# Shear Modulus (GPa) = 32.03392 39.21474 35.62433
#
# Velocity S-wave (km/s) = 3.58536 3.96691 3.78095
# Velocity P-wave (km/s) = 5.06908 5.78130 5.43686
#
# Compressibility (1/GPa) = 0.04690244
#
# Stress axis : x y z
#
# Youngs Moduli (GPa) = 82.05440 40.88217 98.54665
#
# Poissons Ratio (x) = -0.14604 0.18205
# Poissons Ratio (y) = -0.29312 0.16470
# Poissons Ratio (z) = 0.15158 0.06832
#
# Static dielectric constant tensor:
#      x y z
#    x 1.878950 -0.071220 0.078450 
#    y -0.071220 2.081010 0.148350 
#    z 0.078450 0.148350 2.063270 
# 
# From -- ./inp_files/135340.got.cif
#   From: 2010.05.17/outbox.cif.g08.bks.cpg/sg2_68_cif.got.tgz:135340.got - 2010.06.03 11:33:40.
