data_PCOD9040282
_publ_section_title
;
Structure prediction by ZEFSAII (Michael W. Deem and Ramdas Pophale) SiO2 
 PCOD9040282
Probable space group: P -1
;
_chemical_formula_sum "Si O2"
_cell_formula_units_Z 14
_cell_length_a 9.755412
_cell_length_b 12.093126
_cell_length_c 15.546326
_cell_angle_alpha 153.427140
_cell_angle_beta 137.798913
_cell_angle_gamma 52.216665
_cell_volume 543.475745
_symmetry_space_group_name_H-M "P -1"
_symmetry_group_IT_number 2
_symmetry_cell_setting 'triclinic'
loop_
_space_group_symop_operation_xyz
x,y,z
-x,-y,-z
loop_
_atom_site_type_symbol
_atom_site_label
_atom_site_fract_x
_atom_site_fract_y
_atom_site_fract_z
Si Si1 0.936834 0.992548 0.623865
Si Si2 0.728970 0.464465 0.152767
Si Si3 0.447703 0.721415 0.888073
Si Si4 0.843007 0.593689 0.599379
Si Si5 0.740824 0.013586 0.729993
Si Si6 0.327410 0.676451 0.341973
Si Si7 0.646286 0.222430 0.375384
O O1 0.765741 0.755006 0.348228
O O2 0.887783 0.014540 0.717239
O O3 0.152331 0.909882 0.643066
O O4 0.883851 0.239350 0.725847
O O5 0.558284 0.370266 0.079380
O O6 0.934771 0.431131 0.279083
O O7 0.717080 0.286142 0.941401
O O8 0.248746 0.593106 0.650974
O O9 0.635804 0.605724 0.851918
O O10 0.468054 0.019696 0.109169
O O11 0.831532 0.867041 0.748545
O O12 0.693156 0.489399 0.535876
O O13 0.516184 0.843104 0.492431
O O14 0.365301 0.750542 0.509895
#
# Coordination Sequence:
#
# PCOD9040282 Si02
#       7
#     2   2   2   2   2   2   2
#     4  11  25  43  67  94 128 168 212 268 307 374
#     4  11  22  41  67  97 126 167 211 260 320 372
#     4  11  23  41  66  95 129 168 208 261 318 377
#     4  10  23  43  65  94 133 161 212 264 314 377
#     4  11  23  41  69  97 124 166 216 262 312 374
#     4  11  24  44  64  95 131 164 218 259 312 375
#     4  11  25  43  65  95 131 169 206 260 326 373
#
# _framework density 25.760117999999999
#
# number of rings (size 3 to 8) (size 9 to 14) (size 15 to 20)
#    0.000    1.143    4.286    2.143    2.000    6.857 
#    2.571    0.000    0.000    0.000    0.000    0.000 
#    0.000    0.000    0.000    0.000    0.000    0.000 
#
# Total GULP energy -78408.269704 kJ/mol
# GULP energy per Si atom -5600.590693 kJ/mol
# Density = 2.570149 g / cm^3
# Si number density = 25.760118 Si / 1000 Ang^3
#
#
#
# Elastic Constant Matrix: (Units=GPa)
#
#
# Indices 1 2 3 4 5 6 
#
# 1 120.3404 -2.1757 21.4029 -2.6974 -29.0156 9.3655
# 2 -2.1757 88.7260 18.7048 -0.8721 -0.0009 -12.1817
# 3 21.4029 18.7048 93.0218 23.3325 -30.2700 7.3846
# 4 -2.6974 -0.8721 23.3325 25.6794 -11.0711 4.0538
# 5 -29.0156 -0.0009 -30.2700 -11.0711 30.3986 -1.0675
# 6 9.3655 -12.1817 7.3846 4.0538 -1.0675 30.1234
#
#
#
# Elastic Compliance Matrix: (Units=1/GPa)
#
#
# Indices 1 2 3 4 5 6 
#
# 1 0.012406 -0.000355 0.000465 0.008114 0.015095 -0.004672
# 2 -0.000355 0.013194 -0.005006 0.002104 -0.004338 0.006236
# 3 0.000465 -0.005006 0.020000 -0.010427 0.016383 -0.005088
# 4 0.008114 0.002104 -0.010427 0.058248 0.018354 -0.006304
# 5 0.015095 -0.004338 0.016383 0.018354 0.069935 -0.010455
# 6 -0.004672 0.006236 -0.005088 -0.006304 -0.010455 0.038896
#
#
# Mechanical properties :
#
#
# Convention : Reuss Voigt Hill
#
# Bulk Modulus (GPa) = 27.92716 41.99467 34.96092
# Shear Modulus (GPa) = 21.33030 34.85070 28.09050
#
# Velocity S-wave (km/s) = 2.88068 3.68216 3.30580
# Velocity P-wave (km/s) = 4.68286 5.86646 5.30776
#
# Compressibility (1/GPa) = 0.03580744
#
# Stress axis : x y z
#
# Youngs Moduli (GPa) = 80.60760 75.79136 49.99929
#
# Poissons Ratio (x) = 0.02693 -0.02324
# Poissons Ratio (y) = 0.02864 0.25029
# Poissons Ratio (z) = -0.03746 0.37940
#
# Static dielectric constant tensor:
#      x y z
#    x 2.051270 -0.037680 0.066650 
#    y -0.037680 2.027920 -0.000760 
#    z 0.066650 -0.000760 2.021090 
# 
# From -- ./inp_files/171994.got.cif
#   From: 2010.05.17/outbox.cif.g08.bks.cpg/sg2_86_cif.got.tgz:171994.got - 2010.06.03 11:33:40.
