data_PCOD9040238
_publ_section_title
;
Structure prediction by ZEFSAII (Michael W. Deem and Ramdas Pophale) SiO2 
 PCOD9040238
Probable space group: P -1
;
_chemical_formula_sum "Si O2"
_cell_formula_units_Z 16
_cell_length_a 29.559971
_cell_length_b 5.383253
_cell_length_c 8.412445
_cell_angle_alpha 75.868459
_cell_angle_beta 152.514241
_cell_angle_gamma 99.654155
_cell_volume 595.548027
_symmetry_space_group_name_H-M "P -1"
_symmetry_group_IT_number 2
_symmetry_cell_setting 'triclinic'
loop_
_space_group_symop_operation_xyz
x,y,z
-x,-y,-z
loop_
_atom_site_type_symbol
_atom_site_label
_atom_site_fract_x
_atom_site_fract_y
_atom_site_fract_z
Si Si1 0.282743 0.288220 0.380298
Si Si2 0.004205 0.789099 0.412153
Si Si3 0.674599 0.971676 0.933039
Si Si4 0.453598 0.245439 0.713604
Si Si5 0.192795 0.445724 0.409080
Si Si6 0.924642 0.150109 0.866889
Si Si7 0.189337 0.644390 0.814412
Si Si8 0.637438 0.206982 0.106982
O O1 0.383709 0.384694 0.610459
O O2 0.228390 0.424229 0.339901
O O3 0.312481 0.001628 0.578803
O O4 0.211397 0.358298 0.998031
O O5 0.109921 0.794942 0.658077
O O6 0.000000 0.500000 0.500000
O O7 0.000000 0.000000 0.500000
O O8 0.917881 0.905566 0.001839
O O9 0.614313 0.832528 0.634290
O O10 0.773585 0.811168 0.342422
O O11 0.614716 0.062503 0.893637
O O12 0.714506 0.209825 0.930367
O O13 0.500000 0.000000 0.000000
O O14 0.543372 0.351797 0.881522
O O15 0.086130 0.612233 0.074343
O O16 0.279149 0.619563 0.708057
O O17 0.860748 0.331017 0.514446
O O18 0.000000 0.000000 0.000000
#
# Coordination Sequence:
#
# PCOD9040238 Si02
#       8
#     2   2   2   2   2   2   2   2
#     4  10  24  41  66  99 136 182 234 284 361 431
#     4  11  27  48  76 111 148 195 242 310 374 448
#     4  11  24  44  69 100 139 187 243 291 363 435
#     4  10  23  43  65 101 140 185 238 302 358 434
#     4  11  23  43  70  98 134 190 229 302 353 439
#     4  10  23  45  71 104 141 179 239 294 365 439
#     4  11  24  44  70 105 137 189 232 301 364 443
#     4  10  23  44  67  94 139 180 242 291 362 420
#
# _framework density 26.866012000000001
#
# number of rings (size 3 to 8) (size 9 to 14) (size 15 to 20)
#    0.000    1.500    1.250    1.875    5.250    5.000 
#    4.500    4.375    0.000    0.000    0.000    0.000 
#    0.000    0.000    0.000    0.000    0.000    0.000 
#
# Total GULP energy -89186.526454 kJ/mol
# GULP energy per Si atom -5574.157903 kJ/mol
# Density = 2.680486 g / cm^3
# Si number density = 26.866012 Si / 1000 Ang^3
#
#
#
# Elastic Constant Matrix: (Units=GPa)
#
#
# Indices 1 2 3 4 5 6 
#
# 1 194.1554 51.1257 50.5529 -13.2685 6.7901 -3.0168
# 2 51.1257 65.6784 18.4592 -30.9648 -24.4097 3.7794
# 3 50.5529 18.4592 113.8646 -20.3953 -41.4719 7.3278
# 4 -13.2685 -30.9648 -20.3953 33.1201 7.0714 -6.0231
# 5 6.7901 -24.4097 -41.4719 7.0714 64.5698 -9.7386
# 6 -3.0168 3.7794 7.3278 -6.0231 -9.7386 29.2514
#
#
#
# Elastic Compliance Matrix: (Units=1/GPa)
#
#
# Indices 1 2 3 4 5 6 
#
# 1 0.012354 -0.019978 -0.010287 -0.017433 -0.013814 -0.001756
# 2 -0.019978 0.066281 0.021470 0.061131 0.035521 0.008411
# 3 -0.010287 0.021470 0.021850 0.025475 0.020878 0.002888
# 4 -0.017433 0.061131 0.025475 0.091444 0.033382 0.013865
# 5 -0.013814 0.035521 0.020878 0.033382 0.041549 0.009462
# 6 -0.001756 0.008411 0.002888 0.013865 0.009462 0.038200
#
#
# Mechanical properties :
#
#
# Convention : Reuss Voigt Hill
#
# Bulk Modulus (GPa) = 12.06326 68.21934 40.14130
# Shear Modulus (GPa) = 15.77791 42.29231 29.03511
#
# Velocity S-wave (km/s) = 2.42602 3.97192 3.29102
# Velocity P-wave (km/s) = 3.51388 6.81780 5.42355
#
# Compressibility (1/GPa) = 0.08289631
#
# Stress axis : x y z
#
# Youngs Moduli (GPa) = 80.94508 15.08732 45.76588
#
# Poissons Ratio (x) = 0.30141 0.47080
# Poissons Ratio (y) = 1.61708 -0.98261
# Poissons Ratio (z) = 0.83270 -0.32393
#
# Static dielectric constant tensor:
#      x y z
#    x 2.126900 -0.116190 0.030390 
#    y -0.116190 2.260420 0.056360 
#    z 0.030390 0.056360 2.260400 
# 
# From -- ./inp_files/358207.got.cif
#   From: 2010.05.17/outbox.cif.g08.bks.cpg/sg2_180_cif.got.tgz:358207.got - 2010.06.03 11:33:40.
