data_PCOD9040463
_publ_section_title
;
Structure prediction by ZEFSAII (Michael W. Deem and Ramdas Pophale) SiO2 
 PCOD9040463
Probable space group: P -1
;
_chemical_formula_sum "Si O2"
_cell_formula_units_Z 12
_cell_length_a 18.928851
_cell_length_b 14.133550
_cell_length_c 7.440147
_cell_angle_alpha 47.941239
_cell_angle_beta 41.043077
_cell_angle_gamma 20.759866
_cell_volume 457.892056
_symmetry_space_group_name_H-M "P -1"
_symmetry_group_IT_number 2
_symmetry_cell_setting 'triclinic'
loop_
_space_group_symop_operation_xyz
x,y,z
-x,-y,-z
loop_
_atom_site_type_symbol
_atom_site_label
_atom_site_fract_x
_atom_site_fract_y
_atom_site_fract_z
Si Si1 0.935077 0.278087 0.378285
Si Si2 0.120732 0.136861 0.802416
Si Si3 0.782159 0.802007 0.955998
Si Si4 0.469172 0.166058 0.716630
Si Si5 0.624690 0.635772 0.968734
Si Si6 0.786606 0.230646 0.982674
O O1 0.690412 0.600437 0.424171
O O2 0.883279 0.193654 0.662338
O O3 0.104676 0.177348 0.313132
O O4 0.039377 0.193423 0.089099
O O5 0.279096 0.092539 0.521005
O O6 0.892050 0.385686 0.803823
O O7 0.274308 0.851770 0.825807
O O8 0.547293 0.084651 0.150946
O O9 0.675386 0.814124 0.003128
O O10 0.000000 0.500000 0.000000
O O11 0.460242 0.261510 0.792418
O O12 0.613839 0.510096 0.052646
O O13 0.000000 0.000000 0.000000
#
# Coordination Sequence:
#
# PCOD9040463 Si02
#       6
#     2   2   2   2   2   2
#     4  10  23  44  65  99 137 175 226 269 332 399
#     4  10  23  44  68  98 137 178 221 273 330 401
#     4  10  23  45  70  98 136 175 223 280 330 400
#     4  10  23  44  68  99 134 176 227 269 339 393
#     4  10  23  43  67 101 132 180 220 274 334 391
#     4  10  23  44  67 100 136 175 224 275 332 394
#
# _framework density 26.207049999999999
#
# number of rings (size 3 to 8) (size 9 to 14) (size 15 to 20)
#    0.000    2.000    0.000    1.000    7.000    2.667 
#   15.000    0.000    0.000    0.000    0.000    0.000 
#    0.000    0.000    0.000    0.000    0.000    0.000 
#
# Total GULP energy -66909.046961 kJ/mol
# GULP energy per Si atom -5575.753913 kJ/mol
# Density = 2.614740 g / cm^3
# Si number density = 26.207050 Si / 1000 Ang^3
#
#
#
# Elastic Constant Matrix: (Units=GPa)
#
#
# Indices 1 2 3 4 5 6 
#
# 1 100.1393 47.5081 39.3580 20.1942 -7.5967 -5.1456
# 2 47.5081 142.2807 42.0159 19.5255 -4.5271 12.1495
# 3 39.3580 42.0159 144.3625 -0.7655 3.8314 -0.8676
# 4 20.1942 19.5255 -0.7655 30.9234 1.4116 -9.0849
# 5 -7.5967 -4.5271 3.8314 1.4116 48.3029 13.4961
# 6 -5.1456 12.1495 -0.8676 -9.0849 13.4961 40.7555
#
#
#
# Elastic Compliance Matrix: (Units=1/GPa)
#
#
# Indices 1 2 3 4 5 6 
#
# 1 0.014288 -0.002653 -0.003232 -0.007866 0.002500 -0.000055
# 2 -0.002653 0.010046 -0.002334 -0.006437 0.002471 -0.005633
# 3 -0.003232 -0.002334 0.008582 0.004540 -0.002154 0.002196
# 4 -0.007866 -0.006437 0.004540 0.046020 -0.007380 0.013725
# 5 0.002500 0.002471 -0.002154 -0.007380 0.024578 -0.010251
# 6 -0.000055 -0.005633 0.002196 0.013725 -0.010251 0.032709
#
#
# Mechanical properties :
#
#
# Convention : Reuss Voigt Hill
#
# Bulk Modulus (GPa) = 60.68430 71.61629 66.15029
# Shear Modulus (GPa) = 31.61471 41.18975 36.40223
#
# Velocity S-wave (km/s) = 3.47701 3.96877 3.73101
# Velocity P-wave (km/s) = 6.27100 6.95615 6.62244
#
# Compressibility (1/GPa) = 0.01647873
#
# Stress axis : x y z
#
# Youngs Moduli (GPa) = 69.98977 99.53882 116.52443
#
# Poissons Ratio (x) = 0.26404 0.37657
# Poissons Ratio (y) = 0.18566 0.27200
# Poissons Ratio (z) = 0.22619 0.23235
#
# Static dielectric constant tensor:
#      x y z
#    x 2.162950 -0.024090 0.035560 
#    y -0.024090 2.176460 -0.041900 
#    z 0.035560 -0.041900 2.034190 
# 
# From -- ./inp_files/31410.got.cif
#   From: 2010.05.17/outbox.cif.g08.bks.cpg/sg2_16_cif.got.tgz:31410.got - 2010.06.03 11:33:40.
