data_PCOD9040864
_publ_section_title
;
Structure prediction by ZEFSAII (Michael W. Deem and Ramdas Pophale) SiO2 
 PCOD9040864
Probable space group: P -1
;
_chemical_formula_sum "Si O2"
_cell_formula_units_Z 16
_cell_length_a 13.667910
_cell_length_b 7.895446
_cell_length_c 6.780854
_cell_angle_alpha 96.433614
_cell_angle_beta 111.567196
_cell_angle_gamma 85.750754
_cell_volume 675.804251
_symmetry_space_group_name_H-M "P -1"
_symmetry_group_IT_number 2
_symmetry_cell_setting 'triclinic'
loop_
_space_group_symop_operation_xyz
x,y,z
-x,-y,-z
loop_
_atom_site_type_symbol
_atom_site_label
_atom_site_fract_x
_atom_site_fract_y
_atom_site_fract_z
Si Si1 0.839338 0.930134 0.897653
Si Si2 0.218057 0.469705 0.744447
Si Si3 0.907505 0.075424 0.577811
Si Si4 0.029640 0.371127 0.829402
Si Si5 0.338938 0.246660 0.483267
Si Si6 0.479127 0.777776 0.102193
Si Si7 0.738104 0.139998 0.173100
Si Si8 0.399263 0.428484 0.169127
O O1 0.728974 0.874244 0.717340
O O2 0.909515 0.980204 0.772883
O O3 0.896906 0.781055 0.043662
O O4 0.812330 0.089512 0.038050
O O5 0.097868 0.454311 0.718495
O O6 0.257858 0.352503 0.578579
O O7 0.253918 0.660030 0.755501
O O8 0.285790 0.413528 0.980104
O O9 0.795112 0.049699 0.388121
O O10 0.929789 0.273804 0.658543
O O11 0.000000 0.000000 0.500000
O O12 0.000000 0.500000 0.000000
O O13 0.427776 0.160847 0.680373
O O14 0.392122 0.373844 0.382603
O O15 0.432847 0.620533 0.173557
O O16 0.380830 0.898634 0.979842
O O17 0.525192 0.693810 0.924519
#
# Coordination Sequence:
#
# PCOD9040864 Si02
#       8
#     2   2   2   2   2   2   2   2
#     4  12  27  46  67 100 140 176 220 282 342 402
#     4  10  23  43  69 104 132 175 232 280 331 397
#     4  12  27  47  70  93 138 187 217 273 352 396
#     4  12  26  46  74 101 132 174 235 289 327 400
#     4  11  22  39  73 100 137 177 223 280 337 394
#     4   9  21  39  67 102 136 176 226 272 331 404
#     4  11  26  45  67  99 142 178 221 278 332 410
#     4   9  18  40  67 101 140 172 219 283 333 390
#
# _framework density 23.675495000000002
#
# number of rings (size 3 to 8) (size 9 to 14) (size 15 to 20)
#    0.000    1.250    2.500    3.000    3.500    4.000 
#    0.000    1.250    0.000    0.000    0.000    0.000 
#    0.000    0.000    0.000    0.000    0.000    0.000 
#
# Total GULP energy -89551.001061 kJ/mol
# GULP energy per Si atom -5596.937566 kJ/mol
# Density = 2.362161 g / cm^3
# Si number density = 23.675495 Si / 1000 Ang^3
#
#
#
# Elastic Constant Matrix: (Units=GPa)
#
#
# Indices 1 2 3 4 5 6 
#
# 1 83.6880 6.2711 26.3288 -6.3050 10.3348 0.7965
# 2 6.2711 37.7362 12.8590 4.0235 0.7532 -2.4116
# 3 26.3288 12.8590 113.4880 -5.8240 15.0385 -7.4203
# 4 -6.3050 4.0235 -5.8240 37.2622 2.5698 2.6443
# 5 10.3348 0.7532 15.0385 2.5698 40.0929 -8.6157
# 6 0.7965 -2.4116 -7.4203 2.6443 -8.6157 36.0314
#
#
#
# Elastic Compliance Matrix: (Units=1/GPa)
#
#
# Indices 1 2 3 4 5 6 
#
# 1 0.013442 -0.001687 -0.002522 0.002402 -0.003035 -0.001831
# 2 -0.001687 0.028381 -0.003138 -0.004106 0.001775 0.002016
# 3 -0.002522 -0.003138 0.010311 0.001652 -0.003023 0.001125
# 4 0.002402 -0.004106 0.001652 0.028402 -0.003613 -0.002936
# 5 -0.003035 0.001775 -0.003023 -0.003613 0.028483 0.006639
# 6 -0.001831 0.002016 0.001125 -0.002936 0.006639 0.029964
#
#
# Mechanical properties :
#
#
# Convention : Reuss Voigt Hill
#
# Bulk Modulus (GPa) = 26.70984 36.20334 31.45659
# Shear Modulus (GPa) = 30.09192 35.30751 32.69971
#
# Velocity S-wave (km/s) = 3.56900 3.86594 3.72043
# Velocity P-wave (km/s) = 5.31881 5.93734 5.63657
#
# Compressibility (1/GPa) = 0.03743938
#
# Stress axis : x y z
#
# Youngs Moduli (GPa) = 74.39330 35.23511 96.98336
#
# Poissons Ratio (x) = 0.05944 0.24456
# Poissons Ratio (y) = 0.12551 0.30438
# Poissons Ratio (z) = 0.18760 0.11059
#
# Static dielectric constant tensor:
#      x y z
#    x 1.930410 0.034500 0.059700 
#    y 0.034500 1.879580 -0.022280 
#    z 0.059700 -0.022280 1.863510 
# 
# From -- ./inp_files/90076.got.cif
#   From: 2010.05.17/outbox.cif.g08.bks.cpg/sg2_46_cif.got.tgz:90076.got - 2010.06.03 11:33:40.
