data_PCOD9040081
_publ_section_title
;
Structure prediction by ZEFSAII (Michael W. Deem and Ramdas Pophale) SiO2 
 PCOD9040081
Probable space group: P -1
;
_chemical_formula_sum "Si O2"
_cell_formula_units_Z 15
_cell_length_a 7.918816
_cell_length_b 14.532845
_cell_length_c 14.936188
_cell_angle_alpha 28.558561
_cell_angle_beta 90.137670
_cell_angle_gamma 107.600770
_cell_volume 639.406602
_symmetry_space_group_name_H-M "P -1"
_symmetry_group_IT_number 2
_symmetry_cell_setting 'triclinic'
loop_
_space_group_symop_operation_xyz
x,y,z
-x,-y,-z
loop_
_atom_site_type_symbol
_atom_site_label
_atom_site_fract_x
_atom_site_fract_y
_atom_site_fract_z
Si Si1 0.198908 0.505831 0.968784
Si Si2 0.738312 0.367518 0.348148
Si Si3 0.787598 0.170352 0.999911
Si Si4 0.360068 0.369861 0.334959
Si Si5 0.777203 0.789149 0.225228
Si Si6 0.000000 0.000000 0.500000
Si Si7 0.329244 0.569590 0.332714
Si Si8 0.501306 0.836863 0.843123
O O1 0.125291 0.240252 0.224343
O O2 0.244101 0.584269 0.799122
O O3 0.400503 0.717880 0.848165
O O4 0.000000 0.500000 0.000000
O O5 0.514856 0.312949 0.418393
O O6 0.955371 0.609486 0.182856
O O7 0.705427 0.121096 0.585275
O O8 0.697635 0.229411 0.865616
O O9 0.673187 0.175032 0.084095
O O10 0.741165 0.916104 0.196945
O O11 0.242563 0.392816 0.397045
O O12 0.189061 0.180901 0.421913
O O13 0.520073 0.646338 0.055434
O O14 0.578203 0.682737 0.249350
O O15 0.778715 0.580226 0.448126
O O16 0.000000 0.000000 0.000000
#
# Coordination Sequence:
#
# PCOD9040081 Si02
#       8
#     2   2   2   2   2   1   2   2
#     4  11  22  40  61  93 131 175 221 270 322 376
#     4  12  24  38  68  96 128 180 222 268 322 388
#     4  11  24  42  67  98 131 174 210 272 334 385
#     4  10  23  44  65  97 132 175 222 271 325 385
#     4  11  24  43  71  99 127 170 219 269 329 393
#     4  10  24  40  68  92 134 176 218 270 324 378
#     4  10  24  45  66  96 136 169 212 275 327 389
#     4  10  23  43  61  93 133 173 219 270 325 383
#
# _framework density 23.459249
#
# number of rings (size 3 to 8) (size 9 to 14) (size 15 to 20)
#    0.000    1.333    1.333    3.200    1.867    8.000 
#    0.000    0.000    0.000    0.000    0.000    0.000 
#    0.000    0.000    0.000    0.000    0.000    0.000 
#
# Total GULP energy -83649.935994 kJ/mol
# GULP energy per Si atom -5576.662400 kJ/mol
# Density = 2.340585 g / cm^3
# Si number density = 23.459249 Si / 1000 Ang^3
#
#
#
# Elastic Constant Matrix: (Units=GPa)
#
#
# Indices 1 2 3 4 5 6 
#
# 1 36.5789 13.0505 21.4360 3.7050 0.7265 5.2109
# 2 13.0505 80.0201 29.0356 -10.6957 -3.2096 17.2964
# 3 21.4360 29.0356 116.9469 -3.4438 4.6745 14.8557
# 4 3.7050 -10.6957 -3.4438 36.2687 2.3473 -0.6584
# 5 0.7265 -3.2096 4.6745 2.3473 31.0103 2.7321
# 6 5.2109 17.2964 14.8557 -0.6584 2.7321 30.7164
#
#
#
# Elastic Compliance Matrix: (Units=1/GPa)
#
#
# Indices 1 2 3 4 5 6 
#
# 1 0.032285 -0.003908 -0.004970 -0.004943 0.000049 -0.000983
# 2 -0.003908 0.016336 -0.002344 0.004700 0.002442 -0.007519
# 3 -0.004970 -0.002344 0.010480 0.000861 -0.001529 -0.002751
# 4 -0.004943 0.004700 0.000861 0.029625 -0.001643 -0.001443
# 5 0.000049 0.002442 -0.001529 -0.001643 0.033174 -0.003630
# 6 -0.000983 -0.007519 -0.002751 -0.001443 -0.003630 0.038579
#
#
# Mechanical properties :
#
#
# Convention : Reuss Voigt Hill
#
# Bulk Modulus (GPa) = 27.28030 40.06558 33.67294
# Shear Modulus (GPa) = 25.62254 30.93400 28.27827
#
# Velocity S-wave (km/s) = 3.30845 3.63523 3.47568
# Velocity P-wave (km/s) = 5.12333 5.89370 5.52197
#
# Compressibility (1/GPa) = 0.03665648
#
# Stress axis : x y z
#
# Youngs Moduli (GPa) = 30.97430 61.21455 95.42269
#
# Poissons Ratio (x) = 0.23925 0.47426
# Poissons Ratio (y) = 0.12106 0.22364
# Poissons Ratio (z) = 0.15394 0.14346
#
# Static dielectric constant tensor:
#      x y z
#    x 1.934440 -0.106000 -0.012910 
#    y -0.106000 1.928490 0.046290 
#    z -0.012910 0.046290 1.872170 
# 
# From -- ./inp_files/34366.got.cif
#   From: 2010.05.17/outbox.cif.g08.bks.cpg/sg2_18_cif.got.tgz:34366.got - 2010.06.03 11:33:40.
