data_PCOD9040539
_publ_section_title
;
Structure prediction by ZEFSAII (Michael W. Deem and Ramdas Pophale) SiO2 
 PCOD9040539
Probable space group: P -1
;
_chemical_formula_sum "Si O2"
_cell_formula_units_Z 13
_cell_length_a 11.786727
_cell_length_b 9.993397
_cell_length_c 7.051417
_cell_angle_alpha 59.331127
_cell_angle_beta 135.725231
_cell_angle_gamma 113.373928
_cell_volume 498.041175
_symmetry_space_group_name_H-M "P -1"
_symmetry_group_IT_number 2
_symmetry_cell_setting 'triclinic'
loop_
_space_group_symop_operation_xyz
x,y,z
-x,-y,-z
loop_
_atom_site_type_symbol
_atom_site_label
_atom_site_fract_x
_atom_site_fract_y
_atom_site_fract_z
Si Si1 0.179189 0.890853 0.424543
Si Si2 0.646366 0.552377 0.872396
Si Si3 0.864094 0.438194 0.530740
Si Si4 0.511025 0.219024 0.894657
Si Si5 0.163556 0.315147 0.361205
Si Si6 0.571917 0.879912 0.533793
Si Si7 0.000000 0.000000 0.500000
O O1 0.134305 0.748814 0.333209
O O2 0.238959 0.058086 0.291273
O O3 0.348597 0.839873 0.761927
O O4 0.054176 0.917680 0.422973
O O5 0.558459 0.400582 0.786252
O O6 0.775354 0.621207 0.817802
O O7 0.548114 0.702364 0.695667
O O8 0.681548 0.775159 0.296064
O O9 0.873211 0.535435 0.663960
O O10 0.000000 0.500000 0.500000
O O11 0.708501 0.491920 0.190299
O O12 0.514410 0.124228 0.771125
O O13 0.026713 0.177027 0.307413
O O14 0.500000 0.000000 0.500000
#
# Coordination Sequence:
#
# PCOD9040539 Si02
#       7
#     2   2   2   2   2   2   1
#     4  11  24  42  65  98 131 175 224 271 332 400
#     4  10  24  44  66  97 130 175 224 272 330 391
#     4  11  25  43  66  97 130 176 222 264 334 401
#     4  10  23  43  67  95 128 179 223 269 337 381
#     4  11  23  43  70  91 139 171 218 277 328 397
#     4  11  23  38  65 100 134 163 223 281 328 385
#     4  12  22  42  64  96 140 174 212 272 340 392
#
# _framework density 26.102256000000001
#
# number of rings (size 3 to 8) (size 9 to 14) (size 15 to 20)
#    0.000    1.231    4.615    2.308    6.462    1.846 
#    0.000    3.077    0.000    0.000    0.000    0.000 
#    0.000    0.000    0.000    0.000    0.000    0.000 
#
# Total GULP energy -72450.478554 kJ/mol
# GULP energy per Si atom -5573.113735 kJ/mol
# Density = 2.604285 g / cm^3
# Si number density = 26.102256 Si / 1000 Ang^3
#
#
#
# Elastic Constant Matrix: (Units=GPa)
#
#
# Indices 1 2 3 4 5 6 
#
# 1 65.8608 27.7115 21.6347 8.9086 -29.6485 -26.9683
# 2 27.7115 230.0816 49.1359 28.9816 -25.1612 -26.0884
# 3 21.6347 49.1359 86.8049 11.3251 -3.1231 -10.4289
# 4 8.9086 28.9816 11.3251 27.1416 -6.6146 -16.6178
# 5 -29.6485 -25.1612 -3.1231 -6.6146 28.8106 4.3271
# 6 -26.9683 -26.0884 -10.4289 -16.6178 4.3271 55.5283
#
#
#
# Elastic Compliance Matrix: (Units=1/GPa)
#
#
# Indices 1 2 3 4 5 6 
#
# 1 0.046657 0.003010 -0.010408 0.010919 0.048779 0.021586
# 2 0.003010 0.006089 -0.003278 -0.003031 0.007026 0.002253
# 3 -0.010408 -0.003278 0.015699 -0.005271 -0.012444 -0.004255
# 4 0.010919 -0.003031 -0.005271 0.053795 0.017724 0.017607
# 5 0.048779 0.007026 -0.012444 0.017724 0.090321 0.022920
# 6 0.021586 0.002253 -0.004255 0.017607 0.022920 0.032235
#
#
# Mechanical properties :
#
#
# Convention : Reuss Voigt Hill
#
# Bulk Modulus (GPa) = 21.23529 64.41239 42.82384
# Shear Modulus (GPa) = 17.74013 41.24709 29.49361
#
# Velocity S-wave (km/s) = 2.60982 3.97950 3.36508
# Velocity P-wave (km/s) = 4.15146 6.77095 5.61606
#
# Compressibility (1/GPa) = 0.04709142
#
# Stress axis : x y z
#
# Youngs Moduli (GPa) = 21.43309 164.22011 63.69944
#
# Poissons Ratio (x) = -0.49429 0.66301
# Poissons Ratio (y) = -0.06451 0.20882
# Poissons Ratio (z) = 0.22308 0.53835
#
# Static dielectric constant tensor:
#      x y z
#    x 2.204440 0.146540 -0.041260 
#    y 0.146540 2.344390 -0.422760 
#    z -0.041260 -0.422760 2.657890 
# 
# From -- ./inp_files/87495.got.cif
#   From: 2010.05.17/outbox.cif.g08.bks.cpg/sg2_44_cif.got.tgz:87495.got - 2010.06.03 11:33:40.
