data_PCOD9040114
_publ_section_title
;
Structure prediction by ZEFSAII (Michael W. Deem and Ramdas Pophale) SiO2 
 PCOD9040114
Probable space group: P -1
;
_chemical_formula_sum "Si O2"
_cell_formula_units_Z 11
_cell_length_a 8.860697
_cell_length_b 7.915450
_cell_length_c 7.614862
_cell_angle_alpha 102.247349
_cell_angle_beta 105.613245
_cell_angle_gamma 48.244698
_cell_volume 383.316678
_symmetry_space_group_name_H-M "P -1"
_symmetry_group_IT_number 2
_symmetry_cell_setting 'triclinic'
loop_
_space_group_symop_operation_xyz
x,y,z
-x,-y,-z
loop_
_atom_site_type_symbol
_atom_site_label
_atom_site_fract_x
_atom_site_fract_y
_atom_site_fract_z
Si Si1 0.384291 0.408601 0.494049
Si Si2 0.500000 0.000000 0.500000
Si Si3 0.388323 0.405247 0.883153
Si Si4 0.905318 0.830584 0.430534
Si Si5 0.050773 0.109720 0.181559
Si Si6 0.205592 0.234154 0.982078
O O1 0.500000 0.500000 0.500000
O O2 0.471162 0.176211 0.381573
O O3 0.469807 0.298085 0.692626
O O4 0.144006 0.606079 0.441311
O O5 0.248614 0.189177 0.518331
O O6 0.373126 0.256003 0.977065
O O7 0.156175 0.629689 0.818643
O O8 0.500000 0.500000 0.000000
O O9 0.908300 0.974019 0.621387
O O10 0.834496 0.869288 0.215482
O O11 0.216023 0.108504 0.129996
O O12 0.000000 0.000000 0.000000
O O13 0.000000 0.500000 0.000000
#
# Coordination Sequence:
#
# PCOD9040114 Si02
#       6
#     2   1   2   2   2   2
#     4  11  27  45  74 109 148 205 248 316 388 448
#     4  12  26  44  80 106 148 206 248 322 384 456
#     4  10  23  43  62  99 145 181 246 304 374 445
#     4  11  26  50  74 109 159 189 262 315 379 463
#     4  10  25  42  71 106 142 193 244 312 379 455
#     4  10  23  43  75  99 141 205 236 310 387 439
#
# _framework density 28.696898999999998
#
# number of rings (size 3 to 8) (size 9 to 14) (size 15 to 20)
#    0.000    1.455    1.818    0.545   12.727    4.364 
#    0.000    1.818    0.000    0.000    0.000    0.000 
#    0.000    0.000    0.000    0.000    0.000    0.000 
#
# Total GULP energy -61303.370467 kJ/mol
# GULP energy per Si atom -5573.033679 kJ/mol
# Density = 2.863158 g / cm^3
# Si number density = 28.696899 Si / 1000 Ang^3
#
#
#
# Elastic Constant Matrix: (Units=GPa)
#
#
# Indices 1 2 3 4 5 6 
#
# 1 204.5112 73.8530 51.4858 -21.0696 6.6349 -4.9311
# 2 73.8530 137.0856 10.2771 -21.7427 -14.1868 -20.9468
# 3 51.4858 10.2771 226.2830 -6.2222 -12.8745 16.9407
# 4 -21.0696 -21.7427 -6.2222 27.3038 10.2077 -12.7656
# 5 6.6349 -14.1868 -12.8745 10.2077 59.3155 7.2368
# 6 -4.9311 -20.9468 16.9407 -12.7656 7.2368 66.0903
#
#
#
# Elastic Compliance Matrix: (Units=1/GPa)
#
#
# Indices 1 2 3 4 5 6 
#
# 1 0.006921 -0.003107 -0.001549 0.003967 -0.002657 0.000986
# 2 -0.003107 0.011110 0.000134 0.008318 0.001023 0.004750
# 3 -0.001549 0.000134 0.004962 -0.001466 0.001757 -0.001821
# 4 0.003967 0.008318 -0.001466 0.057145 -0.010497 0.015495
# 5 -0.002657 0.001023 0.001757 -0.010497 0.020145 -0.004558
# 6 0.000986 0.004750 -0.001821 0.015495 -0.004558 0.020668
#
#
# Mechanical properties :
#
#
# Convention : Reuss Voigt Hill
#
# Bulk Modulus (GPa) = 71.70558 93.23461 82.47009
# Shear Modulus (GPa) = 37.13496 59.35949 48.24722
#
# Velocity S-wave (km/s) = 3.60118 4.55301 4.10478
# Velocity P-wave (km/s) = 6.50637 7.75885 7.16005
#
# Compressibility (1/GPa) = 0.01394592
#
# Stress axis : x y z
#
# Youngs Moduli (GPa) = 144.49811 90.01283 201.54713
#
# Poissons Ratio (x) = 0.27970 0.31227
# Poissons Ratio (y) = 0.44900 -0.02696
# Poissons Ratio (z) = 0.22388 -0.01204
#
# Static dielectric constant tensor:
#      x y z
#    x 2.322450 -0.097050 -0.077470 
#    y -0.097050 2.111910 -0.202340 
#    z -0.077470 -0.202340 1.983730 
# 
# From -- ./inp_files/152296.got.cif
#   From: 2010.05.17/outbox.cif.g08.bks.cpg/sg2_77_cif.got.tgz:152296.got - 2010.06.03 11:33:40.
