data_PCOD9040668
_publ_section_title
;
Structure prediction by ZEFSAII (Michael W. Deem and Ramdas Pophale) SiO2 
 PCOD9040668
Probable space group: P -1
;
_chemical_formula_sum "Si O2"
_cell_formula_units_Z 16
_cell_length_a 5.546648
_cell_length_b 11.418375
_cell_length_c 12.709696
_cell_angle_alpha 82.265041
_cell_angle_beta 108.369050
_cell_angle_gamma 115.220307
_cell_volume 691.115433
_symmetry_space_group_name_H-M "P -1"
_symmetry_group_IT_number 2
_symmetry_cell_setting 'triclinic'
loop_
_space_group_symop_operation_xyz
x,y,z
-x,-y,-z
loop_
_atom_site_type_symbol
_atom_site_label
_atom_site_fract_x
_atom_site_fract_y
_atom_site_fract_z
Si Si1 0.797544 0.766164 0.006349
Si Si2 0.467139 0.017358 0.341151
Si Si3 0.121935 0.165082 0.386212
Si Si4 0.426022 0.341706 0.785936
Si Si5 0.322649 0.982832 0.081919
Si Si6 0.938939 0.527278 0.369624
Si Si7 0.360580 0.373472 0.219955
Si Si8 0.526976 0.243741 0.621603
O O1 0.645956 0.696826 0.099055
O O2 0.769521 0.898900 0.962619
O O3 0.703999 0.682565 0.898936
O O4 0.123149 0.829556 0.070152
O O5 0.275079 0.079461 0.364134
O O6 0.431165 0.013992 0.211267
O O7 0.803493 0.089441 0.388655
O O8 0.377193 0.869211 0.382678
O O9 0.162341 0.274195 0.290122
O O10 0.296860 0.231400 0.505546
O O11 0.661510 0.488620 0.803005
O O12 0.440091 0.225958 0.733828
O O13 0.189591 0.368316 0.685075
O O14 0.500000 0.000000 0.000000
O O15 0.250234 0.608015 0.362696
O O16 0.000000 0.500000 0.500000
O O17 0.683292 0.404916 0.296740
#
# Coordination Sequence:
#
# PCOD9040668 Si02
#       8
#     2   2   2   2   2   2   2   2
#     4  11  22  46  68 103 147 184 252 303 372 441
#     4  12  28  45  75 111 149 194 250 309 383 428
#     4  12  27  47  75 110 149 198 247 313 369 452
#     4  10  25  41  71 101 142 195 237 306 363 443
#     4  11  24  41  73  99 142 198 243 308 372 438
#     4  10  23  43  68 103 144 190 241 297 368 431
#     4  10  23  44  71 105 145 194 245 304 368 442
#     4  12  25  45  71 105 149 190 255 300 373 447
#
# _framework density 23.150979
#
# number of rings (size 3 to 8) (size 9 to 14) (size 15 to 20)
#    0.750    0.250    2.500    3.375    7.000    3.000 
#    2.250    0.625    0.000    0.000    0.000    0.000 
#    0.000    0.000    0.000    0.000    0.000    0.000 
#
# Total GULP energy -89122.246911 kJ/mol
# GULP energy per Si atom -5570.140432 kJ/mol
# Density = 2.309829 g / cm^3
# Si number density = 23.150979 Si / 1000 Ang^3
#
#
#
# Elastic Constant Matrix: (Units=GPa)
#
#
# Indices 1 2 3 4 5 6 
#
# 1 31.5563 32.5997 67.6386 14.7542 -8.2122 33.0478
# 2 32.5997 95.8790 23.1800 15.7412 -10.7683 -2.6773
# 3 67.6386 23.1800 80.8198 27.6588 3.0133 -54.1790
# 4 14.7542 15.7412 27.6588 40.2320 -3.9868 14.2716
# 5 -8.2122 -10.7683 3.0133 -3.9868 26.2274 6.3159
# 6 33.0478 -2.6773 -54.1790 14.2716 6.3159 -6.8186
#
#
#
# Elastic Compliance Matrix: (Units=1/GPa)
#
#
# Indices 1 2 3 4 5 6 
#
# 1 0.015520 -0.003963 0.003800 -0.012943 -0.003161 0.016565
# 2 -0.003963 0.012887 -0.002269 -0.000541 0.004908 -0.002822
# 3 0.003800 -0.002269 0.003814 0.000185 0.001965 -0.008791
# 4 -0.012943 -0.000541 0.000185 0.030005 0.000451 -0.000770
# 5 -0.003161 0.004908 0.001965 0.000451 0.038168 0.003438
# 6 0.016565 -0.002822 -0.008791 -0.000770 0.003438 0.006157
#
#
# Mechanical properties :
#
#
# Convention : Reuss Voigt Hill
#
# Bulk Modulus (GPa) = 36.55489 50.56575 43.56032
# Shear Modulus (GPa) = 41.48180 17.58394 29.53287
#
# Velocity S-wave (km/s) = 4.23755 2.75895 3.57552
# Velocity P-wave (km/s) = 6.30607 5.66023 5.99186
#
# Compressibility (1/GPa) = 0.02735612
#
# Stress axis : x y z
#
# Youngs Moduli (GPa) = 64.43466 77.59618 262.17794
#
# Poissons Ratio (x) = 0.30752 -0.99625
# Poissons Ratio (y) = 0.25536 0.59497
# Poissons Ratio (z) = -0.24485 0.17609
#
# Static dielectric constant tensor:
#      x y z
#    x 1.496510 0.080990 -0.037330 
#    y 0.080990 1.870590 0.054110 
#    z -0.037330 0.054110 1.763620 
# 
# From -- ./inp_files/364627.got.cif
#   From: 2010.05.17/outbox.cif.g08.bks.cpg/sg2_183_cif.got.tgz:364627.got - 2010.06.03 11:33:40.
