data_PCOD9040023
_publ_section_title
;
Structure prediction by ZEFSAII (Michael W. Deem and Ramdas Pophale) SiO2 
 PCOD9040023
Probable space group: P -1
;
_chemical_formula_sum "Si O2"
_cell_formula_units_Z 14
_cell_length_a 9.197871
_cell_length_b 9.000831
_cell_length_c 11.601577
_cell_angle_alpha 115.003925
_cell_angle_beta 39.371997
_cell_angle_gamma 99.871091
_cell_volume 531.645278
_symmetry_space_group_name_H-M "P -1"
_symmetry_group_IT_number 2
_symmetry_cell_setting 'triclinic'
loop_
_space_group_symop_operation_xyz
x,y,z
-x,-y,-z
loop_
_atom_site_type_symbol
_atom_site_label
_atom_site_fract_x
_atom_site_fract_y
_atom_site_fract_z
Si Si1 0.632883 0.740703 0.268249
Si Si2 0.899947 0.505733 0.435846
Si Si3 0.098396 0.871176 0.650732
Si Si4 0.686752 0.054164 0.820270
Si Si5 0.302127 0.560589 0.043229
Si Si6 0.713533 0.968472 0.112562
Si Si7 0.558712 0.678606 0.540229
O O1 0.369429 0.876499 0.475018
O O2 0.788348 0.825673 0.118475
O O3 0.705932 0.704867 0.344753
O O4 0.632760 0.562159 0.147644
O O5 0.852498 0.323611 0.402840
O O6 0.678597 0.659886 0.587103
O O7 0.000000 0.500000 0.500000
O O8 0.078597 0.522579 0.231398
O O9 0.906211 0.962360 0.893314
O O10 0.946481 0.921748 0.641132
O O11 0.719037 0.239883 0.892902
O O12 0.532030 0.062526 0.800947
O O13 0.500000 0.000000 0.000000
O O14 0.500000 0.500000 0.000000
O O15 0.652688 0.153156 0.266320
O O16 0.500000 0.500000 0.500000
#
# Coordination Sequence:
#
# PCOD9040023 Si02
#       7
#     2   2   2   2   2   2   2
#     4  12  26  48  74 105 158 196 249 307 382 452
#     4  12  26  50  78 113 150 200 258 309 379 455
#     4  11  24  44  72 110 146 200 244 311 374 439
#     4  10  23  42  74 112 148 195 252 312 372 441
#     4  12  24  46  79 114 153 199 248 316 378 449
#     4  11  25  49  70 108 154 195 257 308 375 451
#     4  12  29  49  76 111 149 206 248 314 383 453
#
# _framework density 26.333348000000001
#
# number of rings (size 3 to 8) (size 9 to 14) (size 15 to 20)
#    0.000    0.571    4.286    3.000    6.000    1.714 
#    0.000    0.000    0.000    0.000    0.000    0.000 
#    0.000    0.000    0.000    0.000    0.000    0.000 
#
# Total GULP energy -78328.033333 kJ/mol
# GULP energy per Si atom -5594.859524 kJ/mol
# Density = 2.627341 g / cm^3
# Si number density = 26.333348 Si / 1000 Ang^3
#
#
#
# Elastic Constant Matrix: (Units=GPa)
#
#
# Indices 1 2 3 4 5 6 
#
# 1 146.4171 33.4874 25.7985 -2.7784 8.5216 -27.8947
# 2 33.4874 148.1383 34.2019 5.4905 11.8248 -13.6290
# 3 25.7985 34.2019 97.2378 -3.8375 26.6478 3.4527
# 4 -2.7784 5.4905 -3.8375 45.8370 -1.7571 6.2844
# 5 8.5216 11.8248 26.6478 -1.7571 45.6684 -3.9467
# 6 -27.8947 -13.6290 3.4527 6.2844 -3.9467 47.8966
#
#
#
# Elastic Compliance Matrix: (Units=1/GPa)
#
#
# Indices 1 2 3 4 5 6 
#
# 1 0.008314 -0.000967 -0.002140 -0.000201 0.000353 0.004776
# 2 -0.000967 0.007821 -0.002562 -0.001496 -0.000233 0.002024
# 3 -0.002140 -0.002562 0.013965 0.001585 -0.007353 -0.003796
# 4 -0.000201 -0.001496 0.001585 0.022615 0.000057 -0.003619
# 5 0.000353 -0.000233 -0.007353 0.000057 0.026430 0.002840
# 6 0.004776 0.002024 -0.003796 -0.003619 0.002840 0.025219
#
#
# Mechanical properties :
#
#
# Convention : Reuss Voigt Hill
#
# Bulk Modulus (GPa) = 53.29505 64.30766 58.80135
# Shear Modulus (GPa) = 40.99949 47.76743 44.38346
#
# Velocity S-wave (km/s) = 3.95009 4.26367 4.10987
# Velocity P-wave (km/s) = 6.40990 6.97941 6.70071
#
# Compressibility (1/GPa) = 0.01876347
#
# Stress axis : x y z
#
# Youngs Moduli (GPa) = 120.28550 127.86743 71.60617
#
# Poissons Ratio (x) = 0.12359 0.15323
# Poissons Ratio (y) = 0.11626 0.18342
# Poissons Ratio (z) = 0.25740 0.32754
#
# Static dielectric constant tensor:
#      x y z
#    x 2.016410 0.019730 0.228020 
#    y 0.019730 1.998790 0.074270 
#    z 0.228020 0.074270 1.789240 
# 
# From -- ./inp_files/383074.got.cif
#   From: 2010.05.17/outbox.cif.g08.bks.cpg/sg2_192_cif.got.tgz:383074.got - 2010.06.03 11:33:40.
