data_PCOD9040088
_publ_section_title
;
Structure prediction by ZEFSAII (Michael W. Deem and Ramdas Pophale) SiO2 
 PCOD9040088
Probable space group: P -1
;
_chemical_formula_sum "Si O2"
_cell_formula_units_Z 16
_cell_length_a 20.838125
_cell_length_b 5.504102
_cell_length_c 8.644704
_cell_angle_alpha 80.622206
_cell_angle_beta 135.167639
_cell_angle_gamma 97.170242
_cell_volume 689.642498
_symmetry_space_group_name_H-M "P -1"
_symmetry_group_IT_number 2
_symmetry_cell_setting 'triclinic'
loop_
_space_group_symop_operation_xyz
x,y,z
-x,-y,-z
loop_
_atom_site_type_symbol
_atom_site_label
_atom_site_fract_x
_atom_site_fract_y
_atom_site_fract_z
Si Si1 0.732777 0.045561 0.904062
Si Si2 0.886603 0.311419 0.464974
Si Si3 0.686591 0.116773 0.137278
Si Si4 0.692248 0.833563 0.511481
Si Si5 0.176267 0.531498 0.104120
Si Si6 0.945310 0.247052 0.905689
Si Si7 0.922103 0.780272 0.288284
Si Si8 0.501663 0.279482 0.903010
O O1 0.701985 0.956181 0.687970
O O2 0.743867 0.340857 0.871030
O O3 0.834287 0.948975 0.127310
O O4 0.675319 0.973235 0.967367
O O5 0.782853 0.250936 0.257410
O O6 0.889463 0.281470 0.653695
O O7 0.913901 0.586111 0.433313
O O8 0.971108 0.148642 0.559319
O O9 0.695955 0.981034 0.336658
O O10 0.598685 0.286988 0.983515
O O11 0.776445 0.646371 0.674585
O O12 0.592518 0.707018 0.352331
O O13 0.124150 0.754319 0.072442
O O14 0.104346 0.384857 0.891814
O O15 0.000000 0.500000 0.000000
O O16 0.000000 0.000000 0.000000
O O17 0.500000 0.500000 0.000000
O O18 0.500000 0.000000 0.000000
#
# Coordination Sequence:
#
# PCOD9040088 Si02
#       8
#     2   2   2   2   2   2   2   2
#     4  11  24  45  72 103 148 187 254 298 369 442
#     4  11  23  41  67 101 140 193 245 292 376 425
#     4  11  25  45  76 110 139 198 251 303 365 463
#     4  10  26  47  75 103 146 194 237 314 383 428
#     4  11  23  45  66  98 145 188 240 308 364 433
#     4  12  27  42  65  99 139 190 247 295 356 438
#     4  10  23  43  62 101 145 187 234 311 354 432
#     4  10  25  49  76 112 151 187 246 315 375 442
#
# _framework density 23.200424000000002
#
# number of rings (size 3 to 8) (size 9 to 14) (size 15 to 20)
#    0.000    1.250    2.500    1.500   10.500    2.000 
#    0.000    0.625    0.000    0.000    0.000    0.000 
#    0.000    0.000    0.000    0.000    0.000    0.000 
#
# Total GULP energy -89205.212232 kJ/mol
# GULP energy per Si atom -5575.325765 kJ/mol
# Density = 2.314762 g / cm^3
# Si number density = 23.200424 Si / 1000 Ang^3
#
#
#
# Elastic Constant Matrix: (Units=GPa)
#
#
# Indices 1 2 3 4 5 6 
#
# 1 145.4971 42.4092 54.6276 3.2079 -0.2453 -28.5139
# 2 42.4092 77.2832 28.5032 1.8072 3.3047 -12.9219
# 3 54.6276 28.5032 115.9643 15.9178 11.2973 3.7751
# 4 3.2079 1.8072 15.9178 32.1608 8.4073 -0.9267
# 5 -0.2453 3.3047 11.2973 8.4073 48.4084 -2.1911
# 6 -28.5139 -12.9219 3.7751 -0.9267 -2.1911 28.1399
#
#
#
# Elastic Compliance Matrix: (Units=1/GPa)
#
#
# Indices 1 2 3 4 5 6 
#
# 1 0.012206 -0.002597 -0.005927 0.001723 0.001874 0.012174
# 2 -0.002597 0.016384 -0.003095 0.001118 -0.000363 0.005316
# 3 -0.005927 -0.003095 0.013488 -0.005551 -0.002438 -0.009609
# 4 0.001723 0.001118 -0.005551 0.034936 -0.004668 0.003791
# 5 0.001874 -0.000363 -0.002438 -0.004668 0.022236 0.003637
# 6 0.012174 0.005316 -0.009609 0.003791 0.003637 0.052010
#
#
# Mechanical properties :
#
#
# Convention : Reuss Voigt Hill
#
# Bulk Modulus (GPa) = 53.07678 65.53607 59.30642
# Shear Modulus (GPa) = 27.65802 35.95547 31.80674
#
# Velocity S-wave (km/s) = 3.45648 3.94099 3.70666
# Velocity P-wave (km/s) = 6.23352 7.00126 6.62852
#
# Compressibility (1/GPa) = 0.01884063
#
# Stress axis : x y z
#
# Youngs Moduli (GPa) = 81.92509 61.03436 74.13853
#
# Poissons Ratio (x) = 0.15852 0.43942
# Poissons Ratio (y) = 0.21278 0.22945
# Poissons Ratio (z) = 0.48557 0.18889
#
# Static dielectric constant tensor:
#      x y z
#    x 1.957750 -0.023090 -0.021880 
#    y -0.023090 1.981520 0.037200 
#    z -0.021880 0.037200 1.859470 
# 
# From -- ./inp_files/340431.got.cif
#   From: 2010.05.17/outbox.cif.g08.bks.cpg/sg2_171_cif.got.tgz:340431.got - 2010.06.03 11:33:40.
