data_PCOD9040008
_publ_section_title
;
Structure prediction by ZEFSAII (Michael W. Deem and Ramdas Pophale) SiO2 
 PCOD9040008
Probable space group: P -1
;
_chemical_formula_sum "Si O2"
_cell_formula_units_Z 13
_cell_length_a 18.559171
_cell_length_b 8.298884
_cell_length_c 5.377969
_cell_angle_alpha 66.134496
_cell_angle_beta 92.090939
_cell_angle_gamma 50.982749
_cell_volume 536.842386
_symmetry_space_group_name_H-M "P -1"
_symmetry_group_IT_number 2
_symmetry_cell_setting 'triclinic'
loop_
_space_group_symop_operation_xyz
x,y,z
-x,-y,-z
loop_
_atom_site_type_symbol
_atom_site_label
_atom_site_fract_x
_atom_site_fract_y
_atom_site_fract_z
Si Si1 0.263325 0.859158 0.163200
Si Si2 0.075252 0.459964 0.229634
Si Si3 0.027970 0.823151 0.340879
Si Si4 0.549220 0.997880 0.757563
Si Si5 0.169233 0.936287 0.615577
Si Si6 0.500000 0.500000 0.500000
Si Si7 0.784346 0.642545 0.071332
O O1 0.227347 0.825804 0.432949
O O2 0.383711 0.665051 0.291697
O O3 0.227663 0.802274 0.961462
O O4 0.224926 0.131586 0.003284
O O5 0.010246 0.663501 0.304395
O O6 0.150197 0.177311 0.488909
O O7 0.146348 0.479234 0.090389
O O8 0.000000 0.500000 0.000000
O O9 0.144449 0.590172 0.585729
O O10 0.940359 0.969828 0.451629
O O11 0.000000 0.000000 0.000000
O O12 0.529565 0.240572 0.604104
O O13 0.500000 0.000000 0.500000
O O14 0.500000 0.000000 0.000000
O O15 0.671802 0.763398 0.938431
#
# Coordination Sequence:
#
# PCOD9040008 Si02
#       7
#     2   2   2   2   2   1   2
#     4  10  23  42  74 102 136 186 251 307 362 446
#     4  11  21  42  70  94 139 192 244 293 362 455
#     4  12  25  40  64 102 150 188 237 300 374 454
#     4  11  28  51  81 115 157 205 262 333 397 461
#     4  11  22  41  67 102 135 190 240 289 367 446
#     4  10  26  52  80 116 150 204 270 324 392 472
#     4  10  23  43  71 100 146 196 243 309 382 457
#
# _framework density 24.215672999999999
#
# number of rings (size 3 to 8) (size 9 to 14) (size 15 to 20)
#    0.000    1.231    3.077    2.308    2.154    8.000 
#    2.769    0.000    0.000    0.000    0.000    0.000 
#    0.000    0.000    0.000    0.000    0.000    0.000 
#
# Total GULP energy -72400.503992 kJ/mol
# GULP energy per Si atom -5569.269538 kJ/mol
# Density = 2.416056 g / cm^3
# Si number density = 24.215673 Si / 1000 Ang^3
#
#
#
# Elastic Constant Matrix: (Units=GPa)
#
#
# Indices 1 2 3 4 5 6 
#
# 1 136.9765 22.0192 63.0927 1.2503 35.4954 -6.2614
# 2 22.0192 52.7427 54.7968 -18.2061 12.1902 1.9430
# 3 63.0927 54.7968 140.8025 0.5593 26.9979 -13.4565
# 4 1.2503 -18.2061 0.5593 46.6034 1.5218 -3.9794
# 5 35.4954 12.1902 26.9979 1.5218 45.1600 -13.6185
# 6 -6.2614 1.9430 -13.4565 -3.9794 -13.6185 34.1516
#
#
#
# Elastic Compliance Matrix: (Units=1/GPa)
#
#
# Indices 1 2 3 4 5 6 
#
# 1 0.010788 0.002268 -0.004604 0.000651 -0.007193 -0.002757
# 2 0.002268 0.044550 -0.018114 0.016930 -0.006531 -0.009888
# 3 -0.004604 -0.018114 0.016719 -0.006640 0.000621 0.006248
# 4 0.000651 0.016930 -0.006640 0.028115 -0.002404 -0.001143
# 5 -0.007193 -0.006531 0.000621 -0.002404 0.032934 0.012150
# 6 -0.002757 -0.009888 0.006248 -0.001143 0.012150 0.036512
#
#
# Mechanical properties :
#
#
# Convention : Reuss Voigt Hill
#
# Bulk Modulus (GPa) = 32.09437 67.81545 49.95491
# Shear Modulus (GPa) = 22.63428 37.89053 30.26241
#
# Velocity S-wave (km/s) = 3.06060 3.95993 3.53895
# Velocity P-wave (km/s) = 5.07661 6.99812 6.11333
#
# Compressibility (1/GPa) = 0.03115811
#
# Stress axis : x y z
#
# Youngs Moduli (GPa) = 92.69154 22.44657 59.81221
#
# Poissons Ratio (x) = -0.05091 0.27536
# Poissons Ratio (y) = -0.21022 1.08344
# Poissons Ratio (z) = 0.42673 0.40660
#
# Static dielectric constant tensor:
#      x y z
#    x 1.988280 0.093750 -0.005110 
#    y 0.093750 1.989320 0.051520 
#    z -0.005110 0.051520 2.039590 
# 
# From -- ./inp_files/104545.got.cif
#   From: 2010.05.17/outbox.cif.g08.bks.cpg/sg2_53_cif.got.tgz:104545.got - 2010.06.03 11:33:40.
