data_PCOD9040896
_publ_section_title
;
Structure prediction by ZEFSAII (Michael W. Deem and Ramdas Pophale) SiO2 
 PCOD9040896
Probable space group: P -1
;
_chemical_formula_sum "Si O2"
_cell_formula_units_Z 16
_cell_length_a 22.884956
_cell_length_b 9.745591
_cell_length_c 14.668777
_cell_angle_alpha 141.826797
_cell_angle_beta 144.421960
_cell_angle_gamma 25.329546
_cell_volume 797.042814
_symmetry_space_group_name_H-M "P -1"
_symmetry_group_IT_number 2
_symmetry_cell_setting 'triclinic'
loop_
_space_group_symop_operation_xyz
x,y,z
-x,-y,-z
loop_
_atom_site_type_symbol
_atom_site_label
_atom_site_fract_x
_atom_site_fract_y
_atom_site_fract_z
Si Si1 0.231023 0.548006 0.793001
Si Si2 0.282874 0.742876 0.633264
Si Si3 0.016586 0.563137 0.451139
Si Si4 0.645762 0.811951 0.648666
Si Si5 0.350129 0.106714 0.882824
Si Si6 0.891876 0.782816 0.936014
Si Si7 0.950312 0.333532 0.107263
Si Si8 0.447915 0.347854 0.818925
O O1 0.256494 0.334021 0.794815
O O2 0.379128 0.344567 0.817502
O O3 0.123171 0.599519 0.613266
O O4 0.172561 0.877462 0.930574
O O5 0.279821 0.548251 0.455000
O O6 0.329121 0.580273 0.707020
O O7 0.125427 0.112139 0.613135
O O8 0.388731 0.782009 0.766773
O O9 0.047992 0.300487 0.291197
O O10 0.000000 0.500000 0.500000
O O11 0.757320 0.827688 0.768905
O O12 0.500000 0.000000 0.500000
O O13 0.581127 0.993435 0.758023
O O14 0.228490 0.356214 0.938596
O O15 0.500000 0.000000 0.000000
O O16 0.994237 0.658555 0.913508
O O17 0.000000 0.500000 0.000000
O O18 0.000000 0.000000 0.000000
O O19 0.500000 0.500000 0.000000
#
# Coordination Sequence:
#
# PCOD9040896 Si02
#       8
#     2   2   2   2   2   2   2   2
#     4  12  24  43  68 100 134 181 225 290 343 405
#     4  10  23  43  69  95 134 180 223 278 343 417
#     4  11  22  43  66  96 137 172 230 280 338 401
#     4  10  24  43  64  99 139 176 223 283 348 415
#     4  11  24  44  71  98 137 180 231 280 350 414
#     4  12  26  43  70 101 138 179 236 287 344 418
#     4  11  24  44  70 100 135 183 227 284 350 406
#     4  11  23  42  68  98 137 174 223 278 348 412
#
# _framework density 20.074204999999999
#
# number of rings (size 3 to 8) (size 9 to 14) (size 15 to 20)
#    0.000    1.000    5.000    1.500    8.750    1.500 
#    0.000    0.625    0.000    0.000    0.000    0.000 
#    0.000    0.000    0.000    0.000    0.000    0.000 
#
# Total GULP energy -89149.407963 kJ/mol
# GULP energy per Si atom -5571.837998 kJ/mol
# Density = 2.002852 g / cm^3
# Si number density = 20.074205 Si / 1000 Ang^3
#
#
#
# Elastic Constant Matrix: (Units=GPa)
#
#
# Indices 1 2 3 4 5 6 
#
# 1 155.4161 19.5029 39.2185 8.8574 -3.7741 -14.8156
# 2 19.5029 44.8420 22.0905 6.2075 -4.3229 -1.3818
# 3 39.2185 22.0905 150.3429 18.2570 7.3857 -18.6108
# 4 8.8574 6.2075 18.2570 43.3377 -6.0888 2.2743
# 5 -3.7741 -4.3229 7.3857 -6.0888 40.0585 -6.1877
# 6 -14.8156 -1.3818 -18.6108 2.2743 -6.1877 39.3613
#
#
#
# Elastic Compliance Matrix: (Units=1/GPa)
#
#
# Indices 1 2 3 4 5 6 
#
# 1 0.007316 -0.002317 -0.001258 -0.000622 0.000926 0.002259
# 2 -0.002317 0.025311 -0.003206 -0.001364 0.002744 -0.000989
# 3 -0.001258 -0.003206 0.008344 -0.003249 -0.001997 0.003233
# 4 -0.000622 -0.001364 -0.003249 0.025447 0.003847 -0.002684
# 5 0.000926 0.002744 -0.001997 0.003847 0.026840 0.003497
# 6 0.002259 -0.000989 0.003233 -0.002684 0.003497 0.028454
#
#
# Mechanical properties :
#
#
# Convention : Reuss Voigt Hill
#
# Bulk Modulus (GPa) = 36.48729 56.91388 46.70058
# Shear Modulus (GPa) = 34.62358 42.53744 38.58051
#
# Velocity S-wave (km/s) = 4.15755 4.60826 4.38870
# Velocity P-wave (km/s) = 6.42360 7.53181 6.99967
#
# Compressibility (1/GPa) = 0.02740680
#
# Stress axis : x y z
#
# Youngs Moduli (GPa) = 136.68907 39.50916 119.85216
#
# Poissons Ratio (x) = 0.09155 0.15081
# Poissons Ratio (y) = 0.31672 0.38428
# Poissons Ratio (z) = 0.17200 0.12668
#
# Static dielectric constant tensor:
#      x y z
#    x 1.730740 -0.035220 0.043840 
#    y -0.035220 1.839220 -0.025670 
#    z 0.043840 -0.025670 1.863570 
# 
# From -- ./inp_files/540587.got.cif
#   From: 2010.05.17/outbox.cif.g08.bks.cpg/sg2_271_cif.got.tgz:540587.got - 2010.06.03 11:33:40.
