data_PCOD9040867
_publ_section_title
;
Structure prediction by ZEFSAII (Michael W. Deem and Ramdas Pophale) SiO2 
 PCOD9040867
Probable space group: P -1
;
_chemical_formula_sum "Si O2"
_cell_formula_units_Z 14
_cell_length_a 8.073444
_cell_length_b 9.199180
_cell_length_c 10.345745
_cell_angle_alpha 105.782903
_cell_angle_beta 64.736365
_cell_angle_gamma 68.732241
_cell_volume 558.373164
_symmetry_space_group_name_H-M "P -1"
_symmetry_group_IT_number 2
_symmetry_cell_setting 'triclinic'
loop_
_space_group_symop_operation_xyz
x,y,z
-x,-y,-z
loop_
_atom_site_type_symbol
_atom_site_label
_atom_site_fract_x
_atom_site_fract_y
_atom_site_fract_z
Si Si1 0.309697 0.705386 0.767185
Si Si2 0.255768 0.338834 0.385275
Si Si3 0.576523 0.647472 0.218421
Si Si4 0.809308 0.744763 0.352455
Si Si5 0.873899 0.135676 0.689386
Si Si6 0.129532 0.033291 0.107381
Si Si7 0.209084 0.331615 0.106950
O O1 0.556876 0.629790 0.624099
O O2 0.311462 0.542374 0.792411
O O3 0.130127 0.816256 0.743495
O O4 0.208739 0.864695 0.946688
O O5 0.266415 0.207439 0.461385
O O6 0.317718 0.284920 0.201976
O O7 0.000000 0.500000 0.500000
O O8 0.617340 0.775677 0.327969
O O9 0.335020 0.698833 0.272779
O O10 0.681815 0.639309 0.044116
O O11 0.960216 0.820824 0.287881
O O12 0.982148 0.526760 0.242508
O O13 0.785873 0.054236 0.802187
O O14 0.000000 0.000000 0.500000
O O15 0.195117 0.159256 0.048127
#
# Coordination Sequence:
#
# PCOD9040867 Si02
#       7
#     2   2   2   2   2   2   2
#     4  11  25  45  74 105 145 190 241 298 364 433
#     4  10  23  43  69 104 141 187 239 297 356 428
#     4  12  26  47  79 106 141 199 243 298 361 433
#     4  11  25  46  76 105 144 191 242 296 360 439
#     4  12  29  49  70 107 152 188 241 304 365 433
#     4  11  26  45  71 109 148 185 239 305 364 427
#     4  11  23  46  74 107 145 184 246 297 360 431
#
# _framework density 25.072838000000001
#
# number of rings (size 3 to 8) (size 9 to 14) (size 15 to 20)
#    0.000    0.857    1.429    4.714    6.000    7.429 
#    0.000    0.000    0.000    0.000    0.000    0.000 
#    0.000    0.000    0.000    0.000    0.000    0.000 
#
# Total GULP energy -78192.024599 kJ/mol
# GULP energy per Si atom -5585.144614 kJ/mol
# Density = 2.501577 g / cm^3
# Si number density = 25.072838 Si / 1000 Ang^3
#
#
#
# Elastic Constant Matrix: (Units=GPa)
#
#
# Indices 1 2 3 4 5 6 
#
# 1 87.2332 25.3000 10.0890 8.3617 -26.4673 -0.0562
# 2 25.3000 111.3386 20.6077 3.7335 -12.0285 6.0152
# 3 10.0890 20.6077 50.4468 -21.0915 -0.8207 -0.1510
# 4 8.3617 3.7335 -21.0915 32.3040 1.5528 1.9078
# 5 -26.4673 -12.0285 -0.8207 1.5528 25.5767 -2.2520
# 6 -0.0562 6.0152 -0.1510 1.9078 -2.2520 44.9374
#
#
#
# Elastic Compliance Matrix: (Units=1/GPa)
#
#
# Indices 1 2 3 4 5 6 
#
# 1 0.020128 -0.000412 -0.008434 -0.011785 0.021222 0.001616
# 2 -0.000412 0.011106 -0.006799 -0.005788 0.004840 -0.001022
# 3 -0.008434 -0.006799 0.035201 0.026595 -0.012475 -0.000737
# 4 -0.011785 -0.005788 0.026595 0.053014 -0.017483 -0.002277
# 5 0.021222 0.004840 -0.012475 -0.017483 0.064287 0.003301
# 6 0.001616 -0.001022 -0.000737 -0.002277 0.003301 0.022652
#
#
# Mechanical properties :
#
#
# Convention : Reuss Voigt Hill
#
# Bulk Modulus (GPa) = 28.45342 40.11244 34.28293
# Shear Modulus (GPa) = 20.04868 33.43173 26.74021
#
# Velocity S-wave (km/s) = 2.83082 3.65551 3.26928
# Velocity P-wave (km/s) = 4.69656 5.81809 5.28714
#
# Compressibility (1/GPa) = 0.03514516
#
# Stress axis : x y z
#
# Youngs Moduli (GPa) = 49.68141 90.04336 28.40835
#
# Poissons Ratio (x) = 0.03711 0.23960
# Poissons Ratio (y) = 0.02047 0.19314
# Poissons Ratio (z) = 0.41902 0.61217
#
# Static dielectric constant tensor:
#      x y z
#    x 2.199130 -0.040570 -0.066230 
#    y -0.040570 1.940820 0.065670 
#    z -0.066230 0.065670 2.010760 
# 
# From -- ./inp_files/379420.got.cif
#   From: 2010.05.17/outbox.cif.g08.bks.cpg/sg2_190_cif.got.tgz:379420.got - 2010.06.03 11:33:40.
