data_PCOD9040854
_publ_section_title
;
Structure prediction by ZEFSAII (Michael W. Deem and Ramdas Pophale) SiO2 
 PCOD9040854
Probable space group: P -1
;
_chemical_formula_sum "Si O2"
_cell_formula_units_Z 16
_cell_length_a 14.910389
_cell_length_b 16.299765
_cell_length_c 17.695445
_cell_angle_alpha 155.074785
_cell_angle_beta 21.606536
_cell_angle_gamma 150.344577
_cell_volume 658.048539
_symmetry_space_group_name_H-M "P -1"
_symmetry_group_IT_number 2
_symmetry_cell_setting 'triclinic'
loop_
_space_group_symop_operation_xyz
x,y,z
-x,-y,-z
loop_
_atom_site_type_symbol
_atom_site_label
_atom_site_fract_x
_atom_site_fract_y
_atom_site_fract_z
Si Si1 0.064039 0.292516 0.533296
Si Si2 0.741308 0.401994 0.651187
Si Si3 0.763167 0.562892 0.938086
Si Si4 0.433125 0.004169 0.356021
Si Si5 0.941751 0.721525 0.144454
Si Si6 0.759299 0.979312 0.222201
Si Si7 0.923983 0.253985 0.769561
Si Si8 0.374156 0.026786 0.982728
O O1 0.245055 0.210470 0.265437
O O2 0.748446 0.460961 0.782319
O O3 0.792061 0.170232 0.630040
O O4 0.107322 0.244656 0.546875
O O5 0.519563 0.486914 0.853118
O O6 0.731288 0.171633 0.451715
O O7 0.000000 0.500000 0.500000
O O8 0.705131 0.806909 0.370486
O O9 0.778683 0.793885 0.104081
O O10 0.000786 0.509761 0.749953
O O11 0.554873 0.958028 0.299439
O O12 0.613645 0.014225 0.150657
O O13 0.891606 0.484441 0.982029
O O14 0.962227 0.773293 0.260913
O O15 0.197006 0.839839 0.005737
O O16 0.000000 0.000000 0.000000
O O17 0.663681 0.103477 0.841481
#
# Coordination Sequence:
#
# PCOD9040854 Si02
#       8
#     2   2   2   2   2   2   2   2
#     4  10  24  42  69  99 134 176 226 279 338 408
#     4  11  24  44  67  95 132 176 233 284 341 403
#     4  11  25  44  67  96 135 181 226 281 338 401
#     4  10  24  45  65  99 137 172 229 282 336 406
#     4  10  23  44  70 101 137 176 223 283 340 419
#     4  12  26  44  68 100 135 186 229 282 342 406
#     4  10  23  43  69 103 137 174 225 279 345 410
#     4  10  23  43  70  98 136 182 223 277 347 408
#
# _framework density 24.314314
#
# number of rings (size 3 to 8) (size 9 to 14) (size 15 to 20)
#    0.000    1.500    1.250    2.250    3.500    9.500 
#    0.000    2.500    0.000    0.000    0.000    0.000 
#    0.000    0.000    0.000    0.000    0.000    0.000 
#
# Total GULP energy -89440.683276 kJ/mol
# GULP energy per Si atom -5590.042705 kJ/mol
# Density = 2.425897 g / cm^3
# Si number density = 24.314314 Si / 1000 Ang^3
#
#
#
# Elastic Constant Matrix: (Units=GPa)
#
#
# Indices 1 2 3 4 5 6 
#
# 1 76.8506 21.7495 11.5702 -6.2649 12.6474 -5.4039
# 2 21.7495 99.5198 40.5735 14.6238 4.4377 -6.3112
# 3 11.5702 40.5735 117.4274 -0.2467 11.2390 -13.3267
# 4 -6.2649 14.6238 -0.2467 48.3115 -7.1221 4.8521
# 5 12.6474 4.4377 11.2390 -7.1221 33.4244 7.1466
# 6 -5.4039 -6.3112 -13.3267 4.8521 7.1466 30.0365
#
#
#
# Elastic Compliance Matrix: (Units=1/GPa)
#
#
# Indices 1 2 3 4 5 6 
#
# 1 0.015223 -0.003362 0.000614 0.001787 -0.005869 0.003413
# 2 -0.003362 0.013216 -0.004075 -0.004630 -0.000355 0.001196
# 3 0.000614 -0.004075 0.010860 0.000212 -0.004385 0.005082
# 4 0.001787 -0.004630 0.000212 0.023839 0.006205 -0.005885
# 5 -0.005869 -0.000355 -0.004385 0.006205 0.037777 -0.013066
# 6 0.003413 0.001196 0.005082 -0.005885 -0.013066 0.040472
#
#
# Mechanical properties :
#
#
# Convention : Reuss Voigt Hill
#
# Bulk Modulus (GPa) = 38.97984 49.06488 44.02236
# Shear Modulus (GPa) = 30.56531 37.01476 33.79004
#
# Velocity S-wave (km/s) = 3.54939 3.90596 3.73194
# Velocity P-wave (km/s) = 5.73272 6.36908 6.05926
#
# Compressibility (1/GPa) = 0.02565429
#
# Stress axis : x y z
#
# Youngs Moduli (GPa) = 65.69113 75.66342 92.07861
#
# Poissons Ratio (x) = 0.25436 -0.05658
# Poissons Ratio (y) = 0.22084 0.37525
# Poissons Ratio (z) = -0.04037 0.30835
#
# Static dielectric constant tensor:
#      x y z
#    x 1.957550 -0.017430 -0.025960 
#    y -0.017430 2.061360 0.024730 
#    z -0.025960 0.024730 1.967390 
# 
# From -- ./inp_files/521720.got.cif
#   From: 2010.05.17/outbox.cif.g08.bks.cpg/sg2_261_cif.got.tgz:521720.got - 2010.06.03 11:33:40.
