data_PCOD9040573
_publ_section_title
;
Structure prediction by ZEFSAII (Michael W. Deem and Ramdas Pophale) SiO2 
 PCOD9040573
Probable space group: P -1
;
_chemical_formula_sum "Si O2"
_cell_formula_units_Z 16
_cell_length_a 12.813998
_cell_length_b 13.220336
_cell_length_c 15.041801
_cell_angle_alpha 28.477293
_cell_angle_beta 58.189798
_cell_angle_gamma 41.587120
_cell_volume 734.889756
_symmetry_space_group_name_H-M "P -1"
_symmetry_group_IT_number 2
_symmetry_cell_setting 'triclinic'
loop_
_space_group_symop_operation_xyz
x,y,z
-x,-y,-z
loop_
_atom_site_type_symbol
_atom_site_label
_atom_site_fract_x
_atom_site_fract_y
_atom_site_fract_z
Si Si1 0.063960 0.243123 0.600272
Si Si2 0.867601 0.687928 0.834584
Si Si3 0.966386 0.571921 0.225477
Si Si4 0.458397 0.162238 0.120869
Si Si5 0.666294 0.251595 0.860754
Si Si6 0.546320 0.114369 0.315018
Si Si7 0.526951 0.307766 0.556071
Si Si8 0.809668 0.294611 0.935673
O O1 0.000000 0.500000 0.500000
O O2 0.952464 0.411090 0.432061
O O3 0.262773 0.032080 0.643560
O O4 0.071278 0.012512 0.826228
O O5 0.744989 0.626859 0.934350
O O6 0.962573 0.597138 0.768769
O O7 0.727936 0.042652 0.641214
O O8 0.000000 0.500000 0.000000
O O9 0.103329 0.581399 0.193556
O O10 0.792047 0.916187 0.026953
O O11 0.545876 0.028908 0.280783
O O12 0.512197 0.890437 0.249525
O O13 0.516471 0.308281 0.937688
O O14 0.585716 0.483722 0.638509
O O15 0.771832 0.257458 0.882221
O O16 0.500000 0.000000 0.500000
O O17 0.381802 0.468244 0.119494
O O18 0.500000 0.500000 0.500000
#
# Coordination Sequence:
#
# PCOD9040573 Si02
#       8
#     2   2   2   2   2   2   2   2
#     4  12  25  40  61  99 143 176 223 266 331 395
#     4  10  23  48  71  92 133 171 222 287 336 387
#     4  12  25  43  64 100 139 180 217 282 328 393
#     4  10  23  43  67  97 130 169 220 276 329 397
#     4  12  25  40  70  98 132 178 221 267 337 398
#     4  12  21  40  66  94 136 180 217 270 326 402
#     4  10  24  45  71  95 128 172 227 276 339 397
#     4  12  24  39  68  98 139 180 221 261 336 401
#
# _framework density 21.771972999999999
#
# number of rings (size 3 to 8) (size 9 to 14) (size 15 to 20)
#    0.750    0.000    5.000    2.250    1.750    1.500 
#    0.000    0.625    0.000    0.000    0.000    0.000 
#    0.000    0.000    0.000    0.000    0.000    0.000 
#
# Total GULP energy -89403.529389 kJ/mol
# GULP energy per Si atom -5587.720587 kJ/mol
# Density = 2.172242 g / cm^3
# Si number density = 21.771973 Si / 1000 Ang^3
#
#
#
# Elastic Constant Matrix: (Units=GPa)
#
#
# Indices 1 2 3 4 5 6 
#
# 1 30.8448 -0.4247 18.4124 13.8792 9.2720 15.8627
# 2 -0.4247 105.8276 20.4548 -9.8614 6.8746 20.0834
# 3 18.4124 20.4548 132.3682 -3.0451 19.4549 13.3559
# 4 13.8792 -9.8614 -3.0451 43.5840 -1.6417 -0.3428
# 5 9.2720 6.8746 19.4549 -1.6417 28.1447 -0.2714
# 6 15.8627 20.0834 13.3559 -0.3428 -0.2714 45.2033
#
#
#
# Elastic Compliance Matrix: (Units=1/GPa)
#
#
# Indices 1 2 3 4 5 6 
#
# 1 0.061802 0.004896 -0.004610 -0.019818 -0.019745 -0.022770
# 2 0.004896 0.011207 -0.001240 0.000708 -0.003513 -0.006347
# 3 -0.004610 -0.001240 0.009126 0.001655 -0.004396 -0.000542
# 4 -0.019818 0.000708 0.001655 0.029846 0.007015 0.006419
# 5 -0.019745 -0.003513 -0.004396 0.007015 0.046439 0.010121
# 6 -0.022770 -0.006347 -0.000542 0.006419 0.010121 0.033202
#
#
# Mechanical properties :
#
#
# Convention : Reuss Voigt Hill
#
# Bulk Modulus (GPa) = 12.46433 38.43617 25.45025
# Shear Modulus (GPa) = 22.69920 38.75963 30.72941
#
# Velocity S-wave (km/s) = 3.23242 4.22388 3.76096
# Velocity P-wave (km/s) = 4.43494 6.44054 5.52943
#
# Compressibility (1/GPa) = 0.08022892
#
# Stress axis : x y z
#
# Youngs Moduli (GPa) = 16.18065 89.22777 109.57347
#
# Poissons Ratio (x) = -0.43687 0.50510
# Poissons Ratio (y) = -0.07922 0.13586
# Poissons Ratio (z) = 0.07459 0.11063
#
# Static dielectric constant tensor:
#      x y z
#    x 1.816160 -0.022090 -0.023930 
#    y -0.022090 1.817900 -0.045300 
#    z -0.023930 -0.045300 1.695030 
# 
# From -- ./inp_files/533153.got.cif
#   From: 2010.05.17/outbox.cif.g08.bks.cpg/sg2_267_cif.got.tgz:533153.got - 2010.06.03 11:33:40.
