data_PCOD9040488
_publ_section_title
;
Structure prediction by ZEFSAII (Michael W. Deem and Ramdas Pophale) SiO2 
 PCOD9040488
Probable space group: P -1
;
_chemical_formula_sum "Si O2"
_cell_formula_units_Z 16
_cell_length_a 11.503430
_cell_length_b 12.129487
_cell_length_c 11.233978
_cell_angle_alpha 108.893273
_cell_angle_beta 71.124921
_cell_angle_gamma 155.216637
_cell_volume 619.946063
_symmetry_space_group_name_H-M "P -1"
_symmetry_group_IT_number 2
_symmetry_cell_setting 'triclinic'
loop_
_space_group_symop_operation_xyz
x,y,z
-x,-y,-z
loop_
_atom_site_type_symbol
_atom_site_label
_atom_site_fract_x
_atom_site_fract_y
_atom_site_fract_z
Si Si1 0.762278 0.445647 0.581283
Si Si2 0.422275 0.594003 0.148789
Si Si3 0.185570 0.744051 0.352047
Si Si4 0.127749 0.201628 0.909095
Si Si5 0.689283 0.227890 0.175670
Si Si6 0.781948 0.680477 0.337290
Si Si7 0.685240 0.842418 0.537952
Si Si8 0.396872 0.094769 0.001837
O O1 0.735712 0.522338 0.716130
O O2 0.744366 0.312435 0.615069
O O3 0.497941 0.232697 0.510135
O O4 0.026088 0.677374 0.488556
O O5 0.732849 0.807547 0.144108
O O6 0.439790 0.722985 0.105360
O O7 0.251099 0.358830 0.043335
O O8 0.451641 0.008481 0.278585
O O9 0.949181 0.508869 0.251284
O O10 0.243435 0.360319 0.807508
O O11 0.808694 0.971099 0.928026
O O12 0.754246 0.154442 0.074867
O O13 0.073831 0.891862 0.372926
O O14 0.574212 0.207713 0.097342
O O15 0.791560 0.827150 0.414058
O O16 0.527532 0.402760 0.388543
#
# Coordination Sequence:
#
# PCOD9040488 Si02
#       8
#     2   2   2   2   2   2   2   2
#     4  11  24  46  73 102 150 189 241 300 370 428
#     4  11  24  49  67 111 147 193 243 295 370 435
#     4  11  27  47  74 108 139 190 245 303 365 433
#     4  11  25  43  74 105 147 196 242 295 360 443
#     4  11  27  49  76 107 143 187 251 303 364 423
#     4  10  23  43  67 103 138 180 243 284 355 416
#     4  10  23  43  68 100 139 187 229 298 348 422
#     4  11  26  44  75 101 148 190 241 306 358 432
#
# _framework density 25.808695
#
# number of rings (size 3 to 8) (size 9 to 14) (size 15 to 20)
#    0.000    1.250    2.500    1.125    7.000    4.000 
#    4.500    0.000    0.000    0.000    0.000    0.000 
#    0.000    0.000    0.000    0.000    0.000    0.000 
#
# Total GULP energy -89611.329848 kJ/mol
# GULP energy per Si atom -5600.708116 kJ/mol
# Density = 2.574995 g / cm^3
# Si number density = 25.808695 Si / 1000 Ang^3
#
#
#
# Elastic Constant Matrix: (Units=GPa)
#
#
# Indices 1 2 3 4 5 6 
#
# 1 105.6171 16.1646 51.6497 -6.6719 17.2530 20.9028
# 2 16.1646 76.7209 31.5320 -11.3919 5.9321 1.7000
# 3 51.6497 31.5320 159.1692 5.7146 13.6926 10.9179
# 4 -6.6719 -11.3919 5.7146 18.8448 -0.4650 -3.2059
# 5 17.2530 5.9321 13.6926 -0.4650 45.0733 -1.4164
# 6 20.9028 1.7000 10.9179 -3.2059 -1.4164 31.5386
#
#
#
# Elastic Compliance Matrix: (Units=1/GPa)
#
#
# Indices 1 2 3 4 5 6 
#
# 1 0.013805 -0.000218 -0.003705 0.004481 -0.004323 -0.007594
# 2 -0.000218 0.016222 -0.003581 0.011067 -0.000799 0.001599
# 3 -0.003705 -0.003581 0.008556 -0.006258 -0.000805 -0.000986
# 4 0.004481 0.011067 -0.006258 0.064095 -0.000449 0.005096
# 5 -0.004323 -0.000799 -0.000805 -0.000449 0.024319 0.004233
# 6 -0.007594 0.001599 -0.000986 0.005096 0.004233 0.037704
#
#
# Mechanical properties :
#
#
# Convention : Reuss Voigt Hill
#
# Bulk Modulus (GPa) = 42.41793 60.02219 51.22006
# Shear Modulus (GPa) = 26.65716 35.23540 30.94628
#
# Velocity S-wave (km/s) = 3.21732 3.69894 3.46651
# Velocity P-wave (km/s) = 5.50207 6.44593 5.99261
#
# Compressibility (1/GPa) = 0.02357494
#
# Stress axis : x y z
#
# Youngs Moduli (GPa) = 72.43553 61.64575 116.88028
#
# Poissons Ratio (x) = 0.01346 0.43300
# Poissons Ratio (y) = 0.01581 0.41855
# Poissons Ratio (z) = 0.26835 0.22076
#
# Static dielectric constant tensor:
#      x y z
#    x 2.133060 -0.024600 -0.113270 
#    y -0.024600 2.024400 -0.008100 
#    z -0.113270 -0.008100 2.010880 
# 
# From -- ./inp_files/431511.got.cif
#   From: 2010.05.17/outbox.cif.g08.bks.cpg/sg2_216_cif.got.tgz:431511.got - 2010.06.03 11:33:40.
