data_PCOD9040091
_publ_section_title
;
Structure prediction by ZEFSAII (Michael W. Deem and Ramdas Pophale) SiO2 
 PCOD9040091
Probable space group: P -1
;
_chemical_formula_sum "Si O2"
_cell_formula_units_Z 16
_cell_length_a 26.738046
_cell_length_b 6.910349
_cell_length_c 12.903067
_cell_angle_alpha 111.134192
_cell_angle_beta 155.845711
_cell_angle_gamma 63.416866
_cell_volume 864.964756
_symmetry_space_group_name_H-M "P -1"
_symmetry_group_IT_number 2
_symmetry_cell_setting 'triclinic'
loop_
_space_group_symop_operation_xyz
x,y,z
-x,-y,-z
loop_
_atom_site_type_symbol
_atom_site_label
_atom_site_fract_x
_atom_site_fract_y
_atom_site_fract_z
Si Si1 0.949958 0.778564 0.573182
Si Si2 0.731353 0.885447 0.347139
Si Si3 0.522801 0.293974 0.927240
Si Si4 0.644397 0.482272 0.798654
Si Si5 0.837713 0.696163 0.132053
Si Si6 0.570833 0.595800 0.911274
Si Si7 0.326144 0.022405 0.511321
Si Si8 0.832290 0.014730 0.995037
O O1 0.860624 0.806576 0.510078
O O2 0.868340 0.800534 0.317063
O O3 0.052632 0.536992 0.717883
O O4 0.031274 0.947058 0.758808
O O5 0.639844 0.099460 0.157511
O O6 0.741266 0.939117 0.496504
O O7 0.655085 0.707592 0.161760
O O8 0.551834 0.386063 0.890228
O O9 0.404460 0.196209 0.679088
O O10 0.500000 0.500000 0.000000
O O11 0.500000 0.500000 0.500000
O O12 0.643382 0.533654 0.928083
O O13 0.736673 0.242857 0.900702
O O14 0.702468 0.648787 0.880538
O O15 0.841145 0.839218 0.066850
O O16 0.434329 0.783151 0.671437
O O17 0.228969 0.038012 0.236760
#
# Coordination Sequence:
#
# PCOD9040091 Si02
#       8
#     2   2   2   2   2   2   2   2
#     4  10  23  43  62  84 116 164 208 252 289 345
#     4  11  22  40  64  90 120 160 204 245 295 358
#     4  11  21  37  63  92 119 161 196 242 305 360
#     4  11  23  38  63  94 125 156 190 249 310 359
#     4  10  23  44  61  86 122 158 206 251 291 354
#     4  11  21  39  59  93 127 153 198 245 302 361
#     4  11  23  39  59  91 131 152 195 253 298 360
#     4  11  25  40  61  92 122 162 199 246 304 352
#
# _framework density 18.497862999999999
#
# number of rings (size 3 to 8) (size 9 to 14) (size 15 to 20)
#    0.000    1.250    5.000    1.125    3.500    2.000 
#    0.000    0.625    0.000    0.000    0.000    0.000 
#    0.000    0.000    0.000    0.000    0.000    0.000 
#
# Total GULP energy -89391.245947 kJ/mol
# GULP energy per Si atom -5586.952872 kJ/mol
# Density = 1.845576 g / cm^3
# Si number density = 18.497863 Si / 1000 Ang^3
#
#
#
# Elastic Constant Matrix: (Units=GPa)
#
#
# Indices 1 2 3 4 5 6 
#
# 1 126.5827 44.3949 48.3991 9.1207 -5.2114 17.8150
# 2 44.3949 92.9183 45.0102 17.5981 -4.8149 32.0672
# 3 48.3991 45.0102 105.8892 17.3909 -0.5990 15.3570
# 4 9.1207 17.5981 17.3909 15.4170 3.0306 -0.7386
# 5 -5.2114 -4.8149 -0.5990 3.0306 34.0809 4.0216
# 6 17.8150 32.0672 15.3570 -0.7386 4.0216 37.6304
#
#
#
# Elastic Compliance Matrix: (Units=1/GPa)
#
#
# Indices 1 2 3 4 5 6 
#
# 1 0.010422 -0.003094 -0.003465 0.001007 0.001122 -0.000983
# 2 -0.003094 0.026753 -0.001905 -0.029281 0.008477 -0.022036
# 3 -0.003465 -0.001905 0.014260 -0.012172 0.000875 -0.002889
# 4 0.001007 -0.029281 -0.012172 0.116683 -0.018551 0.033715
# 5 0.001122 0.008477 0.000875 -0.018551 0.033803 -0.012089
# 6 -0.000983 -0.022036 -0.002889 0.033715 -0.012089 0.048951
#
#
# Mechanical properties :
#
#
# Convention : Reuss Voigt Hill
#
# Bulk Modulus (GPa) = 28.97923 66.77761 47.87842
# Shear Modulus (GPa) = 17.90175 29.93140 23.91658
#
# Velocity S-wave (km/s) = 3.11428 4.02693 3.59964
# Velocity P-wave (km/s) = 5.35088 7.60263 6.57389
#
# Compressibility (1/GPa) = 0.03450747
#
# Stress axis : x y z
#
# Youngs Moduli (GPa) = 95.95090 37.37889 70.12558
#
# Poissons Ratio (x) = 0.11567 0.24297
# Poissons Ratio (y) = 0.29691 0.13357
# Poissons Ratio (z) = 0.33245 0.07119
#
# Static dielectric constant tensor:
#      x y z
#    x 1.634290 -0.005650 -0.004160 
#    y -0.005650 1.628470 0.013550 
#    z -0.004160 0.013550 1.631840 
# 
# From -- ./inp_files/473433.got.cif
#   From: 2010.05.17/outbox.cif.g08.bks.cpg/sg2_237_cif.got.tgz:473433.got - 2010.06.03 11:33:40.
