data_PCOD9040834
_publ_section_title
;
Structure prediction by ZEFSAII (Michael W. Deem and Ramdas Pophale) SiO2 
 PCOD9040834
Probable space group: P -1
;
_chemical_formula_sum "Si O2"
_cell_formula_units_Z 16
_cell_length_a 11.129412
_cell_length_b 12.810363
_cell_length_c 10.866649
_cell_angle_alpha 72.580732
_cell_angle_beta 46.437548
_cell_angle_gamma 106.716273
_cell_volume 749.521144
_symmetry_space_group_name_H-M "P -1"
_symmetry_group_IT_number 2
_symmetry_cell_setting 'triclinic'
loop_
_space_group_symop_operation_xyz
x,y,z
-x,-y,-z
loop_
_atom_site_type_symbol
_atom_site_label
_atom_site_fract_x
_atom_site_fract_y
_atom_site_fract_z
Si Si1 0.326120 0.406276 0.774250
Si Si2 0.785927 0.623389 0.492262
Si Si3 0.464187 0.962183 0.395170
Si Si4 0.638297 0.890515 0.765223
Si Si5 0.959128 0.634068 0.812665
Si Si6 0.091620 0.210640 0.406005
Si Si7 0.114387 0.586797 0.259848
Si Si8 0.985246 0.120595 0.946230
O O1 0.500000 0.500000 0.500000
O O2 0.521621 0.456381 0.715283
O O3 0.106135 0.232873 0.941316
O O4 0.199839 0.445721 0.923408
O O5 0.833536 0.670477 0.583364
O O6 0.849349 0.764492 0.325095
O O7 0.966923 0.622206 0.307980
O O8 0.238734 0.777113 0.594391
O O9 0.500000 0.000000 0.500000
O O10 0.404000 0.049523 0.342071
O O11 0.714934 0.031578 0.147610
O O12 0.755571 0.827779 0.679744
O O13 0.379964 0.745200 0.048481
O O14 0.819827 0.042467 0.669757
O O15 0.894883 0.717319 0.757159
O O16 0.901901 0.511142 0.800634
O O17 0.000000 0.500000 0.500000
O O18 0.000000 0.000000 0.000000
#
# Coordination Sequence:
#
# PCOD9040834 Si02
#       8
#     2   2   2   2   2   2   2   2
#     4  10  24  46  66  98 136 182 231 282 342 414
#     4  11  24  44  64  97 144 173 232 278 350 409
#     4  11  23  45  68  99 136 179 236 287 341 405
#     4  10  24  43  68  99 137 175 232 283 345 404
#     4  11  24  43  72 100 139 184 231 284 345 415
#     4  10  23  43  69 102 130 184 224 289 342 411
#     4  12  25  42  65 104 141 183 221 280 346 411
#     4  11  25  44  68  97 132 185 230 288 340 410
#
# _framework density 21.346962000000001
#
# number of rings (size 3 to 8) (size 9 to 14) (size 15 to 20)
#    0.000    1.250    3.750    0.750    5.250    3.500 
#    0.000    3.125    0.000    0.000    0.000    0.000 
#    0.000    0.000    0.000    0.000    0.000    0.000 
#
# Total GULP energy -89289.917070 kJ/mol
# GULP energy per Si atom -5580.619817 kJ/mol
# Density = 2.129838 g / cm^3
# Si number density = 21.346962 Si / 1000 Ang^3
#
#
#
# Elastic Constant Matrix: (Units=GPa)
#
#
# Indices 1 2 3 4 5 6 
#
# 1 87.8579 24.7900 27.2449 -6.0268 -23.3704 3.6801
# 2 24.7900 70.8210 13.2952 9.8004 -5.9006 6.4178
# 3 27.2449 13.2952 109.1287 0.8144 -23.0097 12.4529
# 4 -6.0268 9.8004 0.8144 17.2306 2.2761 4.8595
# 5 -23.3704 -5.9006 -23.0097 2.2761 44.5796 -0.6009
# 6 3.6801 6.4178 12.4529 4.8595 -0.6009 39.8777
#
#
#
# Elastic Compliance Matrix: (Units=1/GPa)
#
#
# Indices 1 2 3 4 5 6 
#
# 1 0.015834 -0.005747 -0.001930 0.008333 0.006107 -0.000857
# 2 -0.005747 0.017939 -0.000662 -0.011934 -0.000380 -0.000701
# 3 -0.001930 -0.000662 0.011043 -0.000574 0.004589 -0.003025
# 4 0.008333 -0.011934 -0.000574 0.069956 -0.001176 -0.007212
# 5 0.006107 -0.000380 0.004589 -0.001176 0.027993 -0.001370
# 6 -0.000857 -0.000701 -0.003025 -0.007212 -0.001370 0.027071
#
#
# Mechanical properties :
#
#
# Convention : Reuss Voigt Hill
#
# Bulk Modulus (GPa) = 35.53706 44.27420 39.90563
# Shear Modulus (GPa) = 25.52407 33.83607 29.68007
#
# Velocity S-wave (km/s) = 3.46161 3.98559 3.73281
# Velocity P-wave (km/s) = 5.71493 6.47806 6.10842
#
# Compressibility (1/GPa) = 0.02813964
#
# Stress axis : x y z
#
# Youngs Moduli (GPa) = 63.15508 55.74318 90.55570
#
# Poissons Ratio (x) = 0.32035 0.17474
# Poissons Ratio (y) = 0.36295 0.05993
# Poissons Ratio (z) = 0.12186 0.03689
#
# Static dielectric constant tensor:
#      x y z
#    x 1.839860 -0.022260 0.015980 
#    y -0.022260 1.754320 -0.002430 
#    z 0.015980 -0.002430 1.796960 
# 
# From -- ./inp_files/427959.got.cif
#   From: 2010.05.17/outbox.cif.g08.bks.cpg/sg2_214_cif.got.tgz:427959.got - 2010.06.03 11:33:40.
