data_PCOD9040986
_publ_section_title
;
Structure prediction by ZEFSAII (Michael W. Deem and Ramdas Pophale) SiO2 
 PCOD9040986
Probable space group: P -1
;
_chemical_formula_sum "Si O2"
_cell_formula_units_Z 12
_cell_length_a 5.194112
_cell_length_b 9.337096
_cell_length_c 12.048115
_cell_angle_alpha 57.140823
_cell_angle_beta 81.651931
_cell_angle_gamma 106.719447
_cell_volume 435.866159
_symmetry_space_group_name_H-M "P -1"
_symmetry_group_IT_number 2
_symmetry_cell_setting 'triclinic'
loop_
_space_group_symop_operation_xyz
x,y,z
-x,-y,-z
loop_
_atom_site_type_symbol
_atom_site_label
_atom_site_fract_x
_atom_site_fract_y
_atom_site_fract_z
Si Si1 0.836286 0.968908 0.408545
Si Si2 0.808699 0.607862 0.496931
Si Si3 0.708352 0.975628 0.085866
Si Si4 0.701519 0.320493 0.057728
Si Si5 0.504023 0.421680 0.793646
Si Si6 0.333460 0.715855 0.694027
O O1 0.922277 0.837057 0.377181
O O2 0.502859 0.827725 0.526824
O O3 0.848007 0.174000 0.301413
O O4 0.000000 0.000000 0.500000
O O5 0.500000 0.500000 0.500000
O O6 0.769195 0.585601 0.643340
O O7 0.000000 0.500000 0.500000
O O8 0.557969 0.753294 0.211136
O O9 0.753865 0.138186 0.100694
O O10 0.500000 0.000000 0.000000
O O11 0.000000 0.000000 0.000000
O O12 0.501361 0.267436 0.203449
O O13 0.566637 0.371955 0.934585
O O14 0.000000 0.500000 0.000000
O O15 0.252773 0.493975 0.771375
#
# Coordination Sequence:
#
# PCOD9040986 Si02
#       6
#     2   2   2   2   2   2
#     4  10  25  45  72 102 140 187 239 300 349 423
#     4  11  28  47  75 104 144 193 243 296 362 428
#     4  10  23  44  66  98 142 187 229 286 351 422
#     4  11  24  41  72 108 139 188 235 295 361 428
#     4  10  24  46  71 104 148 186 239 300 359 429
#     4  10  23  43  70 101 142 178 242 285 365 413
#
# _framework density 27.531383000000002
#
# number of rings (size 3 to 8) (size 9 to 14) (size 15 to 20)
#    0.000    1.667    0.000    1.500   14.000    4.000 
#    0.000    0.000    0.000    0.000    0.000    0.000 
#    0.000    0.000    0.000    0.000    0.000    0.000 
#
# Total GULP energy -66964.137734 kJ/mol
# GULP energy per Si atom -5580.344811 kJ/mol
# Density = 2.746872 g / cm^3
# Si number density = 27.531383 Si / 1000 Ang^3
#
#
#
# Elastic Constant Matrix: (Units=GPa)
#
#
# Indices 1 2 3 4 5 6 
#
# 1 129.5622 60.6950 13.6244 -7.2560 25.9832 -30.0915
# 2 60.6950 260.2480 27.7302 -41.5386 33.9817 -39.3718
# 3 13.6244 27.7302 95.5576 6.3563 23.1428 -11.2358
# 4 -7.2560 -41.5386 6.3563 62.3273 -8.9895 15.1052
# 5 25.9832 33.9817 23.1428 -8.9895 45.8152 -9.3638
# 6 -30.0915 -39.3718 -11.2358 15.1052 -9.3638 65.4523
#
#
#
# Elastic Compliance Matrix: (Units=1/GPa)
#
#
# Indices 1 2 3 4 5 6 
#
# 1 0.009973 -0.001510 0.000579 -0.001377 -0.004390 0.003466
# 2 -0.001510 0.005163 -0.000896 0.002779 -0.001694 0.001374
# 3 0.000579 -0.000896 0.012573 -0.003132 -0.006280 0.001710
# 4 -0.001377 0.002779 -0.003132 0.019390 0.003394 -0.003489
# 5 -0.004390 -0.001694 -0.006280 0.003394 0.029266 -0.000712
# 6 0.003466 0.001374 0.001710 -0.003489 -0.000712 0.018695
#
#
# Mechanical properties :
#
#
# Convention : Reuss Voigt Hill
#
# Bulk Modulus (GPa) = 41.57257 76.60744 59.09001
# Shear Modulus (GPa) = 46.84639 60.27352 53.55995
#
# Velocity S-wave (km/s) = 4.12948 4.68404 4.41547
# Velocity P-wave (km/s) = 6.15383 7.55907 6.89235
#
# Compressibility (1/GPa) = 0.02405432
#
# Stress axis : x y z
#
# Youngs Moduli (GPa) = 100.27003 193.69659 79.53816
#
# Poissons Ratio (x) = 0.29244 -0.04603
# Poissons Ratio (y) = 0.15139 0.07126
# Poissons Ratio (z) = -0.05802 0.17353
#
# Static dielectric constant tensor:
#      x y z
#    x 2.466290 0.098280 -0.205750 
#    y 0.098280 2.272600 -0.122960 
#    z -0.205750 -0.122960 2.368540 
# 
# From -- ./inp_files/293743.got.cif
#   From: 2010.05.17/outbox.cif.g08.bks.cpg/sg2_147_cif.got.tgz:293743.got - 2010.06.03 11:33:40.
