data_PCOD9040465
_publ_section_title
;
Structure prediction by ZEFSAII (Michael W. Deem and Ramdas Pophale) SiO2 
 PCOD9040465
Probable space group: P -1
;
_chemical_formula_sum "Si O2"
_cell_formula_units_Z 16
_cell_length_a 12.302646
_cell_length_b 4.980298
_cell_length_c 14.710714
_cell_angle_alpha 73.815019
_cell_angle_beta 130.858678
_cell_angle_gamma 119.747373
_cell_volume 590.425803
_symmetry_space_group_name_H-M "P -1"
_symmetry_group_IT_number 2
_symmetry_cell_setting 'triclinic'
loop_
_space_group_symop_operation_xyz
x,y,z
-x,-y,-z
loop_
_atom_site_type_symbol
_atom_site_label
_atom_site_fract_x
_atom_site_fract_y
_atom_site_fract_z
Si Si1 0.414841 0.262331 0.106691
Si Si2 0.191678 0.862410 0.867060
Si Si3 0.136949 0.338306 0.532764
Si Si4 0.267518 0.826851 0.413355
Si Si5 0.303551 0.756103 0.236390
Si Si6 0.773209 0.529626 0.237310
Si Si7 0.408373 0.390623 0.569411
Si Si8 0.116963 0.360181 0.007007
O O1 0.415896 0.064038 0.213862
O O2 0.280595 0.371609 0.052000
O O3 0.338354 0.041992 0.999073
O O4 0.406838 0.507550 0.842439
O O5 0.868140 0.456603 0.576059
O O6 0.234460 0.726404 0.813823
O O7 0.077832 0.565768 0.891874
O O8 0.299609 0.297321 0.607900
O O9 0.869086 0.879150 0.217738
O O10 0.160736 0.508887 0.625577
O O11 0.000000 0.000000 0.500000
O O12 0.245960 0.830564 0.293753
O O13 0.407974 0.714789 0.513719
O O14 0.308917 0.134692 0.464018
O O15 0.418850 0.590323 0.329304
O O16 0.168472 0.556045 0.109620
O O17 0.000000 0.000000 0.000000
#
# Coordination Sequence:
#
# PCOD9040465 Si02
#       8
#     2   2   2   2   2   2   2   2
#     4  11  25  44  75 105 139 177 235 294 345 412
#     4  11  26  46  74 104 139 179 233 291 345 412
#     4  10  26  45  66 101 142 184 230 279 337 414
#     4  10  24  43  68 100 140 175 230 286 340 410
#     4  11  24  41  75 102 135 187 226 291 352 400
#     4  12  25  44  75 104 138 182 233 287 351 399
#     4  10  23  43  67 101 137 172 233 282 340 401
#     4  11  27  49  68 104 144 185 232 285 344 423
#
# _framework density 27.099086
#
# number of rings (size 3 to 8) (size 9 to 14) (size 15 to 20)
#    0.750    0.500    1.250    3.000   10.500    3.500 
#    2.250    0.000    0.000    0.000    0.000    0.000 
#    0.000    0.000    0.000    0.000    0.000    0.000 
#
# Total GULP energy -89678.564669 kJ/mol
# GULP energy per Si atom -5604.910292 kJ/mol
# Density = 2.703741 g / cm^3
# Si number density = 27.099086 Si / 1000 Ang^3
#
#
#
# Elastic Constant Matrix: (Units=GPa)
#
#
# Indices 1 2 3 4 5 6 
#
# 1 126.6138 39.8186 49.7049 21.3415 -38.3412 -0.4870
# 2 39.8186 157.0204 38.7466 1.5733 -31.6490 10.2568
# 3 49.7049 38.7466 114.4123 21.5527 -49.4325 9.3275
# 4 21.3415 1.5733 21.5527 45.7597 -8.0821 -11.3550
# 5 -38.3412 -31.6490 -49.4325 -8.0821 60.2302 6.8764
# 6 -0.4870 10.2568 9.3275 -11.3550 6.8764 51.3770
#
#
#
# Elastic Compliance Matrix: (Units=1/GPa)
#
#
# Indices 1 2 3 4 5 6 
#
# 1 0.010946 -0.001387 -0.001559 -0.003710 0.004549 -0.000765
# 2 -0.001387 0.007562 -0.000829 0.000872 0.002703 -0.001541
# 3 -0.001559 -0.000829 0.016549 -0.006381 0.011968 -0.005866
# 4 -0.003710 0.000872 -0.006381 0.027697 -0.004296 0.007646
# 5 0.004549 0.002703 0.011968 -0.004296 0.031053 -0.007775
# 6 -0.000765 -0.001541 -0.005866 0.007646 -0.007775 0.023560
#
#
# Mechanical properties :
#
#
# Convention : Reuss Voigt Hill
#
# Bulk Modulus (GPa) = 36.35414 72.73185 54.54299
# Shear Modulus (GPa) = 37.28941 49.45848 43.37394
#
# Velocity S-wave (km/s) = 3.71352 4.27675 4.00505
# Velocity P-wave (km/s) = 5.64193 7.16135 6.44656
#
# Compressibility (1/GPa) = 0.02750719
#
# Stress axis : x y z
#
# Youngs Moduli (GPa) = 91.35592 132.24594 60.42499
#
# Poissons Ratio (x) = 0.18343 0.09420
# Poissons Ratio (y) = 0.12671 0.05010
# Poissons Ratio (z) = 0.14242 0.10964
#
# Static dielectric constant tensor:
#      x y z
#    x 2.172060 0.003250 0.051050 
#    y 0.003250 2.088670 -0.073960 
#    z 0.051050 -0.073960 2.156460 
# 
# From -- ./inp_files/109830.got.cif
#   From: 2010.05.17/outbox.cif.g08.bks.cpg/sg2_55_cif.got.tgz:109830.got - 2010.06.03 11:33:40.
