data_PCOD9040677
_publ_section_title
;
Structure prediction by ZEFSAII (Michael W. Deem and Ramdas Pophale) SiO2 
 PCOD9040677
Probable space group: P -1
;
_chemical_formula_sum "Si O2"
_cell_formula_units_Z 14
_cell_length_a 5.654126
_cell_length_b 11.636764
_cell_length_c 11.539711
_cell_angle_alpha 78.335665
_cell_angle_beta 95.433683
_cell_angle_gamma 54.407148
_cell_volume 582.767773
_symmetry_space_group_name_H-M "P -1"
_symmetry_group_IT_number 2
_symmetry_cell_setting 'triclinic'
loop_
_space_group_symop_operation_xyz
x,y,z
-x,-y,-z
loop_
_atom_site_type_symbol
_atom_site_label
_atom_site_fract_x
_atom_site_fract_y
_atom_site_fract_z
Si Si1 0.593626 0.939091 0.884827
Si Si2 0.795635 0.343842 0.244513
Si Si3 0.258480 0.542528 0.348076
Si Si4 0.315690 0.769449 0.939448
Si Si5 0.246346 0.391672 0.798240
Si Si6 0.341921 0.001547 0.376233
Si Si7 0.468410 0.701231 0.424256
O O1 0.448797 0.852767 0.882886
O O2 0.503992 0.025506 0.738642
O O3 0.954830 0.860022 0.919504
O O4 0.500000 0.000000 0.000000
O O5 0.575224 0.436223 0.320322
O O6 0.608201 0.353793 0.124959
O O7 0.921983 0.435615 0.211126
O O8 0.036644 0.170774 0.319357
O O9 0.246166 0.657598 0.407973
O O10 0.273891 0.418742 0.449437
O O11 0.013579 0.625639 0.218608
O O12 0.485407 0.703339 0.081292
O O13 0.384000 0.336528 0.687791
O O14 0.500000 0.000000 0.500000
O O15 0.313816 0.869903 0.414104
#
# Coordination Sequence:
#
# PCOD9040677 Si02
#       7
#     2   2   2   2   2   2   2
#     4  11  26  51  73 110 161 197 250 310 382 451
#     4  10  25  44  67 109 149 186 246 312 380 435
#     4  10  23  43  72 100 146 193 241 317 361 462
#     4  11  26  44  76 110 146 198 252 314 369 450
#     4  11  23  45  72 103 143 195 255 295 381 445
#     4  11  25  48  75 108 150 197 251 315 382 454
#     4  10  23  43  68 105 140 191 252 304 381 437
#
# _framework density 24.023289999999999
#
# number of rings (size 3 to 8) (size 9 to 14) (size 15 to 20)
#    0.000    1.429    0.000    3.000   10.000    4.571 
#   10.286    0.000    0.000    0.000    0.000    0.000 
#    0.000    0.000    0.000    0.000    0.000    0.000 
#
# Total GULP energy -78059.106538 kJ/mol
# GULP energy per Si atom -5575.650467 kJ/mol
# Density = 2.396861 g / cm^3
# Si number density = 24.023290 Si / 1000 Ang^3
#
#
#
# Elastic Constant Matrix: (Units=GPa)
#
#
# Indices 1 2 3 4 5 6 
#
# 1 99.9845 39.7999 46.0321 -6.4051 17.5914 11.7969
# 2 39.7999 95.3331 35.7035 0.5113 8.1945 19.7138
# 3 46.0321 35.7035 136.8222 18.6022 30.9121 4.8034
# 4 -6.4051 0.5113 18.6022 35.7004 2.1477 3.5189
# 5 17.5914 8.1945 30.9121 2.1477 39.2812 4.4251
# 6 11.7969 19.7138 4.8034 3.5189 4.4251 35.0789
#
#
#
# Elastic Compliance Matrix: (Units=1/GPa)
#
#
# Indices 1 2 3 4 5 6 
#
# 1 0.014365 -0.003892 -0.003824 0.005010 -0.002627 -0.002291
# 2 -0.003892 0.014374 -0.002707 0.001072 0.001571 -0.006704
# 3 -0.003824 -0.002707 0.011643 -0.006573 -0.006834 0.002734
# 4 0.005010 0.001072 -0.006573 0.032709 0.001463 -0.004853
# 5 -0.002627 0.001571 -0.006834 0.001463 0.031970 -0.003243
# 6 -0.002291 -0.006704 0.002734 -0.004853 -0.003243 0.033567
#
#
# Mechanical properties :
#
#
# Convention : Reuss Voigt Hill
#
# Bulk Modulus (GPa) = 51.18865 63.91232 57.55048
# Shear Modulus (GPa) = 30.12299 36.05239 33.08769
#
# Velocity S-wave (km/s) = 3.54490 3.87812 3.71525
# Velocity P-wave (km/s) = 6.17327 6.83485 6.51247
#
# Compressibility (1/GPa) = 0.01953558
#
# Stress axis : x y z
#
# Youngs Moduli (GPa) = 69.61327 69.57173 85.88603
#
# Poissons Ratio (x) = 0.27078 0.32846
# Poissons Ratio (y) = 0.27095 0.23247
# Poissons Ratio (z) = 0.26622 0.18831
#
# Static dielectric constant tensor:
#      x y z
#    x 2.123570 0.058690 -0.088170 
#    y 0.058690 1.954310 -0.078880 
#    z -0.088170 -0.078880 2.003380 
# 
# From -- ./inp_files/362940.got.cif
#   From: 2010.05.17/outbox.cif.g08.bks.cpg/sg2_182_cif.got.tgz:362940.got - 2010.06.03 11:33:40.
