data_PCOD9040478
_publ_section_title
;
Structure prediction by ZEFSAII (Michael W. Deem and Ramdas Pophale) SiO2 
 PCOD9040478
Probable space group: P -1
;
_chemical_formula_sum "Si O2"
_cell_formula_units_Z 16
_cell_length_a 12.318093
_cell_length_b 13.038490
_cell_length_c 12.753682
_cell_angle_alpha 82.214479
_cell_angle_beta 137.838628
_cell_angle_gamma 63.359726
_cell_volume 769.393686
_symmetry_space_group_name_H-M "P -1"
_symmetry_group_IT_number 2
_symmetry_cell_setting 'triclinic'
loop_
_space_group_symop_operation_xyz
x,y,z
-x,-y,-z
loop_
_atom_site_type_symbol
_atom_site_label
_atom_site_fract_x
_atom_site_fract_y
_atom_site_fract_z
Si Si1 0.152044 0.917127 0.321980
Si Si2 0.700285 0.132134 0.323237
Si Si3 0.747013 0.744001 0.494806
Si Si4 0.285310 0.607747 0.429305
Si Si5 0.649850 0.531066 0.114034
Si Si6 0.689421 0.839436 0.897907
Si Si7 0.367684 0.184761 0.372184
Si Si8 0.496921 0.672399 0.220311
O O1 0.220276 0.903933 0.493385
O O2 0.190007 0.775388 0.356656
O O3 0.385359 0.859689 0.433262
O O4 0.836943 0.122395 0.040030
O O5 0.528599 0.114403 0.195483
O O6 0.479983 0.330222 0.090239
O O7 0.000000 0.000000 0.500000
O O8 0.828910 0.695391 0.683744
O O9 0.668508 0.674934 0.398857
O O10 0.011202 0.653510 0.634335
O O11 0.474309 0.964776 0.262347
O O12 0.500000 0.500000 0.500000
O O13 0.438957 0.468752 0.654680
O O14 0.996944 0.696435 0.187242
O O15 0.579317 0.616895 0.165045
O O16 0.500000 0.500000 0.000000
O O17 0.744144 0.755361 0.835477
O O18 0.500000 0.000000 0.500000
#
# Coordination Sequence:
#
# PCOD9040478 Si02
#       8
#     2   2   2   2   2   2   2   2
#     4  11  24  46  70 105 137 183 225 289 345 409
#     4  11  22  44  69  96 136 181 232 284 344 406
#     4  11  23  44  68 100 139 184 223 285 351 404
#     4  12  27  44  70 106 140 182 231 285 349 416
#     4  12  26  43  70 101 136 180 239 285 337 416
#     4  10  23  43  67 102 137 179 233 287 344 408
#     4   9  22  40  73  96 132 183 229 275 351 404
#     4  12  26  45  71 100 143 180 232 279 349 412
#
# _framework density 20.795594999999999
#
# number of rings (size 3 to 8) (size 9 to 14) (size 15 to 20)
#    0.000    1.000    2.500    3.375    7.000    2.000 
#    0.000    5.000    0.000    0.000    0.000    0.000 
#    0.000    0.000    0.000    0.000    0.000    0.000 
#
# Total GULP energy -89407.126413 kJ/mol
# GULP energy per Si atom -5587.945401 kJ/mol
# Density = 2.074826 g / cm^3
# Si number density = 20.795595 Si / 1000 Ang^3
#
#
#
# Elastic Constant Matrix: (Units=GPa)
#
#
# Indices 1 2 3 4 5 6 
#
# 1 91.6254 27.4028 20.1288 -4.6621 18.1752 20.7880
# 2 27.4028 87.7516 33.8836 3.8552 16.6875 19.1689
# 3 20.1288 33.8836 93.1063 -18.9011 7.4942 18.5334
# 4 -4.6621 3.8552 -18.9011 29.5013 11.2237 7.7094
# 5 18.1752 16.6875 7.4942 11.2237 24.6551 -12.7240
# 6 20.7880 19.1689 18.5334 7.7094 -12.7240 26.6395
#
#
#
# Elastic Compliance Matrix: (Units=1/GPa)
#
#
# Indices 1 2 3 4 5 6 
#
# 1 0.005317 -0.005972 -0.007573 -0.015698 0.019523 0.019284
# 2 -0.005972 0.014245 -0.008372 -0.012533 0.006640 0.007033
# 3 -0.007573 -0.008372 0.009259 -0.006093 0.019844 0.016733
# 4 -0.015698 -0.012533 -0.006093 -0.001990 0.048140 0.049076
# 5 0.019523 0.006640 0.019844 0.048140 -0.041030 -0.067347
# 6 0.019284 0.007033 0.016733 0.049076 -0.067347 -0.040582
#
#
# Mechanical properties :
#
#
# Convention : Reuss Voigt Hill
#
# Bulk Modulus (GPa) = -66.61332 48.36819 -9.12257
# Shear Modulus (GPa) = -313.44198 28.89708 -142.27245
#
# Velocity S-wave (km/s) = -12.29034 3.73175 -8.28029
# Velocity P-wave (km/s) = 15.28088 6.47126 9.78846
#
# Compressibility (1/GPa) = -0.01501201
#
# Stress axis : x y z
#
# Youngs Moduli (GPa) = 188.07360 70.20174 107.99959
#
# Poissons Ratio (x) = 0.41922 0.81790
# Poissons Ratio (y) = 1.12311 0.90414
# Poissons Ratio (z) = 1.42432 0.58771
#
# Static dielectric constant tensor:
#      x y z
#    x 1.765050 0.042580 -0.009750 
#    y 0.042580 1.776260 -0.002560 
#    z -0.009750 -0.002560 1.740990 
# 
# From -- ./inp_files/428250.got.cif
#   From: 2010.05.17/outbox.cif.g08.bks.cpg/sg2_215_cif.got.tgz:428250.got - 2010.06.03 11:33:40.
