data_PCOD9040753
_publ_section_title
;
Structure prediction by ZEFSAII (Michael W. Deem and Ramdas Pophale) SiO2 
 PCOD9040753
Probable space group: P -1
;
_chemical_formula_sum "Si O2"
_cell_formula_units_Z 16
_cell_length_a 12.153871
_cell_length_b 7.785613
_cell_length_c 12.295977
_cell_angle_alpha 130.216528
_cell_angle_beta 128.419184
_cell_angle_gamma 74.662489
_cell_volume 677.680422
_symmetry_space_group_name_H-M "P -1"
_symmetry_group_IT_number 2
_symmetry_cell_setting 'triclinic'
loop_
_space_group_symop_operation_xyz
x,y,z
-x,-y,-z
loop_
_atom_site_type_symbol
_atom_site_label
_atom_site_fract_x
_atom_site_fract_y
_atom_site_fract_z
Si Si1 0.950472 0.732240 0.775641
Si Si2 0.449773 0.739069 0.905912
Si Si3 0.749712 0.299406 0.030625
Si Si4 0.232683 0.230946 0.865286
Si Si5 0.253840 0.733596 0.595041
Si Si6 0.690422 0.945877 0.650514
Si Si7 0.612152 0.254656 0.546838
Si Si8 0.886011 0.642257 0.943818
O O1 0.883571 0.460874 0.602588
O O2 0.837523 0.860457 0.704233
O O3 0.941893 0.760967 0.913108
O O4 0.117224 0.785222 0.868459
O O5 0.381926 0.731245 0.979857
O O6 0.325808 0.635125 0.702024
O O7 0.597112 0.656376 0.962225
O O8 0.500000 0.000000 0.000000
O O9 0.808828 0.568832 0.149325
O O10 0.707772 0.151921 0.834609
O O11 0.220981 0.981468 0.703251
O O12 0.144872 0.207338 0.913124
O O13 0.363654 0.769532 0.575786
O O14 0.553206 0.752097 0.528840
O O15 0.650466 0.041895 0.550344
O O16 0.731645 0.474590 0.750769
O O17 0.000000 0.500000 0.000000
#
# Coordination Sequence:
#
# PCOD9040753 Si02
#       8
#     2   2   2   2   2   2   2   2
#     4  11  26  41  69 101 138 182 220 289 337 402
#     4  10  24  43  68  99 135 178 225 280 334 406
#     4  12  24  45  68 102 136 180 233 272 345 404
#     4  11  23  43  73  95 134 185 222 283 331 407
#     4  10  25  44  63 102 134 177 229 275 345 392
#     4  11  23  41  69 100 135 176 231 284 336 395
#     4  10  23  43  68  98 134 175 231 281 336 399
#     4  11  22  44  69 101 136 175 229 272 344 405
#
# _framework density 23.609950000000001
#
# number of rings (size 3 to 8) (size 9 to 14) (size 15 to 20)
#    0.000    1.250    2.500    2.250    7.000    3.000 
#    0.000    0.000    0.000    0.000    0.000    0.000 
#    0.000    0.000    0.000    0.000    0.000    0.000 
#
# Total GULP energy -89576.035867 kJ/mol
# GULP energy per Si atom -5598.502242 kJ/mol
# Density = 2.355621 g / cm^3
# Si number density = 23.609950 Si / 1000 Ang^3
#
#
#
# Elastic Constant Matrix: (Units=GPa)
#
#
# Indices 1 2 3 4 5 6 
#
# 1 80.9784 21.4397 13.8099 -2.2107 -3.5068 -13.1624
# 2 21.4397 93.8858 18.8818 -6.8170 -9.5209 -14.9949
# 3 13.8099 18.8818 69.6689 6.0011 1.0926 -13.6501
# 4 -2.2107 -6.8170 6.0011 39.0708 -5.5196 5.1673
# 5 -3.5068 -9.5209 1.0926 -5.5196 43.6757 -6.3116
# 6 -13.1624 -14.9949 -13.6501 5.1673 -6.3116 38.2072
#
#
#
# Elastic Compliance Matrix: (Units=1/GPa)
#
#
# Indices 1 2 3 4 5 6 
#
# 1 0.013810 -0.002133 -0.001516 0.000349 0.001237 0.003536
# 2 -0.002133 0.012777 -0.002611 0.002532 0.003517 0.003585
# 3 -0.001516 -0.002611 0.016643 -0.003856 -0.000905 0.004771
# 4 0.000349 0.002532 -0.003856 0.027616 0.003676 -0.003391
# 5 0.001237 0.003517 -0.000905 0.003676 0.024988 0.005114
# 6 0.003536 0.003585 0.004771 -0.003391 0.005114 0.031806
#
#
# Mechanical properties :
#
#
# Convention : Reuss Voigt Hill
#
# Bulk Modulus (GPa) = 32.56313 39.19955 35.88134
# Shear Modulus (GPa) = 33.24535 36.88420 35.06478
#
# Velocity S-wave (km/s) = 3.75655 3.95680 3.85797
# Velocity P-wave (km/s) = 5.71293 6.12487 5.92248
#
# Compressibility (1/GPa) = 0.03070958
#
# Stress axis : x y z
#
# Youngs Moduli (GPa) = 72.41066 78.26797 60.08596
#
# Poissons Ratio (x) = 0.16697 0.09109
# Poissons Ratio (y) = 0.15447 0.15687
# Poissons Ratio (z) = 0.10977 0.20434
#
# Static dielectric constant tensor:
#      x y z
#    x 1.852110 -0.017850 0.034250 
#    y -0.017850 1.944080 -0.007840 
#    z 0.034250 -0.007840 1.937620 
# 
# From -- ./inp_files/420141.got.cif
#   From: 2010.05.17/outbox.cif.g08.bks.cpg/sg2_211_cif.got.tgz:420141.got - 2010.06.03 11:33:40.
