data_PCOD9040537
_publ_section_title
;
Structure prediction by ZEFSAII (Michael W. Deem and Ramdas Pophale) SiO2 
 PCOD9040537
Probable space group: P -1
;
_chemical_formula_sum "Si O2"
_cell_formula_units_Z 16
_cell_length_a 18.669652
_cell_length_b 6.448338
_cell_length_c 9.687115
_cell_angle_alpha 114.777575
_cell_angle_beta 53.174585
_cell_angle_gamma 135.026494
_cell_volume 659.764241
_symmetry_space_group_name_H-M "P -1"
_symmetry_group_IT_number 2
_symmetry_cell_setting 'triclinic'
loop_
_space_group_symop_operation_xyz
x,y,z
-x,-y,-z
loop_
_atom_site_type_symbol
_atom_site_label
_atom_site_fract_x
_atom_site_fract_y
_atom_site_fract_z
Si Si1 0.044596 0.955717 0.575170
Si Si2 0.662731 0.185080 0.254597
Si Si3 0.160902 0.695008 0.378248
Si Si4 0.180717 0.797605 0.698711
Si Si5 0.476334 0.484323 0.861055
Si Si6 0.041784 0.910622 0.052283
Si Si7 0.607595 0.590578 0.491589
Si Si8 0.277423 0.518458 0.025309
O O1 0.949935 0.618240 0.642655
O O2 0.046785 0.158705 0.743447
O O3 0.150728 0.950364 0.429487
O O4 0.000000 0.000000 0.500000
O O5 0.603318 0.312357 0.421306
O O6 0.751445 0.243740 0.282231
O O7 0.585054 0.846487 0.209657
O O8 0.716205 0.357811 0.097798
O O9 0.260985 0.700860 0.200904
O O10 0.155215 0.654518 0.538430
O O11 0.273924 0.143097 0.642740
O O12 0.071541 0.726400 0.884194
O O13 0.588305 0.671853 0.685984
O O14 0.500000 0.500000 0.000000
O O15 0.389628 0.551597 0.943166
O O16 0.165556 0.174549 0.052037
O O17 0.000000 0.000000 0.000000
O O18 0.500000 0.500000 0.500000
#
# Coordination Sequence:
#
# PCOD9040537 Si02
#       8
#     2   2   2   2   2   2   2   2
#     4  10  23  43  67  94 135 181 225 275 338 400
#     4  12  24  44  72  96 135 181 223 276 348 390
#     4  10  25  42  64  99 138 177 219 280 340 397
#     4  12  25  43  68 103 134 181 226 279 332 405
#     4  12  28  45  69 102 135 181 227 279 339 405
#     4  11  21  45  70  94 140 172 222 282 326 392
#     4  12  24  47  68  97 137 172 228 286 328 397
#     4  11  25  46  65 103 143 171 225 284 329 407
#
# _framework density 24.251085
#
# number of rings (size 3 to 8) (size 9 to 14) (size 15 to 20)
#    0.000    0.750    6.250    0.375    5.250    2.500 
#    0.000    1.250    0.000    0.000    0.000    0.000 
#    0.000    0.000    0.000    0.000    0.000    0.000 
#
# Total GULP energy -89473.735234 kJ/mol
# GULP energy per Si atom -5592.108452 kJ/mol
# Density = 2.419589 g / cm^3
# Si number density = 24.251085 Si / 1000 Ang^3
#
#
#
# Elastic Constant Matrix: (Units=GPa)
#
#
# Indices 1 2 3 4 5 6 
#
# 1 150.1702 24.9639 75.6145 19.2786 4.5020 -39.8188
# 2 24.9639 72.9363 38.7426 8.8124 -8.0562 -0.3154
# 3 75.6145 38.7426 224.6891 28.3623 -1.0379 -28.4021
# 4 19.2786 8.8124 28.3623 44.3119 -9.1601 -1.1113
# 5 4.5020 -8.0562 -1.0379 -9.1601 56.0800 7.1532
# 6 -39.8188 -0.3154 -28.4021 -1.1113 7.1532 43.9489
#
#
#
# Elastic Compliance Matrix: (Units=1/GPa)
#
#
# Indices 1 2 3 4 5 6 
#
# 1 0.010928 -0.002760 -0.001592 -0.003589 -0.003071 0.009262
# 2 -0.002760 0.016262 -0.002430 0.000049 0.003089 -0.004456
# 3 -0.001592 -0.002430 0.006081 -0.002838 -0.000897 0.002544
# 4 -0.003589 0.000049 -0.002838 0.026901 0.005309 -0.005269
# 5 -0.003071 0.003089 -0.000897 0.005309 0.020201 -0.006493
# 6 0.009262 -0.004456 0.002544 -0.005269 -0.006493 0.033681
#
#
# Mechanical properties :
#
#
# Convention : Reuss Voigt Hill
#
# Bulk Modulus (GPa) = 50.74552 80.71529 65.73041
# Shear Modulus (GPa) = 37.26107 49.43313 43.34710
#
# Velocity S-wave (km/s) = 3.92404 4.51975 4.23239
# Velocity P-wave (km/s) = 6.44214 7.78415 7.14472
#
# Compressibility (1/GPa) = 0.01970617
#
# Stress axis : x y z
#
# Youngs Moduli (GPa) = 91.50584 61.49172 164.44228
#
# Poissons Ratio (x) = 0.16973 0.26182
# Poissons Ratio (y) = 0.25257 0.39967
# Poissons Ratio (z) = 0.14569 0.14945
#
# Static dielectric constant tensor:
#      x y z
#    x 1.849250 0.020240 -0.040140 
#    y 0.020240 2.006730 -0.017170 
#    z -0.040140 -0.017170 1.966090 
# 
# From -- ./inp_files/39778.got.cif
#   From: 2010.05.17/outbox.cif.g08.bks.cpg/sg2_20_cif.got.tgz:39778.got - 2010.06.03 11:33:40.
