data_PCOD9040536
_publ_section_title
;
Structure prediction by ZEFSAII (Michael W. Deem and Ramdas Pophale) SiO2 
 PCOD9040536
Probable space group: P -1
;
_chemical_formula_sum "Si O2"
_cell_formula_units_Z 14
_cell_length_a 7.976999
_cell_length_b 8.688793
_cell_length_c 10.302262
_cell_angle_alpha 50.937578
_cell_angle_beta 105.411037
_cell_angle_gamma 104.351306
_cell_volume 531.407312
_symmetry_space_group_name_H-M "P -1"
_symmetry_group_IT_number 2
_symmetry_cell_setting 'triclinic'
loop_
_space_group_symop_operation_xyz
x,y,z
-x,-y,-z
loop_
_atom_site_type_symbol
_atom_site_label
_atom_site_fract_x
_atom_site_fract_y
_atom_site_fract_z
Si Si1 0.609547 0.186398 0.841700
Si Si2 0.229555 0.206347 0.416639
Si Si3 0.836670 0.859312 0.285262
Si Si4 0.719825 0.830749 0.974536
Si Si5 0.056930 0.706708 0.972073
Si Si6 0.123911 0.753851 0.558208
Si Si7 0.540965 0.484554 0.240228
O O1 0.787499 0.285390 0.893801
O O2 0.497452 0.372044 0.722779
O O3 0.500000 0.000000 0.000000
O O4 0.663869 0.046987 0.811179
O O5 0.374118 0.323391 0.293578
O O6 0.284195 0.208306 0.579093
O O7 0.039135 0.288519 0.351474
O O8 0.200893 0.980249 0.481989
O O9 0.012565 0.755025 0.402008
O O10 0.794979 0.844055 0.132399
O O11 0.870106 0.095706 0.197177
O O12 0.563591 0.651319 0.042483
O O13 0.879009 0.770376 0.959295
O O14 0.000000 0.500000 0.000000
O O15 0.278232 0.613857 0.665502
#
# Coordination Sequence:
#
# PCOD9040536 Si02
#       7
#     2   2   2   2   2   2   2
#     4   9  21  42  64  96 140 172 218 286 330 395
#     4   9  21  39  65  97 137 177 213 285 328 397
#     4   9  20  42  63  95 138 170 224 270 340 395
#     4  10  23  43  67  94 135 180 218 283 334 397
#     4  11  24  41  75  97 127 188 231 276 340 403
#     4   9  21  39  65  98 137 178 215 281 340 387
#     4  11  22  38  69 100 134 173 231 262 344 404
#
# _framework density 26.345140000000001
#
# number of rings (size 3 to 8) (size 9 to 14) (size 15 to 20)
#    0.857    1.429    0.000    2.143    6.000    1.143 
#    0.000   14.286    0.000    0.000    0.000    0.000 
#    0.000    0.000    0.000    0.000    0.000    0.000 
#
# Total GULP energy -78038.831571 kJ/mol
# GULP energy per Si atom -5574.202255 kJ/mol
# Density = 2.628518 g / cm^3
# Si number density = 26.345140 Si / 1000 Ang^3
#
#
#
# Elastic Constant Matrix: (Units=GPa)
#
#
# Indices 1 2 3 4 5 6 
#
# 1 154.8171 54.2751 20.2815 -45.8653 15.0348 -23.6408
# 2 54.2751 131.8005 22.7862 -33.6792 19.1930 -3.0880
# 3 20.2815 22.7862 44.1239 -24.6789 1.6273 -6.2487
# 4 -45.8653 -33.6792 -24.6789 47.1313 -4.0904 5.3073
# 5 15.0348 19.1930 1.6273 -4.0904 47.1810 -29.8727
# 6 -23.6408 -3.0880 -6.2487 5.3073 -29.8727 52.3487
#
#
#
# Elastic Compliance Matrix: (Units=1/GPa)
#
#
# Indices 1 2 3 4 5 6 
#
# 1 0.010249 -0.002375 0.002149 0.008999 0.001304 0.004576
# 2 -0.002375 0.010850 -0.002699 0.004020 -0.006186 -0.004693
# 3 0.002149 -0.002699 0.033427 0.017419 0.004215 0.005441
# 4 0.008999 0.004020 0.017419 0.041722 -0.000196 0.002039
# 5 0.001304 -0.006186 0.004215 -0.000196 0.036961 0.021839
# 6 0.004576 -0.004693 0.005441 0.002039 0.021839 0.033798
#
#
# Mechanical properties :
#
#
# Convention : Reuss Voigt Hill
#
# Bulk Modulus (GPa) = 20.54414 58.38079 39.46246
# Shear Modulus (GPa) = 26.44357 44.89211 35.66784
#
# Velocity S-wave (km/s) = 3.17162 4.13243 3.68349
# Velocity P-wave (km/s) = 4.60730 6.70652 5.75346
#
# Compressibility (1/GPa) = 0.04867569
#
# Stress axis : x y z
#
# Youngs Moduli (GPa) = 97.57438 92.16481 29.91574
#
# Poissons Ratio (x) = 0.21888 -0.06429
# Poissons Ratio (y) = 0.23173 0.08075
# Poissons Ratio (z) = -0.20970 0.24879
#
# Static dielectric constant tensor:
#      x y z
#    x 2.189180 0.041760 0.041580 
#    y 0.041760 2.168540 0.035020 
#    z 0.041580 0.035020 2.219830 
# 
# From -- ./inp_files/377728.got.cif
#   From: 2010.05.17/outbox.cif.g08.bks.cpg/sg2_189_cif.got.tgz:377728.got - 2010.06.03 11:33:40.
