data_PCOD9040089
_publ_section_title
;
Structure prediction by ZEFSAII (Michael W. Deem and Ramdas Pophale) SiO2 
 PCOD9040089
Probable space group: P -1
;
_chemical_formula_sum "Si O2"
_cell_formula_units_Z 16
_cell_length_a 28.027662
_cell_length_b 9.220133
_cell_length_c 16.272275
_cell_angle_alpha 133.094023
_cell_angle_beta 18.394273
_cell_angle_gamma 142.660177
_cell_volume 747.016666
_symmetry_space_group_name_H-M "P -1"
_symmetry_group_IT_number 2
_symmetry_cell_setting 'triclinic'
loop_
_space_group_symop_operation_xyz
x,y,z
-x,-y,-z
loop_
_atom_site_type_symbol
_atom_site_label
_atom_site_fract_x
_atom_site_fract_y
_atom_site_fract_z
Si Si1 0.108732 0.371409 0.130572
Si Si2 0.407699 0.453791 0.222243
Si Si3 0.664083 0.970376 0.713845
Si Si4 0.449681 0.578356 0.760444
Si Si5 0.475261 0.257369 0.698603
Si Si6 0.253037 0.683108 0.846788
Si Si7 0.095049 0.547024 0.773606
Si Si8 0.836899 0.939426 0.176406
O O1 0.263127 0.541956 0.016844
O O2 0.196672 0.533552 0.965395
O O3 0.104912 0.130091 0.027619
O O4 0.882230 0.242351 0.456651
O O5 0.330984 0.180201 0.276945
O O6 0.548170 0.645001 0.140567
O O7 0.253616 0.506108 0.496147
O O8 0.500000 0.500000 0.000000
O O9 0.586372 0.787350 0.689458
O O10 0.500000 0.000000 0.000000
O O11 0.368760 0.302905 0.822157
O O12 0.613497 0.692043 0.466582
O O13 0.683221 0.409384 0.368231
O O14 0.420497 0.985797 0.702055
O O15 0.070345 0.649857 0.097398
O O16 0.163525 0.823693 0.739862
O O17 0.000000 0.500000 0.000000
O O18 0.000000 0.000000 0.000000
#
# Coordination Sequence:
#
# PCOD9040089 Si02
#       8
#     2   2   2   2   2   2   2   2
#     4  12  25  41  72 106 136 183 229 287 358 409
#     4  11  27  46  70  98 134 189 233 279 360 417
#     4  11  27  50  71  96 137 183 241 293 337 421
#     4  11  24  42  68 101 141 175 228 282 350 412
#     4  10  23  43  62 104 142 178 221 290 340 424
#     4  11  23  39  67 103 144 172 229 283 352 410
#     4  12  24  40  70 101 137 182 229 290 344 414
#     4  12  22  40  68 102 142 177 222 281 346 414
#
# _framework density 21.418531000000002
#
# number of rings (size 3 to 8) (size 9 to 14) (size 15 to 20)
#    0.000    0.750    5.000    1.125    8.750    0.500 
#    0.000    0.625    0.000    0.000    0.000    0.000 
#    0.000    0.000    0.000    0.000    0.000    0.000 
#
# Total GULP energy -89210.207352 kJ/mol
# GULP energy per Si atom -5575.637960 kJ/mol
# Density = 2.136978 g / cm^3
# Si number density = 21.418531 Si / 1000 Ang^3
#
#
#
# Elastic Constant Matrix: (Units=GPa)
#
#
# Indices 1 2 3 4 5 6 
#
# 1 128.7228 24.3404 63.1054 -9.5484 -4.2771 -16.4783
# 2 24.3404 67.3083 44.3654 -1.1662 8.2455 -28.1845
# 3 63.1054 44.3654 131.7650 2.6279 -0.3194 -19.7707
# 4 -9.5484 -1.1662 2.6279 30.2979 -2.4047 -5.2899
# 5 -4.2771 8.2455 -0.3194 -2.4047 39.4265 1.7361
# 6 -16.4783 -28.1845 -19.7707 -5.2899 1.7361 31.4487
#
#
#
# Elastic Compliance Matrix: (Units=1/GPa)
#
#
# Indices 1 2 3 4 5 6 
#
# 1 0.010993 0.001166 -0.005098 0.004791 0.001008 0.004351
# 2 0.001166 0.030606 -0.007269 0.005956 -0.007065 0.024862
# 3 -0.005098 -0.007269 0.012231 -0.003237 0.000961 -0.002094
# 4 0.004791 0.005956 -0.003237 0.037202 0.000988 0.012017
# 5 0.001008 -0.007065 0.000961 0.000988 0.027307 -0.006540
# 6 0.004351 0.024862 -0.002094 0.012017 -0.006540 0.057425
#
#
# Mechanical properties :
#
#
# Convention : Reuss Voigt Hill
#
# Bulk Modulus (GPa) = 31.81818 65.71319 48.76568
# Shear Modulus (GPa) = 23.96456 33.30028 28.63242
#
# Velocity S-wave (km/s) = 3.34858 3.94730 3.66020
# Velocity P-wave (km/s) = 5.46245 7.17788 6.37810
#
# Compressibility (1/GPa) = 0.03142858
#
# Stress axis : x y z
#
# Youngs Moduli (GPa) = 90.96593 32.67325 81.76016
#
# Poissons Ratio (x) = -0.03810 0.41680
# Poissons Ratio (y) = -0.10607 0.59431
# Poissons Ratio (z) = 0.46373 0.23750
#
# Static dielectric constant tensor:
#      x y z
#    x 1.840100 0.016080 -0.030930 
#    y 0.016080 1.910310 -0.031690 
#    z -0.030930 -0.031690 1.813170 
# 
# From -- ./inp_files/543861.got.cif
#   From: 2010.05.17/outbox.cif.g08.bks.cpg/sg2_272_cif.got.tgz:543861.got - 2010.06.03 11:33:40.
