data_PCOD9040583
_publ_section_title
;
Structure prediction by ZEFSAII (Michael W. Deem and Ramdas Pophale) SiO2 
 PCOD9040583
Probable space group: P -1
;
_chemical_formula_sum "Si O2"
_cell_formula_units_Z 14
_cell_length_a 8.182693
_cell_length_b 11.082592
_cell_length_c 16.565873
_cell_angle_alpha 41.511249
_cell_angle_beta 43.410049
_cell_angle_gamma 72.647582
_cell_volume 576.100130
_symmetry_space_group_name_H-M "P -1"
_symmetry_group_IT_number 2
_symmetry_cell_setting 'triclinic'
loop_
_space_group_symop_operation_xyz
x,y,z
-x,-y,-z
loop_
_atom_site_type_symbol
_atom_site_label
_atom_site_fract_x
_atom_site_fract_y
_atom_site_fract_z
Si Si1 0.073160 0.339340 0.101717
Si Si2 0.715043 0.491965 0.625451
Si Si3 0.098015 0.176406 0.004789
Si Si4 0.223869 0.307276 0.652313
Si Si5 0.335297 0.722048 0.918953
Si Si6 0.807588 0.447687 0.787382
Si Si7 0.160182 0.888932 0.535079
O O1 0.876432 0.170340 0.327176
O O2 0.098556 0.206263 0.086684
O O3 0.000000 0.500000 0.000000
O O4 0.325557 0.528400 0.971434
O O5 0.721118 0.665518 0.477294
O O6 0.705794 0.518305 0.710890
O O7 0.000000 0.500000 0.500000
O O8 0.422396 0.271001 0.818740
O O9 0.976364 0.316203 0.944683
O O10 0.891683 0.938231 0.164250
O O11 0.500000 0.500000 0.500000
O O12 0.972269 0.342584 0.745465
O O13 0.522649 0.939484 0.692569
O O14 0.418380 0.720772 0.982282
O O15 0.024478 0.663312 0.650103
O O16 0.000000 0.000000 0.500000
#
# Coordination Sequence:
#
# PCOD9040583 Si02
#       7
#     2   2   2   2   2   2   2
#     4   9  23  43  65 102 140 175 228 285 337 407
#     4  10  25  43  65  98 137 175 228 282 339 408
#     4  11  24  41  72  97 131 184 226 279 349 404
#     4  11  24  43  69  97 133 175 233 282 343 409
#     4  10  23  43  67  97 141 176 227 280 338 408
#     4  10  24  42  63  97 137 174 221 288 335 405
#     4  11  25  40  70 100 137 186 230 277 347 409
#
# _framework density 24.301331000000001
#
# number of rings (size 3 to 8) (size 9 to 14) (size 15 to 20)
#    0.000    1.714    0.000    1.714    6.000   12.571 
#    0.000    0.000    0.000    0.000    0.000    0.000 
#    0.000    0.000    0.000    0.000    0.000    0.000 
#
# Total GULP energy -78137.727640 kJ/mol
# GULP energy per Si atom -5581.266260 kJ/mol
# Density = 2.424602 g / cm^3
# Si number density = 24.301331 Si / 1000 Ang^3
#
#
#
# Elastic Constant Matrix: (Units=GPa)
#
#
# Indices 1 2 3 4 5 6 
#
# 1 108.8915 26.7050 49.2308 16.4729 27.7535 10.8945
# 2 26.7050 90.3584 35.9343 -10.6540 7.0403 -1.1210
# 3 49.2308 35.9343 151.8693 2.4507 18.5029 7.2831
# 4 16.4729 -10.6540 2.4507 33.8396 7.9774 2.5860
# 5 27.7535 7.0403 18.5029 7.9774 57.6401 13.2489
# 6 10.8945 -1.1210 7.2831 2.5860 13.2489 38.3523
#
#
#
# Elastic Compliance Matrix: (Units=1/GPa)
#
#
# Indices 1 2 3 4 5 6 
#
# 1 0.013406 -0.003260 -0.002924 -0.006305 -0.003882 -0.001582
# 2 -0.003260 0.013724 -0.002294 0.006090 -0.000569 0.001549
# 3 -0.002924 -0.002294 0.008201 0.000353 -0.000875 -0.000515
# 4 -0.006305 0.006090 0.000353 0.035134 -0.002799 0.000500
# 5 -0.003882 -0.000569 -0.000875 -0.002799 0.021317 -0.005923
# 6 -0.001582 0.001549 -0.000515 0.000500 -0.005923 0.028679
#
#
# Mechanical properties :
#
#
# Convention : Reuss Voigt Hill
#
# Bulk Modulus (GPa) = 54.41833 63.87327 59.14580
# Shear Modulus (GPa) = 34.83295 41.91634 38.37465
#
# Velocity S-wave (km/s) = 3.79010 4.15765 3.97812
# Velocity P-wave (km/s) = 6.44941 7.02773 6.74477
#
# Compressibility (1/GPa) = 0.01837616
#
# Stress axis : x y z
#
# Youngs Moduli (GPa) = 74.59148 72.86350 121.93922
#
# Poissons Ratio (x) = 0.23753 0.35655
# Poissons Ratio (y) = 0.24316 0.27970
# Poissons Ratio (z) = 0.21810 0.16713
#
# Static dielectric constant tensor:
#      x y z
#    x 2.030680 0.001680 -0.017610 
#    y 0.001680 1.893810 0.072830 
#    z -0.017610 0.072830 2.073450 
# 
# From -- ./inp_files/68185.got.cif
#   From: 2010.05.17/outbox.cif.g08.bks.cpg/sg2_35_cif.got.tgz:68185.got - 2010.06.03 11:33:40.
