data_PCOD9040736
_publ_section_title
;
Structure prediction by ZEFSAII (Michael W. Deem and Ramdas Pophale) SiO2 
 PCOD9040736
Probable space group: P -1
;
_chemical_formula_sum "Si O2"
_cell_formula_units_Z 16
_cell_length_a 15.423714
_cell_length_b 12.771468
_cell_length_c 8.863870
_cell_angle_alpha 36.558549
_cell_angle_beta 77.502921
_cell_angle_gamma 57.003847
_cell_volume 782.235536
_symmetry_space_group_name_H-M "P -1"
_symmetry_group_IT_number 2
_symmetry_cell_setting 'triclinic'
loop_
_space_group_symop_operation_xyz
x,y,z
-x,-y,-z
loop_
_atom_site_type_symbol
_atom_site_label
_atom_site_fract_x
_atom_site_fract_y
_atom_site_fract_z
Si Si1 0.029155 0.173442 0.642510
Si Si2 0.809203 0.633821 0.133176
Si Si3 0.594340 0.234986 0.801281
Si Si4 0.012295 0.878221 0.789576
Si Si5 0.847871 0.643943 0.759037
Si Si6 0.555949 0.027167 0.808776
Si Si7 0.157432 0.076416 0.004239
Si Si8 0.586082 0.940186 0.399715
O O1 0.092477 0.254499 0.440202
O O2 0.058876 0.171873 0.806501
O O3 0.891873 0.366747 0.446098
O O4 0.064786 0.944574 0.818266
O O5 0.831719 0.741999 0.137858
O O6 0.847594 0.649872 0.934196
O O7 0.671630 0.780819 0.999402
O O8 0.500000 0.500000 0.500000
O O9 0.599928 0.145428 0.733757
O O10 0.726845 0.124289 0.894812
O O11 0.566794 0.134760 0.067795
O O12 0.083733 0.610889 0.037534
O O13 0.000000 0.000000 0.500000
O O14 0.884960 0.984592 0.769523
O O15 0.715957 0.793324 0.578049
O O16 0.451564 0.172748 0.563992
O O17 0.500000 0.000000 0.000000
O O18 0.500000 0.000000 0.500000
#
# Coordination Sequence:
#
# PCOD9040736 Si02
#       8
#     2   2   2   2   2   2   2   2
#     4  12  24  43  69 100 138 175 232 283 340 410
#     4  11  21  40  69  92 133 184 216 277 345 404
#     4  10  23  43  68  96 138 178 224 285 343 407
#     4  12  26  42  65 103 137 180 230 274 349 418
#     4  12  24  44  70  97 141 182 223 284 348 407
#     4   9  21  38  64  95 126 179 224 267 339 406
#     4  11  24  42  65 100 135 179 228 282 345 404
#     4  11  22  43  69  99 131 176 233 277 339 410
#
# _framework density 20.454197000000001
#
# number of rings (size 3 to 8) (size 9 to 14) (size 15 to 20)
#    0.000    1.000    5.000    1.875    0.000    4.000 
#    0.000    0.625    0.000    0.000    0.000    0.000 
#    0.000    0.000    0.000    0.000    0.000    0.000 
#
# Total GULP energy -89068.705068 kJ/mol
# GULP energy per Si atom -5566.794067 kJ/mol
# Density = 2.040764 g / cm^3
# Si number density = 20.454197 Si / 1000 Ang^3
#
#
#
# Elastic Constant Matrix: (Units=GPa)
#
#
# Indices 1 2 3 4 5 6 
#
# 1 80.9572 25.5801 25.7064 -8.3442 6.0396 -12.4469
# 2 25.5801 98.2009 36.1222 0.9088 -6.3333 -10.0255
# 3 25.7064 36.1222 77.2015 -1.1610 2.0883 -15.5046
# 4 -8.3442 0.9088 -1.1610 36.2465 0.3630 1.9484
# 5 6.0396 -6.3333 2.0883 0.3630 31.4434 12.0264
# 6 -12.4469 -10.0255 -15.5046 1.9484 12.0264 48.4542
#
#
#
# Elastic Compliance Matrix: (Units=1/GPa)
#
#
# Indices 1 2 3 4 5 6 
#
# 1 0.015435 -0.002941 -0.002887 0.003395 -0.004732 0.003470
# 2 -0.002941 0.013134 -0.005425 -0.001182 0.003844 -0.000680
# 3 -0.002887 -0.005425 0.017465 -0.000181 -0.003451 0.004588
# 4 0.003395 -0.001182 -0.000181 0.028421 -0.001091 -0.000303
# 5 -0.004732 0.003844 -0.003451 -0.001091 0.037891 -0.010885
# 6 0.003470 -0.000680 0.004588 -0.000303 -0.010885 0.025571
#
#
# Mechanical properties :
#
#
# Convention : Reuss Voigt Hill
#
# Bulk Modulus (GPa) = 42.50245 47.90855 45.20550
# Shear Modulus (GPa) = 29.71497 34.49222 32.10359
#
# Velocity S-wave (km/s) = 3.81564 4.11093 3.96603
# Velocity P-wave (km/s) = 6.34323 6.78279 6.56669
#
# Compressibility (1/GPa) = 0.02352806
#
# Stress axis : x y z
#
# Youngs Moduli (GPa) = 64.78884 76.13815 57.25813
#
# Poissons Ratio (x) = 0.22390 0.16533
# Poissons Ratio (y) = 0.19053 0.31060
# Poissons Ratio (z) = 0.18708 0.41302
#
# Static dielectric constant tensor:
#      x y z
#    x 1.882910 0.068110 0.040800 
#    y 0.068110 1.853470 -0.003640 
#    z 0.040800 -0.003640 1.764240 
# 
# From -- ./inp_files/306243.got.cif
#   From: 2010.05.17/outbox.cif.g08.bks.cpg/sg2_154_cif.got.tgz:306243.got - 2010.06.03 11:33:40.
