data_PCOD9040888
_publ_section_title
;
Structure prediction by ZEFSAII (Michael W. Deem and Ramdas Pophale) SiO2 
 PCOD9040888
Probable space group: P -1
;
_chemical_formula_sum "Si O2"
_cell_formula_units_Z 16
_cell_length_a 14.837885
_cell_length_b 15.163903
_cell_length_c 11.142535
_cell_angle_alpha 140.329250
_cell_angle_beta 124.656259
_cell_angle_gamma 27.314617
_cell_volume 675.182784
_symmetry_space_group_name_H-M "P -1"
_symmetry_group_IT_number 2
_symmetry_cell_setting 'triclinic'
loop_
_space_group_symop_operation_xyz
x,y,z
-x,-y,-z
loop_
_atom_site_type_symbol
_atom_site_label
_atom_site_fract_x
_atom_site_fract_y
_atom_site_fract_z
Si Si1 0.973211 0.254124 0.257065
Si Si2 0.375827 0.789902 0.515259
Si Si3 0.924480 0.010553 0.328039
Si Si4 0.166976 0.285798 0.796203
Si Si5 0.052221 0.288549 0.109073
Si Si6 0.636249 0.370533 0.086817
Si Si7 0.462830 0.145155 0.013673
Si Si8 0.809253 0.413362 0.548499
O O1 0.785360 0.346394 0.179618
O O2 0.943063 0.331272 0.453387
O O3 0.979180 0.357042 0.262729
O O4 0.199082 0.930399 0.082150
O O5 0.291039 0.821950 0.608237
O O6 0.458511 0.578559 0.273154
O O7 0.578980 0.656730 0.567050
O O8 0.219903 0.065312 0.616871
O O9 0.898599 0.162825 0.375030
O O10 0.000000 0.000000 0.500000
O O11 0.019515 0.774959 0.083238
O O12 0.057607 0.466671 0.786565
O O13 0.376462 0.149276 0.841621
O O14 0.000000 0.500000 0.000000
O O15 0.310638 0.027887 0.022772
O O16 0.500000 0.500000 0.000000
O O17 0.262249 0.452288 0.234308
O O18 0.500000 0.000000 0.000000
#
# Coordination Sequence:
#
# PCOD9040888 Si02
#       8
#     2   2   2   2   2   2   2   2
#     4  10  25  45  64  99 138 177 217 280 332 405
#     4  11  23  41  66 100 130 175 230 274 337 398
#     4  12  24  36  67 106 131 171 223 286 341 400
#     4  12  23  44  69 100 136 178 227 286 333 396
#     4  12  25  45  67 100 142 177 229 281 335 404
#     4  10  23  43  69  92 140 182 217 273 346 403
#     4  12  23  43  73  97 134 181 226 282 337 396
#     4  11  23  44  69  94 140 172 221 276 342 399
#
# _framework density 23.697288
#
# number of rings (size 3 to 8) (size 9 to 14) (size 15 to 20)
#    0.000    0.750    5.000    3.375    5.250    1.000 
#    0.000    3.125    0.000    0.000    0.000    0.000 
#    0.000    0.000    0.000    0.000    0.000    0.000 
#
# Total GULP energy -89353.855016 kJ/mol
# GULP energy per Si atom -5584.615938 kJ/mol
# Density = 2.364335 g / cm^3
# Si number density = 23.697288 Si / 1000 Ang^3
#
#
#
# Elastic Constant Matrix: (Units=GPa)
#
#
# Indices 1 2 3 4 5 6 
#
# 1 116.1789 42.1443 27.2038 -4.1329 -9.7086 33.3330
# 2 42.1443 109.4283 31.4724 -2.8030 10.9717 9.5960
# 3 27.2038 31.4724 45.5723 -15.0196 7.1452 -7.2886
# 4 -4.1329 -2.8030 -15.0196 26.4548 0.4104 -2.4779
# 5 -9.7086 10.9717 7.1452 0.4104 34.7892 -9.4651
# 6 33.3330 9.5960 -7.2886 -2.4779 -9.4651 33.6318
#
#
#
# Elastic Compliance Matrix: (Units=1/GPa)
#
#
# Indices 1 2 3 4 5 6 
#
# 1 0.020016 -0.000787 -0.019000 -0.009998 0.003463 -0.023494
# 2 -0.000787 0.013565 -0.011272 -0.005687 -0.004045 -0.007090
# 3 -0.019000 -0.011272 0.058099 0.032243 -0.004321 0.035798
# 4 -0.009998 -0.005687 0.032243 0.056038 -0.002294 0.022003
# 5 0.003463 -0.004045 -0.004321 -0.002294 0.033549 0.006059
# 6 -0.023494 -0.007090 0.035798 0.022003 0.006059 0.066126
#
#
# Mechanical properties :
#
#
# Convention : Reuss Voigt Hill
#
# Bulk Modulus (GPa) = 33.82832 52.53564 43.18198
# Shear Modulus (GPa) = 15.65594 30.33242 22.99418
#
# Velocity S-wave (km/s) = 2.57313 3.58158 3.11839
# Velocity P-wave (km/s) = 4.80980 6.27067 5.58818
#
# Compressibility (1/GPa) = 0.02956103
#
# Stress axis : x y z
#
# Youngs Moduli (GPa) = 49.95932 73.71749 17.21197
#
# Poissons Ratio (x) = 0.05805 0.32703
# Poissons Ratio (y) = 0.03934 0.19402
# Poissons Ratio (z) = 0.94923 0.83097
#
# Static dielectric constant tensor:
#      x y z
#    x 2.112680 -0.146770 0.176040 
#    y -0.146770 2.036050 -0.174330 
#    z 0.176040 -0.174330 2.202000 
# 
# From -- ./inp_files/455952.got.cif
#   From: 2010.05.17/outbox.cif.g08.bks.cpg/sg2_228_cif.got.tgz:455952.got - 2010.06.03 11:33:40.
