data_PCOD9040061
_publ_section_title
;
Structure prediction by ZEFSAII (Michael W. Deem and Ramdas Pophale) SiO2 
 PCOD9040061
Probable space group: P -1
;
_chemical_formula_sum "Si O2"
_cell_formula_units_Z 14
_cell_length_a 14.396574
_cell_length_b 20.660539
_cell_length_c 9.224412
_cell_angle_alpha 149.820183
_cell_angle_beta 149.586479
_cell_angle_gamma 24.496656
_cell_volume 532.810277
_symmetry_space_group_name_H-M "P -1"
_symmetry_group_IT_number 2
_symmetry_cell_setting 'triclinic'
loop_
_space_group_symop_operation_xyz
x,y,z
-x,-y,-z
loop_
_atom_site_type_symbol
_atom_site_label
_atom_site_fract_x
_atom_site_fract_y
_atom_site_fract_z
Si Si1 0.153006 0.755062 0.651185
Si Si2 0.971594 0.316759 0.950919
Si Si3 0.273267 0.328082 0.055240
Si Si4 0.400183 0.054544 0.211847
Si Si5 0.620501 0.672837 0.133743
Si Si6 0.024566 0.090081 0.995206
Si Si7 0.608703 0.344640 0.737951
O O1 0.094388 0.687202 0.310651
O O2 0.023877 0.796674 0.711907
O O3 0.434908 0.640054 0.842964
O O4 0.095584 0.921199 0.828964
O O5 0.798847 0.314504 0.820339
O O6 0.883773 0.504415 0.209685
O O7 0.238472 0.159813 0.057298
O O8 0.403283 0.362952 0.411785
O O9 0.373280 0.142168 0.878443
O O10 0.377093 0.297367 0.974212
O O11 0.000000 0.500000 0.000000
O O12 0.781183 0.933365 0.894366
O O13 0.463068 0.164192 0.576548
O O14 0.778441 0.180236 0.750019
O O15 0.500000 0.500000 0.000000
#
# Coordination Sequence:
#
# PCOD9040061 Si02
#       7
#     2   2   2   2   2   2   2
#     4  11  22  42  75 108 143 185 244 302 359 422
#     4  11  24  45  76 104 147 188 246 301 357 424
#     4  12  28  46  74 108 146 194 244 295 363 433
#     4  11  25  50  74 105 149 193 236 298 364 433
#     4  12  25  44  72 109 148 191 237 294 365 428
#     4  10  23  42  77 105 140 186 246 296 364 422
#     4  11  24  43  73 104 145 190 246 296 357 425
#
# _framework density 26.275770999999999
#
# number of rings (size 3 to 8) (size 9 to 14) (size 15 to 20)
#    0.000    0.857    2.857    3.000    6.000    2.286 
#    5.143    0.714    0.000    0.000    0.000    0.000 
#    0.000    0.000    0.000    0.000    0.000    0.000 
#
# Total GULP energy -78518.718903 kJ/mol
# GULP energy per Si atom -5608.479922 kJ/mol
# Density = 2.621597 g / cm^3
# Si number density = 26.275771 Si / 1000 Ang^3
#
#
#
# Elastic Constant Matrix: (Units=GPa)
#
#
# Indices 1 2 3 4 5 6 
#
# 1 98.0097 32.7662 24.4249 -6.4386 -18.4649 -3.5478
# 2 32.7662 223.2796 84.4073 -14.6591 2.7135 7.2912
# 3 24.4249 84.4073 184.2939 -13.5235 -15.9967 -1.9330
# 4 -6.4386 -14.6591 -13.5235 51.2334 2.0739 0.5865
# 5 -18.4649 2.7135 -15.9967 2.0739 23.2928 -6.2139
# 6 -3.5478 7.2912 -1.9330 0.5865 -6.2139 39.7190
#
#
#
# Elastic Compliance Matrix: (Units=1/GPa)
#
#
# Indices 1 2 3 4 5 6 
#
# 1 0.013302 -0.002335 0.000428 0.000591 0.011994 0.003505
# 2 -0.002335 0.006120 -0.002906 0.000930 -0.005259 -0.002310
# 3 0.000428 -0.002906 0.007316 0.000884 0.006123 0.001873
# 4 0.000591 0.000930 0.000884 0.020137 -0.000965 -0.000523
# 5 0.011994 -0.005259 0.006123 -0.000965 0.060495 0.011813
# 6 0.003505 -0.002310 0.001873 -0.000523 0.011813 0.027861
#
#
# Mechanical properties :
#
#
# Convention : Reuss Voigt Hill
#
# Bulk Modulus (GPa) = 58.43864 87.64222 73.04043
# Shear Modulus (GPa) = 33.20851 47.11469 40.16160
#
# Velocity S-wave (km/s) = 3.55892 4.23908 3.91380
# Velocity P-wave (km/s) = 6.25912 7.57541 6.94851
#
# Compressibility (1/GPa) = 0.01711197
#
# Stress axis : x y z
#
# Youngs Moduli (GPa) = 75.17394 163.38737 136.67782
#
# Poissons Ratio (x) = 0.38155 -0.05846
# Poissons Ratio (y) = 0.17555 0.39721
# Poissons Ratio (z) = -0.03215 0.47483
#
# Static dielectric constant tensor:
#      x y z
#    x 2.038560 -0.030670 0.048150 
#    y -0.030670 2.077720 0.003740 
#    z 0.048150 0.003740 2.044230 
# 
# From -- ./inp_files/213539.got.cif
#   From: 2010.05.17/outbox.cif.g08.bks.cpg/sg2_107_cif.got.tgz:213539.got - 2010.06.03 11:33:40.
