data_PCOD9040430
_publ_section_title
;
Structure prediction by ZEFSAII (Michael W. Deem and Ramdas Pophale) SiO2 
 PCOD9040430
Probable space group: P -1
;
_chemical_formula_sum "Si O2"
_cell_formula_units_Z 16
_cell_length_a 8.622319
_cell_length_b 20.829888
_cell_length_c 5.134574
_cell_angle_alpha 85.955391
_cell_angle_beta 97.027112
_cell_angle_gamma 48.517538
_cell_volume 671.271418
_symmetry_space_group_name_H-M "P -1"
_symmetry_group_IT_number 2
_symmetry_cell_setting 'triclinic'
loop_
_space_group_symop_operation_xyz
x,y,z
-x,-y,-z
loop_
_atom_site_type_symbol
_atom_site_label
_atom_site_fract_x
_atom_site_fract_y
_atom_site_fract_z
Si Si1 0.479748 0.680384 0.374753
Si Si2 0.182011 0.766951 0.656553
Si Si3 0.345612 0.969548 0.745444
Si Si4 0.220839 0.068742 0.189553
Si Si5 0.920592 0.577712 0.655513
Si Si6 0.493073 0.786877 0.929266
Si Si7 0.620511 0.404196 0.944945
Si Si8 0.972877 0.638473 0.137767
O O1 0.227748 0.746789 0.366558
O O2 0.671156 0.632146 0.633818
O O3 0.527020 0.600561 0.258721
O O4 0.501149 0.739229 0.197526
O O5 0.332300 0.787652 0.727209
O O6 0.964272 0.839304 0.735871
O O7 0.292930 0.670924 0.806371
O O8 0.568935 0.945927 0.786246
O O9 0.390341 0.885654 0.877916
O O10 0.259838 0.000291 0.425645
O O11 0.193880 0.047227 0.902091
O O12 0.948112 0.628982 0.440742
O O13 0.000000 0.500000 0.500000
O O14 0.016732 0.567650 0.959750
O O15 0.746220 0.726834 0.952335
O O16 0.826762 0.372073 0.847341
O O17 0.500000 0.500000 0.000000
#
# Coordination Sequence:
#
# PCOD9040430 Si02
#       8
#     2   2   2   2   2   2   2   2
#     4  10  24  43  64  97 138 181 222 290 339 405
#     4  11  24  43  66  95 140 174 225 280 349 397
#     4  10  23  44  69  99 135 173 229 268 333 408
#     4  10  24  43  68 101 135 176 215 283 333 399
#     4  11  23  41  67  90 131 174 225 276 335 400
#     4  10  23  43  66  98 134 180 224 275 337 406
#     4  11  26  43  67  99 134 181 233 288 342 405
#     4  11  24  42  65  98 126 176 224 274 335 401
#
# _framework density 23.835363000000001
#
# number of rings (size 3 to 8) (size 9 to 14) (size 15 to 20)
#    0.000    1.500    1.250    1.875    8.750    1.500 
#    2.250    0.000    0.000    0.000    0.000    0.000 
#    0.000    0.000    0.000    0.000    0.000    0.000 
#
# Total GULP energy -89176.332128 kJ/mol
# GULP energy per Si atom -5573.520758 kJ/mol
# Density = 2.378111 g / cm^3
# Si number density = 23.835363 Si / 1000 Ang^3
#
#
#
# Elastic Constant Matrix: (Units=GPa)
#
#
# Indices 1 2 3 4 5 6 
#
# 1 91.2809 56.0001 29.5876 -10.4324 -36.7828 -10.8924
# 2 56.0001 123.4563 4.2442 15.6294 -6.4087 4.6546
# 3 29.5876 4.2442 56.8009 16.0217 -7.4184 1.4541
# 4 -10.4324 15.6294 16.0217 -3.7078 -36.6262 -21.5616
# 5 -36.7828 -6.4087 -7.4184 -36.6262 -5.0615 -5.6353
# 6 -10.8924 4.6546 1.4541 -21.5616 -5.6353 36.9851
#
#
#
# Elastic Compliance Matrix: (Units=1/GPa)
#
#
# Indices 1 2 3 4 5 6 
#
# 1 0.011542 -0.004105 -0.003651 -0.009200 -0.004531 -0.001995
# 2 -0.004105 0.010131 0.001958 0.001155 0.006739 -0.000861
# 3 -0.003651 0.001958 0.021790 -0.002575 0.012695 -0.001745
# 4 -0.009200 0.001155 -0.002575 0.013184 -0.027122 0.000800
# 5 -0.004531 0.006739 0.012695 -0.027122 0.021430 -0.015228
# 6 -0.001995 -0.000861 -0.001745 0.000800 -0.015228 0.024774
#
#
# Mechanical properties :
#
#
# Convention : Reuss Voigt Hill
#
# Bulk Modulus (GPa) = 31.38114 50.13353 40.75733
# Shear Modulus (GPa) = 39.97800 17.75692 28.86746
#
# Velocity S-wave (km/s) = 4.09987 2.73240 3.48389
# Velocity P-wave (km/s) = 5.96710 5.57078 5.77234
#
# Compressibility (1/GPa) = 0.03186628
#
# Stress axis : x y z
#
# Youngs Moduli (GPa) = 86.64147 98.70788 45.89268
#
# Poissons Ratio (x) = 0.40521 0.16755
# Poissons Ratio (y) = 0.35567 -0.08985
# Poissons Ratio (z) = 0.31632 -0.19325
#
# Static dielectric constant tensor:
#      x y z
#    x 1.888770 -0.070650 -0.072810 
#    y -0.070650 1.884430 0.005170 
#    z -0.072810 0.005170 1.980250 
# 
# From -- ./inp_files/47952.got.cif
#   From: 2010.05.17/outbox.cif.g08.bks.cpg/sg2_24_cif.got.tgz:47952.got - 2010.06.03 11:33:40.
