data_PCOD9040077
_publ_section_title
;
Structure prediction by ZEFSAII (Michael W. Deem and Ramdas Pophale) SiO2 
 PCOD9040077
Probable space group: P -1
;
_chemical_formula_sum "Si O2"
_cell_formula_units_Z 14
_cell_length_a 16.149806
_cell_length_b 9.307363
_cell_length_c 12.065990
_cell_angle_alpha 133.824009
_cell_angle_beta 27.110544
_cell_angle_gamma 119.804165
_cell_volume 555.636081
_symmetry_space_group_name_H-M "P -1"
_symmetry_group_IT_number 2
_symmetry_cell_setting 'triclinic'
loop_
_space_group_symop_operation_xyz
x,y,z
-x,-y,-z
loop_
_atom_site_type_symbol
_atom_site_label
_atom_site_fract_x
_atom_site_fract_y
_atom_site_fract_z
Si Si1 0.252243 0.114641 0.644736
Si Si2 0.823342 0.672937 0.926935
Si Si3 0.202713 0.906162 0.139094
Si Si4 0.167090 0.876334 0.913186
Si Si5 0.416091 0.224312 0.285201
Si Si6 0.232174 0.355803 0.354979
Si Si7 0.543212 0.344650 0.746492
O O1 0.370974 0.866245 0.393432
O O2 0.027955 0.140705 0.913985
O O3 0.278642 0.238229 0.787162
O O4 0.319289 0.199804 0.501353
O O5 0.683269 0.594714 0.977916
O O6 0.852309 0.876672 0.944840
O O7 0.027045 0.495172 0.621500
O O8 0.182540 0.820638 0.995530
O O9 0.264011 0.112925 0.156929
O O10 0.000000 0.000000 0.500000
O O11 0.382980 0.739285 0.904483
O O12 0.344281 0.741787 0.551514
O O13 0.249912 0.360789 0.470941
O O14 0.500000 0.000000 0.000000
O O15 0.387060 0.465113 0.198397
#
# Coordination Sequence:
#
# PCOD9040077 Si02
#       7
#     2   2   2   2   2   2   2
#     4  11  20  43  68  94 134 175 210 266 325 389
#     4  11  22  40  69 100 132 164 218 272 325 375
#     4  11  25  45  66  91 132 180 214 257 334 396
#     4  11  20  42  68  96 132 176 212 261 328 389
#     4  10  23  43  61  88 132 174 211 256 326 386
#     4  11  24  44  64 101 132 161 225 271 315 381
#     4  11  22  42  70  99 128 169 219 272 317 377
#
# _framework density 25.196349000000001
#
# number of rings (size 3 to 8) (size 9 to 14) (size 15 to 20)
#    0.000    1.143    2.857    6.000    2.000    1.143 
#    2.571    5.000    0.000    0.000    0.000    0.000 
#    0.000    0.000    0.000    0.000    0.000    0.000 
#
# Total GULP energy -78418.780463 kJ/mol
# GULP energy per Si atom -5601.341462 kJ/mol
# Density = 2.513900 g / cm^3
# Si number density = 25.196349 Si / 1000 Ang^3
#
#
#
# Elastic Constant Matrix: (Units=GPa)
#
#
# Indices 1 2 3 4 5 6 
#
# 1 178.3244 23.2063 47.5480 -8.0943 -25.9124 7.7887
# 2 23.2063 76.2246 21.5947 -11.1752 -11.8713 19.2012
# 3 47.5480 21.5947 110.4355 -12.6191 -25.0149 4.1144
# 4 -8.0943 -11.1752 -12.6191 43.6137 2.5236 4.0172
# 5 -25.9124 -11.8713 -25.0149 2.5236 54.6644 -17.9656
# 6 7.7887 19.2012 4.1144 4.0172 -17.9656 38.4332
#
#
#
# Elastic Compliance Matrix: (Units=1/GPa)
#
#
# Indices 1 2 3 4 5 6 
#
# 1 0.006619 -0.001167 -0.002162 0.000150 0.002020 0.000402
# 2 -0.001167 0.016800 -0.002188 0.004329 -0.001014 -0.008849
# 3 -0.002162 -0.002188 0.011551 0.001927 0.004404 0.002152
# 4 0.000150 0.004329 0.001927 0.025197 -0.001092 -0.005544
# 5 0.002020 -0.001014 0.004404 -0.001092 0.024825 0.011344
# 6 0.000402 -0.008849 0.002152 -0.005544 0.011344 0.036011
#
#
# Mechanical properties :
#
#
# Convention : Reuss Voigt Hill
#
# Bulk Modulus (GPa) = 41.77762 61.07583 51.42672
# Shear Modulus (GPa) = 35.71021 45.51796 40.61408
#
# Velocity S-wave (km/s) = 3.76876 4.25494 4.01921
# Velocity P-wave (km/s) = 5.96279 6.95931 6.48023
#
# Compressibility (1/GPa) = 0.02393626
#
# Stress axis : x y z
#
# Youngs Moduli (GPa) = 151.08371 59.52318 86.56994
#
# Poissons Ratio (x) = 0.06948 0.18715
# Poissons Ratio (y) = 0.17636 0.18941
# Poissons Ratio (z) = 0.32661 0.13023
#
# Static dielectric constant tensor:
#      x y z
#    x 2.053180 -0.044750 0.033960 
#    y -0.044750 2.000650 -0.001120 
#    z 0.033960 -0.001120 2.014700 
# 
# From -- ./inp_files/330492.got.cif
#   From: 2010.05.17/outbox.cif.g08.bks.cpg/sg2_166_cif.got.tgz:330492.got - 2010.06.03 11:33:40.
