data_PCOD9040696
_publ_section_title
;
Structure prediction by ZEFSAII (Michael W. Deem and Ramdas Pophale) SiO2 
 PCOD9040696
Probable space group: P -1
;
_chemical_formula_sum "Si O2"
_cell_formula_units_Z 12
_cell_length_a 13.349199
_cell_length_b 9.576652
_cell_length_c 13.260894
_cell_angle_alpha 148.096368
_cell_angle_beta 148.573723
_cell_angle_gamma 44.159922
_cell_volume 466.994252
_symmetry_space_group_name_H-M "P -1"
_symmetry_group_IT_number 2
_symmetry_cell_setting 'triclinic'
loop_
_space_group_symop_operation_xyz
x,y,z
-x,-y,-z
loop_
_atom_site_type_symbol
_atom_site_label
_atom_site_fract_x
_atom_site_fract_y
_atom_site_fract_z
Si Si1 0.209696 0.989591 0.221429
Si Si2 0.488267 0.812449 0.778572
Si Si3 0.629563 0.117732 0.905599
Si Si4 0.920144 0.122399 0.636382
Si Si5 0.223960 0.528742 0.094400
Si Si6 0.783762 0.673696 0.363619
O O1 0.246156 0.695188 0.114469
O O2 0.220934 0.191966 0.447762
O O3 0.352187 0.031721 0.276198
O O4 0.000000 0.000000 0.000000
O O5 0.273174 0.813925 0.552235
O O6 0.575993 0.540103 0.723805
O O7 0.500000 0.000000 0.000000
O O8 0.631691 0.926969 0.885536
O O9 0.785154 0.359579 0.185932
O O10 0.422446 0.250728 0.814465
O O11 0.892026 0.281155 0.814472
O O12 0.927868 0.822130 0.499999
O O13 0.099217 0.256048 0.814064
#
# Coordination Sequence:
#
# PCOD9040696 Si02
#       6
#     2   2   2   2   2   2
#     4  11  25  42  66  99 130 172 220 265 334 390
#     4  11  25  42  66  99 130 172 220 265 334 390
#     4  10  23  43  68  92 134 169 218 274 321 389
#     4   9  21  43  67  95 128 173 220 267 326 386
#     4  10  23  43  68  92 134 169 218 274 321 389
#     4   9  21  43  67  95 128 173 220 267 326 386
#
# _framework density 25.696249000000002
#
# number of rings (size 3 to 8) (size 9 to 14) (size 15 to 20)
#    0.000    2.000    0.000    1.000   14.000    2.667 
#    0.000    0.000    0.000    0.000    0.000    0.000 
#    0.000    0.000    0.000    0.000    0.000    0.000 
#
# Total GULP energy -67219.654028 kJ/mol
# GULP energy per Si atom -5601.637836 kJ/mol
# Density = 2.563776 g / cm^3
# Si number density = 25.696249 Si / 1000 Ang^3
#
#
#
# Elastic Constant Matrix: (Units=GPa)
#
#
# Indices 1 2 3 4 5 6 
#
# 1 122.5826 45.7662 30.3092 16.3397 -4.8929 34.8801
# 2 45.7662 153.2073 42.9254 -0.6294 17.2565 36.4873
# 3 30.3092 42.9254 116.3441 16.1305 12.5493 27.2126
# 4 16.3397 -0.6294 16.1305 30.4773 -2.1478 3.7751
# 5 -4.8929 17.2565 12.5493 -2.1478 30.9201 -0.9073
# 6 34.8801 36.4873 27.2126 3.7751 -0.9073 48.9088
#
#
#
# Elastic Compliance Matrix: (Units=1/GPa)
#
#
# Indices 1 2 3 4 5 6 
#
# 1 0.011571 -0.002273 -0.000379 -0.005127 0.002724 -0.005899
# 2 -0.002273 0.009339 -0.001553 0.002478 -0.004909 -0.004764
# 3 -0.000379 -0.001553 0.011636 -0.005721 -0.004451 -0.004687
# 4 -0.005127 0.002478 -0.005721 0.038585 0.002869 0.002066
# 5 0.002724 -0.004909 -0.004451 0.002869 0.037655 0.004673
# 6 -0.005899 -0.004764 -0.004687 0.002066 0.004673 0.030742
#
#
# Mechanical properties :
#
#
# Convention : Reuss Voigt Hill
#
# Bulk Modulus (GPa) = 41.43267 70.01505 55.72386
# Shear Modulus (GPa) = 32.05445 40.27014 36.16229
#
# Velocity S-wave (km/s) = 3.53574 3.96303 3.75547
# Velocity P-wave (km/s) = 5.72954 6.94602 6.36690
#
# Compressibility (1/GPa) = 0.02413554
#
# Stress axis : x y z
#
# Youngs Moduli (GPa) = 86.42401 107.07689 85.93784
#
# Poissons Ratio (x) = 0.24342 0.03256
# Poissons Ratio (y) = 0.19647 0.13347
# Poissons Ratio (z) = 0.03274 0.16630
#
# Static dielectric constant tensor:
#      x y z
#    x 2.026340 -0.022010 0.024110 
#    y -0.022010 2.017560 0.031080 
#    z 0.024110 0.031080 2.131910 
# 
# From -- ./inp_files/149532.got.cif
#   From: 2010.05.17/outbox.cif.g08.bks.cpg/sg2_75_cif.got.tgz:149532.got - 2010.06.03 11:33:40.
