data_PCOD9040497
_publ_section_title
;
Structure prediction by ZEFSAII (Michael W. Deem and Ramdas Pophale) SiO2 
 PCOD9040497
Probable space group: P -1
;
_chemical_formula_sum "Si O2"
_cell_formula_units_Z 12
_cell_length_a 19.378599
_cell_length_b 4.997131
_cell_length_c 9.122368
_cell_angle_alpha 118.474371
_cell_angle_beta 37.071623
_cell_angle_gamma 101.735603
_cell_volume 441.209534
_symmetry_space_group_name_H-M "P -1"
_symmetry_group_IT_number 2
_symmetry_cell_setting 'triclinic'
loop_
_space_group_symop_operation_xyz
x,y,z
-x,-y,-z
loop_
_atom_site_type_symbol
_atom_site_label
_atom_site_fract_x
_atom_site_fract_y
_atom_site_fract_z
Si Si1 0.286118 0.412376 0.695105
Si Si2 0.473692 0.782732 0.358292
Si Si3 0.617645 0.767410 0.822637
Si Si4 0.675953 0.281811 0.015434
Si Si5 0.993788 0.435707 0.824212
Si Si6 0.086574 0.677198 0.472636
O O1 0.318238 0.459116 0.482174
O O2 0.363325 0.061058 0.537005
O O3 0.304847 0.699838 0.837859
O O4 0.147133 0.439855 0.947485
O O5 0.500000 0.000000 0.500000
O O6 0.565317 0.660521 0.029890
O O7 0.533894 0.446092 0.260607
O O8 0.703955 0.952565 0.791021
O O9 0.500000 0.000000 0.000000
O O10 0.771549 0.451423 0.842506
O O11 0.067102 0.626060 0.662226
O O12 0.041278 0.054399 0.609300
O O13 0.000000 0.500000 0.000000
O O14 0.000000 0.500000 0.500000
#
# Coordination Sequence:
#
# PCOD9040497 Si02
#       6
#     2   2   2   2   2   2
#     4  10  23  45  67 108 143 193 253 311 383 454
#     4   9  22  43  68 103 138 186 246 300 388 442
#     4  10  23  43  67 104 144 189 247 310 380 457
#     4  11  24  44  74 101 149 198 249 314 384 457
#     4  12  27  50  76 115 154 206 263 324 383 464
#     4  12  27  49  78 111 156 207 261 317 389 459
#
# _framework density 27.197962
#
# number of rings (size 3 to 8) (size 9 to 14) (size 15 to 20)
#    0.000    1.333    1.667    2.000    4.667    8.667 
#    6.000    0.000    0.000    0.000    0.000    0.000 
#    0.000    0.000    0.000    0.000    0.000    0.000 
#
# Total GULP energy -67029.792299 kJ/mol
# GULP energy per Si atom -5585.816025 kJ/mol
# Density = 2.713606 g / cm^3
# Si number density = 27.197962 Si / 1000 Ang^3
#
#
#
# Elastic Constant Matrix: (Units=GPa)
#
#
# Indices 1 2 3 4 5 6 
#
# 1 185.7977 30.9485 56.4944 10.2867 24.4960 15.9030
# 2 30.9485 80.4170 20.3140 7.1879 -6.7737 -3.2581
# 3 56.4944 20.3140 115.1163 -9.1862 2.7961 -11.8284
# 4 10.2867 7.1879 -9.1862 39.1842 -1.6817 9.0901
# 5 24.4960 -6.7737 2.7961 -1.6817 75.1203 2.4604
# 6 15.9030 -3.2581 -11.8284 9.0901 2.4604 47.5506
#
#
#
# Elastic Compliance Matrix: (Units=1/GPa)
#
#
# Indices 1 2 3 4 5 6 
#
# 1 0.007573 -0.002136 -0.003750 -0.001855 -0.002462 -0.003130
# 2 -0.002136 0.014115 -0.001528 -0.002704 0.001909 0.001719
# 3 -0.003750 -0.001528 0.011379 0.003184 0.000623 0.003339
# 4 -0.001855 -0.002704 0.003184 0.028275 0.001014 -0.004230
# 5 -0.002462 0.001909 0.000623 0.001014 0.014281 0.000176
# 6 -0.003130 0.001719 0.003339 -0.004230 0.000176 0.023825
#
#
# Mechanical properties :
#
#
# Convention : Reuss Voigt Hill
#
# Bulk Modulus (GPa) = 54.82385 66.31610 60.56997
# Shear Modulus (GPa) = 41.54387 50.60929 46.07658
#
# Velocity S-wave (km/s) = 3.91252 4.31835 4.12043
# Velocity P-wave (km/s) = 6.37271 7.02139 6.70490
#
# Compressibility (1/GPa) = 0.01824024
#
# Stress axis : x y z
#
# Youngs Moduli (GPa) = 132.04472 70.84503 87.88333
#
# Poissons Ratio (x) = 0.15131 0.32952
# Poissons Ratio (y) = 0.28201 0.13430
# Poissons Ratio (z) = 0.49511 0.10827
#
# Static dielectric constant tensor:
#      x y z
#    x 2.128040 0.053470 0.001300 
#    y 0.053470 2.324470 -0.141220 
#    z 0.001300 -0.141220 2.301290 
# 
# From -- ./inp_files/106032.got.cif
#   From: 2010.05.17/outbox.cif.g08.bks.cpg/sg2_54_cif.got.tgz:106032.got - 2010.06.03 11:33:40.
