data_PCOD9040703
_publ_section_title
;
Structure prediction by ZEFSAII (Michael W. Deem and Ramdas Pophale) SiO2 
 PCOD9040703
Probable space group: P -1
;
_chemical_formula_sum "Si O2"
_cell_formula_units_Z 16
_cell_length_a 4.934480
_cell_length_b 8.764835
_cell_length_c 14.490267
_cell_angle_alpha 84.207689
_cell_angle_beta 83.168894
_cell_angle_gamma 98.366335
_cell_volume 611.156601
_symmetry_space_group_name_H-M "P -1"
_symmetry_group_IT_number 2
_symmetry_cell_setting 'triclinic'
loop_
_space_group_symop_operation_xyz
x,y,z
-x,-y,-z
loop_
_atom_site_type_symbol
_atom_site_label
_atom_site_fract_x
_atom_site_fract_y
_atom_site_fract_z
Si Si1 0.082646 0.860933 0.750895
Si Si2 0.080001 0.568073 0.879165
Si Si3 0.673984 0.404889 0.431387
Si Si4 0.105348 0.772038 0.425793
Si Si5 0.490302 0.649407 0.109406
Si Si6 0.624694 0.904644 0.625612
Si Si7 0.635525 0.693046 0.309165
Si Si8 0.130926 0.147930 0.044795
O O1 0.129385 0.688224 0.785752
O O2 0.871546 0.858057 0.677682
O O3 0.920422 0.911917 0.844047
O O4 0.384814 0.943556 0.702718
O O5 0.828663 0.430549 0.873326
O O6 0.002314 0.691850 0.951087
O O7 0.349522 0.498400 0.900137
O O8 0.500000 0.500000 0.500000
O O9 0.926942 0.346965 0.479879
O O10 0.498205 0.242132 0.419948
O O11 0.714028 0.522567 0.337061
O O12 0.334614 0.707988 0.358213
O O13 0.858538 0.788239 0.364375
O O14 0.244292 0.941644 0.442779
O O15 0.611026 0.718209 0.199207
O O16 0.579320 0.781083 0.020096
O O17 0.000000 0.000000 0.000000
#
# Coordination Sequence:
#
# PCOD9040703 Si02
#       8
#     2   2   2   2   2   2   2   2
#     4  10  25  42  70  99 137 180 226 275 335 391
#     4  10  23  43  68  93 134 179 233 266 338 392
#     4  10  24  46  71 103 136 174 224 281 347 402
#     4  11  25  43  67 101 134 177 222 280 339 411
#     4  12  23  45  69 101 130 188 222 283 329 406
#     4  12  24  45  72  96 142 177 229 271 342 410
#     4  11  24  42  70  99 139 169 229 282 336 396
#     4  10  26  44  70 101 146 176 233 279 339 388
#
# _framework density 26.179869
#
# number of rings (size 3 to 8) (size 9 to 14) (size 15 to 20)
#    0.750    0.500    0.000    5.250    3.500    6.000 
#    0.000    8.750    0.000    0.000    0.000    0.000 
#    0.000    0.000    0.000    0.000    0.000    0.000 
#
# Total GULP energy -89408.627750 kJ/mol
# GULP energy per Si atom -5588.039234 kJ/mol
# Density = 2.612028 g / cm^3
# Si number density = 26.179869 Si / 1000 Ang^3
#
#
#
# Elastic Constant Matrix: (Units=GPa)
#
#
# Indices 1 2 3 4 5 6 
#
# 1 114.7897 6.0623 31.2198 -13.7481 11.6708 9.6162
# 2 6.0623 117.4238 25.1360 3.2105 10.6404 27.6860
# 3 31.2198 25.1360 86.2702 5.4608 1.7754 -10.1215
# 4 -13.7481 3.2105 5.4608 46.0326 -3.0340 5.4914
# 5 11.6708 10.6404 1.7754 -3.0340 27.1398 10.8748
# 6 9.6162 27.6860 -10.1215 5.4914 10.8748 34.1740
#
#
#
# Elastic Compliance Matrix: (Units=1/GPa)
#
#
# Indices 1 2 3 4 5 6 
#
# 1 0.011583 0.002410 -0.005972 0.004695 -0.002190 -0.007038
# 2 0.002410 0.012808 -0.006289 0.002143 -0.000106 -0.013228
# 3 -0.005972 -0.006289 0.017535 -0.005168 -0.002086 0.013463
# 4 0.004695 0.002143 -0.005168 0.025062 0.004278 -0.009977
# 5 -0.002190 -0.000106 -0.002086 0.004278 0.044340 -0.014712
# 6 -0.007038 -0.013228 0.013463 -0.009977 -0.014712 0.052231
#
#
# Mechanical properties :
#
#
# Convention : Reuss Voigt Hill
#
# Bulk Modulus (GPa) = 44.99780 49.25777 47.12779
# Shear Modulus (GPa) = 26.22371 38.54035 32.38203
#
# Velocity S-wave (km/s) = 3.16836 3.84101 3.52078
# Velocity P-wave (km/s) = 5.53262 6.20702 5.87950
#
# Compressibility (1/GPa) = 0.02222331
#
# Stress axis : x y z
#
# Youngs Moduli (GPa) = 86.33365 78.07730 57.03037
#
# Poissons Ratio (x) = -0.18814 0.34056
# Poissons Ratio (y) = -0.20804 0.35867
# Poissons Ratio (z) = 0.51555 0.49104
#
# Static dielectric constant tensor:
#      x y z
#    x 2.015540 0.027680 -0.049650 
#    y 0.027680 2.088330 -0.015130 
#    z -0.049650 -0.015130 2.171670 
# 
# From -- ./inp_files/546604.got.cif
#   From: 2010.05.17/outbox.cif.g08.bks.cpg/sg2_274_cif.got.tgz:546604.got - 2010.06.03 11:33:40.
