data_PCOD9040763
_publ_section_title
;
Structure prediction by ZEFSAII (Michael W. Deem and Ramdas Pophale) SiO2 
 PCOD9040763
Probable space group: P -1
;
_chemical_formula_sum "Si O2"
_cell_formula_units_Z 16
_cell_length_a 15.070755
_cell_length_b 8.662887
_cell_length_c 10.358093
_cell_angle_alpha 125.840437
_cell_angle_beta 31.863955
_cell_angle_gamma 118.827287
_cell_volume 578.355710
_symmetry_space_group_name_H-M "P -1"
_symmetry_group_IT_number 2
_symmetry_cell_setting 'triclinic'
loop_
_space_group_symop_operation_xyz
x,y,z
-x,-y,-z
loop_
_atom_site_type_symbol
_atom_site_label
_atom_site_fract_x
_atom_site_fract_y
_atom_site_fract_z
Si Si1 0.464643 0.194385 0.718380
Si Si2 0.033250 0.502172 0.265710
Si Si3 0.820693 0.153961 0.352260
Si Si4 0.866536 0.240613 0.053874
Si Si5 0.826213 0.125087 0.765723
Si Si6 0.564891 0.528495 0.633719
Si Si7 0.219888 0.265005 0.695129
Si Si8 0.306818 0.238212 0.201552
O O1 0.634347 0.245956 0.610152
O O2 0.436880 0.359917 0.727377
O O3 0.500000 0.000000 0.500000
O O4 0.332366 0.197925 0.998240
O O5 0.952021 0.303759 0.322560
O O6 0.862154 0.628205 0.518199
O O7 0.152220 0.680112 0.245414
O O8 0.136659 0.410832 0.973711
O O9 0.872089 0.115451 0.117898
O O10 0.780698 0.953603 0.366921
O O11 0.744926 0.414179 0.334297
O O12 0.787374 0.177821 0.988027
O O13 0.060624 0.270259 0.795631
O O14 0.700912 0.960323 0.807290
O O15 0.000000 0.000000 0.500000
O O16 0.596351 0.676578 0.552200
O O17 0.556732 0.645963 0.833085
#
# Coordination Sequence:
#
# PCOD9040763 Si02
#       8
#     2   2   2   2   2   2   2   2
#     4  11  24  41  63  83 113 156 208 244 283 345
#     4  10  18  33  58  90 118 147 186 239 293 341
#     4  10  22  35  58  89 119 160 185 240 299 353
#     4  10  17  33  56  87 117 149 192 236 285 344
#     4  10  20  30  56  94 120 144 190 252 288 331
#     4  11  20  34  63  89 109 158 198 247 278 348
#     4  11  19  34  59  91 124 150 190 235 307 351
#     4  11  20  36  61  92 117 148 202 247 286 330
#
# _framework density 27.664634
#
# number of rings (size 3 to 8) (size 9 to 14) (size 15 to 20)
#    0.000    1.500    5.000    5.250    0.000    0.000 
#    0.000    1.250    0.000   25.500    0.000    0.000 
#    0.000    0.000    0.000    0.000    0.000    0.000 
#
# Total GULP energy -89148.234153 kJ/mol
# GULP energy per Si atom -5571.764635 kJ/mol
# Density = 2.760167 g / cm^3
# Si number density = 27.664634 Si / 1000 Ang^3
#
#
#
# Elastic Constant Matrix: (Units=GPa)
#
#
# Indices 1 2 3 4 5 6 
#
# 1 51.2918 23.1591 37.1015 1.8780 2.1495 -1.9831
# 2 23.1591 251.2511 45.7841 -0.2538 17.1741 0.2193
# 3 37.1015 45.7841 127.4939 0.3322 34.2808 -9.7087
# 4 1.8780 -0.2538 0.3322 40.2314 -3.7553 9.0846
# 5 2.1495 17.1741 34.2808 -3.7553 38.4256 0.9855
# 6 -1.9831 0.2193 -9.7087 9.0846 0.9855 28.6516
#
#
#
# Elastic Compliance Matrix: (Units=1/GPa)
#
#
# Indices 1 2 3 4 5 6 
#
# 1 0.026478 -0.001240 -0.009389 -0.000116 0.007478 -0.001560
# 2 -0.001240 0.004338 -0.000966 0.000102 -0.000986 -0.000445
# 3 -0.009389 -0.000966 0.014704 -0.002083 -0.012503 0.005430
# 4 -0.000116 0.000102 -0.002083 0.027489 0.004752 -0.009594
# 5 0.007478 -0.000986 -0.012503 0.004752 0.037833 -0.006520
# 6 -0.001560 -0.000445 0.005430 -0.009594 -0.006520 0.039904
#
#
# Mechanical properties :
#
#
# Convention : Reuss Voigt Hill
#
# Bulk Modulus (GPa) = 44.78248 71.34735 58.06491
# Shear Modulus (GPa) = 27.56639 43.06120 35.31380
#
# Velocity S-wave (km/s) = 3.16008 3.94959 3.57668
# Velocity P-wave (km/s) = 5.43485 6.82972 6.17182
#
# Compressibility (1/GPa) = 0.02233016
#
# Stress axis : x y z
#
# Youngs Moduli (GPa) = 37.76674 230.50495 68.01000
#
# Poissons Ratio (x) = 0.28573 0.63858
# Poissons Ratio (y) = 0.04681 0.06570
# Poissons Ratio (z) = 0.35461 0.22269
#
# Static dielectric constant tensor:
#      x y z
#    x 2.281780 -0.057770 -0.035570 
#    y -0.057770 2.363670 -0.093570 
#    z -0.035570 -0.093570 2.146930 
# 
# From -- ./inp_files/470104.got.cif
#   From: 2010.05.17/outbox.cif.g08.bks.cpg/sg2_236_cif.got.tgz:470104.got - 2010.06.03 11:33:40.
