data_PCOD9040794
_publ_section_title
;
Structure prediction by ZEFSAII (Michael W. Deem and Ramdas Pophale) SiO2 
 PCOD9040794
Probable space group: P -1
;
_chemical_formula_sum "Si O2"
_cell_formula_units_Z 16
_cell_length_a 11.945045
_cell_length_b 11.335771
_cell_length_c 10.313147
_cell_angle_alpha 70.838989
_cell_angle_beta 142.927609
_cell_angle_gamma 129.051163
_cell_volume 606.660224
_symmetry_space_group_name_H-M "P -1"
_symmetry_group_IT_number 2
_symmetry_cell_setting 'triclinic'
loop_
_space_group_symop_operation_xyz
x,y,z
-x,-y,-z
loop_
_atom_site_type_symbol
_atom_site_label
_atom_site_fract_x
_atom_site_fract_y
_atom_site_fract_z
Si Si1 0.530084 0.721872 0.695751
Si Si2 0.881503 0.071373 0.535849
Si Si3 0.568767 0.016197 0.732579
Si Si4 0.271387 0.050311 0.856151
Si Si5 0.288069 0.630606 0.963798
Si Si6 0.907878 0.579058 0.468793
Si Si7 0.726891 0.436058 0.755823
Si Si8 0.083907 0.293354 0.997826
O O1 0.514129 0.854824 0.685038
O O2 0.401585 0.651001 0.463313
O O3 0.800779 0.784773 0.914507
O O4 0.368500 0.561972 0.695635
O O5 0.671968 0.005446 0.470997
O O6 0.036621 0.266561 0.602308
O O7 0.048942 0.024140 0.728830
O O8 0.794122 0.018337 0.324678
O O9 0.599967 0.318576 0.806254
O O10 0.645829 0.025774 0.949183
O O11 0.494353 0.244682 0.976872
O O12 0.158637 0.438732 0.917753
O O13 0.077555 0.638013 0.733095
O O14 0.000000 0.500000 0.500000
O O15 0.770169 0.599481 0.775035
O O16 0.000000 0.500000 0.000000
O O17 0.801209 0.166800 0.815804
#
# Coordination Sequence:
#
# PCOD9040794 Si02
#       8
#     2   2   2   2   2   2   2   2
#     4  12  23  45  70 105 147 194 240 302 370 433
#     4  11  26  43  74 107 146 194 245 303 365 439
#     4  12  26  47  73 110 152 191 239 312 372 430
#     4  11  25  47  74 109 143 193 252 300 367 435
#     4  10  23  44  71 105 135 191 244 295 354 436
#     4  12  23  44  73 106 142 190 241 300 368 431
#     4  10  23  43  69 100 135 189 245 287 353 436
#     4  10  26  44  72 104 147 194 244 300 362 443
#
# _framework density 26.373906000000002
#
# number of rings (size 3 to 8) (size 9 to 14) (size 15 to 20)
#    0.750    0.250    3.750    1.875    3.500    3.000 
#    4.500    6.250    0.000    0.000    0.000    0.000 
#    0.000    0.000    0.000    0.000    0.000    0.000 
#
# Total GULP energy -89661.240329 kJ/mol
# GULP energy per Si atom -5603.827521 kJ/mol
# Density = 2.631388 g / cm^3
# Si number density = 26.373906 Si / 1000 Ang^3
#
#
#
# Elastic Constant Matrix: (Units=GPa)
#
#
# Indices 1 2 3 4 5 6 
#
# 1 134.5857 46.2745 36.9309 5.9505 40.2965 -2.1811
# 2 46.2745 104.5304 13.3127 22.6701 21.6922 -0.0021
# 3 36.9309 13.3127 50.4092 6.9406 9.5395 4.9888
# 4 5.9505 22.6701 6.9406 34.3309 -12.4849 3.7551
# 5 40.2965 21.6922 9.5395 -12.4849 64.4270 1.4226
# 6 -2.1811 -0.0021 4.9888 3.7551 1.4226 47.4806
#
#
#
# Elastic Compliance Matrix: (Units=1/GPa)
#
#
# Indices 1 2 3 4 5 6 
#
# 1 0.012237 -0.003128 -0.007080 -0.000888 -0.005758 0.001549
# 2 -0.003128 0.014298 0.000934 -0.011049 -0.005155 0.000787
# 3 -0.007080 0.000934 0.025757 -0.004492 -0.000512 -0.002661
# 4 -0.000888 -0.011049 -0.004492 0.042684 0.013286 -0.003343
# 5 -0.005758 -0.005155 -0.000512 0.013286 0.023552 -0.001967
# 6 0.001549 0.000787 -0.002661 -0.003343 -0.001967 0.021735
#
#
# Mechanical properties :
#
#
# Convention : Reuss Voigt Hill
#
# Bulk Modulus (GPa) = 29.63473 53.61793 41.62633
# Shear Modulus (GPa) = 29.40151 42.11485 35.75818
#
# Velocity S-wave (km/s) = 3.34248 4.00038 3.68614
# Velocity P-wave (km/s) = 5.11439 6.45844 5.82531
#
# Compressibility (1/GPa) = 0.03374420
#
# Stress axis : x y z
#
# Youngs Moduli (GPa) = 81.71890 69.93847 38.82484
#
# Poissons Ratio (x) = 0.21876 0.27489
# Poissons Ratio (y) = 0.25561 -0.03628
# Poissons Ratio (z) = 0.57860 -0.06535
#
# Static dielectric constant tensor:
#      x y z
#    x 2.102770 -0.019800 -0.063760 
#    y -0.019800 2.035220 0.049100 
#    z -0.063760 0.049100 2.098770 
# 
# From -- ./inp_files/426245.got.cif
#   From: 2010.05.17/outbox.cif.g08.bks.cpg/sg2_214_cif.got.tgz:426245.got - 2010.06.03 11:33:40.
