data_PCOD9040152
_publ_section_title
;
Structure prediction by ZEFSAII (Michael W. Deem and Ramdas Pophale) SiO2 
 PCOD9040152
Probable space group: P -1
;
_chemical_formula_sum "Si O2"
_cell_formula_units_Z 16
_cell_length_a 11.602865
_cell_length_b 12.456288
_cell_length_c 11.553449
_cell_angle_alpha 112.588551
_cell_angle_beta 80.471296
_cell_angle_gamma 42.902886
_cell_volume 737.990786
_symmetry_space_group_name_H-M "P -1"
_symmetry_group_IT_number 2
_symmetry_cell_setting 'triclinic'
loop_
_space_group_symop_operation_xyz
x,y,z
-x,-y,-z
loop_
_atom_site_type_symbol
_atom_site_label
_atom_site_fract_x
_atom_site_fract_y
_atom_site_fract_z
Si Si1 0.413433 0.451752 0.455151
Si Si2 0.076482 0.054467 0.947986
Si Si3 0.140736 0.758753 0.414569
Si Si4 0.415806 0.057330 0.232643
Si Si5 0.855467 0.750507 0.882946
Si Si6 0.351562 0.289414 0.539704
Si Si7 0.677502 0.041557 0.588924
Si Si8 0.437663 0.498600 0.885756
O O1 0.500000 0.500000 0.500000
O O2 0.185810 0.677958 0.504985
O O3 0.345800 0.429752 0.564168
O O4 0.657619 0.186565 0.250219
O O5 0.102340 0.149469 0.058033
O O6 0.848507 0.265431 0.986246
O O7 0.000000 0.000000 0.000000
O O8 0.414430 0.540390 0.237012
O O9 0.000000 0.000000 0.500000
O O10 0.959028 0.819201 0.424742
O O11 0.376991 0.990565 0.305098
O O12 0.253095 0.175987 0.196315
O O13 0.356837 0.221302 0.387595
O O14 0.678831 0.849784 0.048728
O O15 0.112469 0.465602 0.721291
O O16 0.566782 0.086153 0.508849
O O17 0.553159 0.273120 0.740591
O O18 0.500000 0.500000 0.000000
#
# Coordination Sequence:
#
# PCOD9040152 Si02
#       8
#     2   2   2   2   2   2   2   2
#     4  12  24  40  72 101 140 190 236 297 359 427
#     4  12  24  44  71 108 144 185 239 301 362 430
#     4  10  23  43  63  99 140 183 230 286 358 427
#     4  11  26  47  74 102 143 196 240 303 358 431
#     4  11  25  48  72 105 145 180 252 298 355 438
#     4  12  24  47  71 105 143 189 248 294 362 430
#     4  11  25  46  69 102 149 188 241 295 360 437
#     4  11  25  42  67 106 148 188 235 295 365 432
#
# _framework density 21.680486999999999
#
# number of rings (size 3 to 8) (size 9 to 14) (size 15 to 20)
#    0.000    0.750    3.750    3.750    7.000    0.500 
#    2.250    0.000    0.000    0.000    0.000    0.000 
#    0.000    0.000    0.000    0.000    0.000    0.000 
#
# Total GULP energy -89246.648229 kJ/mol
# GULP energy per Si atom -5577.915514 kJ/mol
# Density = 2.163114 g / cm^3
# Si number density = 21.680487 Si / 1000 Ang^3
#
#
#
# Elastic Constant Matrix: (Units=GPa)
#
#
# Indices 1 2 3 4 5 6 
#
# 1 129.8496 35.5011 29.4477 -3.5727 -10.1755 -18.3365
# 2 35.5011 53.1164 -6.4131 4.4492 -12.9804 -6.4722
# 3 29.4477 -6.4131 70.7949 3.4784 -8.2707 -9.3518
# 4 -3.5727 4.4492 3.4784 27.2616 -6.8026 -11.7682
# 5 -10.1755 -12.9804 -8.2707 -6.8026 39.3487 -9.5379
# 6 -18.3365 -6.4722 -9.3518 -11.7682 -9.5379 45.9297
#
#
#
# Elastic Compliance Matrix: (Units=1/GPa)
#
#
# Indices 1 2 3 4 5 6 
#
# 1 0.012066 -0.008356 -0.005342 0.005808 0.001289 0.004308
# 2 -0.008356 0.028201 0.007671 -0.002992 0.009040 0.003310
# 3 -0.005342 0.007671 0.018219 -0.001392 0.005576 0.003459
# 4 0.005808 -0.002992 -0.001392 0.048449 0.012635 0.016651
# 5 0.001289 0.009040 0.005576 0.012635 0.035359 0.013504
# 6 0.004308 0.003310 0.003459 0.016651 0.013504 0.031734
#
#
# Mechanical properties :
#
#
# Convention : Reuss Voigt Hill
#
# Bulk Modulus (GPa) = 21.53701 41.20357 31.37029
# Shear Modulus (GPa) = 24.80657 35.52302 30.16480
#
# Velocity S-wave (km/s) = 3.38626 4.05220 3.73411
# Velocity P-wave (km/s) = 5.02438 6.39844 5.75258
#
# Compressibility (1/GPa) = 0.04643170
#
# Stress axis : x y z
#
# Youngs Moduli (GPa) = 82.87463 35.46012 54.88795
#
# Poissons Ratio (x) = 0.29631 0.29320
# Poissons Ratio (y) = 0.69252 -0.42103
# Poissons Ratio (z) = 0.44269 -0.27201
#
# Static dielectric constant tensor:
#      x y z
#    x 1.794480 0.037940 0.036350 
#    y 0.037940 1.785540 -0.002990 
#    z 0.036350 -0.002990 1.848490 
# 
# From -- ./inp_files/428553.got.cif
#   From: 2010.05.17/outbox.cif.g08.bks.cpg/sg2_215_cif.got.tgz:428553.got - 2010.06.03 11:33:40.
