data_PCOD9040314
_publ_section_title
;
Structure prediction by ZEFSAII (Michael W. Deem and Ramdas Pophale) SiO2 
 PCOD9040314
Probable space group: P -1
;
_chemical_formula_sum "Si O2"
_cell_formula_units_Z 14
_cell_length_a 8.985021
_cell_length_b 25.698907
_cell_length_c 10.817725
_cell_angle_alpha 29.823425
_cell_angle_beta 122.781015
_cell_angle_gamma 143.439202
_cell_volume 629.974158
_symmetry_space_group_name_H-M "P -1"
_symmetry_group_IT_number 2
_symmetry_cell_setting 'triclinic'
loop_
_space_group_symop_operation_xyz
x,y,z
-x,-y,-z
loop_
_atom_site_type_symbol
_atom_site_label
_atom_site_fract_x
_atom_site_fract_y
_atom_site_fract_z
Si Si1 0.478087 0.909317 0.564783
Si Si2 0.512256 0.489980 0.345991
Si Si3 0.835549 0.202628 0.581530
Si Si4 0.358030 0.631003 0.513335
Si Si5 0.995711 0.883953 0.793609
Si Si6 0.322941 0.643647 0.198420
Si Si7 0.368260 0.090571 0.767264
O O1 0.200447 0.791736 0.591332
O O2 0.500000 0.000000 0.500000
O O3 0.472990 0.790549 0.865591
O O4 0.748330 0.054196 0.294703
O O5 0.606352 0.472094 0.299515
O O6 0.597894 0.442232 0.585878
O O7 0.170450 0.353105 0.463699
O O8 0.704594 0.682498 0.054536
O O9 0.653972 0.201141 0.583970
O O10 0.674823 0.018245 0.924435
O O11 0.409355 0.714656 0.232440
O O12 0.583388 0.777444 0.414946
O O13 0.026529 0.502974 0.666113
O O14 0.000000 0.000000 0.500000
O O15 0.095006 0.945463 0.852613
#
# Coordination Sequence:
#
# PCOD9040314 Si02
#       7
#     2   2   2   2   2   2   2
#     4  11  23  43  67  98 135 175 219 275 326 389
#     4  10  23  44  69  97 129 175 229 265 325 400
#     4  10  24  39  68  98 137 174 219 268 338 388
#     4   9  20  40  73  94 128 177 222 265 326 394
#     4  11  27  44  65  98 137 173 219 279 337 384
#     4   9  21  39  73  97 129 171 227 266 326 387
#     4  10  23  43  65  97 137 176 214 274 335 397
#
# _framework density 22.223133000000001
#
# number of rings (size 3 to 8) (size 9 to 14) (size 15 to 20)
#    0.857    1.143    0.000    1.714    8.000    4.571 
#    0.000    5.000    0.000    0.000    0.000    0.000 
#    0.000    0.000    0.000    0.000    0.000    0.000 
#
# Total GULP energy -78195.738403 kJ/mol
# GULP energy per Si atom -5585.409886 kJ/mol
# Density = 2.217255 g / cm^3
# Si number density = 22.223133 Si / 1000 Ang^3
#
#
#
# Elastic Constant Matrix: (Units=GPa)
#
#
# Indices 1 2 3 4 5 6 
#
# 1 64.4575 60.0697 43.7894 -19.5811 14.9954 -12.4924
# 2 60.0697 122.7081 60.4480 -19.8813 8.3526 -11.1050
# 3 43.7894 60.4480 103.7601 -1.6000 13.4395 -11.8793
# 4 -19.5811 -19.8813 -1.6000 31.4004 -1.1495 5.1774
# 5 14.9954 8.3526 13.4395 -1.1495 35.6945 -7.7788
# 6 -12.4924 -11.1050 -11.8793 5.1774 -7.7788 40.5319
#
#
#
# Elastic Compliance Matrix: (Units=1/GPa)
#
#
# Indices 1 2 3 4 5 6 
#
# 1 0.039835 -0.012086 -0.007943 0.015977 -0.009810 0.002715
# 2 -0.012086 0.016823 -0.005097 0.003035 0.003069 -0.000409
# 3 -0.007943 -0.005097 0.016216 -0.007673 -0.001473 0.001605
# 4 0.015977 0.003035 -0.007673 0.043663 -0.003735 -0.002787
# 5 -0.009810 0.003069 -0.001473 -0.003735 0.032757 0.004149
# 6 0.002715 -0.000409 0.001605 -0.002787 0.004149 0.027020
#
#
# Mechanical properties :
#
#
# Convention : Reuss Voigt Hill
#
# Bulk Modulus (GPa) = 44.20571 68.83777 56.52174
# Shear Modulus (GPa) = 21.35787 29.96659 25.66223
#
# Velocity S-wave (km/s) = 3.10347 3.67610 3.40185
# Velocity P-wave (km/s) = 5.72512 7.00437 6.39680
#
# Compressibility (1/GPa) = 0.02262151
#
# Stress axis : x y z
#
# Youngs Moduli (GPa) = 25.10354 59.44345 61.66926
#
# Poissons Ratio (x) = 0.71842 0.48982
# Poissons Ratio (y) = 0.30340 0.31436
# Poissons Ratio (z) = 0.19939 0.30301
#
# Static dielectric constant tensor:
#      x y z
#    x 1.898000 0.013670 -0.013080 
#    y 0.013670 1.826890 0.026670 
#    z -0.013080 0.026670 1.786720 
# 
# From -- ./inp_files/407131.got.cif
#   From: 2010.05.17/outbox.cif.g08.bks.cpg/sg2_204_cif.got.tgz:407131.got - 2010.06.03 11:33:40.
