data_PCOD9040384
_publ_section_title
;
Structure prediction by ZEFSAII (Michael W. Deem and Ramdas Pophale) SiO2 
 PCOD9040384
Probable space group: P -1
;
_chemical_formula_sum "Si O2"
_cell_formula_units_Z 14
_cell_length_a 12.267362
_cell_length_b 9.504876
_cell_length_c 14.660996
_cell_angle_alpha 138.359244
_cell_angle_beta 146.565070
_cell_angle_gamma 43.688712
_cell_volume 602.319355
_symmetry_space_group_name_H-M "P -1"
_symmetry_group_IT_number 2
_symmetry_cell_setting 'triclinic'
loop_
_space_group_symop_operation_xyz
x,y,z
-x,-y,-z
loop_
_atom_site_type_symbol
_atom_site_label
_atom_site_fract_x
_atom_site_fract_y
_atom_site_fract_z
Si Si1 0.415314 0.390881 0.972338
Si Si2 0.575712 0.290642 0.720745
Si Si3 0.211943 0.044195 0.700536
Si Si4 0.053678 0.065766 0.169955
Si Si5 0.168744 0.915492 0.801255
Si Si6 0.560849 0.435262 0.409407
Si Si7 0.123496 0.498243 0.468259
O O1 0.327231 0.581132 0.075304
O O2 0.607417 0.222021 0.075218
O O3 0.500000 0.500000 0.000000
O O4 0.007269 0.673007 0.724259
O O5 0.590921 0.401464 0.687238
O O6 0.330593 0.360998 0.601460
O O7 0.701856 0.040273 0.698882
O O8 0.192383 0.070706 0.809243
O O9 0.397834 0.823818 0.705623
O O10 0.000000 0.000000 0.500000
O O11 0.258839 0.244895 0.776530
O O12 0.950055 0.974793 0.138678
O O13 0.000000 0.000000 0.000000
O O14 0.066936 0.730594 0.594593
O O15 0.500000 0.500000 0.500000
O O16 0.778545 0.471070 0.546489
#
# Coordination Sequence:
#
# PCOD9040384 Si02
#       7
#     2   2   2   2   2   2   2
#     4  11  23  45  68  95 132 174 218 268 334 399
#     4   9  22  40  61  93 127 174 219 265 329 394
#     4  11  25  43  70 100 126 173 228 272 329 396
#     4  12  23  37  62 102 136 167 222 277 333 385
#     4  10  23  43  66  92 131 174 218 275 325 399
#     4   9  21  40  63  91 127 170 219 269 330 386
#     4   8  20  41  62  86 132 175 221 259 332 392
#
# _framework density 23.243483000000001
#
# number of rings (size 3 to 8) (size 9 to 14) (size 15 to 20)
#    0.857    1.143    1.429    2.143    2.000    9.143 
#    0.000    0.714    0.000    0.000    0.000    0.000 
#    0.000    0.000    0.000    0.000    0.000    0.000 
#
# Total GULP energy -78067.417847 kJ/mol
# GULP energy per Si atom -5576.244132 kJ/mol
# Density = 2.319058 g / cm^3
# Si number density = 23.243483 Si / 1000 Ang^3
#
#
#
# Elastic Constant Matrix: (Units=GPa)
#
#
# Indices 1 2 3 4 5 6 
#
# 1 138.0404 18.1146 47.3775 14.6602 -42.6653 12.2561
# 2 18.1146 56.3205 22.8878 -0.4438 -5.2757 26.1355
# 3 47.3775 22.8878 94.2707 5.0687 -15.8670 8.2321
# 4 14.6602 -0.4438 5.0687 39.0265 0.1706 0.9013
# 5 -42.6653 -5.2757 -15.8670 0.1706 46.1749 4.5538
# 6 12.2561 26.1355 8.2321 0.9013 4.5538 38.0941
#
#
#
# Elastic Compliance Matrix: (Units=1/GPa)
#
#
# Indices 1 2 3 4 5 6 
#
# 1 0.012882 0.000922 -0.004157 -0.004219 0.011099 -0.005105
# 2 0.000922 0.029104 -0.005135 0.001088 0.004351 -0.019700
# 3 -0.004157 -0.005135 0.013822 -0.000336 0.000139 0.001865
# 4 -0.004219 0.001088 -0.000336 0.027270 -0.004042 0.000522
# 5 0.011099 0.004351 0.000139 -0.004042 0.033507 -0.010496
# 6 -0.005105 -0.019700 0.001865 0.000522 -0.010496 0.042249
#
#
# Mechanical properties :
#
#
# Convention : Reuss Voigt Hill
#
# Bulk Modulus (GPa) = 25.59689 51.71014 38.65351
# Shear Modulus (GPa) = 26.51151 38.00920 32.26036
#
# Velocity S-wave (km/s) = 3.38094 4.04823 3.72954
# Velocity P-wave (km/s) = 5.12615 6.64427 5.93396
#
# Compressibility (1/GPa) = 0.03906725
#
# Stress axis : x y z
#
# Youngs Moduli (GPa) = 77.62903 34.35949 72.34663
#
# Poissons Ratio (x) = -0.03167 0.30075
# Poissons Ratio (y) = -0.07155 0.37151
# Poissons Ratio (z) = 0.32271 0.17644
#
# Static dielectric constant tensor:
#      x y z
#    x 1.834670 -0.032430 0.058010 
#    y -0.032430 1.856980 0.003180 
#    z 0.058010 0.003180 1.923730 
# 
# From -- ./inp_files/530679.got.cif
#   From: 2010.05.17/outbox.cif.g08.bks.cpg/sg2_266_cif.got.tgz:530679.got - 2010.06.03 11:33:40.
