data_PCOD9040620
_publ_section_title
;
Structure prediction by ZEFSAII (Michael W. Deem and Ramdas Pophale) SiO2 
 PCOD9040620
Probable space group: P -1
;
_chemical_formula_sum "Si O2"
_cell_formula_units_Z 14
_cell_length_a 7.360248
_cell_length_b 5.591699
_cell_length_c 19.188555
_cell_angle_alpha 124.079507
_cell_angle_beta 104.558374
_cell_angle_gamma 58.959207
_cell_volume 559.648941
_symmetry_space_group_name_H-M "P -1"
_symmetry_group_IT_number 2
_symmetry_cell_setting 'triclinic'
loop_
_space_group_symop_operation_xyz
x,y,z
-x,-y,-z
loop_
_atom_site_type_symbol
_atom_site_label
_atom_site_fract_x
_atom_site_fract_y
_atom_site_fract_z
Si Si1 0.367581 0.430079 0.173472
Si Si2 0.124898 0.614149 0.452403
Si Si3 0.041084 0.313835 0.047529
Si Si4 0.159090 0.287287 0.769812
Si Si5 0.333200 0.131924 0.264796
Si Si6 0.326546 0.356845 0.562496
Si Si7 0.772510 0.312640 0.262166
O O1 0.285064 0.348464 0.224871
O O2 0.622538 0.268560 0.182706
O O3 0.275126 0.265430 0.083196
O O4 0.292276 0.811310 0.209274
O O5 0.253138 0.375881 0.362758
O O6 0.289347 0.558091 0.521564
O O7 0.918664 0.559558 0.434992
O O8 0.000000 0.000000 0.500000
O O9 0.890341 0.541999 0.132224
O O10 0.000000 0.500000 0.000000
O O11 0.000000 0.000000 0.000000
O O12 0.094065 0.545524 0.743090
O O13 0.408836 0.066407 0.742281
O O14 0.094774 0.002526 0.728990
O O15 0.389158 0.432957 0.656054
O O16 0.500000 0.000000 0.500000
#
# Coordination Sequence:
#
# PCOD9040620 Si02
#       7
#     2   2   2   2   2   2   2
#     4  10  23  44  71  98 138 183 236 293 358 440
#     4  11  28  43  69 107 151 199 250 317 364 407
#     4  12  26  45  72 108 142 171 226 305 376 443
#     4  10  23  43  70  99 136 183 238 283 366 437
#     4  10  23  45  68  99 141 192 247 285 351 439
#     4  11  26  45  69 103 151 196 254 307 369 412
#     4  10  23  43  68 100 135 193 244 287 340 441
#
# _framework density 25.01568
#
# number of rings (size 3 to 8) (size 9 to 14) (size 15 to 20)
#    0.000    1.429    0.000    3.429   14.000    0.571 
#    0.000   17.143    0.000    0.000    0.000    0.000 
#    0.000    0.000    0.000    0.000    0.000    0.000 
#
# Total GULP energy -78064.920526 kJ/mol
# GULP energy per Si atom -5576.065752 kJ/mol
# Density = 2.495874 g / cm^3
# Si number density = 25.015680 Si / 1000 Ang^3
#
#
#
# Elastic Constant Matrix: (Units=GPa)
#
#
# Indices 1 2 3 4 5 6 
#
# 1 100.8789 6.8358 10.6264 -5.4545 -0.5355 21.7805
# 2 6.8358 200.3706 44.1229 0.4126 -2.4891 45.8690
# 3 10.6264 44.1229 111.9388 -1.6666 -4.9901 16.9291
# 4 -5.4545 0.4126 -1.6666 53.3510 -6.4289 2.7735
# 5 -0.5355 -2.4891 -4.9901 -6.4289 47.4714 4.2516
# 6 21.7805 45.8690 16.9291 2.7735 4.2516 51.1892
#
#
#
# Elastic Compliance Matrix: (Units=1/GPa)
#
#
# Indices 1 2 3 4 5 6 
#
# 1 0.011213 0.001047 -0.000559 0.001517 0.000836 -0.005676
# 2 0.001047 0.006726 -0.001810 0.000400 0.000762 -0.005959
# 3 -0.000559 -0.001810 0.009996 0.000490 0.001156 -0.001569
# 4 0.001517 0.000400 0.000490 0.019393 0.002936 -0.002461
# 5 0.000836 0.000762 0.001156 0.002936 0.021939 -0.003403
# 6 -0.005676 -0.005959 -0.001569 -0.002461 -0.003403 0.028225
#
#
# Mechanical properties :
#
#
# Convention : Reuss Voigt Hill
#
# Bulk Modulus (GPa) = 39.53741 59.59540 49.56641
# Shear Modulus (GPa) = 46.05524 53.84254 49.94889
#
# Velocity S-wave (km/s) = 4.29541 4.64438 4.47330
# Velocity P-wave (km/s) = 6.35925 7.25502 6.82185
#
# Compressibility (1/GPa) = 0.02529250
#
# Stress axis : x y z
#
# Youngs Moduli (GPa) = 89.18429 148.66849 100.04067
#
# Poissons Ratio (x) = -0.15568 0.05591
# Poissons Ratio (y) = -0.09339 0.18103
# Poissons Ratio (z) = 0.04985 0.26902
#
# Static dielectric constant tensor:
#      x y z
#    x 2.327950 0.183160 0.266600 
#    y 0.183160 2.232310 0.111040 
#    z 0.266600 0.111040 2.283120 
# 
# From -- ./inp_files/553965.got.cif
#   From: 2010.05.17/outbox.cif.g08.bks.cpg/sg2_277_cif.got.tgz:553965.got - 2010.06.03 11:33:40.
