data_PCOD9040013
_publ_section_title
;
Structure prediction by ZEFSAII (Michael W. Deem and Ramdas Pophale) SiO2 
 PCOD9040013
Probable space group: P -1
;
_chemical_formula_sum "Si O2"
_cell_formula_units_Z 16
_cell_length_a 15.112028
_cell_length_b 9.119333
_cell_length_c 9.804377
_cell_angle_alpha 80.550156
_cell_angle_beta 50.702431
_cell_angle_gamma 117.448372
_cell_volume 693.678598
_symmetry_space_group_name_H-M "P -1"
_symmetry_group_IT_number 2
_symmetry_cell_setting 'triclinic'
loop_
_space_group_symop_operation_xyz
x,y,z
-x,-y,-z
loop_
_atom_site_type_symbol
_atom_site_label
_atom_site_fract_x
_atom_site_fract_y
_atom_site_fract_z
Si Si1 0.375828 0.403955 0.932348
Si Si2 0.553645 0.711787 0.357892
Si Si3 0.128145 0.808074 0.915006
Si Si4 0.937729 0.733265 0.856826
Si Si5 0.724937 0.822271 0.658499
Si Si6 0.623947 0.055441 0.761336
Si Si7 0.374610 0.835000 0.530169
Si Si8 0.011580 0.503533 0.653560
O O1 0.248801 0.383256 0.971806
O O2 0.387395 0.262449 0.858425
O O3 0.569510 0.642070 0.733841
O O4 0.293341 0.306923 0.177500
O O5 0.500000 0.500000 0.500000
O O6 0.711087 0.928992 0.257235
O O7 0.988786 0.748328 0.961210
O O8 0.196962 0.734506 0.767811
O O9 0.074011 0.702738 0.135014
O O10 0.954638 0.603090 0.764928
O O11 0.088968 0.989122 0.617991
O O12 0.596839 0.311964 0.495309
O O13 0.685530 0.948029 0.738436
O O14 0.546702 0.996855 0.697466
O O15 0.787594 0.317041 0.547073
O O16 0.500000 0.000000 0.000000
O O17 0.500000 0.000000 0.500000
O O18 0.000000 0.500000 0.500000
#
# Coordination Sequence:
#
# PCOD9040013 Si02
#       8
#     2   2   2   2   2   2   2   2
#     4  11  25  42  72 104 150 200 240 304 375 453
#     4  11  26  42  71 109 148 192 252 298 375 448
#     4  11  24  48  73 108 148 193 255 310 372 446
#     4  11  24  46  76 102 148 195 247 308 378 436
#     4  10  23  46  66 107 146 194 252 294 376 450
#     4  11  24  43  72 103 140 187 247 313 357 436
#     4  10  23  42  74 102 141 192 242 304 368 428
#     4  11  27  43  71 107 144 185 249 312 372 435
#
# _framework density 23.065438
#
# number of rings (size 3 to 8) (size 9 to 14) (size 15 to 20)
#    0.000    1.250    2.500    2.250   12.250    0.500 
#    0.000    0.000    0.000    0.000    0.000    0.000 
#    0.000    0.000    0.000    0.000    0.000    0.000 
#
# Total GULP energy -89387.204237 kJ/mol
# GULP energy per Si atom -5586.700265 kJ/mol
# Density = 2.301294 g / cm^3
# Si number density = 23.065438 Si / 1000 Ang^3
#
#
#
# Elastic Constant Matrix: (Units=GPa)
#
#
# Indices 1 2 3 4 5 6 
#
# 1 114.0357 29.9627 32.1790 3.8750 -0.3241 18.5212
# 2 29.9627 83.0314 33.3043 0.2376 0.9510 14.0328
# 3 32.1790 33.3043 92.9927 14.2149 13.7020 6.7043
# 4 3.8750 0.2376 14.2149 37.0707 3.0302 6.6409
# 5 -0.3241 0.9510 13.7020 3.0302 43.8552 6.7872
# 6 18.5212 14.0328 6.7043 6.6409 6.7872 37.7971
#
#
#
# Elastic Compliance Matrix: (Units=1/GPa)
#
#
# Indices 1 2 3 4 5 6 
#
# 1 0.010866 -0.001936 -0.003111 0.000733 0.001739 -0.004495
# 2 -0.001936 0.015638 -0.005292 0.002831 0.001839 -0.004746
# 3 -0.003111 -0.005292 0.015062 -0.005506 -0.004639 0.002618
# 4 0.000733 0.002831 -0.005506 0.029989 0.000488 -0.005790
# 5 0.001739 0.001839 -0.004639 0.000488 0.025009 -0.005289
# 6 -0.004495 -0.004746 0.002618 -0.005790 -0.005289 0.031925
#
#
# Mechanical properties :
#
#
# Convention : Reuss Voigt Hill
#
# Bulk Modulus (GPa) = 47.87481 53.43907 50.65694
# Shear Modulus (GPa) = 32.02477 36.71887 34.37182
#
# Velocity S-wave (km/s) = 3.73021 3.99425 3.86448
# Velocity P-wave (km/s) = 6.27326 6.67014 6.47474
#
# Compressibility (1/GPa) = 0.02088781
#
# Stress axis : x y z
#
# Youngs Moduli (GPa) = 92.03269 63.94733 66.39272
#
# Poissons Ratio (x) = 0.12377 0.20654
# Poissons Ratio (y) = 0.17813 0.35137
# Poissons Ratio (z) = 0.28631 0.33843
#
# Static dielectric constant tensor:
#      x y z
#    x 2.901080 0.804650 0.667560 
#    y 0.804650 2.488690 0.501640 
#    z 0.667560 0.501640 2.332860 
# 
# From -- ./inp_files/331916.got.cif
#   From: 2010.05.17/outbox.cif.g08.bks.cpg/sg2_166_cif.got.tgz:331916.got - 2010.06.03 11:33:40.
