data_PCOD9040100
_publ_section_title
;
Structure prediction by ZEFSAII (Michael W. Deem and Ramdas Pophale) SiO2 
 PCOD9040100
Probable space group: P -1
;
_chemical_formula_sum "Si O2"
_cell_formula_units_Z 16
_cell_length_a 8.690932
_cell_length_b 14.009720
_cell_length_c 14.091373
_cell_angle_alpha 44.854368
_cell_angle_beta 125.789873
_cell_angle_gamma 89.669814
_cell_volume 665.913579
_symmetry_space_group_name_H-M "P -1"
_symmetry_group_IT_number 2
_symmetry_cell_setting 'triclinic'
loop_
_space_group_symop_operation_xyz
x,y,z
-x,-y,-z
loop_
_atom_site_type_symbol
_atom_site_label
_atom_site_fract_x
_atom_site_fract_y
_atom_site_fract_z
Si Si1 0.493938 0.990442 0.209235
Si Si2 0.323011 0.878966 0.693929
Si Si3 0.422969 0.333718 0.464295
Si Si4 0.951150 0.178658 0.819784
Si Si5 0.461343 0.484021 0.886018
Si Si6 0.954604 0.376799 0.023575
Si Si7 0.724557 0.054874 0.579833
Si Si8 0.915472 0.893478 0.298818
O O1 0.596652 0.781135 0.391347
O O2 0.625413 0.998120 0.162572
O O3 0.635746 0.989512 0.350501
O O4 0.157489 0.161789 0.968303
O O5 0.403980 0.825825 0.650214
O O6 0.499583 0.697324 0.959718
O O7 0.000000 0.000000 0.500000
O O8 0.618446 0.349961 0.564302
O O9 0.566290 0.188645 0.523140
O O10 0.143724 0.540249 0.176620
O O11 0.063488 0.139580 0.781601
O O12 0.000000 0.000000 0.000000
O O13 0.168306 0.682720 0.593999
O O14 0.500000 0.500000 0.000000
O O15 0.709483 0.424752 0.957759
O O16 0.204622 0.138749 0.273346
O O17 0.000000 0.500000 0.000000
O O18 0.016001 0.984931 0.743724
#
# Coordination Sequence:
#
# PCOD9040100 Si02
#       8
#     2   2   2   2   2   2   2   2
#     4  11  22  39  66  90 123 166 219 256 317 384
#     4  12  21  36  60  92 126 165 208 261 318 380
#     4  10  23  43  62  93 128 167 211 268 312 371
#     4   9  20  41  68  88 122 167 213 267 315 367
#     4  12  22  38  60  91 134 165 204 261 320 373
#     4  12  24  36  62  94 129 170 207 255 316 384
#     4  11  22  41  62  90 130 170 204 256 327 372
#     4  11  21  41  66  91 124 170 210 261 316 376
#
# _framework density 24.027142000000001
#
# number of rings (size 3 to 8) (size 9 to 14) (size 15 to 20)
#    0.000    1.000    6.250    1.125    1.750    3.000 
#    0.000    0.625    5.500    6.750    0.000    0.000 
#    0.000    0.000    0.000    0.000    0.000    0.000 
#
# Total GULP energy -89404.274068 kJ/mol
# GULP energy per Si atom -5587.767129 kJ/mol
# Density = 2.397246 g / cm^3
# Si number density = 24.027142 Si / 1000 Ang^3
#
#
#
# Elastic Constant Matrix: (Units=GPa)
#
#
# Indices 1 2 3 4 5 6 
#
# 1 88.3027 48.5685 6.9899 0.8032 -1.8113 19.2412
# 2 48.5685 84.2303 39.6005 3.8395 12.1603 2.7162
# 3 6.9899 39.6005 112.8952 6.5097 -0.9929 13.7373
# 4 0.8032 3.8395 6.5097 41.2548 8.0293 2.9066
# 5 -1.8113 12.1603 -0.9929 8.0293 36.1566 11.9446
# 6 19.2412 2.7162 13.7373 2.9066 11.9446 43.1597
#
#
#
# Elastic Compliance Matrix: (Units=1/GPa)
#
#
# Indices 1 2 3 4 5 6 
#
# 1 0.025173 -0.019366 0.007382 -0.001365 0.013572 -0.016017
# 2 -0.019366 0.030304 -0.011484 0.001579 -0.016755 0.014912
# 3 0.007382 -0.011484 0.013723 -0.002176 0.008073 -0.009024
# 4 -0.001365 0.001579 -0.002176 0.025693 -0.006813 0.001357
# 5 0.013572 -0.016755 0.008073 -0.006813 0.041884 -0.018698
# 6 -0.016017 0.014912 -0.009024 0.001357 -0.018698 0.037328
#
#
# Mechanical properties :
#
#
# Convention : Reuss Voigt Hill
#
# Bulk Modulus (GPa) = 44.91541 52.86067 48.88804
# Shear Modulus (GPa) = 21.88527 36.79885 29.34206
#
# Velocity S-wave (km/s) = 3.02131 3.91775 3.49837
# Velocity P-wave (km/s) = 5.55925 6.52021 6.05882
#
# Compressibility (1/GPa) = 0.02226407
#
# Stress axis : x y z
#
# Youngs Moduli (GPa) = 39.72455 32.99875 72.86808
#
# Poissons Ratio (x) = 0.63907 -0.53789
# Poissons Ratio (y) = 0.76932 0.83680
# Poissons Ratio (z) = -0.29324 0.37895
#
# Static dielectric constant tensor:
#      x y z
#    x 1.940220 0.013270 0.019930 
#    y 0.013270 2.000150 -0.024120 
#    z 0.019930 -0.024120 1.949620 
# 
# From -- ./inp_files/505301.got.cif
#   From: 2010.05.17/outbox.cif.g08.bks.cpg/sg2_253_cif.got.tgz:505301.got - 2010.06.03 11:33:40.
