data_PCOD9040193
_publ_section_title
;
Structure prediction by ZEFSAII (Michael W. Deem and Ramdas Pophale) SiO2 
 PCOD9040193
Probable space group: P -1
;
_chemical_formula_sum "Si O2"
_cell_formula_units_Z 12
_cell_length_a 8.379294
_cell_length_b 9.350991
_cell_length_c 6.972438
_cell_angle_alpha 119.220160
_cell_angle_beta 107.995932
_cell_angle_gamma 94.401397
_cell_volume 436.103311
_symmetry_space_group_name_H-M "P -1"
_symmetry_group_IT_number 2
_symmetry_cell_setting 'triclinic'
loop_
_space_group_symop_operation_xyz
x,y,z
-x,-y,-z
loop_
_atom_site_type_symbol
_atom_site_label
_atom_site_fract_x
_atom_site_fract_y
_atom_site_fract_z
Si Si1 0.682802 0.015036 0.353528
Si Si2 0.452892 0.657115 0.973456
Si Si3 0.112826 0.764392 0.960009
Si Si4 0.331434 0.095262 0.272844
Si Si5 0.003865 0.321531 0.768206
Si Si6 0.801746 0.594460 0.489827
O O1 0.685057 0.960704 0.543963
O O2 0.522146 0.088684 0.288818
O O3 0.846490 0.183031 0.510179
O O4 0.616633 0.822123 0.113933
O O5 0.294045 0.718475 0.057070
O O6 0.348996 0.580415 0.691741
O O7 0.500000 0.500000 0.000000
O O8 0.982915 0.624940 0.690688
O O9 0.993597 0.784589 0.108172
O O10 0.190476 0.946724 0.011821
O O11 0.286900 0.270844 0.365328
O O12 0.147706 0.361949 0.685410
O O13 0.000000 0.500000 0.000000
#
# Coordination Sequence:
#
# PCOD9040193 Si02
#       6
#     2   2   2   2   2   2
#     4   9  20  40  62  93 133 167 214 264 320 382
#     4  11  21  39  67  96 125 181 214 250 328 396
#     4  10  23  43  64  95 133 166 214 271 321 372
#     4   9  19  38  67  91 124 174 210 258 323 385
#     4  11  24  40  67  97 130 168 214 272 320 377
#     4  12  23  39  73  95 125 170 222 262 322 382
#
# _framework density 27.516418000000002
#
# number of rings (size 3 to 8) (size 9 to 14) (size 15 to 20)
#    0.000    1.667    3.333    2.000    0.000    2.667 
#    0.000    3.333    3.667    3.000    0.000    0.000 
#    0.000    0.000    0.000    0.000    0.000    0.000 
#
# Total GULP energy -66890.871715 kJ/mol
# GULP energy per Si atom -5574.239310 kJ/mol
# Density = 2.745379 g / cm^3
# Si number density = 27.516418 Si / 1000 Ang^3
#
#
#
# Elastic Constant Matrix: (Units=GPa)
#
#
# Indices 1 2 3 4 5 6 
#
# 1 106.9901 52.2017 57.0168 14.8948 20.1182 1.7304
# 2 52.2017 102.7176 42.8544 24.4400 15.5409 -4.7945
# 3 57.0168 42.8544 228.4239 43.1351 32.8029 11.3004
# 4 14.8948 24.4400 43.1351 58.8594 10.4888 6.6270
# 5 20.1182 15.5409 32.8029 10.4888 49.1022 8.5385
# 6 1.7304 -4.7945 11.3004 6.6270 8.5385 36.1907
#
#
#
# Elastic Compliance Matrix: (Units=1/GPa)
#
#
# Indices 1 2 3 4 5 6 
#
# 1 0.013723 -0.005983 -0.002129 0.001055 -0.002463 -0.000396
# 2 -0.005983 0.014333 -0.000331 -0.004307 -0.001542 0.003441
# 3 -0.002129 -0.000331 0.005922 -0.003198 -0.002176 -0.000692
# 4 0.001055 -0.004307 -0.003198 0.021394 -0.000925 -0.003322
# 5 -0.002463 -0.001542 -0.002176 -0.000925 0.024382 -0.004990
# 6 -0.000396 0.003441 -0.000692 -0.003322 -0.004990 0.030108
#
#
# Mechanical properties :
#
#
# Convention : Reuss Voigt Hill
#
# Bulk Modulus (GPa) = 58.50539 82.47526 70.49033
# Shear Modulus (GPa) = 37.75190 47.90106 42.82648
#
# Velocity S-wave (km/s) = 3.70804 4.17684 3.94940
# Velocity P-wave (km/s) = 6.29610 7.30065 6.81690
#
# Compressibility (1/GPa) = 0.01709244
#
# Stress axis : x y z
#
# Youngs Moduli (GPa) = 72.87077 69.77012 168.86477
#
# Poissons Ratio (x) = 0.41742 0.35949
# Poissons Ratio (y) = 0.43597 0.05589
# Poissons Ratio (z) = 0.15513 0.02309
#
# Static dielectric constant tensor:
#      x y z
#    x 2.143320 0.004870 -0.024180 
#    y 0.004870 2.207450 0.027770 
#    z -0.024180 0.027770 2.292180 
# 
# From -- ./inp_files/173481.got.cif
#   From: 2010.05.17/outbox.cif.g08.bks.cpg/sg2_87_cif.got.tgz:173481.got - 2010.06.03 11:33:40.
