data_PCOD9040819
_publ_section_title
;
Structure prediction by ZEFSAII (Michael W. Deem and Ramdas Pophale) SiO2 
 PCOD9040819
Probable space group: P -1
;
_chemical_formula_sum "Si O2"
_cell_formula_units_Z 16
_cell_length_a 16.253789
_cell_length_b 8.580078
_cell_length_c 9.509487
_cell_angle_alpha 81.705095
_cell_angle_beta 150.350669
_cell_angle_gamma 107.120061
_cell_volume 609.272472
_symmetry_space_group_name_H-M "P -1"
_symmetry_group_IT_number 2
_symmetry_cell_setting 'triclinic'
loop_
_space_group_symop_operation_xyz
x,y,z
-x,-y,-z
loop_
_atom_site_type_symbol
_atom_site_label
_atom_site_fract_x
_atom_site_fract_y
_atom_site_fract_z
Si Si1 0.498425 0.956485 0.263495
Si Si2 0.731903 0.596643 0.254543
Si Si3 0.947264 0.741582 0.295227
Si Si4 0.878527 0.315523 0.883890
Si Si5 0.306227 0.484595 0.271023
Si Si6 0.408904 0.337880 0.689221
Si Si7 0.219432 0.979337 0.065194
Si Si8 0.268508 0.767462 0.610854
O O1 0.494401 0.788317 0.199434
O O2 0.327853 0.958335 0.093545
O O3 0.643952 0.976772 0.603866
O O4 0.553474 0.099619 0.205387
O O5 0.893143 0.687308 0.380991
O O6 0.685689 0.700443 0.296713
O O7 0.737033 0.422850 0.352951
O O8 0.558167 0.522163 0.906181
O O9 0.155530 0.800858 0.565928
O O10 0.840543 0.580789 0.059425
O O11 0.866740 0.882031 0.111638
O O12 0.709367 0.348870 0.701839
O O13 0.924625 0.197645 0.078512
O O14 0.849457 0.229846 0.701299
O O15 0.000000 0.500000 0.000000
O O16 0.500000 0.500000 0.500000
O O17 0.276611 0.350976 0.370407
#
# Coordination Sequence:
#
# PCOD9040819 Si02
#       8
#     2   2   2   2   2   2   2   2
#     4  10  23  43  69 101 138 175 227 282 333 402
#     4  11  26  43  67 100 137 179 230 275 338 403
#     4  12  25  44  68 100 140 176 223 286 335 402
#     4  11  23  42  67 103 134 172 223 282 336 403
#     4  12  22  39  71 102 129 173 232 280 336 388
#     4  11  23  42  70  99 130 178 230 283 331 398
#     4  10  24  40  68 104 137 170 225 285 337 391
#     4  11  25  44  66  96 141 184 219 275 345 402
#
# _framework density 26.260829999999999
#
# number of rings (size 3 to 8) (size 9 to 14) (size 15 to 20)
#    0.000    1.000    5.000    1.125    7.000    3.500 
#    0.000    0.625    0.000    0.000    0.000    0.000 
#    0.000    0.000    0.000    0.000    0.000    0.000 
#
# Total GULP energy -89565.541358 kJ/mol
# GULP energy per Si atom -5597.846335 kJ/mol
# Density = 2.620106 g / cm^3
# Si number density = 26.260830 Si / 1000 Ang^3
#
#
#
# Elastic Constant Matrix: (Units=GPa)
#
#
# Indices 1 2 3 4 5 6 
#
# 1 213.7489 60.4321 37.6686 2.6641 -5.1100 8.5582
# 2 60.4321 114.9811 7.9073 -21.8759 3.9830 11.5332
# 3 37.6686 7.9073 74.4212 -10.6311 -7.7540 1.9634
# 4 2.6641 -21.8759 -10.6311 32.5298 -0.8788 4.6514
# 5 -5.1100 3.9830 -7.7540 -0.8788 43.2673 -2.9962
# 6 8.5582 11.5332 1.9634 4.6514 -2.9962 52.8274
#
#
#
# Elastic Compliance Matrix: (Units=1/GPa)
#
#
# Indices 1 2 3 4 5 6 
#
# 1 0.006488 -0.004072 -0.003448 -0.004439 0.000460 0.000383
# 2 -0.004072 0.013001 0.002082 0.010182 -0.001321 -0.003228
# 3 -0.003448 0.002082 0.016266 0.007206 0.002393 -0.000999
# 4 -0.004439 0.010182 0.007206 0.041083 0.000292 -0.005372
# 5 0.000460 -0.001321 0.002393 0.000292 0.023823 0.001451
# 6 0.000383 -0.003228 -0.000999 -0.005372 0.001451 0.020165
#
#
# Mechanical properties :
#
#
# Convention : Reuss Voigt Hill
#
# Bulk Modulus (GPa) = 40.19399 68.35190 54.27294
# Shear Modulus (GPa) = 35.71569 45.53444 40.62507
#
# Velocity S-wave (km/s) = 3.69187 4.16857 3.93744
# Velocity P-wave (km/s) = 5.78896 7.01811 6.43296
#
# Compressibility (1/GPa) = 0.02487934
#
# Stress axis : x y z
#
# Youngs Moduli (GPa) = 154.12780 76.91868 61.47805
#
# Poissons Ratio (x) = 0.31319 0.21195
# Poissons Ratio (y) = 0.62757 -0.12798
# Poissons Ratio (z) = 0.53138 -0.16012
#
# Static dielectric constant tensor:
#      x y z
#    x 2.030510 0.026230 0.014380 
#    y 0.026230 2.061620 0.107590 
#    z 0.014380 0.107590 2.196860 
# 
# From -- ./inp_files/261614.got.cif
#   From: 2010.05.17/outbox.cif.g08.bks.cpg/sg2_131_cif.got.tgz:261614.got - 2010.06.03 11:33:40.
