data_PCOD9040268
_publ_section_title
;
Structure prediction by ZEFSAII (Michael W. Deem and Ramdas Pophale) SiO2 
 PCOD9040268
Probable space group: P -1
;
_chemical_formula_sum "Si O2"
_cell_formula_units_Z 12
_cell_length_a 7.353804
_cell_length_b 7.033682
_cell_length_c 10.029764
_cell_angle_alpha 114.653232
_cell_angle_beta 77.633029
_cell_angle_gamma 77.674123
_cell_volume 432.934922
_symmetry_space_group_name_H-M "P -1"
_symmetry_group_IT_number 2
_symmetry_cell_setting 'triclinic'
loop_
_space_group_symop_operation_xyz
x,y,z
-x,-y,-z
loop_
_atom_site_type_symbol
_atom_site_label
_atom_site_fract_x
_atom_site_fract_y
_atom_site_fract_z
Si Si1 0.616081 0.293333 0.045434
Si Si2 0.214331 0.587172 0.197397
Si Si3 0.545343 0.709582 0.494150
Si Si4 0.611062 0.966173 0.165619
Si Si5 0.960091 0.401959 0.336681
Si Si6 0.867204 0.987392 0.348756
O O1 0.440024 0.508091 0.191064
O O2 0.690106 0.114218 0.095864
O O3 0.762952 0.361065 0.946759
O O4 0.492420 0.182890 0.936271
O O5 0.051745 0.813452 0.342625
O O6 0.129209 0.397533 0.203793
O O7 0.500000 0.500000 0.500000
O O8 0.556347 0.857555 0.664896
O O9 0.758926 0.584172 0.363492
O O10 0.343671 0.875793 0.507931
O O11 0.787744 0.858622 0.208936
O O12 0.934896 0.170868 0.313808
O O13 0.000000 0.500000 0.500000
#
# Coordination Sequence:
#
# PCOD9040268 Si02
#       6
#     2   2   2   2   2   2
#     4  10  23  43  65  92 138 170 221 265 313 395
#     4  11  25  42  62 105 121 174 224 263 324 382
#     4   8  18  41  63  93 125 169 208 266 321 381
#     4   9  20  44  70  89 130 183 205 267 336 368
#     4  11  23  42  70  94 133 170 215 269 329 386
#     4   9  23  42  65  98 127 166 219 263 330 375
#
# _framework density 27.717794999999999
#
# number of rings (size 3 to 8) (size 9 to 14) (size 15 to 20)
#    1.000    1.333    0.000    1.000    7.000    2.667 
#    6.000    0.000    0.000    0.000    0.000    0.000 
#    0.000    0.000    0.000    0.000    0.000    0.000 
#
# Total GULP energy -67087.218288 kJ/mol
# GULP energy per Si atom -5590.601524 kJ/mol
# Density = 2.765471 g / cm^3
# Si number density = 27.717795 Si / 1000 Ang^3
#
#
#
# Elastic Constant Matrix: (Units=GPa)
#
#
# Indices 1 2 3 4 5 6 
#
# 1 118.3413 30.6452 27.4446 -0.1200 -12.6563 -9.7969
# 2 30.6452 133.2858 52.0558 -33.3285 -5.8066 -4.3550
# 3 27.4446 52.0558 73.8338 -3.9268 -16.0992 17.8505
# 4 -0.1200 -33.3285 -3.9268 65.4183 8.6479 -18.0940
# 5 -12.6563 -5.8066 -16.0992 8.6479 62.7986 0.8123
# 6 -9.7969 -4.3550 17.8505 -18.0940 0.8123 45.6989
#
#
#
# Elastic Compliance Matrix: (Units=1/GPa)
#
#
# Indices 1 2 3 4 5 6 
#
# 1 0.009923 -0.000315 -0.004232 0.000604 0.000751 0.003976
# 2 -0.000315 0.016132 -0.014302 0.011058 -0.003910 0.011504
# 3 -0.004232 -0.014302 0.030851 -0.011729 0.007596 -0.019100
# 4 0.000604 0.011058 -0.011729 0.025350 -0.005559 0.015901
# 5 0.000751 -0.003910 0.007596 -0.005559 0.018501 -0.005709
# 6 0.003976 0.011504 -0.019100 0.015901 -0.005709 0.037689
#
#
# Mechanical properties :
#
#
# Convention : Reuss Voigt Hill
#
# Bulk Modulus (GPa) = 52.06270 60.63912 56.35091
# Shear Modulus (GPa) = 27.39049 49.13749 38.26399
#
# Velocity S-wave (km/s) = 3.14696 4.21500 3.71952
# Velocity P-wave (km/s) = 5.65936 6.75375 6.23063
#
# Compressibility (1/GPa) = 0.01920761
#
# Stress axis : x y z
#
# Youngs Moduli (GPa) = 100.77351 61.99009 32.41433
#
# Poissons Ratio (x) = 0.01954 0.13717
# Poissons Ratio (y) = 0.03176 0.46359
# Poissons Ratio (z) = 0.42644 0.88659
#
# Static dielectric constant tensor:
#      x y z
#    x 2.173240 0.007040 -0.025050 
#    y 0.007040 2.132130 0.071540 
#    z -0.025050 0.071540 2.151930 
# 
# From -- ./inp_files/380220.got.cif
#   From: 2010.05.17/outbox.cif.g08.bks.cpg/sg2_191_cif.got.tgz:380220.got - 2010.06.03 11:33:40.
