data_PCOD9040473
_publ_section_title
;
Structure prediction by ZEFSAII (Michael W. Deem and Ramdas Pophale) SiO2 
 PCOD9040473
Probable space group: P -1
;
_chemical_formula_sum "Si O2"
_cell_formula_units_Z 14
_cell_length_a 10.343795
_cell_length_b 21.648798
_cell_length_c 7.951693
_cell_angle_alpha 49.993102
_cell_angle_beta 47.109299
_cell_angle_gamma 24.966321
_cell_volume 548.714593
_symmetry_space_group_name_H-M "P -1"
_symmetry_group_IT_number 2
_symmetry_cell_setting 'triclinic'
loop_
_space_group_symop_operation_xyz
x,y,z
-x,-y,-z
loop_
_atom_site_type_symbol
_atom_site_label
_atom_site_fract_x
_atom_site_fract_y
_atom_site_fract_z
Si Si1 0.627567 0.918706 0.800649
Si Si2 0.195530 0.944382 0.254669
Si Si3 0.705954 0.385816 0.165408
Si Si4 0.250854 0.193509 0.490908
Si Si5 0.452076 0.592531 0.254613
Si Si6 0.580225 0.229034 0.150810
Si Si7 0.628328 0.642076 0.525458
O O1 0.697166 0.856393 0.659765
O O2 0.950246 0.785479 0.853346
O O3 0.512952 0.052219 0.627791
O O4 0.359400 0.968267 0.042052
O O5 0.489709 0.768604 0.315370
O O6 0.000000 0.000000 0.500000
O O7 0.919235 0.051832 0.167552
O O8 0.740493 0.455104 0.118867
O O9 0.481601 0.397148 0.403697
O O10 0.500000 0.500000 0.000000
O O11 0.301477 0.269354 0.316344
O O12 0.911390 0.289477 0.688254
O O13 0.500000 0.500000 0.500000
O O14 0.448064 0.689887 0.104228
O O15 0.549936 0.284603 0.262285
O O16 0.000000 0.500000 0.500000
#
# Coordination Sequence:
#
# PCOD9040473 Si02
#       7
#     2   2   2   2   2   2   2
#     4  11  24  46  71 105 140 188 247 288 361 429
#     4  10  23  43  67 101 141 180 236 295 353 428
#     4  12  24  43  70 101 145 186 232 302 350 421
#     4  11  25  46  74 101 143 192 237 299 353 430
#     4  12  25  46  69 105 146 186 239 290 366 425
#     4  11  24  46  67 102 142 186 239 293 356 424
#     4  11  23  42  68 103 138 184 239 288 359 422
#
# _framework density 25.514175000000002
#
# number of rings (size 3 to 8) (size 9 to 14) (size 15 to 20)
#    0.000    0.857    4.286    2.571    0.000    3.429 
#    0.000    5.000    0.000    0.000    0.000    0.000 
#    0.000    0.000    0.000    0.000    0.000    0.000 
#
# Total GULP energy -78137.979039 kJ/mol
# GULP energy per Si atom -5581.284217 kJ/mol
# Density = 2.545610 g / cm^3
# Si number density = 25.514175 Si / 1000 Ang^3
#
#
#
# Elastic Constant Matrix: (Units=GPa)
#
#
# Indices 1 2 3 4 5 6 
#
# 1 48.2017 7.1980 28.2506 5.7650 -18.9713 15.3807
# 2 7.1980 150.4472 57.6130 -20.6786 -12.8660 -11.6170
# 3 28.2506 57.6130 146.7397 -32.9327 -34.2305 3.7651
# 4 5.7650 -20.6786 -32.9327 57.9892 0.1946 -11.2178
# 5 -18.9713 -12.8660 -34.2305 0.1946 58.2794 4.4969
# 6 15.3807 -11.6170 3.7651 -11.2178 4.4969 22.2389
#
#
#
# Elastic Compliance Matrix: (Units=1/GPa)
#
#
# Indices 1 2 3 4 5 6 
#
# 1 0.049653 -0.004793 -0.007652 -0.020480 0.014444 -0.048800
# 2 -0.004793 0.009101 -0.002332 0.004555 -0.001794 0.011125
# 3 -0.007652 -0.002332 0.011525 0.007472 0.003336 0.005217
# 4 -0.020480 0.004555 0.007472 0.031324 -0.003835 0.031854
# 5 0.014444 -0.001794 0.003336 -0.003835 0.024861 -0.018453
# 6 -0.048800 0.011125 0.005217 0.031854 -0.018453 0.103444
#
#
# Mechanical properties :
#
#
# Convention : Reuss Voigt Hill
#
# Bulk Modulus (GPa) = 24.55544 59.05687 41.80615
# Shear Modulus (GPa) = 18.31261 44.52330 31.41795
#
# Velocity S-wave (km/s) = 2.68198 4.18190 3.51293
# Velocity P-wave (km/s) = 4.38586 6.82017 5.73369
#
# Compressibility (1/GPa) = 0.04072418
#
# Stress axis : x y z
#
# Youngs Moduli (GPa) = 20.13991 109.87920 86.76866
#
# Poissons Ratio (x) = 0.52666 0.66395
# Poissons Ratio (y) = 0.09653 0.20235
# Poissons Ratio (z) = 0.15411 0.25625
#
# Static dielectric constant tensor:
#      x y z
#    x 2.127040 0.018020 0.161480 
#    y 0.018020 1.992470 0.012610 
#    z 0.161480 0.012610 2.160060 
# 
# From -- ./inp_files/261250.got.cif
#   From: 2010.05.17/outbox.cif.g08.bks.cpg/sg2_131_cif.got.tgz:261250.got - 2010.06.03 11:33:40.
