data_PCOD9040028
_publ_section_title
;
Structure prediction by ZEFSAII (Michael W. Deem and Ramdas Pophale) SiO2 
 PCOD9040028
Probable space group: P -1
;
_chemical_formula_sum "Si O2"
_cell_formula_units_Z 15
_cell_length_a 12.486084
_cell_length_b 15.392113
_cell_length_c 8.818508
_cell_angle_alpha 62.186652
_cell_angle_beta 72.790169
_cell_angle_gamma 128.843643
_cell_volume 606.833113
_symmetry_space_group_name_H-M "P -1"
_symmetry_group_IT_number 2
_symmetry_cell_setting 'triclinic'
loop_
_space_group_symop_operation_xyz
x,y,z
-x,-y,-z
loop_
_atom_site_type_symbol
_atom_site_label
_atom_site_fract_x
_atom_site_fract_y
_atom_site_fract_z
Si Si1 0.094962 0.679976 0.878702
Si Si2 0.500000 0.500000 0.000000
Si Si3 0.410231 0.072925 0.976742
Si Si4 0.181438 0.346069 0.416998
Si Si5 0.454646 0.609268 0.383215
Si Si6 0.621686 0.122410 0.100634
Si Si7 0.966319 0.983305 0.209853
Si Si8 0.849195 0.698652 0.967442
O O1 0.364244 0.915026 0.482950
O O2 0.143743 0.702528 0.020146
O O3 0.000000 0.500000 0.000000
O O4 0.931027 0.650289 0.948672
O O5 0.442047 0.572232 0.030043
O O6 0.746032 0.671454 0.886024
O O7 0.598282 0.197688 0.938738
O O8 0.109505 0.851745 0.342000
O O9 0.515461 0.253175 0.705616
O O10 0.392639 0.975790 0.936257
O O11 0.227296 0.409108 0.520017
O O12 0.221128 0.255169 0.460854
O O13 0.391242 0.499678 0.649260
O O14 0.737796 0.808697 0.032155
O O15 0.927678 0.060133 0.232055
O O16 0.000000 0.000000 0.000000
#
# Coordination Sequence:
#
# PCOD9040028 Si02
#       8
#     2   1   2   2   2   2   2   2
#     4  11  25  46  69  99 138 183 224 278 342 402
#     4  12  26  42  62 102 144 172 218 280 338 418
#     4  10  23  42  74  98 131 177 227 291 333 389
#     4  11  23  43  63 100 137 173 223 270 344 410
#     4  11  22  42  67 100 133 181 226 271 332 411
#     4  10  23  46  66 102 133 172 237 282 334 396
#     4  11  22  40  68  96 132 175 226 276 324 407
#     4  12  24  44  69 100 138 181 225 276 342 406
#
# _framework density 24.718492000000001
#
# number of rings (size 3 to 8) (size 9 to 14) (size 15 to 20)
#    0.000    1.067    2.667    3.600    1.867    2.667 
#    7.200    3.333    0.000    0.000    0.000    0.000 
#    0.000    0.000    0.000    0.000    0.000    0.000 
#
# Total GULP energy -83629.587410 kJ/mol
# GULP energy per Si atom -5575.305827 kJ/mol
# Density = 2.466223 g / cm^3
# Si number density = 24.718492 Si / 1000 Ang^3
#
#
#
# Elastic Constant Matrix: (Units=GPa)
#
#
# Indices 1 2 3 4 5 6 
#
# 1 99.6630 60.7585 12.4714 -3.9137 -6.9368 1.0355
# 2 60.7585 144.5472 3.4164 13.9620 15.3844 15.2619
# 3 12.4714 3.4164 67.5023 6.8935 -3.8041 -2.2712
# 4 -3.9137 13.9620 6.8935 34.6028 -7.9640 5.2698
# 5 -6.9368 15.3844 -3.8041 -7.9640 41.5070 4.3935
# 6 1.0355 15.2619 -2.2712 5.2698 4.3935 48.2151
#
#
#
# Elastic Compliance Matrix: (Units=1/GPa)
#
#
# Indices 1 2 3 4 5 6 
#
# 1 0.016144 -0.008206 -0.002893 0.007163 0.006773 0.000714
# 2 -0.008206 0.011999 0.001191 -0.007263 -0.006876 -0.002145
# 3 -0.002893 0.001191 0.015724 -0.004167 -0.000380 0.000916
# 4 0.007163 -0.007263 -0.004167 0.036419 0.010814 -0.003017
# 5 0.006773 -0.006876 -0.000380 0.010814 0.030014 -0.001904
# 6 0.000714 -0.002145 0.000916 -0.003017 -0.001904 0.021951
#
#
# Mechanical properties :
#
#
# Convention : Reuss Voigt Hill
#
# Bulk Modulus (GPa) = 41.57976 51.66726 46.62351
# Shear Modulus (GPa) = 31.23398 40.53606 35.88502
#
# Velocity S-wave (km/s) = 3.55855 4.05397 3.81431
# Velocity P-wave (km/s) = 5.80881 6.54680 6.18881
#
# Compressibility (1/GPa) = 0.02405016
#
# Stress axis : x y z
#
# Youngs Moduli (GPa) = 61.94423 83.34061 63.59904
#
# Poissons Ratio (x) = 0.68385 0.18400
# Poissons Ratio (y) = 0.50829 -0.07573
# Poissons Ratio (z) = 0.17921 -0.09924
#
# Static dielectric constant tensor:
#      x y z
#    x 2.025180 -0.055450 -0.002020 
#    y -0.055450 2.098350 0.048540 
#    z -0.002020 0.048540 2.081700 
# 
# From -- ./inp_files/76596.got.cif
#   From: 2010.05.17/outbox.cif.g08.bks.cpg/sg2_39_cif.got.tgz:76596.got - 2010.06.03 11:33:40.
