data_PCOD9040170
_publ_section_title
;
Structure prediction by ZEFSAII (Michael W. Deem and Ramdas Pophale) SiO2 
 PCOD9040170
Probable space group: P -1
;
_chemical_formula_sum "Si O2"
_cell_formula_units_Z 15
_cell_length_a 9.784224
_cell_length_b 7.803704
_cell_length_c 15.618517
_cell_angle_alpha 92.781769
_cell_angle_beta 35.143195
_cell_angle_gamma 76.662751
_cell_volume 605.094291
_symmetry_space_group_name_H-M "P -1"
_symmetry_group_IT_number 2
_symmetry_cell_setting 'triclinic'
loop_
_space_group_symop_operation_xyz
x,y,z
-x,-y,-z
loop_
_atom_site_type_symbol
_atom_site_label
_atom_site_fract_x
_atom_site_fract_y
_atom_site_fract_z
Si Si1 0.652922 0.781310 0.003406
Si Si2 0.155147 0.174395 0.467789
Si Si3 0.115808 0.741976 0.042828
Si Si4 0.505712 0.617949 0.686005
Si Si5 0.162488 0.842238 0.720670
Si Si6 0.386228 0.267276 0.776497
Si Si7 0.065514 0.032106 0.332016
Si Si8 0.500000 0.500000 0.000000
O O1 0.635314 0.726006 0.109695
O O2 0.362146 0.968926 0.143495
O O3 0.917884 0.800189 0.865146
O O4 0.655844 0.629921 0.929755
O O5 0.240609 0.342257 0.428521
O O6 0.049596 0.146629 0.429312
O O7 0.412025 0.962229 0.349306
O O8 0.942639 0.170952 0.645851
O O9 0.899417 0.674601 0.119857
O O10 0.927808 0.948318 0.187408
O O11 0.279023 0.752595 0.875568
O O12 0.331204 0.619273 0.001689
O O13 0.497526 0.416559 0.698217
O O14 0.419626 0.688262 0.634847
O O15 0.158131 0.858734 0.621480
#
# Coordination Sequence:
#
# PCOD9040170 Si02
#       8
#     2   2   2   2   2   2   2   1
#     4  11  22  40  63  95 128 163 202 266 314 373
#     4  10  24  45  66  87 126 174 212 256 305 371
#     4  12  22  40  60  98 130 160 202 266 317 374
#     4  12  23  40  67  95 125 168 207 254 318 379
#     4  12  23  38  67  96 123 165 209 257 321 374
#     4  11  22  43  65  90 131 164 211 253 316 372
#     4  10  23  43  64  90 128 167 211 260 310 364
#     4  12  24  34  60  98 132 156 198 268 320 362
#
# _framework density 24.789522999999999
#
# number of rings (size 3 to 8) (size 9 to 14) (size 15 to 20)
#    0.000    0.800    5.333    3.600    1.867    0.533 
#    0.000    8.000    0.000    0.000    0.000    0.000 
#    0.000    0.000    0.000    0.000    0.000    0.000 
#
# Total GULP energy -83651.126305 kJ/mol
# GULP energy per Si atom -5576.741754 kJ/mol
# Density = 2.473310 g / cm^3
# Si number density = 24.789523 Si / 1000 Ang^3
#
#
#
# Elastic Constant Matrix: (Units=GPa)
#
#
# Indices 1 2 3 4 5 6 
#
# 1 194.6557 67.7557 28.3235 -24.7508 -18.0416 -2.8973
# 2 67.7557 88.5135 15.1387 -32.9288 -7.8714 10.2003
# 3 28.3235 15.1387 61.7164 -26.1946 -7.5501 4.9652
# 4 -24.7508 -32.9288 -26.1946 34.1051 2.3098 -10.3185
# 5 -18.0416 -7.8714 -7.5501 2.3098 33.8475 -12.8476
# 6 -2.8973 10.2003 4.9652 -10.3185 -12.8476 50.5956
#
#
#
# Elastic Compliance Matrix: (Units=1/GPa)
#
#
# Indices 1 2 3 4 5 6 
#
# 1 0.007760 -0.006171 -0.002639 -0.001850 0.003137 0.002367
# 2 -0.006171 0.023957 0.007492 0.024124 0.002134 -0.000457
# 3 -0.002639 0.007492 0.027414 0.026759 0.005582 0.002523
# 4 -0.001850 0.024124 0.026759 0.074188 0.009285 0.009892
# 5 0.003137 0.002134 0.005582 0.009285 0.036232 0.010296
# 6 0.002367 -0.000457 0.002523 0.009892 0.010296 0.024376
#
#
# Mechanical properties :
#
#
# Convention : Reuss Voigt Hill
#
# Bulk Modulus (GPa) = 17.70052 63.03573 40.36812
# Shear Modulus (GPa) = 23.21323 39.28746 31.25035
#
# Velocity S-wave (km/s) = 3.06341 3.98533 3.55438
# Velocity P-wave (km/s) = 4.43491 6.83086 5.75887
#
# Compressibility (1/GPa) = 0.05649552
#
# Stress axis : x y z
#
# Youngs Moduli (GPa) = 128.86620 41.74152 36.47762
#
# Poissons Ratio (x) = 0.25757 0.09628
# Poissons Ratio (y) = 0.79519 -0.27330
# Poissons Ratio (z) = 0.34014 -0.31274
#
# Static dielectric constant tensor:
#      x y z
#    x 1.919730 -0.009080 0.031830 
#    y -0.009080 2.083020 0.056470 
#    z 0.031830 0.056470 2.025670 
# 
# From -- ./inp_files/266481.got.cif
#   From: 2010.05.17/outbox.cif.g08.bks.cpg/sg2_134_cif.got.tgz:266481.got - 2010.06.03 11:33:40.
