data_PCOD9040125
_publ_section_title
;
Structure prediction by ZEFSAII (Michael W. Deem and Ramdas Pophale) SiO2 
 PCOD9040125
Probable space group: P -1
;
_chemical_formula_sum "Si O2"
_cell_formula_units_Z 16
_cell_length_a 10.296047
_cell_length_b 24.047819
_cell_length_c 13.650769
_cell_angle_alpha 33.836249
_cell_angle_beta 42.022568
_cell_angle_gamma 26.568869
_cell_volume 841.767175
_symmetry_space_group_name_H-M "P -1"
_symmetry_group_IT_number 2
_symmetry_cell_setting 'triclinic'
loop_
_space_group_symop_operation_xyz
x,y,z
-x,-y,-z
loop_
_atom_site_type_symbol
_atom_site_label
_atom_site_fract_x
_atom_site_fract_y
_atom_site_fract_z
Si Si1 0.625916 0.422091 0.646642
Si Si2 0.861997 0.452377 0.105634
Si Si3 0.580238 0.583501 0.855243
Si Si4 0.426629 0.062320 0.843313
Si Si5 0.976111 0.892968 0.657089
Si Si6 0.897319 0.928303 0.139448
Si Si7 0.347627 0.092021 0.348627
Si Si8 0.919150 0.597843 0.496030
O O1 0.500000 0.500000 0.500000
O O2 0.385464 0.487226 0.767279
O O3 0.833655 0.250628 0.750473
O O4 0.807745 0.445795 0.551708
O O5 0.128528 0.270600 0.217862
O O6 0.710178 0.531289 0.969370
O O7 0.000000 0.500000 0.000000
O O8 0.797221 0.566432 0.690936
O O9 0.273169 0.745605 0.756251
O O10 0.500000 0.500000 0.000000
O O11 0.225555 0.051946 0.927285
O O12 0.294303 0.225650 0.668085
O O13 0.719136 0.948716 0.784487
O O14 0.500000 0.000000 0.000000
O O15 0.868599 0.903962 0.591546
O O16 0.000000 0.000000 0.500000
O O17 0.630434 0.004393 0.250421
O O18 0.000000 0.000000 0.000000
O O19 0.500000 0.000000 0.500000
O O20 0.000000 0.500000 0.500000
#
# Coordination Sequence:
#
# PCOD9040125 Si02
#       8
#     2   2   2   2   2   2   2   2
#     4  11  24  44  66  96 135 173 223 276 337 405
#     4  12  26  42  71 102 132 183 225 281 346 401
#     4  12  25  45  68  98 139 174 234 283 337 418
#     4  10  24  41  65  97 132 172 223 271 334 407
#     4  11  24  43  69  96 132 179 221 277 343 395
#     4  10  23  43  63  93 129 170 214 267 331 390
#     4  11  25  44  66  96 133 170 227 274 334 404
#     4  11  25  42  66  98 134 178 222 279 343 398
#
# _framework density 19.007631
#
# number of rings (size 3 to 8) (size 9 to 14) (size 15 to 20)
#    0.000    1.000    2.500    3.000    7.000    2.000 
#    0.000    0.000    0.000    0.000    0.000    0.000 
#    0.000    0.000    0.000    0.000    0.000    0.000 
#
# Total GULP energy -89086.483268 kJ/mol
# GULP energy per Si atom -5567.905204 kJ/mol
# Density = 1.896437 g / cm^3
# Si number density = 19.007631 Si / 1000 Ang^3
#
#
#
# Elastic Constant Matrix: (Units=GPa)
#
#
# Indices 1 2 3 4 5 6 
#
# 1 159.1760 15.7138 84.8048 10.6130 28.8499 21.8523
# 2 15.7138 67.5624 31.2303 21.7526 32.4697 17.9886
# 3 84.8048 31.2303 126.8300 16.9110 28.5396 12.4549
# 4 10.6130 21.7526 16.9110 26.0316 -7.9522 -10.5538
# 5 28.8499 32.4697 28.5396 -7.9522 46.4742 -12.9322
# 6 21.8523 17.9886 12.4549 -10.5538 -12.9322 22.9971
#
#
#
# Elastic Compliance Matrix: (Units=1/GPa)
#
#
# Indices 1 2 3 4 5 6 
#
# 1 0.008756 -0.003810 -0.007054 0.006877 0.003782 0.003763
# 2 -0.003810 0.000858 -0.004826 0.016314 0.013220 0.020483
# 3 -0.007054 -0.004826 0.013786 -0.001198 -0.000279 0.002305
# 4 0.006877 0.016314 -0.001198 0.003955 -0.022452 -0.029458
# 5 0.003782 0.013220 -0.000279 -0.022452 -0.000522 -0.024381
# 6 0.003763 0.020483 0.002305 -0.029458 -0.024381 -0.004592
#
#
# Mechanical properties :
#
#
# Convention : Reuss Voigt Hill
#
# Bulk Modulus (GPa) = -125.32637 68.56290 -28.38174
# Shear Modulus (GPa) = 98.11494 33.88856 66.00175
#
# Velocity S-wave (km/s) = 7.19241 4.22701 5.89908
# Velocity P-wave (km/s) = 1.70190 7.74423 5.60667
#
# Compressibility (1/GPa) = -0.00797917
#
# Stress axis : x y z
#
# Youngs Moduli (GPa) = 114.20607 1165.50280 72.53806
#
# Poissons Ratio (x) = 4.44015 0.51171
# Poissons Ratio (y) = 0.43508 0.35004
# Poissons Ratio (z) = 0.80565 5.62422
#
# Static dielectric constant tensor:
#      x y z
#    x 1.728630 0.007710 0.008500 
#    y 0.007710 1.639610 0.011370 
#    z 0.008500 0.011370 1.603830 
# 
# From -- ./inp_files/405379.got.cif
#   From: 2010.05.17/outbox.cif.g08.bks.cpg/sg2_203_cif.got.tgz:405379.got - 2010.06.03 11:33:40.
