data_PCOD9040612
_publ_section_title
;
Structure prediction by ZEFSAII (Michael W. Deem and Ramdas Pophale) SiO2 
 PCOD9040612
Probable space group: P -1
;
_chemical_formula_sum "Si O2"
_cell_formula_units_Z 16
_cell_length_a 8.190873
_cell_length_b 15.933963
_cell_length_c 9.442402
_cell_angle_alpha 58.462897
_cell_angle_beta 49.460322
_cell_angle_gamma 39.043986
_cell_volume 589.512043
_symmetry_space_group_name_H-M "P -1"
_symmetry_group_IT_number 2
_symmetry_cell_setting 'triclinic'
loop_
_space_group_symop_operation_xyz
x,y,z
-x,-y,-z
loop_
_atom_site_type_symbol
_atom_site_label
_atom_site_fract_x
_atom_site_fract_y
_atom_site_fract_z
Si Si1 0.783604 0.332487 0.235794
Si Si2 0.902959 0.582894 0.123918
Si Si3 0.093543 0.998461 0.202667
Si Si4 0.766779 0.965561 0.635741
Si Si5 0.743417 0.611341 0.647283
Si Si6 0.624188 0.377214 0.664382
Si Si7 0.290993 0.193755 0.370084
Si Si8 0.752571 0.191013 0.974701
O O1 0.546802 0.357258 0.247081
O O2 0.580999 0.464130 0.336586
O O3 0.687604 0.318867 0.840493
O O4 0.015911 0.329678 0.026884
O O5 0.573294 0.647482 0.275135
O O6 0.111731 0.471308 0.218676
O O7 0.000000 0.500000 0.000000
O O8 0.963128 0.117204 0.057685
O O9 0.331643 0.964006 0.214730
O O10 0.876918 0.015894 0.423637
O O11 0.138387 0.897590 0.151255
O O12 0.597757 0.943363 0.641700
O O13 0.030743 0.812647 0.672563
O O14 0.676675 0.748986 0.556641
O O15 0.000000 0.500000 0.500000
O O16 0.940723 0.294640 0.490774
O O17 0.465829 0.216151 0.151752
#
# Coordination Sequence:
#
# PCOD9040612 Si02
#       8
#     2   2   2   2   2   2   2   2
#     4  11  23  44  73 107 153 192 242 299 373 454
#     4  10  23  43  67  99 147 199 237 292 360 448
#     4  10  25  49  75 103 147 192 260 313 355 443
#     4  11  24  46  75 107 141 199 247 309 370 430
#     4  12  25  40  63 106 153 200 237 293 365 449
#     4  11  23  45  73 113 149 193 241 298 376 452
#     4  12  24  43  73 107 149 198 239 301 378 441
#     4  11  24  49  76 107 144 197 251 308 371 438
#
# _framework density 27.141088
#
# number of rings (size 3 to 8) (size 9 to 14) (size 15 to 20)
#    0.000    1.000    2.500    4.875    1.750    3.000 
#    0.000    0.000    0.000    0.000    0.000    0.000 
#    0.000    0.000    0.000    0.000    0.000    0.000 
#
# Total GULP energy -89241.413627 kJ/mol
# GULP energy per Si atom -5577.588352 kJ/mol
# Density = 2.707931 g / cm^3
# Si number density = 27.141088 Si / 1000 Ang^3
#
#
#
# Elastic Constant Matrix: (Units=GPa)
#
#
# Indices 1 2 3 4 5 6 
#
# 1 140.3152 1.9838 34.4516 4.4169 -5.9193 10.3782
# 2 1.9838 42.7206 -0.7232 2.3469 -0.2796 17.9994
# 3 34.4516 -0.7232 101.0705 11.8315 4.2989 -4.6456
# 4 4.4169 2.3469 11.8315 41.9946 8.5445 8.2162
# 5 -5.9193 -0.2796 4.2989 8.5445 58.4993 4.0711
# 6 10.3782 17.9994 -4.6456 8.2162 4.0711 49.4697
#
#
#
# Elastic Compliance Matrix: (Units=1/GPa)
#
#
# Indices 1 2 3 4 5 6 
#
# 1 0.008047 0.000536 -0.002911 0.000152 0.001167 -0.002278
# 2 0.000536 0.027738 -0.000547 0.000400 0.000892 -0.010396
# 3 -0.002911 -0.000547 0.011406 -0.003191 -0.000842 0.002480
# 4 0.000152 0.000400 -0.003191 0.026230 -0.003262 -0.004565
# 5 0.001167 0.000892 -0.000842 -0.003262 0.017865 -0.001577
# 6 -0.002278 -0.010396 0.002480 -0.004565 -0.001577 0.025596
#
#
# Mechanical properties :
#
#
# Convention : Reuss Voigt Hill
#
# Bulk Modulus (GPa) = 24.18588 39.50340 31.84464
# Shear Modulus (GPa) = 36.62817 46.55232 41.59024
#
# Velocity S-wave (km/s) = 3.67760 4.14599 3.91880
# Velocity P-wave (km/s) = 5.19264 6.12416 5.67754
#
# Compressibility (1/GPa) = 0.04134644
#
# Stress axis : x y z
#
# Youngs Moduli (GPa) = 124.27054 36.05198 87.67457
#
# Poissons Ratio (x) = -0.01933 0.25524
# Poissons Ratio (y) = -0.06662 0.04795
# Poissons Ratio (z) = 0.36178 0.01972
#
# Static dielectric constant tensor:
#      x y z
#    x 2.615660 0.156310 0.192930 
#    y 0.156310 2.268500 0.073380 
#    z 0.192930 0.073380 2.184730 
# 
# From -- ./inp_files/214908.got.cif
#   From: 2010.05.17/outbox.cif.g08.bks.cpg/sg2_108_cif.got.tgz:214908.got - 2010.06.03 11:33:40.
