data_PCOD9040218
_publ_section_title
;
Structure prediction by ZEFSAII (Michael W. Deem and Ramdas Pophale) SiO2 
 PCOD9040218
Probable space group: P -1
;
_chemical_formula_sum "Si O2"
_cell_formula_units_Z 16
_cell_length_a 13.890248
_cell_length_b 9.405308
_cell_length_c 13.709056
_cell_angle_alpha 106.885704
_cell_angle_beta 147.983155
_cell_angle_gamma 96.789495
_cell_volume 631.942907
_symmetry_space_group_name_H-M "P -1"
_symmetry_group_IT_number 2
_symmetry_cell_setting 'triclinic'
loop_
_space_group_symop_operation_xyz
x,y,z
-x,-y,-z
loop_
_atom_site_type_symbol
_atom_site_label
_atom_site_fract_x
_atom_site_fract_y
_atom_site_fract_z
Si Si1 0.581972 0.604947 0.697793
Si Si2 0.447780 0.640712 0.081370
Si Si3 0.173290 0.970488 0.091069
Si Si4 0.144256 0.713340 0.543163
Si Si5 0.087983 0.716527 0.150830
Si Si6 0.372846 0.539107 0.701997
Si Si7 0.754427 0.927972 0.220444
Si Si8 0.501477 0.017513 0.732242
O O1 0.500000 0.500000 0.500000
O O2 0.641066 0.808901 0.765451
O O3 0.373797 0.478225 0.580269
O O4 0.830523 0.653653 0.952406
O O5 0.618784 0.598463 0.248091
O O6 0.525714 0.752652 0.065915
O O7 0.502145 0.806056 0.235118
O O8 0.142758 0.423713 0.772642
O O9 0.201667 0.858698 0.009281
O O10 0.195348 0.875235 0.183967
O O11 0.000000 0.000000 0.000000
O O12 0.173951 0.555531 0.556540
O O13 0.363427 0.879596 0.683873
O O14 0.200341 0.869258 0.705624
O O15 0.310569 0.848951 0.449044
O O16 0.000000 0.500000 0.000000
O O17 0.657458 0.787658 0.012837
O O18 0.000000 0.000000 0.500000
#
# Coordination Sequence:
#
# PCOD9040218 Si02
#       8
#     2   2   2   2   2   2   2   2
#     4  11  25  44  67 106 146 189 249 302 366 451
#     4  11  27  47  75 113 151 190 248 313 374 458
#     4  10  23  43  64  98 143 187 248 308 352 436
#     4  11  25  48  76 108 151 192 244 309 374 455
#     4  11  25  41  72  95 142 200 245 311 374 424
#     4  12  25  47  78 106 149 202 245 305 386 436
#     4  11  25  51  77 110 155 188 250 317 369 455
#     4  11  24  46  68 107 145 192 252 301 378 448
#
# _framework density 25.318745
#
# number of rings (size 3 to 8) (size 9 to 14) (size 15 to 20)
#    0.000    1.000    2.500    2.625    7.000    1.500 
#    6.750    0.000    0.000    0.000    0.000    0.000 
#    0.000    0.000    0.000    0.000    0.000    0.000 
#
# Total GULP energy -89297.136949 kJ/mol
# GULP energy per Si atom -5581.071059 kJ/mol
# Density = 2.526112 g / cm^3
# Si number density = 25.318745 Si / 1000 Ang^3
#
#
#
# Elastic Constant Matrix: (Units=GPa)
#
#
# Indices 1 2 3 4 5 6 
#
# 1 101.3324 34.7408 35.9368 0.5361 7.6268 -19.6179
# 2 34.7408 182.8381 27.3304 -11.2520 -2.8684 -31.6916
# 3 35.9368 27.3304 86.5939 -6.3197 10.1172 -9.5667
# 4 0.5361 -11.2520 -6.3197 26.3984 -16.1667 -2.4468
# 5 7.6268 -2.8684 10.1172 -16.1667 37.7699 0.0519
# 6 -19.6179 -31.6916 -9.5667 -2.4468 0.0519 48.5548
#
#
#
# Elastic Compliance Matrix: (Units=1/GPa)
#
#
# Indices 1 2 3 4 5 6 
#
# 1 0.012795 -0.001490 -0.004393 -0.003507 -0.003026 0.003158
# 2 -0.001490 0.006986 -0.001161 0.005144 0.003339 0.003984
# 3 -0.004393 -0.001161 0.014162 0.001602 -0.002309 0.000341
# 4 -0.003507 0.005144 0.001602 0.056112 0.024680 0.005057
# 5 -0.003026 0.003339 -0.002309 0.024680 0.038521 0.001704
# 6 0.003158 0.003984 0.000341 0.005057 0.001704 0.024792
#
#
# Mechanical properties :
#
#
# Convention : Reuss Voigt Hill
#
# Bulk Modulus (GPa) = 50.36757 62.97560 56.67158
# Shear Modulus (GPa) = 28.72344 40.72836 34.72590
#
# Velocity S-wave (km/s) = 3.37185 4.01512 3.70746
# Velocity P-wave (km/s) = 5.92416 6.81337 6.38427
#
# Compressibility (1/GPa) = 0.01985405
#
# Stress axis : x y z
#
# Youngs Moduli (GPa) = 78.15473 143.15295 70.61101
#
# Poissons Ratio (x) = 0.21336 0.31021
# Poissons Ratio (y) = 0.11648 0.08196
# Poissons Ratio (z) = 0.34335 0.16616
#
# Static dielectric constant tensor:
#      x y z
#    x 2.077950 -0.080050 0.069870 
#    y -0.080050 1.981360 -0.031190 
#    z 0.069870 -0.031190 2.165120 
# 
# From -- ./inp_files/530032.got.cif
#   From: 2010.05.17/outbox.cif.g08.bks.cpg/sg2_266_cif.got.tgz:530032.got - 2010.06.03 11:33:40.
