data_PCOD9040828
_publ_section_title
;
Structure prediction by ZEFSAII (Michael W. Deem and Ramdas Pophale) SiO2 
 PCOD9040828
Probable space group: P -1
;
_chemical_formula_sum "Si O2"
_cell_formula_units_Z 14
_cell_length_a 10.774408
_cell_length_b 21.768656
_cell_length_c 5.228595
_cell_angle_alpha 93.527768
_cell_angle_beta 105.604595
_cell_angle_gamma 146.244767
_cell_volume 555.347804
_symmetry_space_group_name_H-M "P -1"
_symmetry_group_IT_number 2
_symmetry_cell_setting 'triclinic'
loop_
_space_group_symop_operation_xyz
x,y,z
-x,-y,-z
loop_
_atom_site_type_symbol
_atom_site_label
_atom_site_fract_x
_atom_site_fract_y
_atom_site_fract_z
Si Si1 0.524940 0.952294 0.315259
Si Si2 0.207590 0.138862 0.558471
Si Si3 0.398668 0.775201 0.473958
Si Si4 0.524272 0.425667 0.438756
Si Si5 0.046425 0.792493 0.662114
Si Si6 0.363986 0.232809 0.171588
Si Si7 0.827170 0.595215 0.151776
O O1 0.533213 0.894946 0.477709
O O2 0.500000 0.000000 0.500000
O O3 0.780349 0.076258 0.307463
O O4 0.259197 0.840335 0.955219
O O5 0.504607 0.233778 0.685450
O O6 0.130889 0.129479 0.231961
O O7 0.253762 0.205517 0.828854
O O8 0.000000 0.000000 0.500000
O O9 0.520145 0.788050 0.783274
O O10 0.084509 0.657303 0.314269
O O11 0.211781 0.301105 0.327082
O O12 0.567760 0.370579 0.422720
O O13 0.611498 0.488234 0.228117
O O14 0.698566 0.531570 0.785052
O O15 0.948145 0.711443 0.342104
#
# Coordination Sequence:
#
# PCOD9040828 Si02
#       7
#     2   2   2   2   2   2   2
#     4  11  24  45  74 106 141 184 230 304 364 424
#     4  10  23  43  69 101 145 184 227 286 360 417
#     4  10  26  42  76 101 150 173 240 289 363 421
#     4  12  28  46  76 100 147 193 244 288 346 424
#     4  11  27  45  72 107 143 183 247 291 364 418
#     4  10  25  44  68 106 139 184 235 285 351 422
#     4  12  26  47  71 105 143 195 237 295 348 415
#
# _framework density 25.209430000000001
#
# number of rings (size 3 to 8) (size 9 to 14) (size 15 to 20)
#    0.857    0.286    1.429    3.000    8.000    2.286 
#    0.000    0.000    0.000    0.000    0.000    0.000 
#    0.000    0.000    0.000    0.000    0.000    0.000 
#
# Total GULP energy -78251.667128 kJ/mol
# GULP energy per Si atom -5589.404795 kJ/mol
# Density = 2.515205 g / cm^3
# Si number density = 25.209430 Si / 1000 Ang^3
#
#
#
# Elastic Constant Matrix: (Units=GPa)
#
#
# Indices 1 2 3 4 5 6 
#
# 1 101.8097 28.0871 35.3999 8.3396 8.9095 -0.7184
# 2 28.0871 108.9060 39.7325 3.6408 1.2971 18.1708
# 3 35.3999 39.7325 131.0200 -10.9832 -8.1017 11.9479
# 4 8.3396 3.6408 -10.9832 45.8082 8.0335 -5.2440
# 5 8.9095 1.2971 -8.1017 8.0335 36.4733 4.3711
# 6 -0.7184 18.1708 11.9479 -5.2440 4.3711 54.6786
#
#
#
# Elastic Compliance Matrix: (Units=1/GPa)
#
#
# Indices 1 2 3 4 5 6 
#
# 1 0.011946 -0.002111 -0.003104 -0.001991 -0.003287 0.001609
# 2 -0.002111 0.011314 -0.002669 -0.001590 0.000276 -0.003379
# 3 -0.003104 -0.002669 0.009768 0.002516 0.002619 -0.001256
# 4 -0.001991 -0.001590 0.002516 0.024011 -0.004500 0.002615
# 5 -0.003287 0.000276 0.002619 -0.004500 0.030209 -0.003554
# 6 0.001609 -0.003379 -0.001256 0.002615 -0.003554 0.020242
#
#
# Mechanical properties :
#
#
# Convention : Reuss Voigt Hill
#
# Bulk Modulus (GPa) = 57.93823 60.90829 59.42326
# Shear Modulus (GPa) = 38.75616 43.29311 41.02464
#
# Velocity S-wave (km/s) = 3.92518 4.14857 4.03842
# Velocity P-wave (km/s) = 6.60117 6.86738 6.73559
#
# Compressibility (1/GPa) = 0.01725976
#
# Stress axis : x y z
#
# Youngs Moduli (GPa) = 83.70932 88.38632 102.37580
#
# Poissons Ratio (x) = 0.18659 0.31781
# Poissons Ratio (y) = 0.17672 0.27321
# Poissons Ratio (z) = 0.25986 0.23588
#
# Static dielectric constant tensor:
#      x y z
#    x 2.035230 -0.039700 0.046630 
#    y -0.039700 2.018420 -0.052380 
#    z 0.046630 -0.052380 2.063140 
# 
# From -- ./inp_files/84865.got.cif
#   From: 2010.05.17/outbox.cif.g08.bks.cpg/sg2_43_cif.got.tgz:84865.got - 2010.06.03 11:33:40.
