data_PCOD9040188
_publ_section_title
;
Structure prediction by ZEFSAII (Michael W. Deem and Ramdas Pophale) SiO2 
 PCOD9040188
Probable space group: P -1
;
_chemical_formula_sum "Si O2"
_cell_formula_units_Z 16
_cell_length_a 14.504837
_cell_length_b 14.925876
_cell_length_c 11.588754
_cell_angle_alpha 37.021867
_cell_angle_beta 142.911839
_cell_angle_gamma 146.353974
_cell_volume 767.556289
_symmetry_space_group_name_H-M "P -1"
_symmetry_group_IT_number 2
_symmetry_cell_setting 'triclinic'
loop_
_space_group_symop_operation_xyz
x,y,z
-x,-y,-z
loop_
_atom_site_type_symbol
_atom_site_label
_atom_site_fract_x
_atom_site_fract_y
_atom_site_fract_z
Si Si1 0.829506 0.055099 0.005845
Si Si2 0.446516 0.797329 0.179389
Si Si3 0.123832 0.645010 0.879005
Si Si4 0.175971 0.994283 0.680126
Si Si5 0.143175 0.144711 0.083518
Si Si6 0.810516 0.493360 0.322129
Si Si7 0.452284 0.143931 0.271637
Si Si8 0.820995 0.392977 0.675285
O O1 0.844130 0.238963 0.808059
O O2 0.672720 0.915394 0.907057
O O3 0.786159 0.020296 0.132475
O O4 0.025007 0.082874 0.146191
O O5 0.320479 0.699221 0.265276
O O6 0.642046 0.828844 0.361775
O O7 0.326205 0.690308 0.058036
O O8 0.500000 0.000000 0.000000
O O9 0.135904 0.824596 0.740975
O O10 0.015243 0.554550 0.748088
O O11 0.000000 0.500000 0.000000
O O12 0.000000 0.000000 0.500000
O O13 0.328368 0.151575 0.241768
O O14 0.171954 0.330676 0.886019
O O15 0.000000 0.000000 0.000000
O O16 0.643630 0.326973 0.262228
O O17 0.757577 0.463299 0.435878
O O18 0.000000 0.500000 0.500000
O O19 0.500000 0.000000 0.500000
#
# Coordination Sequence:
#
# PCOD9040188 Si02
#       8
#     2   2   2   2   2   2   2   2
#     4  11  21  42  65  91 134 173 212 273 332 384
#     4   9  18  37  61  88 121 168 215 260 310 384
#     4   9  18  36  62  85 118 168 213 263 311 383
#     4  11  23  40  62  96 129 166 221 271 322 379
#     4  10  23  43  64  94 133 168 216 278 327 391
#     4  12  23  40  64 101 130 173 223 270 324 401
#     4  11  23  42  67  96 131 174 222 270 327 398
#     4  11  20  38  67  92 129 172 221 262 329 383
#
# _framework density 20.845376999999999
#
# number of rings (size 3 to 8) (size 9 to 14) (size 15 to 20)
#    0.000    1.500    6.250    1.125    0.000    4.000 
#    0.000    2.500    0.000    0.000    0.000    0.000 
#    0.000    0.000    0.000    0.000    0.000    0.000 
#
# Total GULP energy -89195.236251 kJ/mol
# GULP energy per Si atom -5574.702266 kJ/mol
# Density = 2.079793 g / cm^3
# Si number density = 20.845377 Si / 1000 Ang^3
#
#
#
# Elastic Constant Matrix: (Units=GPa)
#
#
# Indices 1 2 3 4 5 6 
#
# 1 90.3651 37.7169 20.0988 6.5514 13.8929 19.2801
# 2 37.7169 171.1481 34.5325 21.1022 12.3625 6.7652
# 3 20.0988 34.5325 53.4553 9.7842 10.8762 9.8429
# 4 6.5514 21.1022 9.7842 32.7689 2.4843 1.9056
# 5 13.8929 12.3625 10.8762 2.4843 44.5072 11.5110
# 6 19.2801 6.7652 9.8429 1.9056 11.5110 31.9802
#
#
#
# Elastic Compliance Matrix: (Units=1/GPa)
#
#
# Indices 1 2 3 4 5 6 
#
# 1 0.014225 -0.002274 -0.002285 -0.000188 -0.001468 -0.006852
# 2 -0.002274 0.007448 -0.003449 -0.003337 -0.000665 0.001295
# 3 -0.002285 -0.003449 0.023844 -0.003991 -0.002912 -0.003946
# 4 -0.000188 -0.003337 -0.003991 0.033889 0.000068 0.000004
# 5 -0.001468 -0.000665 -0.002912 0.000068 0.025717 -0.007339
# 6 -0.006852 0.001295 -0.003946 0.000004 -0.007339 0.038982
#
#
# Mechanical properties :
#
#
# Convention : Reuss Voigt Hill
#
# Bulk Modulus (GPa) = 33.89656 55.51831 44.70744
# Shear Modulus (GPa) = 29.41967 36.69261 33.05614
#
# Velocity S-wave (km/s) = 3.76084 4.20006 3.98650
# Velocity P-wave (km/s) = 5.92915 7.08603 6.53325
#
# Compressibility (1/GPa) = 0.02950152
#
# Stress axis : x y z
#
# Youngs Moduli (GPa) = 70.30067 134.26156 41.93935
#
# Poissons Ratio (x) = 0.30528 0.09582
# Poissons Ratio (y) = 0.15985 0.14465
# Poissons Ratio (z) = 0.16063 0.46307
#
# Static dielectric constant tensor:
#      x y z
#    x 1.957960 -0.054940 -0.002750 
#    y -0.054940 1.805080 0.035670 
#    z -0.002750 0.035670 1.780790 
# 
# From -- ./inp_files/454539.got.cif
#   From: 2010.05.17/outbox.cif.g08.bks.cpg/sg2_228_cif.got.tgz:454539.got - 2010.06.03 11:33:40.
