data_PCOD9040056
_publ_section_title
;
Structure prediction by ZEFSAII (Michael W. Deem and Ramdas Pophale) SiO2 
 PCOD9040056
Probable space group: P -1
;
_chemical_formula_sum "Si O2"
_cell_formula_units_Z 16
_cell_length_a 11.639904
_cell_length_b 9.641115
_cell_length_c 10.417496
_cell_angle_alpha 134.999763
_cell_angle_beta 47.797458
_cell_angle_gamma 125.559466
_cell_volume 599.566291
_symmetry_space_group_name_H-M "P -1"
_symmetry_group_IT_number 2
_symmetry_cell_setting 'triclinic'
loop_
_space_group_symop_operation_xyz
x,y,z
-x,-y,-z
loop_
_atom_site_type_symbol
_atom_site_label
_atom_site_fract_x
_atom_site_fract_y
_atom_site_fract_z
Si Si1 0.755295 0.071775 0.190259
Si Si2 0.239851 0.273763 0.839680
Si Si3 0.204495 0.658192 0.261180
Si Si4 0.614684 0.395526 0.671906
Si Si5 0.778505 0.896423 0.539088
Si Si6 0.128033 0.309950 0.450504
Si Si7 0.878604 0.383414 0.116300
Si Si8 0.448231 0.859646 0.828775
O O1 0.700286 0.235978 0.430593
O O2 0.890710 0.186329 0.065241
O O3 0.608009 0.018637 0.168053
O O4 0.789215 0.896766 0.139152
O O5 0.432056 0.348298 0.740829
O O6 0.181858 0.182325 0.683139
O O7 0.176637 0.466518 0.064193
O O8 0.349081 0.636102 0.228193
O O9 0.039769 0.667400 0.466948
O O10 0.235605 0.873499 0.313993
O O11 0.293587 0.694019 0.868380
O O12 0.720612 0.613189 0.699973
O O13 0.872160 0.890741 0.600494
O O14 0.600117 0.774088 0.619234
O O15 0.145751 0.455203 0.655062
O O16 0.000000 0.500000 0.000000
O O17 0.500000 0.000000 0.000000
#
# Coordination Sequence:
#
# PCOD9040056 Si02
#       8
#     2   2   2   2   2   2   2   2
#     4   9  20  44  76 110 154 197 254 325 395 457
#     4  12  24  47  82 113 151 205 262 332 398 460
#     4  12  28  45  78 114 153 212 269 315 391 489
#     4  11  22  50  77 106 158 198 265 320 402 462
#     4  12  26  47  76 111 160 204 264 332 392 460
#     4  11  27  47  71 108 160 210 254 330 392 465
#     4   9  22  44  70 108 161 195 251 320 391 471
#     4  10  23  42  76 115 154 203 264 324 390 473
#
# _framework density 26.685956000000001
#
# number of rings (size 3 to 8) (size 9 to 14) (size 15 to 20)
#    0.750    0.500    2.500    2.250    3.500    4.000 
#    0.000    3.750    0.000    0.000    0.000    0.000 
#    0.000    0.000    0.000    0.000    0.000    0.000 
#
# Total GULP energy -89500.848913 kJ/mol
# GULP energy per Si atom -5593.803057 kJ/mol
# Density = 2.662522 g / cm^3
# Si number density = 26.685956 Si / 1000 Ang^3
#
#
#
# Elastic Constant Matrix: (Units=GPa)
#
#
# Indices 1 2 3 4 5 6 
#
# 1 110.5264 20.3778 17.6572 -0.2829 -1.2522 -11.6784
# 2 20.3778 126.1168 27.4490 -22.8370 -30.8576 -5.7294
# 3 17.6572 27.4490 95.2189 2.0847 0.6320 -7.3232
# 4 -0.2829 -22.8370 2.0847 39.4127 9.3168 -5.0990
# 5 -1.2522 -30.8576 0.6320 9.3168 45.0016 -5.5959
# 6 -11.6784 -5.7294 -7.3232 -5.0990 -5.5959 55.1771
#
#
#
# Elastic Compliance Matrix: (Units=1/GPa)
#
#
# Indices 1 2 3 4 5 6 
#
# 1 0.009672 -0.001367 -0.001261 -0.000353 -0.000370 0.001668
# 2 -0.001367 0.011624 -0.003131 0.005444 0.007063 0.001722
# 3 -0.001261 -0.003131 0.011739 -0.001924 -0.001874 0.000598
# 4 -0.000353 0.005444 -0.001924 0.029457 -0.002006 0.002754
# 5 -0.000370 0.007063 -0.001874 -0.002006 0.027875 0.003048
# 6 0.001668 0.001722 0.000598 0.002754 0.003048 0.019298
#
#
# Mechanical properties :
#
#
# Convention : Reuss Voigt Hill
#
# Bulk Modulus (GPa) = 46.47514 51.42559 48.95036
# Shear Modulus (GPa) = 38.95434 45.67681 42.31557
#
# Velocity S-wave (km/s) = 3.82479 4.14169 3.98639
# Velocity P-wave (km/s) = 6.07937 6.49492 6.29057
#
# Compressibility (1/GPa) = 0.02151688
#
# Stress axis : x y z
#
# Youngs Moduli (GPa) = 103.38875 86.03122 85.18536
#
# Poissons Ratio (x) = 0.11761 0.10743
# Poissons Ratio (y) = 0.14133 0.26671
# Poissons Ratio (z) = 0.13038 0.26936
#
# Static dielectric constant tensor:
#      x y z
#    x 2.201500 -0.018040 -0.068070 
#    y -0.018040 2.187330 -0.041400 
#    z -0.068070 -0.041400 2.075070 
# 
# From -- ./inp_files/240296.got.cif
#   From: 2010.05.17/outbox.cif.g08.bks.cpg/sg2_121_cif.got.tgz:240296.got - 2010.06.03 11:33:40.
