data_PCOD9040269
_publ_section_title
;
Structure prediction by ZEFSAII (Michael W. Deem and Ramdas Pophale) SiO2 
 PCOD9040269
Probable space group: P -1
;
_chemical_formula_sum "Si O2"
_cell_formula_units_Z 14
_cell_length_a 9.042963
_cell_length_b 9.548765
_cell_length_c 9.192312
_cell_angle_alpha 75.749914
_cell_angle_beta 77.127898
_cell_angle_gamma 70.264786
_cell_volume 715.602359
_symmetry_space_group_name_H-M "P -1"
_symmetry_group_IT_number 2
_symmetry_cell_setting 'triclinic'
loop_
_space_group_symop_operation_xyz
x,y,z
-x,-y,-z
loop_
_atom_site_type_symbol
_atom_site_label
_atom_site_fract_x
_atom_site_fract_y
_atom_site_fract_z
Si Si1 0.565085 0.619530 0.371632
Si Si2 0.145623 0.092417 0.792713
Si Si3 0.230622 0.242287 0.214602
Si Si4 0.053320 0.786124 0.905112
Si Si5 0.350627 0.482008 0.947924
Si Si6 0.860750 0.650895 0.473048
Si Si7 0.509100 0.043665 0.658689
O O1 0.500000 0.500000 0.500000
O O2 0.587721 0.574392 0.211035
O O3 0.734583 0.616812 0.400530
O O4 0.461923 0.793161 0.377079
O O5 0.090056 0.209234 0.641483
O O6 0.336130 0.059207 0.761648
O O7 0.109082 0.933838 0.824213
O O8 0.055391 0.174609 0.935311
O O9 0.215108 0.305625 0.364670
O O10 0.062378 0.236148 0.191217
O O11 0.358838 0.078782 0.247839
O O12 0.289737 0.353570 0.070207
O O13 0.204715 0.637995 0.931209
O O14 0.500000 0.500000 0.000000
O O15 0.000000 0.500000 0.500000
O O16 0.500000 0.000000 0.500000
#
# Coordination Sequence:
#
# PCOD9040269 Si02
#       7
#     2   2   2   2   2   2   2
#     4  11  25  42  67  98 130 176 224 276 329 399
#     4  10  23  43  65  92 138 182 221 276 335 403
#     4  12  23  40  69  96 130 181 219 279 338 389
#     4  11  25  42  66  99 137 172 229 278 335 406
#     4  12  26  43  68  99 137 177 225 282 338 402
#     4  11  22  40  63  92 132 172 219 273 331 395
#     4  11  23  45  69  95 138 177 229 276 331 404
#
# _framework density 19.563939000000001
#
# number of rings (size 3 to 8) (size 9 to 14) (size 15 to 20)
#    0.000    0.857    2.857    5.571    2.000    6.286 
#    0.000    0.000    0.000    0.000    0.000    0.000 
#    0.000    0.000    0.000    0.000    0.000    0.000 
#
# Total GULP energy -78260.641958 kJ/mol
# GULP energy per Si atom -5590.045854 kJ/mol
# Density = 1.951941 g / cm^3
# Si number density = 19.563939 Si / 1000 Ang^3
#
#
#
# Elastic Constant Matrix: (Units=GPa)
#
#
# Indices 1 2 3 4 5 6 
#
# 1 115.9921 67.9188 34.8258 -7.4752 19.7216 -7.2875
# 2 67.9188 179.0215 68.3139 -21.4610 3.4394 -15.5448
# 3 34.8258 68.3139 141.6959 -6.7312 4.4888 14.9499
# 4 -7.4752 -21.4610 -6.7312 43.7746 6.3371 4.8273
# 5 19.7216 3.4394 4.4888 6.3371 36.2002 -4.2311
# 6 -7.2875 -15.5448 14.9499 4.8273 -4.2311 45.3221
#
#
#
# Elastic Compliance Matrix: (Units=1/GPa)
#
#
# Indices 1 2 3 4 5 6 
#
# 1 0.012473 -0.004177 -0.000823 0.000870 -0.006431 0.000151
# 2 -0.004177 0.009169 -0.003711 0.002548 0.001839 0.003598
# 3 -0.000823 -0.003711 0.009580 0.000168 -0.000963 -0.004673
# 4 0.000870 0.002548 0.000168 0.025301 -0.005428 -0.002243
# 5 -0.006431 0.001839 -0.000963 -0.005428 0.032434 0.003520
# 6 0.000151 0.003598 -0.004673 -0.002243 0.003520 0.025431
#
#
# Mechanical properties :
#
#
# Convention : Reuss Voigt Hill
#
# Bulk Modulus (GPa) = 72.45698 86.53628 79.49663
# Shear Modulus (GPa) = 36.65383 42.76944 39.71163
#
# Velocity S-wave (km/s) = 4.33314 4.68069 4.51026
# Velocity P-wave (km/s) = 7.88360 8.57557 8.23685
#
# Compressibility (1/GPa) = 0.01380129
#
# Stress axis : x y z
#
# Youngs Moduli (GPa) = 80.17119 109.05911 104.38357
#
# Poissons Ratio (x) = 0.45558 0.08586
# Poissons Ratio (y) = 0.33491 0.38734
# Poissons Ratio (z) = 0.06595 0.40469
#
# Static dielectric constant tensor:
#      x y z
#    x 1.675610 -0.019090 -0.008490 
#    y -0.019090 1.696050 0.003280 
#    z -0.008490 0.003280 1.667470 
# 
# From -- ./inp_files/157966.got.cif
#   From: 2010.05.17/outbox.cif.g08.bks.cpg/sg2_79_cif.got.tgz:157966.got - 2010.06.03 11:33:40.
