data_PCOD9040589
_publ_section_title
;
Structure prediction by ZEFSAII (Michael W. Deem and Ramdas Pophale) SiO2 
 PCOD9040589
Probable space group: P -1
;
_chemical_formula_sum "Si O2"
_cell_formula_units_Z 16
_cell_length_a 9.575204
_cell_length_b 14.526685
_cell_length_c 15.786396
_cell_angle_alpha 37.965300
_cell_angle_beta 42.636978
_cell_angle_gamma 36.295800
_cell_volume 768.738959
_symmetry_space_group_name_H-M "P -1"
_symmetry_group_IT_number 2
_symmetry_cell_setting 'triclinic'
loop_
_space_group_symop_operation_xyz
x,y,z
-x,-y,-z
loop_
_atom_site_type_symbol
_atom_site_label
_atom_site_fract_x
_atom_site_fract_y
_atom_site_fract_z
Si Si1 0.529933 0.481415 0.851976
Si Si2 0.437900 0.320822 0.616006
Si Si3 0.282936 0.158267 0.931709
Si Si4 0.097817 0.697097 0.592034
Si Si5 0.286610 0.351038 0.477106
Si Si6 0.225578 0.758316 0.929369
Si Si7 0.205824 0.468550 0.866024
Si Si8 0.517704 0.949667 0.626704
O O1 0.615211 0.602406 0.683307
O O2 0.326307 0.603284 0.925127
O O3 0.433364 0.420682 0.860517
O O4 0.729904 0.323183 0.936907
O O5 0.362369 0.191028 0.781165
O O6 0.249174 0.509192 0.609854
O O7 0.729934 0.230994 0.563210
O O8 0.396355 0.370367 0.500685
O O9 0.227869 0.324784 0.893983
O O10 0.062236 0.128900 0.041188
O O11 0.500000 0.000000 0.000000
O O12 0.127162 0.640782 0.718470
O O13 0.808924 0.823899 0.609677
O O14 0.000000 0.500000 0.500000
O O15 0.371657 0.145694 0.590951
O O16 0.377618 0.850935 0.782743
O O17 0.000000 0.500000 0.000000
O O18 0.500000 0.000000 0.500000
#
# Coordination Sequence:
#
# PCOD9040589 Si02
#       8
#     2   2   2   2   2   2   2   2
#     4  11  23  43  72  99 134 179 227 286 346 408
#     4  10  23  43  67  98 136 180 220 285 341 411
#     4  11  26  42  68  98 143 180 223 283 348 410
#     4  10  23  43  68  99 135 177 229 277 347 406
#     4  12  25  44  68 102 138 179 228 283 350 410
#     4  11  25  45  67 103 137 180 231 284 345 415
#     4  11  21  42  70 101 128 176 227 281 340 407
#     4  12  26  42  70 101 137 185 231 287 339 414
#
# _framework density 20.813306999999998
#
# number of rings (size 3 to 8) (size 9 to 14) (size 15 to 20)
#    0.000    1.000    3.750    2.250    7.000    3.500 
#    0.000    1.875    0.000    0.000    0.000    0.000 
#    0.000    0.000    0.000    0.000    0.000    0.000 
#
# Total GULP energy -89218.895179 kJ/mol
# GULP energy per Si atom -5576.180949 kJ/mol
# Density = 2.076594 g / cm^3
# Si number density = 20.813307 Si / 1000 Ang^3
#
#
#
# Elastic Constant Matrix: (Units=GPa)
#
#
# Indices 1 2 3 4 5 6 
#
# 1 123.5175 44.0803 53.2873 9.6674 4.3326 -34.4502
# 2 44.0803 75.1507 41.1627 10.3546 -11.8831 -31.7769
# 3 53.2873 41.1627 98.0367 5.0234 6.3790 -14.9831
# 4 9.6674 10.3546 5.0234 13.0377 -2.2850 -1.5383
# 5 4.3326 -11.8831 6.3790 -2.2850 47.3278 8.5976
# 6 -34.4502 -31.7769 -14.9831 -1.5383 8.5976 45.2550
#
#
#
# Elastic Compliance Matrix: (Units=1/GPa)
#
#
# Indices 1 2 3 4 5 6 
#
# 1 0.013622 -0.001292 -0.005119 -0.006619 -0.002663 0.008049
# 2 -0.001292 0.027322 -0.008156 -0.015098 0.004791 0.014078
# 3 -0.005119 -0.008156 0.015863 0.003217 -0.002887 -0.003714
# 4 -0.006619 -0.015098 0.003217 0.091463 0.002983 -0.012033
# 5 -0.002663 0.004791 -0.002887 0.002983 0.023844 -0.004047
# 6 0.008049 0.014078 -0.003714 -0.012033 -0.004047 0.037239
#
#
# Mechanical properties :
#
#
# Convention : Reuss Voigt Hill
#
# Bulk Modulus (GPa) = 36.13721 63.75172 49.94447
# Shear Modulus (GPa) = 20.18470 31.66907 25.92689
#
# Velocity S-wave (km/s) = 3.11754 3.90497 3.53326
# Velocity P-wave (km/s) = 5.50990 7.14342 6.37916
#
# Compressibility (1/GPa) = 0.02767230
#
# Stress axis : x y z
#
# Youngs Moduli (GPa) = 73.41163 36.59989 63.04112
#
# Poissons Ratio (x) = 0.04728 0.32271
# Poissons Ratio (y) = 0.09484 0.51418
# Poissons Ratio (z) = 0.37580 0.29852
#
# Static dielectric constant tensor:
#      x y z
#    x 1.809070 0.033970 -0.030730 
#    y 0.033970 1.739890 0.009240 
#    z -0.030730 0.009240 1.759520 
# 
# From -- ./inp_files/261501.got.cif
#   From: 2010.05.17/outbox.cif.g08.bks.cpg/sg2_131_cif.got.tgz:261501.got - 2010.06.03 11:33:40.
