data_PCOD9040456
_publ_section_title
;
Structure prediction by ZEFSAII (Michael W. Deem and Ramdas Pophale) SiO2 
 PCOD9040456
Probable space group: P -1
;
_chemical_formula_sum "Si O2"
_cell_formula_units_Z 15
_cell_length_a 6.550775
_cell_length_b 12.624584
_cell_length_c 8.133167
_cell_angle_alpha 93.430828
_cell_angle_beta 70.178646
_cell_angle_gamma 107.613792
_cell_volume 602.417854
_symmetry_space_group_name_H-M "P -1"
_symmetry_group_IT_number 2
_symmetry_cell_setting 'triclinic'
loop_
_space_group_symop_operation_xyz
x,y,z
-x,-y,-z
loop_
_atom_site_type_symbol
_atom_site_label
_atom_site_fract_x
_atom_site_fract_y
_atom_site_fract_z
Si Si1 0.277756 0.335986 0.587171
Si Si2 0.513932 0.220331 0.735082
Si Si3 0.867792 0.564489 0.654009
Si Si4 0.080893 0.119777 0.068763
Si Si5 0.222085 0.728803 0.788518
Si Si6 0.251431 0.133506 0.394369
Si Si7 0.130863 0.616136 0.134060
Si Si8 0.500000 0.000000 0.500000
O O1 0.484700 0.317722 0.631223
O O2 0.311436 0.404342 0.413212
O O3 0.151440 0.208761 0.549325
O O4 0.125949 0.389177 0.748406
O O5 0.725637 0.274168 0.797550
O O6 0.517730 0.111496 0.622695
O O7 0.295880 0.190146 0.912092
O O8 0.791178 0.485321 0.823984
O O9 0.000000 0.500000 0.500000
O O10 0.059780 0.674258 0.675926
O O11 0.144039 0.114884 0.242047
O O12 0.877501 0.173501 0.117023
O O13 0.000000 0.000000 0.000000
O O14 0.486492 0.787016 0.694170
O O15 0.180805 0.636498 0.931797
O O16 0.287695 0.025706 0.459410
#
# Coordination Sequence:
#
# PCOD9040456 Si02
#       8
#     2   2   2   2   2   2   2   1
#     4  10  23  43  67 100 140 176 229 280 342 410
#     4  11  24  45  68 104 136 189 224 287 347 409
#     4  10  24  44  69 105 136 183 231 288 344 404
#     4  12  26  44  72 104 137 181 233 284 345 415
#     4  12  24  47  70 100 144 178 232 289 341 413
#     4  11  25  46  70 102 137 185 227 282 352 412
#     4  11  24  44  71  97 143 176 235 286 342 408
#     4  10  26  40  68  98 140 174 234 270 348 402
#
# _framework density 24.899660999999998
#
# number of rings (size 3 to 8) (size 9 to 14) (size 15 to 20)
#    0.000    1.067    4.000    1.200    9.333    2.667 
#    2.400    4.667    0.000    0.000    0.000    0.000 
#    0.000    0.000    0.000    0.000    0.000    0.000 
#
# Total GULP energy -83715.296088 kJ/mol
# GULP energy per Si atom -5581.019739 kJ/mol
# Density = 2.484299 g / cm^3
# Si number density = 24.899661 Si / 1000 Ang^3
#
#
#
# Elastic Constant Matrix: (Units=GPa)
#
#
# Indices 1 2 3 4 5 6 
#
# 1 69.3028 22.6914 37.8093 -8.3821 5.5545 -13.1084
# 2 22.6914 79.3532 16.9899 13.1106 -4.9683 -18.3969
# 3 37.8093 16.9899 75.6069 -6.5676 14.3361 -1.7613
# 4 -8.3821 13.1106 -6.5676 39.6887 -1.4705 9.7603
# 5 5.5545 -4.9683 14.3361 -1.4705 43.6806 0.3693
# 6 -13.1084 -18.3969 -1.7613 9.7603 0.3693 50.9907
#
#
#
# Elastic Compliance Matrix: (Units=1/GPa)
#
#
# Indices 1 2 3 4 5 6 
#
# 1 0.022138 -0.004103 -0.009762 0.003635 0.000018 0.003178
# 2 -0.004103 0.017699 -0.003139 -0.008807 0.003210 0.006885
# 3 -0.009762 -0.003139 0.020043 0.002939 -0.005566 -0.003472
# 4 0.003635 -0.008807 0.002939 0.031309 -0.001306 -0.008125
# 5 0.000018 0.003210 -0.005566 -0.001306 0.025030 0.001039
# 6 0.003178 0.006885 -0.003472 -0.008125 0.001039 0.024340
#
#
# Mechanical properties :
#
#
# Convention : Reuss Voigt Hill
#
# Bulk Modulus (GPa) = 38.65108 42.13823 40.39465
# Shear Modulus (GPa) = 27.29360 36.65683 31.97521
#
# Velocity S-wave (km/s) = 3.31440 3.84106 3.58741
# Velocity P-wave (km/s) = 5.49576 6.05241 5.78079
#
# Compressibility (1/GPa) = 0.02587250
#
# Stress axis : x y z
#
# Youngs Moduli (GPa) = 45.17091 56.49889 49.89180
#
# Poissons Ratio (x) = 0.23181 0.48706
# Poissons Ratio (y) = 0.18534 0.15660
# Poissons Ratio (z) = 0.44098 0.17734
#
# Static dielectric constant tensor:
#      x y z
#    x 2.113150 -0.355170 -0.472380 
#    y -0.355170 3.040730 1.275150 
#    z -0.472380 1.275150 3.823240 
# 
# From -- ./inp_files/28482.got.cif
#   From: 2010.05.17/outbox.cif.g08.bks.cpg/sg2_15_cif.got.tgz:28482.got - 2010.06.03 11:33:40.
