data_PCOD9040129
_publ_section_title
;
Structure prediction by ZEFSAII (Michael W. Deem and Ramdas Pophale) SiO2 
 PCOD9040129
Probable space group: P -1
;
_chemical_formula_sum "Si O2"
_cell_formula_units_Z 16
_cell_length_a 7.680860
_cell_length_b 6.935927
_cell_length_c 16.553063
_cell_angle_alpha 104.180660
_cell_angle_beta 102.583598
_cell_angle_gamma 126.462525
_cell_volume 608.341599
_symmetry_space_group_name_H-M "P -1"
_symmetry_group_IT_number 2
_symmetry_cell_setting 'triclinic'
loop_
_space_group_symop_operation_xyz
x,y,z
-x,-y,-z
loop_
_atom_site_type_symbol
_atom_site_label
_atom_site_fract_x
_atom_site_fract_y
_atom_site_fract_z
Si Si1 0.863937 0.761515 0.836588
Si Si2 0.565399 0.929682 0.687007
Si Si3 0.723206 0.655779 0.626622
Si Si4 0.116474 0.835690 0.573807
Si Si5 0.757858 0.653867 0.384734
Si Si6 0.365421 0.707037 0.140505
Si Si7 0.763157 0.595051 0.057532
Si Si8 0.297623 0.807406 0.892011
O O1 0.806662 0.681198 0.729406
O O2 0.631413 0.508963 0.838948
O O3 0.993578 0.921030 0.108810
O O4 0.061655 0.753075 0.885354
O O5 0.729530 0.904424 0.648358
O O6 0.404885 0.649380 0.695518
O O7 0.352649 0.881278 0.611817
O O8 0.699114 0.187262 0.783865
O O9 0.881279 0.627545 0.586021
O O10 0.429120 0.399735 0.570230
O O11 0.997298 0.758607 0.465386
O O12 0.187925 0.112876 0.637113
O O13 0.216557 0.546280 0.028007
O O14 0.605308 0.003875 0.159013
O O15 0.500000 0.500000 0.000000
O O16 0.750853 0.463899 0.126976
O O17 0.500000 0.000000 0.000000
#
# Coordination Sequence:
#
# PCOD9040129 Si02
#       8
#     2   2   2   2   2   2   2   2
#     4  12  24  44  65  97 133 180 230 284 347 404
#     4  10  24  44  63 105 136 175 232 279 340 416
#     4  10  25  42  66 103 136 175 228 284 334 418
#     4  11  20  46  72  94 143 182 216 291 346 393
#     4   9  23  43  68 105 133 178 236 271 342 430
#     4  11  24  44  66  92 139 176 221 294 333 401
#     4  11  24  45  67  96 131 178 237 281 345 415
#     4  10  23  43  63  94 127 174 228 284 340 411
#
# _framework density 26.301012
#
# number of rings (size 3 to 8) (size 9 to 14) (size 15 to 20)
#    0.750    0.750    2.500    2.625    1.750    4.000 
#    4.500    1.250    0.000    0.000    0.000    0.000 
#    0.000    0.000    0.000    0.000    0.000    0.000 
#
# Total GULP energy -89154.698547 kJ/mol
# GULP energy per Si atom -5572.168659 kJ/mol
# Density = 2.624115 g / cm^3
# Si number density = 26.301012 Si / 1000 Ang^3
#
#
#
# Elastic Constant Matrix: (Units=GPa)
#
#
# Indices 1 2 3 4 5 6 
#
# 1 113.6439 18.9571 23.2615 -10.8724 21.5066 -3.0706
# 2 18.9571 178.4914 30.1346 6.2047 -8.8619 -33.7629
# 3 23.2615 30.1346 64.4420 4.1272 5.6996 -3.1424
# 4 -10.8724 6.2047 4.1272 42.8153 -14.3817 -5.2300
# 5 21.5066 -8.8619 5.6996 -14.3817 42.2140 3.4083
# 6 -3.0706 -33.7629 -3.1424 -5.2300 3.4083 34.6331
#
#
#
# Elastic Compliance Matrix: (Units=1/GPa)
#
#
# Indices 1 2 3 4 5 6 
#
# 1 0.010621 -0.000770 -0.003137 0.001625 -0.004645 0.000609
# 2 -0.000770 0.007615 -0.003159 0.000540 0.002040 0.006949
# 3 -0.003137 -0.003159 0.018458 -0.003188 -0.002488 -0.001919
# 4 0.001625 0.000540 -0.003188 0.027384 0.008750 0.003655
# 5 -0.004645 0.002040 -0.002488 0.008750 0.029821 -0.000262
# 6 0.000609 0.006949 -0.001919 0.003655 -0.000262 0.036106
#
#
# Mechanical properties :
#
#
# Convention : Reuss Voigt Hill
#
# Bulk Modulus (GPa) = 44.32457 55.69818 50.01137
# Shear Modulus (GPa) = 32.96891 42.88076 37.92483
#
# Velocity S-wave (km/s) = 3.54435 4.04218 3.80143
# Velocity P-wave (km/s) = 5.79994 6.55811 6.19064
#
# Compressibility (1/GPa) = 0.02256085
#
# Stress axis : x y z
#
# Youngs Moduli (GPa) = 94.15323 131.32575 54.17675
#
# Poissons Ratio (x) = 0.10117 0.16996
# Poissons Ratio (y) = 0.07253 0.17114
# Poissons Ratio (z) = 0.29538 0.41484
#
# Static dielectric constant tensor:
#      x y z
#    x 2.116250 0.033810 -0.013320 
#    y 0.033810 2.269670 -0.061320 
#    z -0.013320 -0.061320 2.017540 
# 
# From -- ./inp_files/555333.got.cif
#   From: 2010.05.17/outbox.cif.g08.bks.cpg/sg2_278_cif.got.tgz:555333.got - 2010.06.03 11:33:40.
