data_PCOD9040725
_publ_section_title
;
Structure prediction by ZEFSAII (Michael W. Deem and Ramdas Pophale) SiO2 
 PCOD9040725
Probable space group: P -1
;
_chemical_formula_sum "Si O2"
_cell_formula_units_Z 14
_cell_length_a 22.587019
_cell_length_b 13.464739
_cell_length_c 15.850176
_cell_angle_alpha 36.504108
_cell_angle_beta 26.740759
_cell_angle_gamma 18.718682
_cell_volume 665.985128
_symmetry_space_group_name_H-M "P -1"
_symmetry_group_IT_number 2
_symmetry_cell_setting 'triclinic'
loop_
_space_group_symop_operation_xyz
x,y,z
-x,-y,-z
loop_
_atom_site_type_symbol
_atom_site_label
_atom_site_fract_x
_atom_site_fract_y
_atom_site_fract_z
Si Si1 0.652209 0.229022 0.633009
Si Si2 0.265597 0.619693 0.432369
Si Si3 0.076964 0.787454 0.974966
Si Si4 0.899864 0.562618 0.177017
Si Si5 0.210210 0.280997 0.142911
Si Si6 0.104428 0.884208 0.192971
Si Si7 0.508108 0.268407 0.184095
O O1 0.588231 0.412540 0.670315
O O2 0.375892 0.479395 0.779813
O O3 0.814363 0.885197 0.682811
O O4 0.832267 0.141339 0.403538
O O5 0.194227 0.523115 0.632381
O O6 0.391048 0.455411 0.294244
O O7 0.000000 0.000000 0.500000
O O8 0.051583 0.617364 0.146201
O O9 0.925203 0.012957 0.932596
O O10 0.000000 0.000000 0.000000
O O11 0.116500 0.372134 0.101823
O O12 0.644004 0.948936 0.249222
O O13 0.000000 0.500000 0.000000
O O14 0.500000 0.000000 0.000000
O O15 0.285640 0.526614 0.221433
O O16 0.266039 0.855295 0.051416
#
# Coordination Sequence:
#
# PCOD9040725 Si02
#       7
#     2   2   2   2   2   2   2
#     4  11  23  43  68  99 132 182 226 275 343 408
#     4  12  23  41  69  98 137 177 224 274 349 405
#     4  11  24  44  70  96 134 181 231 278 341 408
#     4  12  25  42  69 103 139 176 230 284 343 408
#     4  10  23  43  68  95 138 177 224 277 345 403
#     4  11  22  41  67  95 133 174 225 279 331 399
#     4  11  24  40  67  98 140 173 226 281 337 404
#
# _framework density 21.021491000000001
#
# number of rings (size 3 to 8) (size 9 to 14) (size 15 to 20)
#    0.000    0.857    4.286    2.571    2.000    2.286 
#    0.000    0.714    0.000    0.000    0.000    0.000 
#    0.000    0.000    0.000    0.000    0.000    0.000 
#
# Total GULP energy -78041.933370 kJ/mol
# GULP energy per Si atom -5574.423812 kJ/mol
# Density = 2.097365 g / cm^3
# Si number density = 21.021491 Si / 1000 Ang^3
#
#
#
# Elastic Constant Matrix: (Units=GPa)
#
#
# Indices 1 2 3 4 5 6 
#
# 1 73.3592 56.4241 8.1426 -8.5819 -0.2248 -10.2838
# 2 56.4241 167.9678 50.9909 -21.2736 13.4900 -0.8978
# 3 8.1426 50.9909 88.0614 -11.0683 3.2535 7.1060
# 4 -8.5819 -21.2736 -11.0683 38.8846 -2.0614 -7.6914
# 5 -0.2248 13.4900 3.2535 -2.0614 29.2719 3.3099
# 6 -10.2838 -0.8978 7.1060 -7.6914 3.3099 44.4263
#
#
#
# Elastic Compliance Matrix: (Units=1/GPa)
#
#
# Indices 1 2 3 4 5 6 
#
# 1 0.019825 -0.007282 0.002187 0.002004 0.002929 0.004221
# 2 -0.007282 0.010573 -0.004979 0.002553 -0.004204 0.000079
# 3 0.002187 -0.004979 0.014331 0.001557 0.001020 -0.001693
# 4 0.002004 0.002553 0.001557 0.029051 0.000114 0.005287
# 5 0.002929 -0.004204 0.001020 0.000114 0.036272 -0.002253
# 6 0.004221 0.000079 -0.001693 0.005287 -0.002253 0.024842
#
#
# Mechanical properties :
#
#
# Convention : Reuss Voigt Hill
#
# Bulk Modulus (GPa) = 40.68369 62.27818 51.48094
# Shear Modulus (GPa) = 30.63042 36.77195 33.70119
#
# Velocity S-wave (km/s) = 3.82134 4.18695 4.00831
# Velocity P-wave (km/s) = 6.23423 7.28453 6.77974
#
# Compressibility (1/GPa) = 0.02457987
#
# Stress axis : x y z
#
# Youngs Moduli (GPa) = 50.44074 94.58320 69.77815
#
# Poissons Ratio (x) = 0.68880 -0.15259
# Poissons Ratio (y) = 0.36733 0.34742
# Poissons Ratio (z) = -0.11030 0.47092
#
# Static dielectric constant tensor:
#      x y z
#    x 1.493610 -0.058970 0.099160 
#    y -0.058970 1.800650 0.019660 
#    z 0.099160 0.019660 1.698660 
# 
# From -- ./inp_files/185677.got.cif
#   From: 2010.05.17/outbox.cif.g08.bks.cpg/sg2_93_cif.got.tgz:185677.got - 2010.06.03 11:33:40.
