data_PCOD9040491
_publ_section_title
;
Structure prediction by ZEFSAII (Michael W. Deem and Ramdas Pophale) SiO2 
 PCOD9040491
Probable space group: P -1
;
_chemical_formula_sum "Si O2"
_cell_formula_units_Z 12
_cell_length_a 5.031470
_cell_length_b 16.583342
_cell_length_c 10.637172
_cell_angle_alpha 138.972184
_cell_angle_beta 117.182833
_cell_angle_gamma 52.106492
_cell_volume 459.733060
_symmetry_space_group_name_H-M "P -1"
_symmetry_group_IT_number 2
_symmetry_cell_setting 'triclinic'
loop_
_space_group_symop_operation_xyz
x,y,z
-x,-y,-z
loop_
_atom_site_type_symbol
_atom_site_label
_atom_site_fract_x
_atom_site_fract_y
_atom_site_fract_z
Si Si1 0.848245 0.970298 0.107720
Si Si2 0.579915 0.221638 0.494058
Si Si3 0.547422 0.520078 0.366764
Si Si4 0.792132 0.215323 0.810065
Si Si5 0.107302 0.731847 0.713067
Si Si6 0.131110 0.392168 0.014529
O O1 0.914354 0.892302 0.164330
O O2 0.829324 0.114989 0.317694
O O3 0.112893 0.860415 0.937657
O O4 0.500000 0.000000 0.000000
O O5 0.492899 0.381594 0.644165
O O6 0.730499 0.174416 0.609357
O O7 0.227399 0.222470 0.387953
O O8 0.424694 0.633425 0.583498
O O9 0.880017 0.380351 0.310136
O O10 0.274999 0.463448 0.226196
O O11 0.450303 0.260814 0.868428
O O12 0.874090 0.343230 0.956984
O O13 0.000000 0.500000 0.000000
#
# Coordination Sequence:
#
# PCOD9040491 Si02
#       6
#     2   2   2   2   2   2
#     4  10  24  49  70 104 146 200 243 303 365 440
#     4  11  24  43  72 101 148 184 252 293 376 422
#     4  11  23  40  71 107 137 194 241 307 358 437
#     4  12  26  48  74 111 146 195 248 302 367 439
#     4  10  23  43  67 103 144 190 245 298 366 434
#     4  12  25  44  76 112 149 188 240 308 370 432
#
# _framework density 26.102101999999999
#
# number of rings (size 3 to 8) (size 9 to 14) (size 15 to 20)
#    0.000    1.000    3.333    2.500    2.333    6.000 
#    6.000    1.667    0.000    0.000    0.000    0.000 
#    0.000    0.000    0.000    0.000    0.000    0.000 
#
# Total GULP energy -67116.828706 kJ/mol
# GULP energy per Si atom -5593.069059 kJ/mol
# Density = 2.604269 g / cm^3
# Si number density = 26.102102 Si / 1000 Ang^3
#
#
#
# Elastic Constant Matrix: (Units=GPa)
#
#
# Indices 1 2 3 4 5 6 
#
# 1 45.7563 2.1081 28.9208 0.9341 1.7008 -3.2790
# 2 2.1081 181.3713 56.6223 -32.9981 10.7911 -0.5165
# 3 28.9208 56.6223 179.9046 -7.0446 -17.6146 -9.1783
# 4 0.9341 -32.9981 -7.0446 57.5771 -0.5669 2.2867
# 5 1.7008 10.7911 -17.6146 -0.5669 30.6074 7.0854
# 6 -3.2790 -0.5165 -9.1783 2.2867 7.0854 26.5330
#
#
#
# Elastic Compliance Matrix: (Units=1/GPa)
#
#
# Indices 1 2 3 4 5 6 
#
# 1 0.025336 0.001530 -0.004954 -0.000311 -0.005484 0.002939
# 2 0.001530 0.007312 -0.002807 0.003774 -0.004248 0.000170
# 3 -0.004954 -0.002807 0.007796 -0.000542 0.005607 0.000579
# 4 -0.000311 0.003774 -0.000542 0.019524 -0.000894 -0.001596
# 5 -0.005484 -0.004248 0.005607 -0.000894 0.039858 -0.009387
# 6 0.002939 0.000170 0.000579 -0.001596 -0.009387 0.040900
#
#
# Mechanical properties :
#
#
# Convention : Reuss Voigt Hill
#
# Bulk Modulus (GPa) = 35.73606 64.70381 50.21994
# Shear Modulus (GPa) = 30.76662 44.23557 37.50109
#
# Velocity S-wave (km/s) = 3.43695 4.12116 3.79450
# Velocity P-wave (km/s) = 5.42870 6.89114 6.20317
#
# Compressibility (1/GPa) = 0.02798294
#
# Stress axis : x y z
#
# Youngs Moduli (GPa) = 39.46899 136.76598 128.27865
#
# Poissons Ratio (x) = -0.20927 0.63547
# Poissons Ratio (y) = -0.06039 0.36004
# Poissons Ratio (z) = 0.19552 0.38386
#
# Static dielectric constant tensor:
#      x y z
#    x 2.091220 0.045180 -0.066730 
#    y 0.045180 2.170860 0.022240 
#    z -0.066730 0.022240 2.040120 
# 
# From -- ./inp_files/84054.got.cif
#   From: 2010.05.17/outbox.cif.g08.bks.cpg/sg2_43_cif.got.tgz:84054.got - 2010.06.03 11:33:40.
