data_PCOD9040965
_publ_section_title
;
Structure prediction by ZEFSAII (Michael W. Deem and Ramdas Pophale) SiO2 
 PCOD9040965
Probable space group: P -1
;
_chemical_formula_sum "Si O2"
_cell_formula_units_Z 16
_cell_length_a 8.212401
_cell_length_b 27.311449
_cell_length_c 9.968314
_cell_angle_alpha 36.071704
_cell_angle_beta 71.024848
_cell_angle_gamma 43.008441
_cell_volume 672.969062
_symmetry_space_group_name_H-M "P -1"
_symmetry_group_IT_number 2
_symmetry_cell_setting 'triclinic'
loop_
_space_group_symop_operation_xyz
x,y,z
-x,-y,-z
loop_
_atom_site_type_symbol
_atom_site_label
_atom_site_fract_x
_atom_site_fract_y
_atom_site_fract_z
Si Si1 0.937600 0.509475 0.313790
Si Si2 0.310241 0.786969 0.201279
Si Si3 0.731366 0.481516 0.187497
Si Si4 0.705294 0.843299 0.359471
Si Si5 0.536894 0.548760 0.507495
Si Si6 0.482097 0.834501 0.678798
Si Si7 0.931948 0.953452 0.462410
Si Si8 0.816673 0.239004 0.436404
O O1 0.792225 0.528278 0.175952
O O2 0.803855 0.503759 0.480038
O O3 0.315245 0.354906 0.556527
O O4 0.804315 0.657569 0.025571
O O5 0.279499 0.719779 0.258104
O O6 0.152459 0.835911 0.279893
O O7 0.189642 0.916787 0.872236
O O8 0.479333 0.513121 0.232935
O O9 0.076888 0.299354 0.481565
O O10 0.556761 0.589848 0.864774
O O11 0.494980 0.870298 0.450415
O O12 0.970540 0.771845 0.547095
O O13 0.500000 0.000000 0.000000
O O14 0.500000 0.500000 0.500000
O O15 0.232556 0.859541 0.678640
O O16 0.347538 0.952472 0.565072
O O17 0.045906 0.845692 0.555374
#
# Coordination Sequence:
#
# PCOD9040965 Si02
#       8
#     2   2   2   2   2   2   2   2
#     4  11  24  43  73 105 130 179 233 281 334 404
#     4  12  24  42  73 102 139 175 232 289 334 402
#     4  11  25  46  69 100 138 183 223 278 347 411
#     4  12  28  45  69 102 142 175 227 285 347 407
#     4  10  23  43  70 100 142 177 225 280 346 404
#     4  11  25  46  72  96 138 180 225 285 336 409
#     4  11  26  45  69 100 136 179 228 282 346 400
#     4  12  26  46  68 100 137 186 226 278 349 409
#
# _framework density 23.775238999999999
#
# number of rings (size 3 to 8) (size 9 to 14) (size 15 to 20)
#    0.000    0.750    3.750    2.625    5.250    1.500 
#    2.250    0.000    0.000    0.000    0.000    0.000 
#    0.000    0.000    0.000    0.000    0.000    0.000 
#
# Total GULP energy -89363.556079 kJ/mol
# GULP energy per Si atom -5585.222255 kJ/mol
# Density = 2.372113 g / cm^3
# Si number density = 23.775239 Si / 1000 Ang^3
#
#
#
# Elastic Constant Matrix: (Units=GPa)
#
#
# Indices 1 2 3 4 5 6 
#
# 1 32.8095 16.7223 3.0104 -3.0176 0.7212 3.3069
# 2 16.7223 121.5826 22.9508 -4.6801 -11.4386 5.1176
# 3 3.0104 22.9508 123.9523 -7.1214 0.3647 3.1635
# 4 -3.0176 -4.6801 -7.1214 42.0587 -2.0015 -8.4350
# 5 0.7212 -11.4386 0.3647 -2.0015 33.7039 3.1330
# 6 3.3069 5.1176 3.1635 -8.4350 3.1330 40.3748
#
#
#
# Elastic Compliance Matrix: (Units=1/GPa)
#
#
# Indices 1 2 3 4 5 6 
#
# 1 0.033189 -0.004667 0.000191 0.001460 -0.002054 -0.001677
# 2 -0.004667 0.009552 -0.001618 0.000443 0.003467 -0.000878
# 3 0.000191 -0.001618 0.008438 0.001200 -0.000557 -0.000178
# 4 0.001460 0.000443 0.001200 0.025171 0.001145 0.004900
# 5 -0.002054 0.003467 -0.000557 0.001145 0.031189 -0.002409
# 6 -0.001677 -0.000878 -0.000178 0.004900 -0.002409 0.026241
#
#
# Mechanical properties :
#
#
# Convention : Reuss Voigt Hill
#
# Bulk Modulus (GPa) = 25.64710 40.41239 33.02975
# Shear Modulus (GPa) = 31.45358 38.93820 35.19589
#
# Velocity S-wave (km/s) = 3.64119 4.05132 3.85172
# Velocity P-wave (km/s) = 5.33746 6.23849 5.80548
#
# Compressibility (1/GPa) = 0.03899076
#
# Stress axis : x y z
#
# Youngs Moduli (GPa) = 30.13069 104.68605 118.51653
#
# Poissons Ratio (x) = 0.48859 -0.02262
# Poissons Ratio (y) = 0.14063 0.19172
# Poissons Ratio (z) = -0.00575 0.16935
#
# Static dielectric constant tensor:
#      x y z
#    x 1.902490 -0.015080 -0.003350 
#    y -0.015080 2.000190 -0.022180 
#    z -0.003350 -0.022180 1.887730 
# 
# From -- ./inp_files/227709.got.cif
#   From: 2010.05.17/outbox.cif.g08.bks.cpg/sg2_114_cif.got.tgz:227709.got - 2010.06.03 11:33:40.
