data_PCOD9040880
_publ_section_title
;
Structure prediction by ZEFSAII (Michael W. Deem and Ramdas Pophale) SiO2 
 PCOD9040880
Probable space group: P -1
;
_chemical_formula_sum "Si O2"
_cell_formula_units_Z 12
_cell_length_a 7.938030
_cell_length_b 13.383466
_cell_length_c 9.448687
_cell_angle_alpha 44.602517
_cell_angle_beta 48.673760
_cell_angle_gamma 43.739747
_cell_volume 464.790173
_symmetry_space_group_name_H-M "P -1"
_symmetry_group_IT_number 2
_symmetry_cell_setting 'triclinic'
loop_
_space_group_symop_operation_xyz
x,y,z
-x,-y,-z
loop_
_atom_site_type_symbol
_atom_site_label
_atom_site_fract_x
_atom_site_fract_y
_atom_site_fract_z
Si Si1 0.920186 0.891127 0.900078
Si Si2 0.534568 0.855573 0.935926
Si Si3 0.213966 0.268246 0.344770
Si Si4 0.589844 0.257493 0.361723
Si Si5 0.680767 0.490662 0.278799
Si Si6 0.903590 0.690445 0.339443
O O1 0.034028 0.732842 0.097781
O O2 0.746868 0.032541 0.961186
O O3 0.732371 0.874989 0.908825
O O4 0.148922 0.891584 0.685954
O O5 0.608439 0.873957 0.716052
O O6 0.591726 0.671186 0.097319
O O7 0.404369 0.320597 0.264705
O O8 0.087357 0.235875 0.587605
O O9 0.972762 0.403358 0.258766
O O10 0.654915 0.383265 0.277071
O O11 0.402737 0.229128 0.602133
O O12 0.500000 0.500000 0.500000
O O13 0.000000 0.500000 0.500000
#
# Coordination Sequence:
#
# PCOD9040880 Si02
#       6
#     2   2   2   2   2   2
#     4  11  24  48  71  98 152 186 224 297 353 412
#     4  11  25  45  69 104 140 189 236 281 356 426
#     4  10  24  43  69 108 134 179 245 284 342 422
#     4  10  25  43  75 103 137 182 231 298 342 407
#     4  12  24  45  73 106 140 183 239 292 346 414
#     4  10  23  43  69 108 138 178 240 286 342 419
#
# _framework density 25.818100999999999
#
# number of rings (size 3 to 8) (size 9 to 14) (size 15 to 20)
#    1.000    0.333    1.667    3.500    2.333    5.333 
#    3.000    2.500    0.000    0.000    0.000    0.000 
#    0.000    0.000    0.000    0.000    0.000    0.000 
#
# Total GULP energy -67135.199992 kJ/mol
# GULP energy per Si atom -5594.599999 kJ/mol
# Density = 2.575934 g / cm^3
# Si number density = 25.818101 Si / 1000 Ang^3
#
#
#
# Elastic Constant Matrix: (Units=GPa)
#
#
# Indices 1 2 3 4 5 6 
#
# 1 132.0354 48.3102 31.4585 11.8345 6.2790 7.5186
# 2 48.3102 106.2130 34.5470 37.8734 -0.2448 1.9429
# 3 31.4585 34.5470 104.5363 27.5280 -4.3182 6.1237
# 4 11.8345 37.8734 27.5280 53.0368 -3.5797 -0.9604
# 5 6.2790 -0.2448 -4.3182 -3.5797 46.1175 19.5963
# 6 7.5186 1.9429 6.1237 -0.9604 19.5963 32.2742
#
#
#
# Elastic Compliance Matrix: (Units=1/GPa)
#
#
# Indices 1 2 3 4 5 6 
#
# 1 0.009567 -0.004397 -0.001913 0.001917 -0.000944 -0.000971
# 2 -0.004397 0.015085 -0.001280 -0.009140 -0.000253 0.000241
# 3 -0.001913 -0.001280 0.012147 -0.004859 0.002470 -0.003426
# 4 0.001917 -0.009140 -0.004859 0.027554 0.000795 0.001363
# 5 -0.000944 -0.000253 0.002470 0.000795 0.029910 -0.018371
# 6 -0.000971 0.000241 -0.003426 0.001363 -0.018371 0.043041
#
#
# Mechanical properties :
#
#
# Convention : Reuss Voigt Hill
#
# Bulk Modulus (GPa) = 46.25399 63.49068 54.87233
# Shear Modulus (GPa) = 31.31063 41.51697 36.41380
#
# Velocity S-wave (km/s) = 3.48622 4.01441 3.75960
# Velocity P-wave (km/s) = 5.84459 6.79207 6.33606
#
# Compressibility (1/GPa) = 0.02161976
#
# Stress axis : x y z
#
# Youngs Moduli (GPa) = 104.52994 66.28957 82.32504
#
# Poissons Ratio (x) = 0.29148 0.15746
# Poissons Ratio (y) = 0.45963 0.10537
# Poissons Ratio (z) = 0.19992 0.08484
#
# Static dielectric constant tensor:
#      x y z
#    x 1.989160 -0.031320 -0.007020 
#    y -0.031320 2.051700 0.013340 
#    z -0.007020 0.013340 2.068130 
# 
# From -- ./inp_files/185651.got.cif
#   From: 2010.05.17/outbox.cif.g08.bks.cpg/sg2_93_cif.got.tgz:185651.got - 2010.06.03 11:33:40.
