data_PCOD9040656
_publ_section_title
;
Structure prediction by ZEFSAII (Michael W. Deem and Ramdas Pophale) SiO2 
 PCOD9040656
Probable space group: P -1
;
_chemical_formula_sum "Si O2"
_cell_formula_units_Z 16
_cell_length_a 11.351952
_cell_length_b 8.472529
_cell_length_c 12.570009
_cell_angle_alpha 128.360811
_cell_angle_beta 47.480593
_cell_angle_gamma 107.562980
_cell_volume 684.071318
_symmetry_space_group_name_H-M "P -1"
_symmetry_group_IT_number 2
_symmetry_cell_setting 'triclinic'
loop_
_space_group_symop_operation_xyz
x,y,z
-x,-y,-z
loop_
_atom_site_type_symbol
_atom_site_label
_atom_site_fract_x
_atom_site_fract_y
_atom_site_fract_z
Si Si1 0.638590 0.189262 0.828618
Si Si2 0.981961 0.570377 0.419067
Si Si3 0.497019 0.404812 0.805760
Si Si4 0.972413 0.035402 0.674572
Si Si5 0.576493 0.544434 0.359525
Si Si6 0.869227 0.160323 0.022263
Si Si7 0.828997 0.754367 0.993423
Si Si8 0.271575 0.216132 0.483089
O O1 0.627720 0.273715 0.750195
O O2 0.807961 0.162148 0.775151
O O3 0.612914 0.956884 0.731162
O O4 0.521752 0.362845 0.040587
O O5 0.811049 0.598005 0.467515
O O6 0.000000 0.500000 0.500000
O O7 0.111067 0.411991 0.205245
O O8 0.997043 0.805143 0.522101
O O9 0.527642 0.403293 0.661217
O O10 0.330411 0.314104 0.888132
O O11 0.119977 0.129804 0.584158
O O12 0.945252 0.049990 0.822711
O O13 0.500000 0.500000 0.500000
O O14 0.721699 0.349706 0.165786
O O15 0.648071 0.735074 0.436357
O O16 0.014972 0.249398 0.026436
O O17 0.804745 0.987193 0.059012
#
# Coordination Sequence:
#
# PCOD9040656 Si02
#       8
#     2   2   2   2   2   2   2   2
#     4  10  23  43  68 103 132 174 224 272 339 400
#     4  11  21  39  65 108 139 169 212 282 335 391
#     4  11  24  47  72  95 134 182 225 277 337 413
#     4  11  21  43  72 100 136 172 229 273 336 404
#     4  12  28  49  67  96 136 180 231 280 338 399
#     4  11  24  43  68 100 134 176 222 285 326 393
#     4  11  23  43  69 103 135 172 230 268 339 400
#     4  11  24  44  69  99 133 179 226 276 335 400
#
# _framework density 23.389374
#
# number of rings (size 3 to 8) (size 9 to 14) (size 15 to 20)
#    0.000    1.000    3.750    3.750    1.750    1.500 
#   13.500    1.250    0.000    0.000    0.000    0.000 
#    0.000    0.000    0.000    0.000    0.000    0.000 
#
# Total GULP energy -89371.994253 kJ/mol
# GULP energy per Si atom -5585.749641 kJ/mol
# Density = 2.333614 g / cm^3
# Si number density = 23.389374 Si / 1000 Ang^3
#
#
#
# Elastic Constant Matrix: (Units=GPa)
#
#
# Indices 1 2 3 4 5 6 
#
# 1 86.4295 21.0101 22.4386 -4.1701 18.8284 -20.5045
# 2 21.0101 61.0889 13.4487 -11.5079 3.6912 -7.3928
# 3 22.4386 13.4487 76.4424 -5.0432 29.4615 9.0077
# 4 -4.1701 -11.5079 -5.0432 37.9326 -9.1330 7.2411
# 5 18.8284 3.6912 29.4615 -9.1330 37.6659 -5.9364
# 6 -20.5045 -7.3928 9.0077 7.2411 -5.9364 33.8470
#
#
#
# Elastic Compliance Matrix: (Units=1/GPa)
#
#
# Indices 1 2 3 4 5 6 
#
# 1 0.016737 -0.003879 -0.004184 -0.002771 -0.003756 0.010339
# 2 -0.003879 0.019747 -0.004283 0.005709 0.005178 0.002790
# 3 -0.004184 -0.004283 0.023460 -0.000535 -0.017978 -0.012752
# 4 -0.002771 0.005709 -0.000535 0.030645 0.007812 -0.005475
# 5 -0.003756 0.005178 -0.017978 0.007812 0.045442 0.009939
# 6 0.010339 0.002790 -0.012752 -0.005475 0.009939 0.042726
#
#
# Mechanical properties :
#
#
# Convention : Reuss Voigt Hill
#
# Bulk Modulus (GPa) = 28.36823 37.52841 32.94832
# Shear Modulus (GPa) = 23.23437 33.02669 28.13053
#
# Velocity S-wave (km/s) = 3.15520 3.76179 3.47177
# Velocity P-wave (km/s) = 5.04269 5.91168 5.49439
#
# Compressibility (1/GPa) = 0.03525070
#
# Stress axis : x y z
#
# Youngs Moduli (GPa) = 59.74876 50.64107 42.62633
#
# Poissons Ratio (x) = 0.19643 0.17835
# Poissons Ratio (y) = 0.23176 0.18258
# Poissons Ratio (z) = 0.24999 0.21691
#
# Static dielectric constant tensor:
#      x y z
#    x 2.429290 0.291840 0.111620 
#    y 0.291840 2.079750 0.065740 
#    z 0.111620 0.065740 1.889300 
# 
# From -- ./inp_files/418367.got.cif
#   From: 2010.05.17/outbox.cif.g08.bks.cpg/sg2_210_cif.got.tgz:418367.got - 2010.06.03 11:33:40.
