data_PCOD9040932
_publ_section_title
;
Structure prediction by ZEFSAII (Michael W. Deem and Ramdas Pophale) SiO2 
 PCOD9040932
Probable space group: P -1
;
_chemical_formula_sum "Si O2"
_cell_formula_units_Z 16
_cell_length_a 14.512504
_cell_length_b 12.613862
_cell_length_c 8.888301
_cell_angle_alpha 82.346155
_cell_angle_beta 105.881304
_cell_angle_gamma 150.587887
_cell_volume 749.241969
_symmetry_space_group_name_H-M "P -1"
_symmetry_group_IT_number 2
_symmetry_cell_setting 'triclinic'
loop_
_space_group_symop_operation_xyz
x,y,z
-x,-y,-z
loop_
_atom_site_type_symbol
_atom_site_label
_atom_site_fract_x
_atom_site_fract_y
_atom_site_fract_z
Si Si1 0.644370 0.930220 0.673571
Si Si2 0.771798 0.576495 0.776593
Si Si3 0.602413 0.195034 0.649967
Si Si4 0.681696 0.155378 0.161520
Si Si5 0.950630 0.388162 0.653292
Si Si6 0.391178 0.478379 0.560923
Si Si7 0.442141 0.376315 0.852346
Si Si8 0.790432 0.054844 0.050989
O O1 0.476883 0.840953 0.539101
O O2 0.556958 0.727550 0.637842
O O3 0.847514 0.171006 0.638802
O O4 0.684987 0.979353 0.859834
O O5 0.665638 0.358819 0.746099
O O6 0.772867 0.625770 0.597553
O O7 0.637550 0.523204 0.826907
O O8 0.984933 0.763453 0.905889
O O9 0.787393 0.298425 0.687722
O O10 0.418949 0.965829 0.700709
O O11 0.843951 0.407027 0.201949
O O12 0.787019 0.153179 0.141563
O O13 0.500000 0.000000 0.000000
O O14 0.000000 0.500000 0.500000
O O15 0.500000 0.500000 0.500000
O O16 0.324614 0.343622 0.698290
O O17 0.321443 0.153470 0.884291
O O18 0.500000 0.500000 0.000000
#
# Coordination Sequence:
#
# PCOD9040932 Si02
#       8
#     2   2   2   2   2   2   2   2
#     4  11  24  42  68  99 140 176 228 285 342 408
#     4  10  23  43  69  98 138 178 229 281 342 416
#     4  11  23  47  66  96 139 182 228 282 339 418
#     4  12  27  44  71 102 140 187 226 283 352 409
#     4  12  26  43  70 101 135 183 236 280 341 415
#     4   9  21  44  71  93 133 184 220 285 347 403
#     4  11  22  44  70  98 136 176 229 289 350 396
#     4  12  25  43  70 105 136 179 231 284 346 415
#
# _framework density 21.354915999999999
#
# number of rings (size 3 to 8) (size 9 to 14) (size 15 to 20)
#    0.000    1.000    5.000    1.125    3.500    2.000 
#    0.000    1.250    0.000    0.000    0.000    0.000 
#    0.000    0.000    0.000    0.000    0.000    0.000 
#
# Total GULP energy -89384.988462 kJ/mol
# GULP energy per Si atom -5586.561779 kJ/mol
# Density = 2.130631 g / cm^3
# Si number density = 21.354916 Si / 1000 Ang^3
#
#
#
# Elastic Constant Matrix: (Units=GPa)
#
#
# Indices 1 2 3 4 5 6 
#
# 1 76.2361 17.1927 20.7128 4.0455 -7.9302 5.0304
# 2 17.1927 79.1275 39.1357 -8.9361 13.7389 -0.3243
# 3 20.7128 39.1357 100.9979 1.5301 1.3328 0.4984
# 4 4.0455 -8.9361 1.5301 35.1180 2.8084 7.1273
# 5 -7.9302 13.7389 1.3328 2.8084 34.6932 3.7282
# 6 5.0304 -0.3243 0.4984 7.1273 3.7282 30.2558
#
#
#
# Elastic Compliance Matrix: (Units=1/GPa)
#
#
# Indices 1 2 3 4 5 6 
#
# 1 0.015311 -0.003740 -0.001712 -0.002548 0.005536 -0.002640
# 2 -0.003740 0.018866 -0.006525 0.006092 -0.008629 0.000560
# 3 -0.001712 -0.006525 0.012788 -0.002229 0.001849 0.000301
# 4 -0.002548 0.006092 -0.002229 0.032109 -0.004816 -0.006445
# 5 0.005536 -0.008629 0.001849 -0.004816 0.034269 -0.004132
# 6 -0.002640 0.000560 0.000301 -0.006445 -0.004132 0.035519
#
#
# Mechanical properties :
#
#
# Convention : Reuss Voigt Hill
#
# Bulk Modulus (GPa) = 43.45540 45.60488 44.53014
# Shear Modulus (GPa) = 27.70286 31.96810 29.83548
#
# Velocity S-wave (km/s) = 3.60566 3.87329 3.74187
# Velocity P-wave (km/s) = 6.14228 6.43469 6.29019
#
# Compressibility (1/GPa) = 0.02301210
#
# Stress axis : x y z
#
# Youngs Moduli (GPa) = 65.31242 53.00582 78.19540
#
# Poissons Ratio (x) = 0.19822 0.13390
# Poissons Ratio (y) = 0.24425 0.51019
# Poissons Ratio (z) = 0.11184 0.34584
#
# Static dielectric constant tensor:
#      x y z
#    x 1.774030 -0.052400 0.036800 
#    y -0.052400 1.818340 -0.052500 
#    z 0.036800 -0.052500 1.864840 
# 
# From -- ./inp_files/138694.got.cif
#   From: 2010.05.17/outbox.cif.g08.bks.cpg/sg2_70_cif.got.tgz:138694.got - 2010.06.03 11:33:40.
