data_PCOD9040006
_publ_section_title
;
Structure prediction by ZEFSAII (Michael W. Deem and Ramdas Pophale) SiO2 
 PCOD9040006
Probable space group: P -1
;
_chemical_formula_sum "Si O2"
_cell_formula_units_Z 11
_cell_length_a 8.507697
_cell_length_b 9.155162
_cell_length_c 7.523507
_cell_angle_alpha 117.004631
_cell_angle_beta 111.664219
_cell_angle_gamma 54.827134
_cell_volume 422.097309
_symmetry_space_group_name_H-M "P -1"
_symmetry_group_IT_number 2
_symmetry_cell_setting 'triclinic'
loop_
_space_group_symop_operation_xyz
x,y,z
-x,-y,-z
loop_
_atom_site_type_symbol
_atom_site_label
_atom_site_fract_x
_atom_site_fract_y
_atom_site_fract_z
Si Si1 0.108766 0.931849 0.199070
Si Si2 0.185515 0.523377 0.110544
Si Si3 0.486666 0.834089 0.113768
Si Si4 0.374695 0.383131 0.497435
Si Si5 0.500000 0.000000 0.500000
Si Si6 0.727472 0.221916 0.313819
O O1 0.133591 0.732689 0.152851
O O2 0.326602 0.905223 0.252180
O O3 0.957469 0.093289 0.353747
O O4 0.000000 0.000000 0.000000
O O5 0.258215 0.450679 0.300951
O O6 0.355610 0.379082 0.971107
O O7 0.000000 0.500000 0.000000
O O8 0.580020 0.952344 0.293280
O O9 0.356511 0.877584 0.908759
O O10 0.350851 0.228468 0.508434
O O11 0.598871 0.290453 0.474593
O O12 0.317164 0.578127 0.682051
#
# Coordination Sequence:
#
# PCOD9040006 Si02
#       6
#     2   2   2   2   1   2
#     4  10  23  42  74 101 134 190 229 274 345 420
#     4  11  26  44  72 105 144 178 230 288 347 403
#     4  10  25  45  70 100 141 182 227 287 340 410
#     4  10  25  45  69 105 136 184 227 292 336 414
#     4  12  28  40  74 100 140 180 234 284 354 394
#     4   9  22  46  73  95 139 182 237 273 349 410
#
# _framework density 26.06034
#
# number of rings (size 3 to 8) (size 9 to 14) (size 15 to 20)
#    0.000    1.818    0.000    0.545   20.364    3.636 
#    0.000    1.818    0.000    0.000    0.000    0.000 
#    0.000    0.000    0.000    0.000    0.000    0.000 
#
# Total GULP energy -61285.167167 kJ/mol
# GULP energy per Si atom -5571.378833 kJ/mol
# Density = 2.600103 g / cm^3
# Si number density = 26.060340 Si / 1000 Ang^3
#
#
#
# Elastic Constant Matrix: (Units=GPa)
#
#
# Indices 1 2 3 4 5 6 
#
# 1 110.1423 83.7203 7.1145 -1.6891 -8.6851 -15.2949
# 2 83.7203 189.9092 56.8443 5.7122 -9.1934 18.2063
# 3 7.1145 56.8443 140.0371 -15.2141 5.3692 2.9352
# 4 -1.6891 5.7122 -15.2141 55.2409 -5.7704 -12.2020
# 5 -8.6851 -9.1934 5.3692 -5.7704 30.7091 11.5149
# 6 -15.2949 18.2063 2.9352 -12.2020 11.5149 58.9718
#
#
#
# Elastic Compliance Matrix: (Units=1/GPa)
#
#
# Indices 1 2 3 4 5 6 
#
# 1 0.017305 -0.009592 0.003329 0.004183 -0.000895 0.008324
# 2 -0.009592 0.011959 -0.004801 -0.004123 0.003754 -0.007527
# 3 0.003329 -0.004801 0.009346 0.003590 -0.002632 0.003137
# 4 0.004183 -0.004123 0.003590 0.021149 0.000903 0.006379
# 5 -0.000895 0.003754 -0.002632 0.000903 0.037190 -0.008335
# 6 0.008324 -0.007527 0.003137 0.006379 -0.008335 0.024231
#
#
# Mechanical properties :
#
#
# Convention : Reuss Voigt Hill
#
# Bulk Modulus (GPa) = 60.67767 81.71631 71.19699
# Shear Modulus (GPa) = 33.60168 48.47833 41.04001
#
# Velocity S-wave (km/s) = 3.59469 4.31772 3.97269
# Velocity P-wave (km/s) = 6.36892 7.50211 6.95862
#
# Compressibility (1/GPa) = 0.01648053
#
# Stress axis : x y z
#
# Youngs Moduli (GPa) = 57.78710 83.62013 106.99843
#
# Poissons Ratio (x) = 0.80211 -0.35618
# Poissons Ratio (y) = 0.55431 0.51371
# Poissons Ratio (z) = -0.19237 0.40147
#
# Static dielectric constant tensor:
#      x y z
#    x 1.586960 -0.146220 -0.465860 
#    y -0.146220 1.954280 -0.141870 
#    z -0.465860 -0.141870 1.761190 
# 
# From -- ./inp_files/151868.got.cif
#   From: 2010.05.17/outbox.cif.g08.bks.cpg/sg2_76_cif.got.tgz:151868.got - 2010.06.03 11:33:40.
