data_PCOD9040987
_publ_section_title
;
Structure prediction by ZEFSAII (Michael W. Deem and Ramdas Pophale) SiO2 
 PCOD9040987
Probable space group: P -1
;
_chemical_formula_sum "Si O2"
_cell_formula_units_Z 13
_cell_length_a 19.095759
_cell_length_b 8.378911
_cell_length_c 5.126262
_cell_angle_alpha 80.623646
_cell_angle_beta 101.404235
_cell_angle_gamma 140.832878
_cell_volume 507.743211
_symmetry_space_group_name_H-M "P -1"
_symmetry_group_IT_number 2
_symmetry_cell_setting 'triclinic'
loop_
_space_group_symop_operation_xyz
x,y,z
-x,-y,-z
loop_
_atom_site_type_symbol
_atom_site_label
_atom_site_fract_x
_atom_site_fract_y
_atom_site_fract_z
Si Si1 0.839264 0.116340 0.467548
Si Si2 0.312290 0.841485 0.650358
Si Si3 0.164926 0.363102 0.012588
Si Si4 0.683619 0.566269 0.550611
Si Si5 0.949760 0.166242 0.053261
Si Si6 0.489022 0.593675 0.210307
Si Si7 0.500000 0.000000 0.500000
O O1 0.737063 0.817283 0.397526
O O2 0.783986 0.194215 0.445742
O O3 0.927632 0.238017 0.270024
O O4 0.890667 0.144818 0.767964
O O5 0.259786 0.605564 0.839508
O O6 0.415326 0.104491 0.808407
O O7 0.382860 0.903065 0.438173
O O8 0.103559 0.107534 0.888478
O O9 0.216014 0.376141 0.309126
O O10 0.077326 0.349078 0.030653
O O11 0.629795 0.527944 0.799435
O O12 0.577970 0.295611 0.416465
O O13 0.500000 0.500000 0.500000
O O14 0.500000 0.500000 0.000000
#
# Coordination Sequence:
#
# PCOD9040987 Si02
#       7
#     2   2   2   2   2   2   1
#     4  11  24  44  73 103 135 194 231 295 347 420
#     4  11  25  42  71 104 147 183 237 294 352 422
#     4  10  24  45  68 104 141 190 231 301 350 418
#     4  10  23  43  70 101 145 186 235 286 355 421
#     4  10  25  47  73 100 143 184 244 285 358 419
#     4  11  25  43  68 102 137 185 232 282 343 424
#     4  10  24  40  64 104 142 180 234 284 354 424
#
# _framework density 25.603494000000001
#
# number of rings (size 3 to 8) (size 9 to 14) (size 15 to 20)
#    0.000    1.538    1.538    0.923    4.308   16.615 
#    0.000    0.000    0.000    0.000    0.000    0.000 
#    0.000    0.000    0.000    0.000    0.000    0.000 
#
# Total GULP energy -72541.087360 kJ/mol
# GULP energy per Si atom -5580.083643 kJ/mol
# Density = 2.554522 g / cm^3
# Si number density = 25.603494 Si / 1000 Ang^3
#
#
#
# Elastic Constant Matrix: (Units=GPa)
#
#
# Indices 1 2 3 4 5 6 
#
# 1 175.3093 -9.6256 36.0512 -13.7364 -6.9116 30.0745
# 2 -9.6256 100.5419 -1.7977 -25.3736 0.2853 3.6977
# 3 36.0512 -1.7977 87.4780 -21.3892 -6.7052 7.5357
# 4 -13.7364 -25.3736 -21.3892 20.0265 5.4890 -3.5411
# 5 -6.9116 0.2853 -6.7052 5.4890 31.3068 -10.0869
# 6 30.0745 3.6977 7.5357 -3.5411 -10.0869 41.0424
#
#
#
# Elastic Compliance Matrix: (Units=1/GPa)
#
#
# Indices 1 2 3 4 5 6 
#
# 1 0.007434 0.002611 -0.001005 0.006809 -0.001492 -0.005277
# 2 0.002611 0.019554 0.008004 0.035969 -0.005269 -0.003336
# 3 -0.001005 0.008004 0.019439 0.030495 -0.001928 -0.001397
# 4 0.006809 0.035969 0.030495 0.136620 -0.018358 -0.006554
# 5 -0.001492 -0.005269 -0.001928 -0.018358 0.037548 0.009566
# 6 -0.005277 -0.003336 -0.001397 -0.006554 0.009566 0.030575
#
#
# Mechanical properties :
#
#
# Convention : Reuss Voigt Hill
#
# Bulk Modulus (GPa) = 15.23294 45.84278 30.53786
# Shear Modulus (GPa) = 19.69792 41.05524 30.37658
#
# Velocity S-wave (km/s) = 2.77672 4.00872 3.44819
# Velocity P-wave (km/s) = 4.03022 6.27457 5.27318
#
# Compressibility (1/GPa) = 0.06564720
#
# Stress axis : x y z
#
# Youngs Moduli (GPa) = 134.51223 51.13994 51.44283
#
# Poissons Ratio (x) = -0.13350 0.05170
# Poissons Ratio (y) = -0.35115 -0.41176
# Poissons Ratio (z) = 0.13518 -0.40934
#
# Static dielectric constant tensor:
#      x y z
#    x 2.073860 -0.039970 -0.042100 
#    y -0.039970 2.015630 0.036970 
#    z -0.042100 0.036970 2.006510 
# 
# From -- ./inp_files/19505.got.cif
#   From: 2010.05.17/outbox.cif.g08.bks.cpg/sg2_10_cif.got.tgz:19505.got - 2010.06.03 11:33:40.
