data_PCOD9040151
_publ_section_title
;
Structure prediction by ZEFSAII (Michael W. Deem and Ramdas Pophale) SiO2 
 PCOD9040151
Probable space group: P -1
;
_chemical_formula_sum "Si O2"
_cell_formula_units_Z 16
_cell_length_a 18.891324
_cell_length_b 13.105599
_cell_length_c 10.452233
_cell_angle_alpha 147.471751
_cell_angle_beta 147.433837
_cell_angle_gamma 37.235031
_cell_volume 715.499099
_symmetry_space_group_name_H-M "P -1"
_symmetry_group_IT_number 2
_symmetry_cell_setting 'triclinic'
loop_
_space_group_symop_operation_xyz
x,y,z
-x,-y,-z
loop_
_atom_site_type_symbol
_atom_site_label
_atom_site_fract_x
_atom_site_fract_y
_atom_site_fract_z
Si Si1 0.227348 0.460423 0.762376
Si Si2 0.644560 0.933190 0.579039
Si Si3 0.903221 0.387185 0.550254
Si Si4 0.174545 0.802862 0.530357
Si Si5 0.809114 0.766909 0.300427
Si Si6 0.129691 0.183171 0.980371
Si Si7 0.602361 0.572891 0.643398
Si Si8 0.340342 0.813918 0.367326
O O1 0.349955 0.264457 0.702958
O O2 0.162359 0.550211 0.622914
O O3 0.146192 0.362120 0.636072
O O4 0.273848 0.634583 0.083147
O O5 0.500000 0.000000 0.500000
O O6 0.663519 0.100699 0.690546
O O7 0.773922 0.876774 0.812197
O O8 0.845471 0.247371 0.404093
O O9 0.061726 0.283892 0.650066
O O10 0.879043 0.587776 0.808975
O O11 0.295854 0.624524 0.472091
O O12 0.029942 0.815934 0.253813
O O13 0.195138 0.020146 0.799268
O O14 0.745671 0.998909 0.481778
O O15 0.691545 0.686129 0.976090
O O16 0.500000 0.500000 0.500000
O O17 0.500146 0.726457 0.554974
#
# Coordination Sequence:
#
# PCOD9040151 Si02
#       8
#     2   2   2   2   2   2   2   2
#     4  10  23  43  63  99 135 174 220 275 332 399
#     4  10  24  40  66  99 137 179 220 275 334 395
#     4  11  23  43  70  98 133 171 222 279 335 397
#     4  11  25  42  70  99 128 178 224 273 340 388
#     4  11  24  44  66  99 132 177 224 275 335 393
#     4  10  23  43  64 100 134 166 221 278 333 390
#     4  12  26  46  68  96 140 178 225 277 328 402
#     4  11  25  42  66  98 134 179 224 268 337 396
#
# _framework density 22.362012
#
# number of rings (size 3 to 8) (size 9 to 14) (size 15 to 20)
#    0.000    1.250    2.500    1.875    5.250    4.000 
#    0.000    0.000    0.000    0.000    0.000    0.000 
#    0.000    0.000    0.000    0.000    0.000    0.000 
#
# Total GULP energy -89454.759736 kJ/mol
# GULP energy per Si atom -5590.922484 kJ/mol
# Density = 2.231112 g / cm^3
# Si number density = 22.362012 Si / 1000 Ang^3
#
#
#
# Elastic Constant Matrix: (Units=GPa)
#
#
# Indices 1 2 3 4 5 6 
#
# 1 87.5094 47.0957 15.0949 11.0920 -0.5438 -13.6849
# 2 47.0957 145.8647 45.1228 11.7528 -10.7786 -2.9534
# 3 15.0949 45.1228 91.0185 30.3999 -14.0250 -13.4026
# 4 11.0920 11.7528 30.3999 50.9130 4.7237 -14.5877
# 5 -0.5438 -10.7786 -14.0250 4.7237 18.9723 -6.8223
# 6 -13.6849 -2.9534 -13.4026 -14.5877 -6.8223 37.8195
#
#
#
# Elastic Compliance Matrix: (Units=1/GPa)
#
#
# Indices 1 2 3 4 5 6 
#
# 1 0.014827 -0.004922 0.001364 -0.001548 0.000826 0.005016
# 2 -0.004922 0.009796 -0.004394 0.000726 0.001252 -0.002067
# 3 0.001364 -0.004394 0.020330 -0.011285 0.017603 0.006178
# 4 -0.001548 0.000726 -0.011285 0.029029 -0.013682 0.004227
# 5 0.000826 0.001252 0.017603 -0.013682 0.075230 0.014928
# 6 0.005016 -0.002067 0.006178 0.004227 0.014928 0.034607
#
#
# Mechanical properties :
#
#
# Convention : Reuss Voigt Hill
#
# Bulk Modulus (GPa) = 34.42481 59.89104 47.15792
# Shear Modulus (GPa) = 23.87691 36.01291 29.94491
#
# Velocity S-wave (km/s) = 3.27118 4.01740 3.66334
# Velocity P-wave (km/s) = 5.44933 6.95413 6.24721
#
# Compressibility (1/GPa) = 0.02904882
#
# Stress axis : x y z
#
# Youngs Moduli (GPa) = 67.44648 102.07974 49.18766
#
# Poissons Ratio (x) = 0.50241 -0.06709
# Poissons Ratio (y) = 0.33195 0.21615
# Poissons Ratio (z) = -0.09199 0.44858
#
# Static dielectric constant tensor:
#      x y z
#    x 1.831930 0.050690 -0.030170 
#    y 0.050690 1.845020 -0.007160 
#    z -0.030170 -0.007160 1.833010 
# 
# From -- ./inp_files/471817.got.cif
#   From: 2010.05.17/outbox.cif.g08.bks.cpg/sg2_236_cif.got.tgz:471817.got - 2010.06.03 11:33:40.
