data_PCOD9040358
_publ_section_title
;
Structure prediction by ZEFSAII (Michael W. Deem and Ramdas Pophale) SiO2 
 PCOD9040358
Probable space group: P -1
;
_chemical_formula_sum "Si O2"
_cell_formula_units_Z 16
_cell_length_a 15.689809
_cell_length_b 12.181789
_cell_length_c 9.411341
_cell_angle_alpha 109.855426
_cell_angle_beta 63.733010
_cell_angle_gamma 152.345586
_cell_volume 742.730636
_symmetry_space_group_name_H-M "P -1"
_symmetry_group_IT_number 2
_symmetry_cell_setting 'triclinic'
loop_
_space_group_symop_operation_xyz
x,y,z
-x,-y,-z
loop_
_atom_site_type_symbol
_atom_site_label
_atom_site_fract_x
_atom_site_fract_y
_atom_site_fract_z
Si Si1 0.620883 0.259678 0.678577
Si Si2 0.070267 0.786303 0.567781
Si Si3 0.063869 0.940525 0.373140
Si Si4 0.222057 0.427973 0.828779
Si Si5 0.955404 0.830011 0.883855
Si Si6 0.490361 0.116130 0.382960
Si Si7 0.427620 0.540282 0.150879
Si Si8 0.510821 0.534160 0.673479
O O1 0.581075 0.226383 0.523075
O O2 0.526126 0.273749 0.828161
O O3 0.856041 0.503732 0.636873
O O4 0.522283 0.035389 0.704418
O O5 0.028501 0.807934 0.461656
O O6 0.112877 0.929777 0.719926
O O7 0.266490 0.921828 0.466906
O O8 0.946663 0.782170 0.250408
O O9 0.294808 0.192413 0.300170
O O10 0.000000 0.000000 0.500000
O O11 0.376671 0.675192 0.740688
O O12 0.335712 0.431810 0.787863
O O13 0.123000 0.346050 0.017664
O O14 0.798590 0.697956 0.823034
O O15 0.000000 0.000000 0.000000
O O16 0.477239 0.569368 0.289867
O O17 0.500000 0.500000 0.000000
O O18 0.500000 0.500000 0.500000
#
# Coordination Sequence:
#
# PCOD9040358 Si02
#       8
#     2   2   2   2   2   2   2   2
#     4  10  23  43  66 102 129 175 229 284 323 397
#     4  11  23  41  65  96 131 173 223 280 335 392
#     4  12  22  36  61  95 131 166 226 281 324 394
#     4  12  23  41  63  97 134 175 224 275 332 399
#     4  11  25  41  61  96 143 179 209 277 351 403
#     4  11  23  43  73  93 131 181 237 269 326 399
#     4  11  23  41  64  97 137 169 215 271 348 405
#     4  12  23  37  65  97 130 175 220 274 336 400
#
# _framework density 21.542128999999999
#
# number of rings (size 3 to 8) (size 9 to 14) (size 15 to 20)
#    0.000    0.750    5.000    4.125    1.750    0.000 
#    0.000    2.500    0.000    3.000    0.000    0.000 
#    0.000    0.000    0.000    0.000    0.000    0.000 
#
# Total GULP energy -89280.736472 kJ/mol
# GULP energy per Si atom -5580.046029 kJ/mol
# Density = 2.149310 g / cm^3
# Si number density = 21.542129 Si / 1000 Ang^3
#
#
#
# Elastic Constant Matrix: (Units=GPa)
#
#
# Indices 1 2 3 4 5 6 
#
# 1 116.0967 53.3976 56.3997 7.8508 4.4407 -3.4815
# 2 53.3976 118.7113 31.6221 7.1630 7.4017 7.0158
# 3 56.3997 31.6221 77.9989 3.2906 6.1465 4.3748
# 4 7.8508 7.1630 3.2906 28.8616 -3.5870 3.1315
# 5 4.4407 7.4017 6.1465 -3.5870 41.4529 11.0730
# 6 -3.4815 7.0158 4.3748 3.1315 11.0730 41.5959
#
#
#
# Elastic Compliance Matrix: (Units=1/GPa)
#
#
# Indices 1 2 3 4 5 6 
#
# 1 0.015581 -0.004497 -0.009483 -0.002483 -0.000584 0.003402
# 2 -0.004497 0.010945 -0.000954 -0.001314 -0.000974 -0.001764
# 3 -0.009483 -0.000954 0.020265 0.000644 -0.001089 -0.002523
# 4 -0.002483 -0.001314 0.000644 0.036593 0.004653 -0.004047
# 5 -0.000584 -0.000974 -0.001089 0.004653 0.026867 -0.007272
# 6 0.003402 -0.001764 -0.002523 -0.004047 -0.007272 0.027129
#
#
# Mechanical properties :
#
#
# Convention : Reuss Voigt Hill
#
# Bulk Modulus (GPa) = 59.09683 66.18285 62.63984
# Shear Modulus (GPa) = 28.91990 33.80791 31.36391
#
# Velocity S-wave (km/s) = 3.66796 3.96585 3.81981
# Velocity P-wave (km/s) = 6.74028 7.19443 6.97105
#
# Compressibility (1/GPa) = 0.01692138
#
# Stress axis : x y z
#
# Youngs Moduli (GPa) = 64.17970 91.36427 49.34624
#
# Poissons Ratio (x) = 0.41090 0.46797
# Poissons Ratio (y) = 0.28864 0.04709
# Poissons Ratio (z) = 0.60864 0.08719
#
# Static dielectric constant tensor:
#      x y z
#    x 1.797110 0.025250 -0.059330 
#    y 0.025250 1.970860 -0.110920 
#    z -0.059330 -0.110920 1.882540 
# 
# From -- ./inp_files/307988.got.cif
#   From: 2010.05.17/outbox.cif.g08.bks.cpg/sg2_154_cif.got.tgz:307988.got - 2010.06.03 11:33:40.
