data_PCOD9040617
_publ_section_title
;
Structure prediction by ZEFSAII (Michael W. Deem and Ramdas Pophale) SiO2 
 PCOD9040617
Probable space group: P -1
;
_chemical_formula_sum "Si O2"
_cell_formula_units_Z 13
_cell_length_a 6.543216
_cell_length_b 12.529956
_cell_length_c 16.443861
_cell_angle_alpha 25.559877
_cell_angle_beta 71.305416
_cell_angle_gamma 78.481707
_cell_volume 537.618107
_symmetry_space_group_name_H-M "P -1"
_symmetry_group_IT_number 2
_symmetry_cell_setting 'triclinic'
loop_
_space_group_symop_operation_xyz
x,y,z
-x,-y,-z
loop_
_atom_site_type_symbol
_atom_site_label
_atom_site_fract_x
_atom_site_fract_y
_atom_site_fract_z
Si Si1 0.306363 0.902728 0.485446
Si Si2 0.712601 0.305916 0.201676
Si Si3 0.404066 0.489062 0.336844
Si Si4 0.813127 0.917855 0.956199
Si Si5 0.987256 0.620648 0.267012
Si Si6 0.099933 0.117043 0.213974
Si Si7 0.500000 0.500000 0.500000
O O1 0.192601 0.761287 0.676903
O O2 0.469182 0.724966 0.558474
O O3 0.461184 0.161891 0.320796
O O4 0.163982 0.957849 0.390128
O O5 0.862673 0.191594 0.198130
O O6 0.737803 0.604391 0.989558
O O7 0.560568 0.759072 0.104562
O O8 0.376323 0.483385 0.440734
O O9 0.161219 0.443497 0.361520
O O10 0.953997 0.728472 0.107617
O O11 0.862901 0.984499 0.810508
O O12 0.881297 0.154489 0.845331
O O13 0.743618 0.533841 0.395509
#
# Coordination Sequence:
#
# PCOD9040617 Si02
#       7
#     2   2   2   2   2   2   1
#     4  11  24  43  69 101 135 180 224 286 343 411
#     4  10  24  45  64 101 136 179 229 282 346 397
#     4  11  23  42  67 100 138 178 224 285 346 411
#     4  10  23  43  68 100 134 183 229 275 348 406
#     4  10  23  44  67  97 141 180 224 286 337 418
#     4  11  23  44  71  99 135 180 230 282 338 418
#     4  10  24  40  64  98 132 172 236 274 336 404
#
# _framework density 24.180733
#
# number of rings (size 3 to 8) (size 9 to 14) (size 15 to 20)
#    0.000    1.538    1.538    1.846    4.308    3.692 
#   11.077    0.000    0.000    0.000    0.000    0.000 
#    0.000    0.000    0.000    0.000    0.000    0.000 
#
# Total GULP energy -72481.365410 kJ/mol
# GULP energy per Si atom -5575.489647 kJ/mol
# Density = 2.412570 g / cm^3
# Si number density = 24.180733 Si / 1000 Ang^3
#
#
#
# Elastic Constant Matrix: (Units=GPa)
#
#
# Indices 1 2 3 4 5 6 
#
# 1 118.0376 18.8365 26.3392 -14.2300 12.1767 13.9302
# 2 18.8365 74.6186 27.7821 18.4815 4.8031 21.6692
# 3 26.3392 27.7821 61.4981 -2.9055 -1.7657 11.6473
# 4 -14.2300 18.4815 -2.9055 37.6464 13.3091 0.8680
# 5 12.1767 4.8031 -1.7657 13.3091 29.8751 -7.5478
# 6 13.9302 21.6692 11.6473 0.8680 -7.5478 29.8088
#
#
#
# Elastic Compliance Matrix: (Units=1/GPa)
#
#
# Indices 1 2 3 4 5 6 
#
# 1 0.012410 -0.001699 -0.003233 0.009185 -0.010651 -0.006265
# 2 -0.001699 0.023857 -0.008124 -0.012096 -0.001629 -0.013435
# 3 -0.003233 -0.008124 0.021670 0.003714 0.002091 -0.000630
# 4 0.009185 -0.012096 0.003714 0.044217 -0.022257 -0.003874
# 5 -0.010651 -0.001629 0.002091 -0.022257 0.053020 0.019418
# 6 -0.006265 -0.013435 -0.000630 -0.003874 0.019418 0.051517
#
#
# Mechanical properties :
#
#
# Convention : Reuss Voigt Hill
#
# Bulk Modulus (GPa) = 31.42083 44.45224 37.93654
# Shear Modulus (GPa) = 20.54136 31.54581 26.04359
#
# Velocity S-wave (km/s) = 2.91777 3.61582 3.28539
# Velocity P-wave (km/s) = 4.93696 5.98794 5.48767
#
# Compressibility (1/GPa) = 0.03182602
#
# Stress axis : x y z
#
# Youngs Moduli (GPa) = 80.58114 41.91615 46.14697
#
# Poissons Ratio (x) = 0.07122 0.14918
# Poissons Ratio (y) = 0.13691 0.37488
# Poissons Ratio (z) = 0.26050 0.34051
#
# Static dielectric constant tensor:
#      x y z
#    x 1.913050 -0.002200 -0.010280 
#    y -0.002200 1.895510 -0.050930 
#    z -0.010280 -0.050930 2.013730 
# 
# From -- ./inp_files/115682.got.cif
#   From: 2010.05.17/outbox.cif.g08.bks.cpg/sg2_58_cif.got.tgz:115682.got - 2010.06.03 11:33:40.
