data_PCOD9040311
_publ_section_title
;
Structure prediction by ZEFSAII (Michael W. Deem and Ramdas Pophale) SiO2 
 PCOD9040311
Probable space group: P -1
;
_chemical_formula_sum "Si O2"
_cell_formula_units_Z 16
_cell_length_a 13.629504
_cell_length_b 8.720664
_cell_length_c 17.215190
_cell_angle_alpha 75.110254
_cell_angle_beta 155.768817
_cell_angle_gamma 110.498977
_cell_volume 776.186464
_symmetry_space_group_name_H-M "P -1"
_symmetry_group_IT_number 2
_symmetry_cell_setting 'triclinic'
loop_
_space_group_symop_operation_xyz
x,y,z
-x,-y,-z
loop_
_atom_site_type_symbol
_atom_site_label
_atom_site_fract_x
_atom_site_fract_y
_atom_site_fract_z
Si Si1 0.702341 0.009147 0.077177
Si Si2 0.500397 0.447633 0.328588
Si Si3 0.870443 0.722028 0.029387
Si Si4 0.841830 0.371086 0.462622
Si Si5 0.550240 0.964904 0.804970
Si Si6 0.714347 0.807634 0.510422
Si Si7 0.554785 0.192827 0.531078
Si Si8 0.728013 0.642500 0.110115
O O1 0.985451 0.112605 0.292126
O O2 0.690455 0.820045 0.075758
O O3 0.500000 0.000000 0.000000
O O4 0.631668 0.059882 0.933183
O O5 0.650024 0.447299 0.357331
O O6 0.604609 0.626458 0.417962
O O7 0.543106 0.307030 0.434475
O O8 0.222682 0.381100 0.102686
O O9 0.769892 0.627724 0.050497
O O10 0.165448 0.758166 0.240710
O O11 0.765119 0.885522 0.936914
O O12 0.686419 0.199729 0.333385
O O13 0.000000 0.500000 0.500000
O O14 0.023059 0.348190 0.664185
O O15 0.442248 0.075730 0.654160
O O16 0.647601 0.789268 0.555196
O O17 0.500000 0.000000 0.500000
O O18 0.500000 0.500000 0.000000
#
# Coordination Sequence:
#
# PCOD9040311 Si02
#       8
#     2   2   2   2   2   2   2   2
#     4  11  26  43  65  98 138 180 222 280 346 402
#     4  11  26  43  66 103 138 178 224 279 343 403
#     4  10  23  43  69  98 130 175 234 274 336 397
#     4  11  21  40  67  94 131 173 230 277 329 398
#     4  10  23  43  65  97 133 174 229 274 334 406
#     4  12  27  45  66 100 145 179 222 283 344 406
#     4  12  24  45  76  97 133 181 231 287 330 401
#     4  11  21  40  65  95 130 173 229 281 328 400
#
# _framework density 20.613603000000001
#
# number of rings (size 3 to 8) (size 9 to 14) (size 15 to 20)
#    0.000    1.000    2.500    5.625    3.500    7.000 
#    0.000    0.000    0.000    0.000    0.000    0.000 
#    0.000    0.000    0.000    0.000    0.000    0.000 
#
# Total GULP energy -89345.689541 kJ/mol
# GULP energy per Si atom -5584.105596 kJ/mol
# Density = 2.056669 g / cm^3
# Si number density = 20.613603 Si / 1000 Ang^3
#
#
#
# Elastic Constant Matrix: (Units=GPa)
#
#
# Indices 1 2 3 4 5 6 
#
# 1 89.4451 23.3551 28.4217 11.3554 0.5325 4.9265
# 2 23.3551 90.6739 28.9194 21.5440 -10.4261 12.5612
# 3 28.4217 28.9194 151.6857 15.0940 -7.8678 2.2457
# 4 11.3554 21.5440 15.0940 31.2390 1.3184 -9.4761
# 5 0.5325 -10.4261 -7.8678 1.3184 34.5638 8.2863
# 6 4.9265 12.5612 2.2457 -9.4761 8.2863 19.6457
#
#
#
# Elastic Compliance Matrix: (Units=1/GPa)
#
#
# Indices 1 2 3 4 5 6 
#
# 1 0.012816 -0.000878 -0.001655 -0.004795 0.000544 -0.005006
# 2 -0.000878 0.025687 -0.000303 -0.029523 0.017921 -0.037968
# 3 -0.001655 -0.000303 0.007531 -0.003915 0.002571 -0.003225
# 4 -0.004795 -0.029523 -0.003915 0.078835 -0.029779 0.071113
# 5 0.000544 0.017921 0.002571 -0.029779 0.047108 -0.046122
# 6 -0.005006 -0.037968 -0.003225 0.071113 -0.046122 0.130557
#
#
# Mechanical properties :
#
#
# Convention : Reuss Voigt Hill
#
# Bulk Modulus (GPa) = 24.77568 54.79969 39.78769
# Shear Modulus (GPa) = 15.54437 33.83026 24.68732
#
# Velocity S-wave (km/s) = 2.74904 4.05552 3.46442
# Velocity P-wave (km/s) = 4.70335 6.96933 5.94530
#
# Compressibility (1/GPa) = 0.04036216
#
# Stress axis : x y z
#
# Youngs Moduli (GPa) = 78.02568 38.93096 132.78322
#
# Poissons Ratio (x) = 0.03418 0.21969
# Poissons Ratio (y) = 0.06851 0.04027
# Poissons Ratio (z) = 0.12909 0.01181
#
# Static dielectric constant tensor:
#      x y z
#    x 1.737850 0.001110 -0.004800 
#    y 0.001110 1.720550 0.070020 
#    z -0.004800 0.070020 1.926070 
# 
# From -- ./inp_files/460951.got.cif
#   From: 2010.05.17/outbox.cif.g08.bks.cpg/sg2_231_cif.got.tgz:460951.got - 2010.06.03 11:33:40.
