data_PCOD9040255
_publ_section_title
;
Structure prediction by ZEFSAII (Michael W. Deem and Ramdas Pophale) SiO2 
 PCOD9040255
Probable space group: P -1
;
_chemical_formula_sum "Si O2"
_cell_formula_units_Z 14
_cell_length_a 24.691061
_cell_length_b 6.476269
_cell_length_c 16.825952
_cell_angle_alpha 57.956877
_cell_angle_beta 163.210348
_cell_angle_gamma 112.146575
_cell_volume 556.633336
_symmetry_space_group_name_H-M "P -1"
_symmetry_group_IT_number 2
_symmetry_cell_setting 'triclinic'
loop_
_space_group_symop_operation_xyz
x,y,z
-x,-y,-z
loop_
_atom_site_type_symbol
_atom_site_label
_atom_site_fract_x
_atom_site_fract_y
_atom_site_fract_z
Si Si1 0.425624 0.485327 0.205291
Si Si2 0.011028 0.316715 0.381130
Si Si3 0.813561 0.950149 0.927073
Si Si4 0.766043 0.594500 0.195212
Si Si5 0.809163 0.046089 0.451667
Si Si6 0.101269 0.198221 0.101548
Si Si7 0.328170 0.206572 0.571712
O O1 0.182897 0.720957 0.849889
O O2 0.540744 0.638713 0.296202
O O3 0.583335 0.258037 0.540798
O O4 0.393312 0.317669 0.121911
O O5 0.875143 0.667659 0.120412
O O6 0.776764 0.776035 0.246079
O O7 0.089834 0.176215 0.434568
O O8 0.823433 0.834901 0.876057
O O9 0.003699 0.007065 0.209614
O O10 0.742799 0.346899 0.255450
O O11 0.000000 0.500000 0.500000
O O12 0.623029 0.027223 0.243323
O O13 0.279289 0.109219 0.439364
O O14 0.906433 0.523459 0.780036
O O15 0.000000 0.000000 0.000000
#
# Coordination Sequence:
#
# PCOD9040255 Si02
#       7
#     2   2   2   2   2   2   2
#     4  11  23  41  60  97 129 156 210 259 306 356
#     4  10  23  43  65  88 125 170 205 254 305 369
#     4  11  21  39  67  93 122 163 208 259 298 370
#     4   9  23  46  63  83 127 171 207 245 310 375
#     4  11  22  41  67  89 121 168 209 245 314 369
#     4  11  19  38  61  89 132 167 193 241 326 369
#     4  11  22  36  62  95 123 159 205 255 304 371
#
# _framework density 25.151204
#
# number of rings (size 3 to 8) (size 9 to 14) (size 15 to 20)
#    0.000    1.429    4.286    1.286    0.000    3.429 
#   10.286    0.714    0.000    0.000    0.000    0.000 
#    0.000    0.000    0.000    0.000    0.000    0.000 
#
# Total GULP energy -78206.511561 kJ/mol
# GULP energy per Si atom -5586.179397 kJ/mol
# Density = 2.509396 g / cm^3
# Si number density = 25.151204 Si / 1000 Ang^3
#
#
#
# Elastic Constant Matrix: (Units=GPa)
#
#
# Indices 1 2 3 4 5 6 
#
# 1 145.9872 50.3195 9.0290 19.4736 -3.7205 -14.7014
# 2 50.3195 129.1034 26.6739 14.2291 -7.3072 3.6808
# 3 9.0290 26.6739 75.5225 11.9216 -23.3940 -5.8301
# 4 19.4736 14.2291 11.9216 51.5059 -6.6384 -11.1464
# 5 -3.7205 -7.3072 -23.3940 -6.6384 37.9049 5.2125
# 6 -14.7014 3.6808 -5.8301 -11.1464 5.2125 55.0206
#
#
#
# Elastic Compliance Matrix: (Units=1/GPa)
#
#
# Indices 1 2 3 4 5 6 
#
# 1 0.008408 -0.003248 0.000595 -0.001966 -0.000072 0.002135
# 2 -0.003248 0.009842 -0.003142 -0.001253 -0.000293 -0.002085
# 3 0.000595 -0.003142 0.017739 -0.001987 0.009928 0.000906
# 4 -0.001966 -0.001253 -0.001987 0.021970 0.001686 0.003639
# 5 -0.000072 -0.000293 0.009928 0.001686 0.032979 -0.001730
# 6 0.002135 -0.002085 0.000906 0.003639 -0.001730 0.019882
#
#
# Mechanical properties :
#
#
# Convention : Reuss Voigt Hill
#
# Bulk Modulus (GPa) = 40.98590 58.07311 49.52950
# Shear Modulus (GPa) = 38.30176 46.52564 42.41370
#
# Velocity S-wave (km/s) = 3.90662 4.30564 4.11097
# Velocity P-wave (km/s) = 6.05641 6.91793 6.50145
#
# Compressibility (1/GPa) = 0.02439864
#
# Stress axis : x y z
#
# Youngs Moduli (GPa) = 118.92988 101.60678 56.37445
#
# Poissons Ratio (x) = 0.33006 -0.03355
# Poissons Ratio (y) = 0.38633 0.17712
# Poissons Ratio (z) = -0.07078 0.31923
#
# Static dielectric constant tensor:
#      x y z
#    x 2.111530 0.073380 -0.028950 
#    y 0.073380 2.005530 0.003630 
#    z -0.028950 0.003630 2.126220 
# 
# From -- ./inp_files/368031.got.cif
#   From: 2010.05.17/outbox.cif.g08.bks.cpg/sg2_185_cif.got.tgz:368031.got - 2010.06.03 11:33:40.
