data_PCOD9040090
_publ_section_title
;
Structure prediction by ZEFSAII (Michael W. Deem and Ramdas Pophale) SiO2 
 PCOD9040090
Probable space group: P -1
;
_chemical_formula_sum "Si O2"
_cell_formula_units_Z 16
_cell_length_a 12.533461
_cell_length_b 7.736693
_cell_length_c 11.421150
_cell_angle_alpha 90.166543
_cell_angle_beta 140.869324
_cell_angle_gamma 91.699387
_cell_volume 698.024420
_symmetry_space_group_name_H-M "P -1"
_symmetry_group_IT_number 2
_symmetry_cell_setting 'triclinic'
loop_
_space_group_symop_operation_xyz
x,y,z
-x,-y,-z
loop_
_atom_site_type_symbol
_atom_site_label
_atom_site_fract_x
_atom_site_fract_y
_atom_site_fract_z
Si Si1 0.874981 0.230243 0.036090
Si Si2 0.136776 0.324328 0.085238
Si Si3 0.945679 0.871226 0.214589
Si Si4 0.699756 0.017209 0.675897
Si Si5 0.500422 0.510378 0.637791
Si Si6 0.285943 0.812929 0.555838
Si Si7 0.566755 0.353756 0.902989
Si Si8 0.569753 0.762572 0.975923
O O1 0.767401 0.155077 0.831799
O O2 0.755186 0.304273 0.032808
O O3 0.011648 0.362357 0.087719
O O4 0.949798 0.064377 0.163197
O O5 0.299071 0.436822 0.177861
O O6 0.225322 0.157596 0.214905
O O7 0.042128 0.254548 0.888497
O O8 0.089834 0.812292 0.427899
O O9 0.756407 0.839492 0.105925
O O10 0.734488 0.061024 0.570901
O O11 0.500000 0.000000 0.500000
O O12 0.500000 0.500000 0.500000
O O13 0.363572 0.645068 0.560927
O O14 0.469052 0.346286 0.695118
O O15 0.426661 0.849447 0.775181
O O16 0.563037 0.556806 0.935914
O O17 0.483333 0.239285 0.934019
#
# Coordination Sequence:
#
# PCOD9040090 Si02
#       8
#     2   2   2   2   2   2   2   2
#     4  11  22  36  62  95 125 159 205 253 325 365
#     4  11  20  35  59  94 129 159 192 258 321 368
#     4  11  20  39  64  93 122 164 208 252 311 373
#     4  11  18  32  59  92 124 156 192 254 316 371
#     4  11  23  38  59  95 124 162 209 251 315 370
#     4  11  19  36  63  87 118 159 208 248 301 374
#     4  10  23  43  62  81 129 169 205 264 297 368
#     4  10  23  45  63  83 122 174 215 249 310 355
#
# _framework density 22.921835000000002
#
# number of rings (size 3 to 8) (size 9 to 14) (size 15 to 20)
#    0.000    1.250    6.250    2.250    0.000    2.000 
#    0.000    7.500    0.000    0.000    0.000    0.000 
#    0.000    0.000    0.000    0.000    0.000    0.000 
#
# Total GULP energy -89214.012256 kJ/mol
# GULP energy per Si atom -5575.875766 kJ/mol
# Density = 2.286966 g / cm^3
# Si number density = 22.921835 Si / 1000 Ang^3
#
#
#
# Elastic Constant Matrix: (Units=GPa)
#
#
# Indices 1 2 3 4 5 6 
#
# 1 160.7689 32.5943 65.6159 -22.6432 1.2636 17.0084
# 2 32.5943 43.5000 24.1184 -11.8589 0.4569 -0.1179
# 3 65.6159 24.1184 130.4133 -24.9857 22.8091 3.9201
# 4 -22.6432 -11.8589 -24.9857 20.3933 1.0292 0.3403
# 5 1.2636 0.4569 22.8091 1.0292 40.7458 -3.4288
# 6 17.0084 -0.1179 3.9201 0.3403 -3.4288 27.4049
#
#
#
# Elastic Compliance Matrix: (Units=1/GPa)
#
#
# Indices 1 2 3 4 5 6 
#
# 1 0.009558 -0.004245 -0.003223 0.004235 0.000993 -0.005418
# 2 -0.004245 0.029953 -0.001548 0.010727 0.000638 0.002932
# 3 -0.003223 -0.001548 0.013299 0.012221 -0.007722 -0.001026
# 4 0.004235 0.010727 0.012221 0.075539 -0.009545 -0.006463
# 5 0.000993 0.000638 -0.007722 -0.009545 0.029430 0.004292
# 6 -0.005418 0.002932 -0.001026 -0.006463 0.004292 0.040629
#
#
# Mechanical properties :
#
#
# Convention : Reuss Voigt Hill
#
# Bulk Modulus (GPa) = 28.75475 64.37106 46.56290
# Shear Modulus (GPa) = 21.92659 31.86572 26.89615
#
# Velocity S-wave (km/s) = 3.09622 3.73257 3.42919
# Velocity P-wave (km/s) = 5.03528 6.83520 6.00308
#
# Compressibility (1/GPa) = 0.03477687
#
# Stress axis : x y z
#
# Youngs Moduli (GPa) = 104.62203 33.38516 75.19357
#
# Poissons Ratio (x) = 0.14173 0.24238
# Poissons Ratio (y) = 0.44415 0.11642
# Poissons Ratio (z) = 0.33723 0.05169
#
# Static dielectric constant tensor:
#      x y z
#    x 1.979380 0.001590 0.089540 
#    y 0.001590 1.955420 0.065520 
#    z 0.089540 0.065520 1.989050 
# 
# From -- ./inp_files/252273.got.cif
#   From: 2010.05.17/outbox.cif.g08.bks.cpg/sg2_127_cif.got.tgz:252273.got - 2010.06.03 11:33:40.
