data_PCOD9040084
_publ_section_title
;
Structure prediction by ZEFSAII (Michael W. Deem and Ramdas Pophale) SiO2 
 PCOD9040084
Probable space group: P -1
;
_chemical_formula_sum "Si O2"
_cell_formula_units_Z 16
_cell_length_a 8.364267
_cell_length_b 8.552885
_cell_length_c 23.699007
_cell_angle_alpha 126.710606
_cell_angle_beta 34.403802
_cell_angle_gamma 124.975884
_cell_volume 755.863325
_symmetry_space_group_name_H-M "P -1"
_symmetry_group_IT_number 2
_symmetry_cell_setting 'triclinic'
loop_
_space_group_symop_operation_xyz
x,y,z
-x,-y,-z
loop_
_atom_site_type_symbol
_atom_site_label
_atom_site_fract_x
_atom_site_fract_y
_atom_site_fract_z
Si Si1 0.751221 0.671707 0.986615
Si Si2 0.264987 0.005400 0.719982
Si Si3 0.834181 0.002276 0.607561
Si Si4 0.286360 0.148417 0.077998
Si Si5 0.724047 0.564951 0.213664
Si Si6 0.563296 0.834402 0.490531
Si Si7 0.690644 0.545963 0.585298
Si Si8 0.326070 0.459328 0.903799
O O1 0.771294 0.843029 0.970729
O O2 0.032565 0.569233 0.881597
O O3 0.500000 0.500000 0.000000
O O4 0.694209 0.709019 0.077686
O O5 0.165459 0.198271 0.763105
O O6 0.539602 0.075614 0.695754
O O7 0.392850 0.879971 0.606896
O O8 0.005249 0.899090 0.811150
O O9 0.736736 0.776150 0.606414
O O10 0.000000 0.000000 0.500000
O O11 0.088625 0.126588 0.597242
O O12 0.461301 0.359080 0.091765
O O13 0.500000 0.000000 0.000000
O O14 0.502116 0.499926 0.313414
O O15 0.584459 0.545058 0.188083
O O16 0.448407 0.611677 0.455321
O O17 0.500000 0.000000 0.500000
O O18 0.000000 0.500000 0.500000
O O19 0.000000 0.500000 0.000000
#
# Coordination Sequence:
#
# PCOD9040084 Si02
#       8
#     2   2   2   2   2   2   2   2
#     4   9  19  40  63  90 123 164 216 265 333 407
#     4  11  23  41  62  95 135 168 223 283 331 402
#     4  10  23  43  61  96 138 170 230 285 331 404
#     4  11  22  40  67  95 131 170 216 279 335 400
#     4  11  22  41  64  92 132 171 220 278 337 391
#     4  11  22  44  66  98 132 179 229 276 341 395
#     4  12  23  40  71  94 135 182 223 282 338 394
#     4   9  20  39  62  90 125 167 216 269 331 401
#
# _framework density 21.167849
#
# number of rings (size 3 to 8) (size 9 to 14) (size 15 to 20)
#    0.000    1.500    2.500    3.750    1.750    2.000 
#    6.750    6.875    0.000    0.000    0.000    0.000 
#    0.000    0.000    0.000    0.000    0.000    0.000 
#
# Total GULP energy -89239.812724 kJ/mol
# GULP energy per Si atom -5577.488295 kJ/mol
# Density = 2.111967 g / cm^3
# Si number density = 21.167849 Si / 1000 Ang^3
#
#
#
# Elastic Constant Matrix: (Units=GPa)
#
#
# Indices 1 2 3 4 5 6 
#
# 1 130.3575 40.1348 53.3959 -10.6947 4.7051 -10.8036
# 2 40.1348 95.4413 25.4158 -18.1815 5.0349 -7.7682
# 3 53.3959 25.4158 82.5131 -21.5715 11.5283 -7.8722
# 4 -10.6947 -18.1815 -21.5715 38.8650 -4.0265 0.7196
# 5 4.7051 5.0349 11.5283 -4.0265 47.9328 -7.2945
# 6 -10.8036 -7.7682 -7.8722 0.7196 -7.2945 46.2810
#
#
#
# Elastic Compliance Matrix: (Units=1/GPa)
#
#
# Indices 1 2 3 4 5 6 
#
# 1 0.011427 -0.003328 -0.006965 -0.002207 0.000885 0.001098
# 2 -0.003328 0.013038 -0.000419 0.004892 -0.000347 0.001209
# 3 -0.006965 -0.000419 0.019468 0.008353 -0.003101 0.000996
# 4 -0.002207 0.004892 0.008353 0.032084 0.000590 0.001321
# 5 0.000885 -0.000347 -0.003101 0.000590 0.022078 0.003091
# 6 0.001098 0.001209 0.000996 0.001321 0.003091 0.022703
#
#
# Mechanical properties :
#
#
# Convention : Reuss Voigt Hill
#
# Bulk Modulus (GPa) = 44.43117 60.68942 52.56030
# Shear Modulus (GPa) = 33.39455 39.24013 36.31734
#
# Velocity S-wave (km/s) = 3.97622 4.31020 4.14658
# Velocity P-wave (km/s) = 6.48968 7.31459 6.91445
#
# Compressibility (1/GPa) = 0.02250672
#
# Stress axis : x y z
#
# Youngs Moduli (GPa) = 87.51233 76.70146 51.36662
#
# Poissons Ratio (x) = 0.25528 0.35779
# Poissons Ratio (y) = 0.29126 0.02154
# Poissons Ratio (z) = 0.60956 0.03216
#
# Static dielectric constant tensor:
#      x y z
#    x 1.775870 -0.047870 -0.013590 
#    y -0.047870 1.818730 0.012550 
#    z -0.013590 0.012550 1.740680 
# 
# From -- ./inp_files/606772.got.cif
#   From: 2010.05.17/outbox.cif.g08.bks.cpg/sg2_304_cif.got.tgz:606772.got - 2010.06.03 11:33:40.
