data_PCOD9040570
_publ_section_title
;
Structure prediction by ZEFSAII (Michael W. Deem and Ramdas Pophale) SiO2 
 PCOD9040570
Probable space group: P -1
;
_chemical_formula_sum "Si O2"
_cell_formula_units_Z 8
_cell_length_a 10.974585
_cell_length_b 11.774034
_cell_length_c 4.871585
_cell_angle_alpha 71.097261
_cell_angle_beta 85.468339
_cell_angle_gamma 143.242686
_cell_volume 285.639469
_symmetry_space_group_name_H-M "P -1"
_symmetry_group_IT_number 2
_symmetry_cell_setting 'triclinic'
loop_
_space_group_symop_operation_xyz
x,y,z
-x,-y,-z
loop_
_atom_site_type_symbol
_atom_site_label
_atom_site_fract_x
_atom_site_fract_y
_atom_site_fract_z
Si Si1 0.616804 0.850146 0.226980
Si Si2 0.918118 0.628684 0.357774
Si Si3 0.354012 0.933599 0.332636
Si Si4 0.755287 0.736424 0.589136
O O1 0.689295 0.777323 0.334755
O O2 0.331729 0.628948 0.548942
O O3 0.853014 0.133467 0.070023
O O4 0.610901 0.892686 0.877644
O O5 0.054195 0.660626 0.532231
O O6 0.830377 0.674630 0.490100
O O7 0.500000 0.000000 0.500000
O O8 0.500000 0.000000 0.000000
O O9 0.500000 0.500000 0.000000
O O10 0.000000 0.000000 0.500000
#
# Coordination Sequence:
#
# PCOD9040570 Si02
#       4
#     2   2   2   2
#     4  10  23  43  67  96 143 178 233 282 358 408
#     4  10  23  43  67  96 143 178 233 282 358 408
#     4  10  26  45  72 101 140 188 240 286 344 412
#     4  12  24  38  70 105 139 180 230 290 358 422
#
# _framework density 28.007332000000002
#
# number of rings (size 3 to 8) (size 9 to 14) (size 15 to 20)
#    1.500    0.000    0.000    4.500    3.500    2.000 
#    0.000    0.000    0.000    0.000    0.000    0.000 
#    0.000    0.000    0.000    0.000    0.000    0.000 
#
# Total GULP energy -44733.998835 kJ/mol
# GULP energy per Si atom -5591.749854 kJ/mol
# Density = 2.794359 g / cm^3
# Si number density = 28.007332 Si / 1000 Ang^3
#
#
#
# Elastic Constant Matrix: (Units=GPa)
#
#
# Indices 1 2 3 4 5 6 
#
# 1 181.7920 84.7962 50.9814 8.8758 7.3095 51.9632
# 2 84.7962 193.3118 81.7411 -19.8400 4.1005 38.3346
# 3 50.9814 81.7411 142.0488 -29.5211 4.8806 27.1344
# 4 8.8758 -19.8400 -29.5211 74.0274 24.2517 6.2578
# 5 7.3095 4.1005 4.8806 24.2517 52.0051 0.2879
# 6 51.9632 38.3346 27.1344 6.2578 0.2879 69.8272
#
#
#
# Elastic Compliance Matrix: (Units=1/GPa)
#
#
# Indices 1 2 3 4 5 6 
#
# 1 0.008259 -0.002513 -0.001074 -0.001727 -0.000033 -0.004194
# 2 -0.002513 0.008058 -0.003095 0.001590 -0.000725 -0.001491
# 3 -0.001074 -0.003095 0.010651 0.004620 -0.002748 -0.002043
# 4 -0.001727 0.001590 0.004620 0.019289 -0.009294 -0.003073
# 5 -0.000033 -0.000725 -0.002748 -0.009294 0.023870 0.002225
# 6 -0.004194 -0.001491 -0.002043 -0.003073 0.002225 0.019320
#
#
# Mechanical properties :
#
#
# Convention : Reuss Voigt Hill
#
# Bulk Modulus (GPa) = 73.51392 105.79889 89.65641
# Shear Modulus (GPa) = 46.57772 59.14753 52.86263
#
# Velocity S-wave (km/s) = 4.08248 4.60048 4.34920
# Velocity P-wave (km/s) = 6.96615 8.12876 7.56981
#
# Compressibility (1/GPa) = 0.01360287
#
# Stress axis : x y z
#
# Youngs Moduli (GPa) = 121.08281 124.09575 93.88634
#
# Poissons Ratio (x) = 0.31189 0.10088
# Poissons Ratio (y) = 0.30431 0.29057
# Poissons Ratio (z) = 0.13010 0.38407
#
# Static dielectric constant tensor:
#      x y z
#    x 2.193040 -0.056180 0.034730 
#    y -0.056180 2.260150 -0.038260 
#    z 0.034730 -0.038260 2.268990 
# 
# From -- ./inp_files/1518.got.cif
#   From: 2010.05.17/outbox.cif.g08.bks.cpg/sg2_1_cif.got.tgz:1518.got - 2010.06.03 11:33:40.
