data_PCOD9040048
_publ_section_title
;
Structure prediction by ZEFSAII (Michael W. Deem and Ramdas Pophale) SiO2 
 PCOD9040048
Probable space group: P -1
;
_chemical_formula_sum "Si O2"
_cell_formula_units_Z 16
_cell_length_a 13.911952
_cell_length_b 13.965648
_cell_length_c 9.603504
_cell_angle_alpha 83.044442
_cell_angle_beta 108.423221
_cell_angle_gamma 33.353008
_cell_volume 656.498556
_symmetry_space_group_name_H-M "P -1"
_symmetry_group_IT_number 2
_symmetry_cell_setting 'triclinic'
loop_
_space_group_symop_operation_xyz
x,y,z
-x,-y,-z
loop_
_atom_site_type_symbol
_atom_site_label
_atom_site_fract_x
_atom_site_fract_y
_atom_site_fract_z
Si Si1 0.337321 0.216466 0.489980
Si Si2 0.279568 0.373276 0.172827
Si Si3 0.389356 0.046694 0.800178
Si Si4 0.814508 0.930591 0.852535
Si Si5 0.647444 0.388482 0.443395
Si Si6 0.800339 0.040470 0.553168
Si Si7 0.422457 0.472071 0.886773
Si Si8 0.830149 0.950684 0.182108
O O1 0.172306 0.421346 0.261046
O O2 0.500000 0.000000 0.500000
O O3 0.243671 0.238781 0.578122
O O4 0.539602 0.115002 0.668702
O O5 0.359080 0.223900 0.121113
O O6 0.560406 0.181031 0.371707
O O7 0.058324 0.643822 0.972012
O O8 0.198954 0.127403 0.747420
O O9 0.500000 0.000000 0.000000
O O10 0.816087 0.017929 0.731996
O O11 0.845725 0.925384 0.028278
O O12 0.500000 0.500000 0.500000
O O13 0.480547 0.592469 0.214643
O O14 0.730110 0.211370 0.451086
O O15 0.910099 0.219660 0.623362
O O16 0.097843 0.749116 0.688956
O O17 0.500000 0.500000 0.000000
O O18 0.570401 0.246240 0.047502
#
# Coordination Sequence:
#
# PCOD9040048 Si02
#       8
#     2   2   2   2   2   2   2   2
#     4   9  21  43  67  99 140 184 238 286 339 416
#     4  10  23  42  75  99 141 186 237 286 346 426
#     4  11  22  44  69  99 143 184 228 291 344 406
#     4  11  23  43  72 106 137 188 234 285 355 417
#     4  12  27  45  71 105 143 183 232 291 351 420
#     4  11  24  43  72 102 140 181 240 284 347 425
#     4  12  27  45  72 101 141 189 231 289 357 415
#     4  12  26  44  71 105 145 181 237 290 350 420
#
# _framework density 24.371721999999998
#
# number of rings (size 3 to 8) (size 9 to 14) (size 15 to 20)
#    0.000    1.000    2.500    3.375    5.250    4.000 
#    0.000    3.125    0.000    0.000    0.000    0.000 
#    0.000    0.000    0.000    0.000    0.000    0.000 
#
# Total GULP energy -89611.659925 kJ/mol
# GULP energy per Si atom -5600.728745 kJ/mol
# Density = 2.431625 g / cm^3
# Si number density = 24.371722 Si / 1000 Ang^3
#
#
#
# Elastic Constant Matrix: (Units=GPa)
#
#
# Indices 1 2 3 4 5 6 
#
# 1 153.4132 28.6908 53.5503 9.7253 -10.6786 -15.4309
# 2 28.6908 97.9969 27.7860 20.7255 -1.7782 -6.5815
# 3 53.5503 27.7860 75.4923 28.0631 -4.3885 -11.5822
# 4 9.7253 20.7255 28.0631 48.8814 -8.5608 -3.0455
# 5 -10.6786 -1.7782 -4.3885 -8.5608 46.0768 9.0929
# 6 -15.4309 -6.5815 -11.5822 -3.0455 9.0929 35.8519
#
#
#
# Elastic Compliance Matrix: (Units=1/GPa)
#
#
# Indices 1 2 3 4 5 6 
#
# 1 0.009228 -0.001268 -0.006911 0.003056 0.001738 0.001325
# 2 -0.001268 0.011992 -0.002025 -0.003771 -0.000904 0.000910
# 3 -0.006911 -0.002025 0.023632 -0.011499 -0.002336 0.003904
# 4 0.003056 -0.003771 -0.011499 0.028841 0.005214 -0.001964
# 5 0.001738 -0.000904 -0.002336 0.005214 0.023963 -0.005807
# 6 0.001325 0.000910 0.003904 -0.001964 -0.005807 0.031197
#
#
# Mechanical properties :
#
#
# Convention : Reuss Voigt Hill
#
# Bulk Modulus (GPa) = 40.91071 60.77295 50.84183
# Shear Modulus (GPa) = 31.76387 40.62036 36.19212
#
# Velocity S-wave (km/s) = 3.61405 4.08695 3.85776
# Velocity P-wave (km/s) = 5.85130 6.87466 6.38352
#
# Compressibility (1/GPa) = 0.02444347
#
# Stress axis : x y z
#
# Youngs Moduli (GPa) = 108.36065 83.38712 42.31521
#
# Poissons Ratio (x) = 0.10574 0.29245
# Poissons Ratio (y) = 0.13741 0.08571
# Poissons Ratio (z) = 0.74890 0.16889
#
# Static dielectric constant tensor:
#      x y z
#    x 2.112160 0.089190 -0.104030 
#    y 0.089190 2.035100 -0.020360 
#    z -0.104030 -0.020360 1.913790 
# 
# From -- ./inp_files/299806.got.cif
#   From: 2010.05.17/outbox.cif.g08.bks.cpg/sg2_150_cif.got.tgz:299806.got - 2010.06.03 11:33:40.
