data_PCOD9040458
_publ_section_title
;
Structure prediction by ZEFSAII (Michael W. Deem and Ramdas Pophale) SiO2 
 PCOD9040458
Probable space group: P -1
;
_chemical_formula_sum "Si O2"
_cell_formula_units_Z 14
_cell_length_a 9.470201
_cell_length_b 4.983721
_cell_length_c 19.001652
_cell_angle_alpha 89.559769
_cell_angle_beta 38.510443
_cell_angle_gamma 92.454008
_cell_volume 556.673927
_symmetry_space_group_name_H-M "P -1"
_symmetry_group_IT_number 2
_symmetry_cell_setting 'triclinic'
loop_
_space_group_symop_operation_xyz
x,y,z
-x,-y,-z
loop_
_atom_site_type_symbol
_atom_site_label
_atom_site_fract_x
_atom_site_fract_y
_atom_site_fract_z
Si Si1 0.460486 0.139787 0.822343
Si Si2 0.035861 0.626655 0.174092
Si Si3 0.682361 0.352300 0.204397
Si Si4 0.811634 0.369224 0.395253
Si Si5 0.041996 0.044776 0.400072
Si Si6 0.553520 0.774362 0.564219
Si Si7 0.693658 0.839045 0.959912
O O1 0.431884 0.398763 0.785540
O O2 0.720648 0.060701 0.715356
O O3 0.298013 0.880758 0.859714
O O4 0.381755 0.206337 0.930740
O O5 0.093449 0.936889 0.132702
O O6 0.895902 0.482947 0.164306
O O7 0.909066 0.583431 0.297793
O O8 0.246405 0.438527 0.097893
O O9 0.520212 0.209141 0.326997
O O10 0.615188 0.472528 0.521836
O O11 0.661537 0.171152 0.400034
O O12 0.021495 0.327677 0.366801
O O13 0.801579 0.926065 0.460967
O O14 0.000000 0.000000 0.500000
O O15 0.500000 0.000000 0.000000
#
# Coordination Sequence:
#
# PCOD9040458 Si02
#       7
#     2   2   2   2   2   2   2
#     4  12  27  43  73 100 143 177 230 289 346 407
#     4  11  26  47  75  97 141 182 234 285 343 411
#     4  11  25  47  69 108 134 182 229 284 350 416
#     4  10  24  42  70  99 134 190 227 285 345 413
#     4  12  24  41  68 101 141 182 222 288 351 411
#     4  10  23  43  67 100 141 176 237 278 345 424
#     4  12  27  48  69 105 135 182 234 290 339 412
#
# _framework density 25.149374999999999
#
# number of rings (size 3 to 8) (size 9 to 14) (size 15 to 20)
#    0.000    0.857    1.429    4.286    6.000    4.571 
#    0.000    0.000    0.000    0.000    0.000    0.000 
#    0.000    0.000    0.000    0.000    0.000    0.000 
#
# Total GULP energy -78223.374896 kJ/mol
# GULP energy per Si atom -5587.383921 kJ/mol
# Density = 2.509213 g / cm^3
# Si number density = 25.149375 Si / 1000 Ang^3
#
#
#
# Elastic Constant Matrix: (Units=GPa)
#
#
# Indices 1 2 3 4 5 6 
#
# 1 117.0046 23.6471 17.2190 -4.1392 8.8849 -30.9322
# 2 23.6471 68.3996 0.0904 8.9887 1.9824 -16.4279
# 3 17.2190 0.0904 97.0821 1.6449 9.6539 -16.0500
# 4 -4.1392 8.9887 1.6449 35.5488 5.9026 -2.7319
# 5 8.8849 1.9824 9.6539 5.9026 33.7810 -6.1065
# 6 -30.9322 -16.4279 -16.0500 -2.7319 -6.1065 42.6560
#
#
#
# Elastic Compliance Matrix: (Units=1/GPa)
#
#
# Indices 1 2 3 4 5 6 
#
# 1 0.011204 -0.002560 -0.000727 0.002815 -0.001855 0.006780
# 2 -0.002560 0.017300 0.001263 -0.004504 0.001013 0.005138
# 3 -0.000727 0.001263 0.011306 -0.000236 -0.002375 0.003858
# 4 0.002815 -0.004504 -0.000236 0.030630 -0.005509 0.001390
# 5 -0.001855 0.001013 -0.002375 -0.005509 0.032105 0.002394
# 6 0.006780 0.005138 0.003858 0.001390 0.002394 0.032222
#
#
# Mechanical properties :
#
#
# Convention : Reuss Voigt Hill
#
# Bulk Modulus (GPa) = 27.96315 40.48880 34.22597
# Shear Modulus (GPa) = 33.17055 38.49915 35.83485
#
# Velocity S-wave (km/s) = 3.63566 3.91681 3.77885
# Velocity P-wave (km/s) = 5.36349 6.04893 5.71649
#
# Compressibility (1/GPa) = 0.03576135
#
# Stress axis : x y z
#
# Youngs Moduli (GPa) = 89.25494 57.80358 88.44541
#
# Poissons Ratio (x) = 0.14799 0.06432
# Poissons Ratio (y) = 0.22852 -0.11171
# Poissons Ratio (z) = 0.06490 -0.07301
#
# Static dielectric constant tensor:
#      x y z
#    x 2.041400 -0.243450 -0.066090 
#    y -0.243450 5.300070 -0.256140 
#    z -0.066090 -0.256140 1.959300 
# 
# From -- ./inp_files/27173.got.cif
#   From: 2010.05.17/outbox.cif.g08.bks.cpg/sg2_14_cif.got.tgz:27173.got - 2010.06.03 11:33:40.
