data_PCOD9040633
_publ_section_title
;
Structure prediction by ZEFSAII (Michael W. Deem and Ramdas Pophale) SiO2 
 PCOD9040633
Probable space group: P -1
;
_chemical_formula_sum "Si O2"
_cell_formula_units_Z 14
_cell_length_a 11.734174
_cell_length_b 14.893128
_cell_length_c 4.937961
_cell_angle_alpha 71.077193
_cell_angle_beta 97.263426
_cell_angle_gamma 137.979625
_cell_volume 537.430515
_symmetry_space_group_name_H-M "P -1"
_symmetry_group_IT_number 2
_symmetry_cell_setting 'triclinic'
loop_
_space_group_symop_operation_xyz
x,y,z
-x,-y,-z
loop_
_atom_site_type_symbol
_atom_site_label
_atom_site_fract_x
_atom_site_fract_y
_atom_site_fract_z
Si Si1 0.500000 0.000000 0.000000
Si Si2 0.340300 0.785111 0.690066
Si Si3 0.500000 0.500000 0.500000
Si Si4 0.970562 0.089070 0.500127
Si Si5 0.022040 0.410453 0.472307
Si Si6 0.376743 0.082084 0.732075
Si Si7 0.403060 0.640601 0.119979
Si Si8 0.878979 0.719094 0.134705
O O1 0.621081 0.149325 0.074471
O O2 0.672187 0.029157 0.962100
O O3 0.150374 0.701051 0.646515
O O4 0.477314 0.900408 0.383153
O O5 0.392673 0.704999 0.794393
O O6 0.461356 0.568464 0.212278
O O7 0.683101 0.593406 0.305314
O O8 0.021509 0.145229 0.767061
O O9 0.096330 0.229974 0.211889
O O10 0.000000 0.000000 0.500000
O O11 0.773934 0.988936 0.450809
O O12 0.000000 0.500000 0.500000
O O13 0.204356 0.524021 0.263069
O O14 0.042581 0.336677 0.754989
O O15 0.460333 0.223292 0.767647
#
# Coordination Sequence:
#
# PCOD9040633 Si02
#       8
#     1   2   1   2   2   2   2   2
#     4  10  24  40  64  98 138 184 232 296 356 448
#     4  11  23  40  69  99 143 185 238 297 372 439
#     4  10  24  50  72 102 142 188 252 300 366 434
#     4  12  28  48  74 107 149 194 250 308 369 443
#     4  11  23  45  69 107 145 188 244 304 371 440
#     4  11  24  40  68 100 138 187 233 294 367 433
#     4  10  23  43  68 101 136 188 239 301 360 435
#     4  11  28  48  77 110 145 196 247 310 372 445
#
# _framework density 26.049880999999999
#
# number of rings (size 3 to 8) (size 9 to 14) (size 15 to 20)
#    0.000    1.143    1.429    3.000    8.000    4.000 
#    0.000    0.000    0.000    0.000    0.000    0.000 
#    0.000    0.000    0.000    0.000    0.000    0.000 
#
# Total GULP energy -77976.921577 kJ/mol
# GULP energy per Si atom -5569.780113 kJ/mol
# Density = 2.599059 g / cm^3
# Si number density = 26.049881 Si / 1000 Ang^3
#
#
#
# Elastic Constant Matrix: (Units=GPa)
#
#
# Indices 1 2 3 4 5 6 
#
# 1 189.7551 41.6092 29.2846 0.7472 34.6666 9.7179
# 2 41.6092 63.9960 5.3752 -0.5460 -5.6452 5.7266
# 3 29.2846 5.3752 79.3091 -8.3171 14.3833 -6.4713
# 4 0.7472 -0.5460 -8.3171 37.7770 -6.4169 -1.7579
# 5 34.6666 -5.6452 14.3833 -6.4169 46.3288 -15.7636
# 6 9.7179 5.7266 -6.4713 -1.7579 -15.7636 43.4608
#
#
#
# Elastic Compliance Matrix: (Units=1/GPa)
#
#
# Indices 1 2 3 4 5 6 
#
# 1 0.008624 -0.005804 -0.001875 -0.002320 -0.008468 -0.004608
# 2 -0.005804 0.019979 -0.000293 0.001697 0.007595 0.001445
# 3 -0.001875 -0.000293 0.014140 0.002907 -0.001949 0.001974
# 4 -0.002320 0.001697 0.002907 0.028467 0.006414 0.004206
# 5 -0.008468 0.007595 -0.001949 0.006414 0.034946 0.013537
# 6 -0.004608 0.001445 0.001974 0.004206 0.013537 0.029223
#
#
# Mechanical properties :
#
#
# Convention : Reuss Voigt Hill
#
# Bulk Modulus (GPa) = 37.31202 53.95538 45.63370
# Shear Modulus (GPa) = 31.20011 42.63273 36.91642
#
# Velocity S-wave (km/s) = 3.46454 4.04986 3.76858
# Velocity P-wave (km/s) = 5.50985 6.52884 6.04087
#
# Compressibility (1/GPa) = 0.02680102
#
# Stress axis : x y z
#
# Youngs Moduli (GPa) = 115.95481 50.05142 70.72021
#
# Poissons Ratio (x) = 0.29051 0.13257
# Poissons Ratio (y) = 0.67302 0.02069
# Poissons Ratio (z) = 0.21737 0.01464
#
# Static dielectric constant tensor:
#      x y z
#    x 2.160960 0.174450 0.106740 
#    y 0.174450 2.348870 0.003730 
#    z 0.106740 0.003730 2.250600 
# 
# From -- ./inp_files/77450.got.cif
#   From: 2010.05.17/outbox.cif.g08.bks.cpg/sg2_39_cif.got.tgz:77450.got - 2010.06.03 11:33:40.
