data_PCOD9040009
_publ_section_title
;
Structure prediction by ZEFSAII (Michael W. Deem and Ramdas Pophale) SiO2 
 PCOD9040009
Probable space group: P -1
;
_chemical_formula_sum "Si O2"
_cell_formula_units_Z 16
_cell_length_a 21.547872
_cell_length_b 17.981600
_cell_length_c 12.528313
_cell_angle_alpha 142.148821
_cell_angle_beta 151.213198
_cell_angle_gamma 18.028211
_cell_volume 691.527360
_symmetry_space_group_name_H-M "P -1"
_symmetry_group_IT_number 2
_symmetry_cell_setting 'triclinic'
loop_
_space_group_symop_operation_xyz
x,y,z
-x,-y,-z
loop_
_atom_site_type_symbol
_atom_site_label
_atom_site_fract_x
_atom_site_fract_y
_atom_site_fract_z
Si Si1 0.211383 0.512910 0.577982
Si Si2 0.659492 0.822464 0.754197
Si Si3 0.397068 0.490818 0.171038
Si Si4 0.267942 0.353782 0.714184
Si Si5 0.853673 0.412348 0.770852
Si Si6 0.088226 0.861811 0.318359
Si Si7 0.376018 0.563452 0.734661
Si Si8 0.411410 0.952816 0.750179
O O1 0.268279 0.346503 0.405790
O O2 0.249671 0.439921 0.673571
O O3 0.403024 0.462723 0.768510
O O4 0.901978 0.809329 0.434665
O O5 0.482579 0.921097 0.698009
O O6 0.494034 0.065395 0.724190
O O7 0.931779 0.663423 0.020504
O O8 0.211479 0.717138 0.228837
O O9 0.688323 0.261892 0.407324
O O10 0.397435 0.559993 0.135753
O O11 0.322203 0.412881 0.951222
O O12 0.000000 0.500000 0.500000
O O13 0.985952 0.200535 0.802855
O O14 0.744279 0.437299 0.529644
O O15 0.603429 0.681301 0.759111
O O16 0.846012 0.150638 0.263601
O O17 0.500000 0.000000 0.000000
#
# Coordination Sequence:
#
# PCOD9040009 Si02
#       8
#     2   2   2   2   2   2   2   2
#     4  12  27  44  69 100 142 195 231 291 348 414
#     4  12  24  46  68 103 145 188 234 286 355 424
#     4  10  24  45  68 102 135 183 232 284 349 416
#     4  12  27  49  72 100 143 189 242 286 345 428
#     4  11  22  41  73 106 141 180 228 297 358 415
#     4  10  23  42  74 102 137 180 228 296 356 412
#     4  11  23  44  67 103 138 177 242 283 352 415
#     4  12  24  40  67 107 149 178 231 296 356 414
#
# _framework density 23.13719
#
# number of rings (size 3 to 8) (size 9 to 14) (size 15 to 20)
#    0.000    0.750    3.750    4.500    8.750    0.500 
#    2.250    0.625    0.000    0.000    0.000    0.000 
#    0.000    0.000    0.000    0.000    0.000    0.000 
#
# Total GULP energy -89605.054170 kJ/mol
# GULP energy per Si atom -5600.315886 kJ/mol
# Density = 2.308453 g / cm^3
# Si number density = 23.137190 Si / 1000 Ang^3
#
#
#
# Elastic Constant Matrix: (Units=GPa)
#
#
# Indices 1 2 3 4 5 6 
#
# 1 135.6397 24.7803 35.4798 14.0064 10.1475 4.9241
# 2 24.7803 133.5953 39.3870 24.7775 2.6517 4.9638
# 3 35.4798 39.3870 98.3388 25.6012 26.7296 -3.1888
# 4 14.0064 24.7775 25.6012 27.5757 2.7453 3.1031
# 5 10.1475 2.6517 26.7296 2.7453 28.7649 5.4464
# 6 4.9241 4.9638 -3.1888 3.1031 5.4464 42.3516
#
#
#
# Elastic Compliance Matrix: (Units=1/GPa)
#
#
# Indices 1 2 3 4 5 6 
#
# 1 0.008290 -0.000548 -0.002321 -0.001420 -0.000408 -0.000918
# 2 -0.000548 0.009493 -0.002932 -0.005672 0.002814 -0.001216
# 3 -0.002321 -0.002932 0.021112 -0.014607 -0.018198 0.005614
# 4 -0.001420 -0.005672 -0.014607 0.055244 0.010395 -0.005654
# 5 -0.000408 0.002814 -0.018198 0.010395 0.052298 -0.009140
# 6 -0.000918 -0.001216 0.005614 -0.005654 -0.009140 0.025873
#
#
# Mechanical properties :
#
#
# Convention : Reuss Voigt Hill
#
# Bulk Modulus (GPa) = 36.63929 62.98531 49.81230
# Shear Modulus (GPa) = 25.90559 37.60022 31.75291
#
# Velocity S-wave (km/s) = 3.34975 4.03562 3.70858
# Velocity P-wave (km/s) = 5.55258 6.99976 6.31775
#
# Compressibility (1/GPa) = 0.02729311
#
# Stress axis : x y z
#
# Youngs Moduli (GPa) = 120.62590 105.34390 47.36737
#
# Poissons Ratio (x) = 0.05772 0.10992
# Poissons Ratio (y) = 0.06610 0.13888
# Poissons Ratio (z) = 0.27993 0.30887
#
# Static dielectric constant tensor:
#      x y z
#    x 1.921670 0.010410 -0.023920 
#    y 0.010410 1.839280 -0.032070 
#    z -0.023920 -0.032070 1.879300 
# 
# From -- ./inp_files/472433.got.cif
#   From: 2010.05.17/outbox.cif.g08.bks.cpg/sg2_237_cif.got.tgz:472433.got - 2010.06.03 11:33:40.
