data_PCOD9040938
_publ_section_title
;
Structure prediction by ZEFSAII (Michael W. Deem and Ramdas Pophale) SiO2 
 PCOD9040938
Probable space group: P -1
;
_chemical_formula_sum "Si O2"
_cell_formula_units_Z 14
_cell_length_a 11.629328
_cell_length_b 8.553885
_cell_length_c 17.996167
_cell_angle_alpha 33.176348
_cell_angle_beta 38.329623
_cell_angle_gamma 52.307138
_cell_volume 602.144777
_symmetry_space_group_name_H-M "P -1"
_symmetry_group_IT_number 2
_symmetry_cell_setting 'triclinic'
loop_
_space_group_symop_operation_xyz
x,y,z
-x,-y,-z
loop_
_atom_site_type_symbol
_atom_site_label
_atom_site_fract_x
_atom_site_fract_y
_atom_site_fract_z
Si Si1 0.617624 0.151692 0.782813
Si Si2 0.235902 0.353108 0.375478
Si Si3 0.005678 0.665181 0.113786
Si Si4 0.773990 0.618317 0.099767
Si Si5 0.420443 0.510989 0.952305
Si Si6 0.861506 0.035170 0.281198
Si Si7 0.881590 0.456093 0.416165
O O1 0.728705 0.358472 0.705806
O O2 0.410289 0.237572 0.853687
O O3 0.716120 0.229251 0.622798
O O4 0.609294 0.815248 0.933950
O O5 0.419600 0.323067 0.246687
O O6 0.068321 0.390486 0.389715
O O7 0.182073 0.097803 0.562844
O O8 0.880797 0.597225 0.131784
O O9 0.920604 0.474603 0.302108
O O10 0.220805 0.621616 0.011389
O O11 0.000000 0.000000 0.000000
O O12 0.737080 0.286379 0.224817
O O13 0.926214 0.809251 0.896176
O O14 0.500000 0.500000 0.000000
O O15 0.838828 0.769303 0.341522
#
# Coordination Sequence:
#
# PCOD9040938 Si02
#       7
#     2   2   2   2   2   2   2
#     4  11  26  44  74 103 138 180 232 286 340 410
#     4  11  25  44  73 104 139 174 239 286 338 402
#     4  12  26  45  70  97 145 181 222 284 344 413
#     4  11  25  43  70 106 138 183 228 277 353 407
#     4  12  26  46  72 102 137 185 231 279 346 412
#     4  10  23  43  69  98 141 177 226 284 339 399
#     4  11  24  46  69 104 141 180 230 285 341 405
#
# _framework density 23.250223999999999
#
# number of rings (size 3 to 8) (size 9 to 14) (size 15 to 20)
#    0.000    0.857    2.857    3.857    8.000    5.714 
#    0.000    0.000    0.000    0.000    0.000    0.000 
#    0.000    0.000    0.000    0.000    0.000    0.000 
#
# Total GULP energy -78514.121770 kJ/mol
# GULP energy per Si atom -5608.151555 kJ/mol
# Density = 2.319731 g / cm^3
# Si number density = 23.250224 Si / 1000 Ang^3
#
#
#
# Elastic Constant Matrix: (Units=GPa)
#
#
# Indices 1 2 3 4 5 6 
#
# 1 105.3928 39.9088 42.0318 20.6639 14.9862 -6.2138
# 2 39.9088 131.7688 56.4921 20.5140 -0.1348 -43.6548
# 3 42.0318 56.4921 174.1775 41.4285 24.5281 -3.1601
# 4 20.6639 20.5140 41.4285 48.0531 13.4187 1.6828
# 5 14.9862 -0.1348 24.5281 13.4187 27.0374 10.4685
# 6 -6.2138 -43.6548 -3.1601 1.6828 10.4685 38.0844
#
#
#
# Elastic Compliance Matrix: (Units=1/GPa)
#
#
# Indices 1 2 3 4 5 6 
#
# 1 0.012021 -0.003111 -0.000767 -0.001770 -0.005023 -0.000209
# 2 -0.003111 0.016719 -0.003457 -0.003289 -0.000664 0.018698
# 3 -0.000767 -0.003457 0.008690 -0.004340 -0.004579 -0.001916
# 4 -0.001770 -0.003289 -0.004340 0.029134 -0.008223 -0.003446
# 5 -0.005023 -0.000664 -0.004579 -0.008223 0.054411 -0.016553
# 6 -0.000209 0.018698 -0.001916 -0.003446 -0.016553 0.052200
#
#
# Mechanical properties :
#
#
# Convention : Reuss Voigt Hill
#
# Bulk Modulus (GPa) = 43.93641 76.46715 60.20178
# Shear Modulus (GPa) = 25.58416 40.82874 33.20645
#
# Velocity S-wave (km/s) = 3.32080 4.19508 3.78328
# Velocity P-wave (km/s) = 5.80016 7.51167 6.71070
#
# Compressibility (1/GPa) = 0.02276017
#
# Stress axis : x y z
#
# Youngs Moduli (GPa) = 83.18615 59.81123 115.07184
#
# Poissons Ratio (x) = 0.18606 0.08832
# Poissons Ratio (y) = 0.25877 0.39781
# Poissons Ratio (z) = 0.06384 0.20677
#
# Static dielectric constant tensor:
#      x y z
#    x 1.872150 0.042990 0.012460 
#    y 0.042990 1.881660 -0.008420 
#    z 0.012460 -0.008420 1.870360 
# 
# From -- ./inp_files/261933.got.cif
#   From: 2010.05.17/outbox.cif.g08.bks.cpg/sg2_131_cif.got.tgz:261933.got - 2010.06.03 11:33:40.
