data_PCOD9040210
_publ_section_title
;
Structure prediction by ZEFSAII (Michael W. Deem and Ramdas Pophale) SiO2 
 PCOD9040210
Probable space group: P -1
;
_chemical_formula_sum "Si O2"
_cell_formula_units_Z 12
_cell_length_a 9.422840
_cell_length_b 15.177955
_cell_length_c 14.776729
_cell_angle_alpha 161.413970
_cell_angle_beta 134.969514
_cell_angle_gamma 43.917696
_cell_volume 464.464090
_symmetry_space_group_name_H-M "P -1"
_symmetry_group_IT_number 2
_symmetry_cell_setting 'triclinic'
loop_
_space_group_symop_operation_xyz
x,y,z
-x,-y,-z
loop_
_atom_site_type_symbol
_atom_site_label
_atom_site_fract_x
_atom_site_fract_y
_atom_site_fract_z
Si Si1 0.801905 0.591416 0.937032
Si Si2 0.140532 0.227916 0.208599
Si Si3 0.337188 0.893402 0.514009
Si Si4 0.782957 0.933495 0.712184
Si Si5 0.017540 0.164387 0.480970
Si Si6 0.684720 0.280221 0.320685
O O1 0.641758 0.421935 0.744417
O O2 0.896353 0.461264 0.758958
O O3 0.000000 0.500000 0.000000
O O4 0.727371 0.917435 0.242087
O O5 0.191617 0.506048 0.460591
O O6 0.156497 0.238284 0.334182
O O7 0.919787 0.170517 0.020848
O O8 0.316904 0.953680 0.985682
O O9 0.537032 0.982768 0.652472
O O10 0.157086 0.976994 0.438174
O O11 0.838304 0.819935 0.524975
O O12 0.823449 0.080103 0.262853
O O13 0.500000 0.500000 0.500000
#
# Coordination Sequence:
#
# PCOD9040210 Si02
#       6
#     2   2   2   2   2   2
#     4  10  23  43  64  97 137 174 216 273 330 390
#     4  10  25  45  65  98 133 178 218 275 329 390
#     4  11  24  42  70  98 133 176 219 275 333 393
#     4  10  24  44  71  97 139 175 221 272 334 401
#     4  10  23  43  66 100 131 171 222 272 330 390
#     4  11  25  43  69  96 132 174 227 274 326 395
#
# _framework density 25.836227999999998
#
# number of rings (size 3 to 8) (size 9 to 14) (size 15 to 20)
#    0.000    1.667    0.000    3.000    4.667   16.667 
#    0.000    5.000    0.000    0.000    0.000    0.000 
#    0.000    0.000    0.000    0.000    0.000    0.000 
#
# Total GULP energy -66958.441119 kJ/mol
# GULP energy per Si atom -5579.870093 kJ/mol
# Density = 2.577742 g / cm^3
# Si number density = 25.836228 Si / 1000 Ang^3
#
#
#
# Elastic Constant Matrix: (Units=GPa)
#
#
# Indices 1 2 3 4 5 6 
#
# 1 187.2029 49.8538 27.2573 -8.8577 -21.9453 23.4560
# 2 49.8538 118.4138 36.7995 -14.5019 9.2740 11.7289
# 3 27.2573 36.7995 84.2796 11.4392 3.4786 27.1997
# 4 -8.8577 -14.5019 11.4392 37.2383 7.8278 3.7572
# 5 -21.9453 9.2740 3.4786 7.8278 42.6627 -8.2648
# 6 23.4560 11.7289 27.1997 3.7572 -8.2648 52.7630
#
#
#
# Elastic Compliance Matrix: (Units=1/GPa)
#
#
# Indices 1 2 3 4 5 6 
#
# 1 0.006832 -0.002818 -0.000679 0.000066 0.003888 -0.001457
# 2 -0.002818 0.012506 -0.005243 0.006876 -0.005022 -0.000101
# 3 -0.000679 -0.005243 0.017675 -0.006722 -0.000831 -0.007296
# 4 0.000066 0.006876 -0.006722 0.033318 -0.007339 -0.001615
# 5 0.003888 -0.005022 -0.000831 -0.007339 0.028888 0.004864
# 6 -0.001457 -0.000101 -0.007296 -0.001615 0.004864 0.024261
#
#
# Mechanical properties :
#
#
# Convention : Reuss Voigt Hill
#
# Bulk Modulus (GPa) = 51.18913 68.63530 59.91221
# Shear Modulus (GPa) = 33.90506 44.93184 39.41845
#
# Velocity S-wave (km/s) = 3.62651 4.17478 3.91026
# Velocity P-wave (km/s) = 6.11485 7.06127 6.60503
#
# Compressibility (1/GPa) = 0.01953540
#
# Stress axis : x y z
#
# Youngs Moduli (GPa) = 146.36015 79.96161 56.57630
#
# Poissons Ratio (x) = 0.22531 0.03840
# Poissons Ratio (y) = 0.41241 0.29661
# Poissons Ratio (z) = 0.09933 0.41922
#
# Static dielectric constant tensor:
#      x y z
#    x 2.087670 -0.082070 -0.046730 
#    y -0.082070 2.119340 -0.016080 
#    z -0.046730 -0.016080 2.093930 
# 
# From -- ./inp_files/506017.got.cif
#   From: 2010.05.17/outbox.cif.g08.bks.cpg/sg2_254_cif.got.tgz:506017.got - 2010.06.03 11:33:40.
