data_PCOD9040700
_publ_section_title
;
Structure prediction by ZEFSAII (Michael W. Deem and Ramdas Pophale) SiO2 
 PCOD9040700
Probable space group: P -1
;
_chemical_formula_sum "Si O2"
_cell_formula_units_Z 16
_cell_length_a 13.733434
_cell_length_b 9.747114
_cell_length_c 10.098487
_cell_angle_alpha 72.573774
_cell_angle_beta 35.481339
_cell_angle_gamma 61.481727
_cell_volume 678.779062
_symmetry_space_group_name_H-M "P -1"
_symmetry_group_IT_number 2
_symmetry_cell_setting 'triclinic'
loop_
_space_group_symop_operation_xyz
x,y,z
-x,-y,-z
loop_
_atom_site_type_symbol
_atom_site_label
_atom_site_fract_x
_atom_site_fract_y
_atom_site_fract_z
Si Si1 0.239303 0.981187 0.667661
Si Si2 0.378681 0.100981 0.879879
Si Si3 0.842601 0.490118 0.267437
Si Si4 0.553518 0.768449 0.840161
Si Si5 0.458309 0.685267 0.682712
Si Si6 0.017159 0.148600 0.102931
Si Si7 0.948804 0.584454 0.391246
Si Si8 0.353699 0.423107 0.945659
O O1 0.438098 0.960984 0.399663
O O2 0.299072 0.827276 0.743297
O O3 0.090116 0.964758 0.738179
O O4 0.118935 0.127517 0.853468
O O5 0.354497 0.267454 0.920273
O O6 0.433669 0.949602 0.960011
O O7 0.187043 0.120724 0.020448
O O8 0.654673 0.644725 0.407423
O O9 0.887528 0.494638 0.371583
O O10 0.856663 0.320509 0.260306
O O11 0.000000 0.500000 0.000000
O O12 0.468679 0.734053 0.809238
O O13 0.764634 0.740820 0.578897
O O14 0.573481 0.641953 0.969061
O O15 0.462470 0.511055 0.730403
O O16 0.000000 0.500000 0.500000
O O17 0.147929 0.566762 0.131033
#
# Coordination Sequence:
#
# PCOD9040700 Si02
#       8
#     2   2   2   2   2   2   2   2
#     4  11  26  41  64 100 133 178 217 274 340 414
#     4  12  23  43  69  96 135 173 222 276 338 397
#     4  11  23  38  66  96 130 173 221 278 336 398
#     4  10  23  43  68  93 130 181 223 268 336 402
#     4  11  24  42  66  98 136 171 220 279 339 396
#     4  11  24  41  62  96 137 172 219 271 342 401
#     4   9  21  40  62  93 128 173 220 266 329 403
#     4  11  23  42  68  97 130 172 229 279 328 399
#
# _framework density 23.571735
#
# number of rings (size 3 to 8) (size 9 to 14) (size 15 to 20)
#    0.000    1.250    2.500    2.625    5.250    2.000 
#    0.000    0.000    0.000    2.250    0.000    0.000 
#    0.000    0.000    0.000    0.000    0.000    0.000 
#
# Total GULP energy -89345.828849 kJ/mol
# GULP energy per Si atom -5584.114303 kJ/mol
# Density = 2.351808 g / cm^3
# Si number density = 23.571735 Si / 1000 Ang^3
#
#
#
# Elastic Constant Matrix: (Units=GPa)
#
#
# Indices 1 2 3 4 5 6 
#
# 1 106.0353 39.1826 15.1518 11.6473 -10.7365 3.4591
# 2 39.1826 93.2956 8.4892 11.0202 -8.9349 -8.7436
# 3 15.1518 8.4892 76.1804 14.6522 -13.0256 -6.8602
# 4 11.6473 11.0202 14.6522 29.3237 2.1621 -3.5337
# 5 -10.7365 -8.9349 -13.0256 2.1621 28.7686 1.2727
# 6 3.4591 -8.7436 -6.8602 -3.5337 1.2727 32.6721
#
#
#
# Elastic Compliance Matrix: (Units=1/GPa)
#
#
# Indices 1 2 3 4 5 6 
#
# 1 0.012028 -0.004602 -0.001061 -0.003119 0.002955 -0.003180
# 2 -0.004602 0.013633 0.000939 -0.003527 0.003037 0.003833
# 3 -0.001061 0.000939 0.016426 -0.008405 0.007849 0.002598
# 4 -0.003119 -0.003527 -0.008405 0.041856 -0.009322 0.002512
# 5 0.002955 0.003037 0.007849 -0.009322 0.041081 -0.000460
# 6 -0.003180 0.003833 0.002598 0.002512 -0.000460 0.032805
#
#
# Mechanical properties :
#
#
# Convention : Reuss Voigt Hill
#
# Bulk Modulus (GPa) = 30.63811 44.57317 37.60564
# Shear Modulus (GPa) = 28.06535 32.33205 30.19870
#
# Velocity S-wave (km/s) = 3.45430 3.70759 3.58319
# Velocity P-wave (km/s) = 5.37919 6.10565 5.75389
#
# Compressibility (1/GPa) = 0.03263909
#
# Stress axis : x y z
#
# Youngs Moduli (GPa) = 83.13624 73.35381 60.88024
#
# Poissons Ratio (x) = 0.33756 0.06458
# Poissons Ratio (y) = 0.38258 -0.05716
# Poissons Ratio (z) = 0.08819 -0.06887
#
# Static dielectric constant tensor:
#      x y z
#    x 1.904420 0.005570 -0.007220 
#    y 0.005570 1.944300 -0.019230 
#    z -0.007220 -0.019230 1.951380 
# 
# From -- ./inp_files/307291.got.cif
#   From: 2010.05.17/outbox.cif.g08.bks.cpg/sg2_154_cif.got.tgz:307291.got - 2010.06.03 11:33:40.
