data_PCOD9040665
_publ_section_title
;
Structure prediction by ZEFSAII (Michael W. Deem and Ramdas Pophale) SiO2 
 PCOD9040665
Probable space group: P -1
;
_chemical_formula_sum "Si O2"
_cell_formula_units_Z 15
_cell_length_a 7.238741
_cell_length_b 5.263900
_cell_length_c 14.728632
_cell_angle_alpha 96.122927
_cell_angle_beta 77.699850
_cell_angle_gamma 104.854556
_cell_volume 529.206020
_symmetry_space_group_name_H-M "P -1"
_symmetry_group_IT_number 2
_symmetry_cell_setting 'triclinic'
loop_
_space_group_symop_operation_xyz
x,y,z
-x,-y,-z
loop_
_atom_site_type_symbol
_atom_site_label
_atom_site_fract_x
_atom_site_fract_y
_atom_site_fract_z
Si Si1 0.346711 0.015276 0.181197
Si Si2 0.134740 0.823513 0.683513
Si Si3 0.289521 0.047887 0.498615
Si Si4 0.501021 0.413871 0.340952
Si Si5 0.000000 0.500000 0.000000
Si Si6 0.716872 0.630010 0.958255
Si Si7 0.198946 0.668680 0.340984
Si Si8 0.230195 0.011645 0.881007
O O1 0.195506 0.836129 0.257797
O O2 0.535233 0.905998 0.132535
O O3 0.450654 0.250509 0.247629
O O4 0.273064 0.152752 0.109200
O O5 0.186039 0.035684 0.605452
O O6 0.291229 0.637359 0.657083
O O7 0.931804 0.619478 0.674997
O O8 0.159746 0.964869 0.783863
O O9 0.160293 0.815430 0.441573
O O10 0.500000 0.000000 0.500000
O O11 0.353400 0.298143 0.435269
O O12 0.429834 0.672487 0.331191
O O13 0.849598 0.431885 0.921180
O O14 0.153915 0.742190 0.932459
O O15 0.500000 0.500000 0.000000
O O16 0.832794 0.752409 0.045525
#
# Coordination Sequence:
#
# PCOD9040665 Si02
#       8
#     2   2   2   2   1   2   2   2
#     4  10  24  45  69 102 137 181 232 285 344 417
#     4  10  23  43  68 103 142 176 234 288 340 413
#     4   9  20  44  65 100 145 176 232 284 334 418
#     4   9  22  43  67 101 137 181 231 279 341 414
#     4  12  28  48  70 104 136 178 240 286 354 416
#     4  12  27  49  73  98 141 185 232 290 352 415
#     4  11  23  42  73  99 139 187 226 279 354 406
#     4  11  26  46  69 105 138 182 233 290 348 414
#
# _framework density 28.344349000000001
#
# number of rings (size 3 to 8) (size 9 to 14) (size 15 to 20)
#    0.000    1.600    1.333    2.000    5.600    2.667 
#    2.400    8.000    0.000    0.000    0.000    0.000 
#    0.000    0.000    0.000    0.000    0.000    0.000 
#
# Total GULP energy -83883.918406 kJ/mol
# GULP energy per Si atom -5592.261227 kJ/mol
# Density = 2.827984 g / cm^3
# Si number density = 28.344349 Si / 1000 Ang^3
#
#
#
# Elastic Constant Matrix: (Units=GPa)
#
#
# Indices 1 2 3 4 5 6 
#
# 1 168.3155 13.3471 39.4652 -11.8492 21.9873 1.9771
# 2 13.3471 85.8777 77.2014 -1.5624 18.0164 -3.0927
# 3 39.4652 77.2014 221.4962 4.6231 28.0649 0.8270
# 4 -11.8492 -1.5624 4.6231 53.0767 0.0986 7.0875
# 5 21.9873 18.0164 28.0649 0.0986 46.9024 -9.1641
# 6 1.9771 -3.0927 0.8270 7.0875 -9.1641 40.8751
#
#
#
# Elastic Compliance Matrix: (Units=1/GPa)
#
#
# Indices 1 2 3 4 5 6 
#
# 1 0.006664 0.000482 -0.001014 0.001760 -0.002947 -0.001231
# 2 0.000482 0.017521 -0.005786 0.001071 -0.003405 0.000470
# 3 -0.001014 -0.005786 0.006935 -0.000900 -0.001593 -0.000730
# 4 0.001760 0.001071 -0.000900 0.019848 -0.001474 -0.003758
# 5 -0.002947 -0.003405 -0.001593 -0.001474 0.026145 0.006034
# 6 -0.001231 0.000470 -0.000730 -0.003758 0.006034 0.026579
#
#
# Mechanical properties :
#
#
# Convention : Reuss Voigt Hill
#
# Bulk Modulus (GPa) = 54.09807 81.74630 67.92219
# Shear Modulus (GPa) = 40.81954 51.21591 46.01772
#
# Velocity S-wave (km/s) = 3.79902 4.25540 4.03367
# Velocity P-wave (km/s) = 6.19442 7.28338 6.76086
#
# Compressibility (1/GPa) = 0.01848495
#
# Stress axis : x y z
#
# Youngs Moduli (GPa) = 150.05834 57.07350 144.19022
#
# Poissons Ratio (x) = -0.02749 0.14622
# Poissons Ratio (y) = -0.07229 0.83421
# Poissons Ratio (z) = 0.15217 0.33020
#
# Static dielectric constant tensor:
#      x y z
#    x 2.682090 -0.236510 -0.107690 
#    y -0.236510 2.543270 0.191610 
#    z -0.107690 0.191610 2.197300 
# 
# From -- ./inp_files/488414.got.cif
#   From: 2010.05.17/outbox.cif.g08.bks.cpg/sg2_245_cif.got.tgz:488414.got - 2010.06.03 11:33:40.
