data_PCOD9040442
_publ_section_title
;
Structure prediction by ZEFSAII (Michael W. Deem and Ramdas Pophale) SiO2 
 PCOD9040442
Probable space group: P -1
;
_chemical_formula_sum "Si O2"
_cell_formula_units_Z 14
_cell_length_a 8.202010
_cell_length_b 17.918134
_cell_length_c 6.178388
_cell_angle_alpha 69.444794
_cell_angle_beta 59.861113
_cell_angle_gamma 51.547012
_cell_volume 613.932351
_symmetry_space_group_name_H-M "P -1"
_symmetry_group_IT_number 2
_symmetry_cell_setting 'triclinic'
loop_
_space_group_symop_operation_xyz
x,y,z
-x,-y,-z
loop_
_atom_site_type_symbol
_atom_site_label
_atom_site_fract_x
_atom_site_fract_y
_atom_site_fract_z
Si Si1 0.954909 0.576955 0.629663
Si Si2 0.639737 0.127242 0.091342
Si Si3 0.966993 0.945852 0.769495
Si Si4 0.152316 0.187960 0.251642
Si Si5 0.729418 0.278993 0.758749
Si Si6 0.320889 0.471686 0.865445
Si Si7 0.921245 0.338247 0.903752
O O1 0.155849 0.525492 0.720675
O O2 0.955774 0.653750 0.398457
O O3 0.000000 0.500000 0.500000
O O4 0.744610 0.593763 0.890693
O O5 0.788055 0.114619 0.216195
O O6 0.388813 0.150246 0.249402
O O7 0.631493 0.213017 0.880675
O O8 0.790064 0.026442 0.971011
O O9 0.862423 0.888752 0.803748
O O10 0.000000 0.000000 0.500000
O O11 0.948297 0.227928 0.514916
O O12 0.093121 0.274759 0.041686
O O13 0.563503 0.390865 0.694556
O O14 0.799751 0.288097 0.945631
O O15 0.263250 0.557383 0.980523
#
# Coordination Sequence:
#
# PCOD9040442 Si02
#       7
#     2   2   2   2   2   2   2
#     4   9  21  41  67  98 134 196 251 288 356 412
#     4  11  27  48  77 106 145 181 237 299 363 437
#     4  11  24  54  76 108 141 182 235 296 371 441
#     4  12  27  47  75 111 145 188 237 298 365 426
#     4  12  26  44  70 107 143 189 249 293 351 433
#     4  10  23  43  66  99 147 197 241 298 348 413
#     4  11  24  44  66 103 146 191 246 290 352 420
#
# _framework density 22.803815
#
# number of rings (size 3 to 8) (size 9 to 14) (size 15 to 20)
#    0.000    1.143    2.857    1.714    8.000    6.286 
#    0.000    0.000    0.000    0.000    0.000    0.000 
#    0.000    0.000    0.000    0.000    0.000    0.000 
#
# Total GULP energy -78200.668858 kJ/mol
# GULP energy per Si atom -5585.762061 kJ/mol
# Density = 2.275191 g / cm^3
# Si number density = 22.803815 Si / 1000 Ang^3
#
#
#
# Elastic Constant Matrix: (Units=GPa)
#
#
# Indices 1 2 3 4 5 6 
#
# 1 120.6461 56.1850 45.5744 13.5101 -12.3038 10.9706
# 2 56.1850 109.8117 41.1711 7.2578 -7.5565 15.0464
# 3 45.5744 41.1711 74.4001 3.5044 -10.3585 -1.1658
# 4 13.5101 7.2578 3.5044 33.9543 2.7603 0.9972
# 5 -12.3038 -7.5565 -10.3585 2.7603 34.0289 3.9059
# 6 10.9706 15.0464 -1.1658 0.9972 3.9059 43.3985
#
#
#
# Elastic Compliance Matrix: (Units=1/GPa)
#
#
# Indices 1 2 3 4 5 6 
#
# 1 0.013049 -0.003938 -0.005270 -0.003970 0.002818 -0.002237
# 2 -0.003938 0.013655 -0.005090 -0.000758 0.000569 -0.003909
# 3 -0.005270 -0.005090 0.019855 0.000829 0.002553 0.003382
# 4 -0.003970 -0.000758 0.000829 0.031406 -0.004005 0.000927
# 5 0.002818 0.000569 0.002553 -0.004005 0.032051 -0.003634
# 6 -0.002237 -0.003909 0.003382 0.000927 -0.003634 0.025360
#
#
# Mechanical properties :
#
#
# Convention : Reuss Voigt Hill
#
# Bulk Modulus (GPa) = 55.67074 65.63547 60.65310
# Shear Modulus (GPa) = 29.41904 33.07150 31.24527
#
# Velocity S-wave (km/s) = 3.59568 3.81236 3.70561
# Velocity P-wave (km/s) = 6.45790 6.94435 6.70554
#
# Compressibility (1/GPa) = 0.01796276
#
# Stress axis : x y z
#
# Youngs Moduli (GPa) = 76.63714 73.23537 50.36494
#
# Poissons Ratio (x) = 0.28838 0.26541
# Poissons Ratio (y) = 0.30177 0.25638
# Poissons Ratio (z) = 0.40385 0.37280
#
# Static dielectric constant tensor:
#      x y z
#    x 1.901530 -0.000840 -0.033010 
#    y -0.000840 1.885400 -0.030310 
#    z -0.033010 -0.030310 1.858140 
# 
# From -- ./inp_files/46938.got.cif
#   From: 2010.05.17/outbox.cif.g08.bks.cpg/sg2_24_cif.got.tgz:46938.got - 2010.06.03 11:33:40.
