data_PCOD9040173
_publ_section_title
;
Structure prediction by ZEFSAII (Michael W. Deem and Ramdas Pophale) SiO2 
 PCOD9040173
Probable space group: P -1
;
_chemical_formula_sum "Si O2"
_cell_formula_units_Z 14
_cell_length_a 14.573633
_cell_length_b 9.199339
_cell_length_c 13.915801
_cell_angle_alpha 74.206932
_cell_angle_beta 151.209834
_cell_angle_gamma 125.390144
_cell_volume 586.243405
_symmetry_space_group_name_H-M "P -1"
_symmetry_group_IT_number 2
_symmetry_cell_setting 'triclinic'
loop_
_space_group_symop_operation_xyz
x,y,z
-x,-y,-z
loop_
_atom_site_type_symbol
_atom_site_label
_atom_site_fract_x
_atom_site_fract_y
_atom_site_fract_z
Si Si1 0.106766 0.768137 0.673540
Si Si2 0.443191 0.417022 0.103671
Si Si3 0.219293 0.661608 0.993168
Si Si4 0.941927 0.716900 0.870395
Si Si5 0.498674 0.243873 0.014748
Si Si6 0.396851 0.222187 0.535988
Si Si7 0.968033 0.195753 0.850719
O O1 0.181444 0.730487 0.849430
O O2 0.260998 0.742038 0.746769
O O3 0.776679 0.595185 0.391063
O O4 0.263632 0.018963 0.778827
O O5 0.371011 0.242710 0.993574
O O6 0.384630 0.544570 0.975853
O O7 0.257096 0.302787 0.048856
O O8 0.999743 0.395285 0.838448
O O9 0.158508 0.738379 0.011240
O O10 0.521672 0.770637 0.281558
O O11 0.678360 0.458392 0.705978
O O12 0.828622 0.776966 0.683535
O O13 0.050581 0.851628 0.045196
O O14 0.279157 0.016229 0.401989
#
# Coordination Sequence:
#
# PCOD9040173 Si02
#       7
#     2   2   2   2   2   2   2
#     4  11  24  44  69  93 130 167 209 261 321 376
#     4  11  24  43  68  96 128 162 215 265 312 380
#     4  11  25  41  64  98 129 168 212 257 315 379
#     4  10  24  42  64  93 130 171 213 256 311 375
#     4  10  24  46  65  97 122 169 213 261 323 370
#     4  10  23  43  64  90 134 165 213 263 304 378
#     4  11  23  43  64  97 129 169 210 260 319 368
#
# _framework density 23.880865
#
# number of rings (size 3 to 8) (size 9 to 14) (size 15 to 20)
#    0.000    1.429    1.429    3.000    8.000    3.429 
#   10.286    0.000    0.000    0.000    0.000    0.000 
#    0.000    0.000    0.000    0.000    0.000    0.000 
#
# Total GULP energy -78344.769070 kJ/mol
# GULP energy per Si atom -5596.054934 kJ/mol
# Density = 2.382651 g / cm^3
# Si number density = 23.880865 Si / 1000 Ang^3
#
#
#
# Elastic Constant Matrix: (Units=GPa)
#
#
# Indices 1 2 3 4 5 6 
#
# 1 83.8019 33.4245 -5.9347 -5.4193 0.5057 -21.7121
# 2 33.4245 79.3534 18.3792 5.7970 -13.8672 -24.7366
# 3 -5.9347 18.3792 61.2026 12.1850 -18.6312 -7.4154
# 4 -5.4193 5.7970 12.1850 34.4192 -7.1698 -5.0291
# 5 0.5057 -13.8672 -18.6312 -7.1698 26.1580 6.3561
# 6 -21.7121 -24.7366 -7.4154 -5.0291 6.3561 32.1903
#
#
#
# Elastic Compliance Matrix: (Units=1/GPa)
#
#
# Indices 1 2 3 4 5 6 
#
# 1 0.016937 -0.005805 0.003030 0.003330 -0.002439 0.008663
# 2 -0.005805 0.019792 -0.003561 -0.000445 0.005691 0.009280
# 3 0.003030 -0.003561 0.022529 -0.004064 0.012655 0.001364
# 4 0.003330 -0.000445 -0.004064 0.032795 0.004532 0.005196
# 5 -0.002439 0.005691 0.012655 0.004532 0.052526 -0.004020
# 6 0.008663 0.009280 0.001364 0.005196 -0.004020 0.045959
#
#
# Mechanical properties :
#
#
# Convention : Reuss Voigt Hill
#
# Bulk Modulus (GPa) = 21.46569 35.12178 28.29373
# Shear Modulus (GPa) = 22.85844 30.45276 26.65560
#
# Velocity S-wave (km/s) = 3.09720 3.57486 3.34457
# Velocity P-wave (km/s) = 4.66887 5.63724 5.17575
#
# Compressibility (1/GPa) = 0.04658598
#
# Stress axis : x y z
#
# Youngs Moduli (GPa) = 59.04139 50.52662 44.38745
#
# Poissons Ratio (x) = 0.29330 -0.13449
# Poissons Ratio (y) = 0.34273 0.15805
# Poissons Ratio (z) = -0.17888 0.17991
#
# Static dielectric constant tensor:
#      x y z
#    x 1.934170 -0.005750 0.002640 
#    y -0.005750 1.918590 -0.003840 
#    z 0.002640 -0.003840 1.867210 
# 
# From -- ./inp_files/528523.got.cif
#   From: 2010.05.17/outbox.cif.g08.bks.cpg/sg2_265_cif.got.tgz:528523.got - 2010.06.03 11:33:40.
