data_PCOD9040155
_publ_section_title
;
Structure prediction by ZEFSAII (Michael W. Deem and Ramdas Pophale) SiO2 
 PCOD9040155
Probable space group: P -1
;
_chemical_formula_sum "Si O2"
_cell_formula_units_Z 12
_cell_length_a 11.903010
_cell_length_b 12.271640
_cell_length_c 8.866204
_cell_angle_alpha 103.977698
_cell_angle_beta 68.871904
_cell_angle_gamma 42.315627
_cell_volume 477.928238
_symmetry_space_group_name_H-M "P -1"
_symmetry_group_IT_number 2
_symmetry_cell_setting 'triclinic'
loop_
_space_group_symop_operation_xyz
x,y,z
-x,-y,-z
loop_
_atom_site_type_symbol
_atom_site_label
_atom_site_fract_x
_atom_site_fract_y
_atom_site_fract_z
Si Si1 0.558383 0.327827 0.477848
Si Si2 0.572120 0.551494 0.109208
Si Si3 0.846706 0.090074 0.812347
Si Si4 0.449032 0.064363 0.726219
Si Si5 0.400650 0.886294 0.872242
Si Si6 0.872062 0.480488 0.770402
O O1 0.500000 0.500000 0.500000
O O2 0.367294 0.454905 0.755836
O O3 0.528601 0.263692 0.341356
O O4 0.879294 0.073018 0.312887
O O5 0.253645 0.851573 0.289935
O O6 0.588992 0.402525 0.073515
O O7 0.801707 0.415330 0.841829
O O8 0.836867 0.980926 0.869044
O O9 0.326479 0.061719 0.877018
O O10 0.755535 0.659865 0.023135
O O11 0.786772 0.796711 0.525763
O O12 0.500000 0.000000 0.500000
O O13 0.668842 0.677149 0.788912
#
# Coordination Sequence:
#
# PCOD9040155 Si02
#       6
#     2   2   2   2   2   2
#     4  12  24  39  67 105 140 183 230 289 351 421
#     4  10  23  43  68  97 138 184 232 284 353 412
#     4  10  23  43  64 100 138 181 232 286 350 417
#     4  12  27  49  74 104 136 185 240 292 347 414
#     4  11  25  45  68 103 138 184 231 289 354 414
#     4  11  27  48  73 103 140 187 232 291 351 418
#
# _framework density 25.108371999999999
#
# number of rings (size 3 to 8) (size 9 to 14) (size 15 to 20)
#    0.000    1.000    1.667    3.500    4.667    4.000 
#    0.000    0.000    0.000    0.000    0.000    0.000 
#    0.000    0.000    0.000    0.000    0.000    0.000 
#
# Total GULP energy -67049.037571 kJ/mol
# GULP energy per Si atom -5587.419798 kJ/mol
# Density = 2.505122 g / cm^3
# Si number density = 25.108372 Si / 1000 Ang^3
#
#
#
# Elastic Constant Matrix: (Units=GPa)
#
#
# Indices 1 2 3 4 5 6 
#
# 1 104.5122 32.6652 24.0702 -7.8660 0.9962 13.5563
# 2 32.6652 97.0594 30.4264 -35.6985 4.7979 6.9241
# 3 24.0702 30.4264 58.8161 -3.4756 -3.7159 11.1793
# 4 -7.8660 -35.6985 -3.4756 41.9305 0.8301 0.5654
# 5 0.9962 4.7979 -3.7159 0.8301 35.9679 -15.3009
# 6 13.5563 6.9241 11.1793 0.5654 -15.3009 49.0347
#
#
#
# Elastic Compliance Matrix: (Units=1/GPa)
#
#
# Indices 1 2 3 4 5 6 
#
# 1 0.011422 -0.002912 -0.002804 -0.000510 -0.001268 -0.002497
# 2 -0.002912 0.020090 -0.008208 0.015992 -0.004570 -0.001771
# 3 -0.002804 -0.008208 0.022674 -0.005656 0.002649 -0.002344
# 4 -0.000510 0.015992 -0.005656 0.037030 -0.004718 -0.002727
# 5 -0.001268 -0.004570 0.002649 -0.004718 0.033461 0.010888
# 6 -0.002497 -0.001771 -0.002344 -0.002727 0.010888 0.025297
#
#
# Mechanical properties :
#
#
# Convention : Reuss Voigt Hill
#
# Bulk Modulus (GPa) = 37.96695 48.30126 43.13410
# Shear Modulus (GPa) = 26.79501 36.93501 31.86501
#
# Velocity S-wave (km/s) = 3.27031 3.83955 3.56631
# Velocity P-wave (km/s) = 5.42346 6.23980 5.84590
#
# Compressibility (1/GPa) = 0.02633870
#
# Stress axis : x y z
#
# Youngs Moduli (GPa) = 87.55308 49.77553 44.10266
#
# Poissons Ratio (x) = 0.14494 0.12364
# Poissons Ratio (y) = 0.25494 0.36201
# Poissons Ratio (z) = 0.24546 0.40858
#
# Static dielectric constant tensor:
#      x y z
#    x 2.028170 -0.032140 0.004500 
#    y -0.032140 1.990750 0.032070 
#    z 0.004500 0.032070 2.123760 
# 
# From -- ./inp_files/99967.got.cif
#   From: 2010.05.17/outbox.cif.g08.bks.cpg/sg2_50_cif.got.tgz:99967.got - 2010.06.03 11:33:40.
