data_PCOD9040953
_publ_section_title
;
Structure prediction by ZEFSAII (Michael W. Deem and Ramdas Pophale) SiO2 
 PCOD9040953
Probable space group: P -1
;
_chemical_formula_sum "Si O2"
_cell_formula_units_Z 16
_cell_length_a 13.183873
_cell_length_b 9.314659
_cell_length_c 11.269104
_cell_angle_alpha 114.268201
_cell_angle_beta 58.167201
_cell_angle_gamma 67.124784
_cell_volume 668.332299
_symmetry_space_group_name_H-M "P -1"
_symmetry_group_IT_number 2
_symmetry_cell_setting 'triclinic'
loop_
_space_group_symop_operation_xyz
x,y,z
-x,-y,-z
loop_
_atom_site_type_symbol
_atom_site_label
_atom_site_fract_x
_atom_site_fract_y
_atom_site_fract_z
Si Si1 0.601880 0.309497 0.477065
Si Si2 0.059810 0.791065 0.755419
Si Si3 0.890891 0.279574 0.681148
Si Si4 0.507327 0.761958 0.943027
Si Si5 0.889299 0.809646 0.084399
Si Si6 0.295125 0.685663 0.982651
Si Si7 0.334330 0.230983 0.354891
Si Si8 0.111264 0.288802 0.684699
O O1 0.500000 0.500000 0.500000
O O2 0.779643 0.241398 0.374982
O O3 0.670783 0.079099 0.293546
O O4 0.456106 0.444310 0.718919
O O5 0.139897 0.540060 0.572377
O O6 0.869729 0.051541 0.898214
O O7 0.015990 0.800844 0.925440
O O8 0.723448 0.508081 0.772827
O O9 0.788375 0.360689 0.897787
O O10 0.046099 0.254239 0.600867
O O11 0.000000 0.000000 0.500000
O O12 0.519929 0.795234 0.806528
O O13 0.397429 0.712441 0.007735
O O14 0.393018 0.018605 0.167291
O O15 0.884892 0.816180 0.232815
O O16 0.950893 0.580546 0.918360
O O17 0.300641 0.189643 0.492535
#
# Coordination Sequence:
#
# PCOD9040953 Si02
#       8
#     2   2   2   2   2   2   2   2
#     4  12  25  41  71 105 135 181 230 285 343 410
#     4  11  23  45  71 102 139 181 225 285 348 409
#     4  12  27  44  70 102 140 185 227 292 346 406
#     4  11  25  44  66 103 133 181 237 280 345 408
#     4  10  23  43  69  99 140 180 227 277 343 414
#     4  12  26  44  71 103 138 180 231 287 342 413
#     4  10  23  43  70  94 139 179 225 287 334 410
#     4  10  24  44  68  99 135 188 223 277 352 406
#
# _framework density 23.940187000000002
#
# number of rings (size 3 to 8) (size 9 to 14) (size 15 to 20)
#    0.000    1.000    2.500    3.000    5.250    6.000 
#    0.000    0.625    0.000    0.000    0.000    0.000 
#    0.000    0.000    0.000    0.000    0.000    0.000 
#
# Total GULP energy -89195.200647 kJ/mol
# GULP energy per Si atom -5574.700040 kJ/mol
# Density = 2.388570 g / cm^3
# Si number density = 23.940187 Si / 1000 Ang^3
#
#
#
# Elastic Constant Matrix: (Units=GPa)
#
#
# Indices 1 2 3 4 5 6 
#
# 1 47.7156 18.2404 5.7934 9.3458 -3.7204 -8.3834
# 2 18.2404 110.8177 45.4112 -19.1281 -1.7307 -2.6626
# 3 5.7934 45.4112 159.2057 -11.0046 13.6775 -2.9448
# 4 9.3458 -19.1281 -11.0046 46.5847 7.7677 2.4492
# 5 -3.7204 -1.7307 13.6775 7.7677 28.4344 -0.2208
# 6 -8.3834 -2.6626 -2.9448 2.4492 -0.2208 25.0690
#
#
#
# Elastic Compliance Matrix: (Units=1/GPa)
#
#
# Indices 1 2 3 4 5 6 
#
# 1 0.027080 -0.005591 -0.000376 -0.009311 0.006000 0.009381
# 2 -0.005591 0.012027 -0.002864 0.005482 -0.000131 -0.001466
# 3 -0.000376 -0.002864 0.007577 0.001382 -0.004244 0.000288
# 4 -0.009311 0.005482 0.001382 0.027710 -0.009159 -0.005157
# 5 0.006000 -0.000131 -0.004244 -0.009159 0.040511 0.002746
# 6 0.009381 -0.001466 0.000288 -0.005157 0.002746 0.043433
#
#
# Mechanical properties :
#
#
# Convention : Reuss Voigt Hill
#
# Bulk Modulus (GPa) = 34.45730 50.73655 42.59692
# Shear Modulus (GPa) = 26.92881 36.57056 31.74968
#
# Velocity S-wave (km/s) = 3.35750 3.91267 3.64567
# Velocity P-wave (km/s) = 5.42722 6.45376 5.96262
#
# Compressibility (1/GPa) = 0.02902143
#
# Stress axis : x y z
#
# Youngs Moduli (GPa) = 36.92721 83.14778 131.97524
#
# Poissons Ratio (x) = 0.46491 0.04965
# Poissons Ratio (y) = 0.20647 0.37796
# Poissons Ratio (z) = 0.01389 0.23813
#
# Static dielectric constant tensor:
#      x y z
#    x 1.670930 -0.327370 0.152510 
#    y -0.327370 1.457540 0.121200 
#    z 0.152510 0.121200 1.839890 
# 
# From -- ./inp_files/447784.got.cif
#   From: 2010.05.17/outbox.cif.g08.bks.cpg/sg2_224_cif.got.tgz:447784.got - 2010.06.03 11:33:40.
