data_PCOD9040679
_publ_section_title
;
Structure prediction by ZEFSAII (Michael W. Deem and Ramdas Pophale) SiO2 
 PCOD9040679
Probable space group: P -1
;
_chemical_formula_sum "Si O2"
_cell_formula_units_Z 14
_cell_length_a 14.184609
_cell_length_b 11.199447
_cell_length_c 5.410116
_cell_angle_alpha 79.918315
_cell_angle_beta 80.145538
_cell_angle_gamma 41.054289
_cell_volume 554.729294
_symmetry_space_group_name_H-M "P -1"
_symmetry_group_IT_number 2
_symmetry_cell_setting 'triclinic'
loop_
_space_group_symop_operation_xyz
x,y,z
-x,-y,-z
loop_
_atom_site_type_symbol
_atom_site_label
_atom_site_fract_x
_atom_site_fract_y
_atom_site_fract_z
Si Si1 0.675911 0.588235 0.059795
Si Si2 0.408207 0.102508 0.750328
Si Si3 0.838320 0.031868 0.617962
Si Si4 0.096184 0.486812 0.264060
Si Si5 0.116494 0.837294 0.818889
Si Si6 0.447875 0.614521 0.225938
Si Si7 0.161850 0.197015 0.999574
O O1 0.674629 0.691255 0.240291
O O2 0.771718 0.375961 0.115442
O O3 0.516251 0.683669 0.129352
O O4 0.750064 0.586002 0.789196
O O5 0.500000 0.000000 0.500000
O O6 0.292071 0.104744 0.796440
O O7 0.500000 0.000000 0.000000
O O8 0.808446 0.111052 0.332423
O O9 0.725469 0.219927 0.754527
O O10 0.804143 0.931277 0.759986
O O11 0.007989 0.884631 0.642490
O O12 0.130933 0.349343 0.103409
O O13 0.000000 0.500000 0.500000
O O14 0.981619 0.692413 0.132788
O O15 0.000000 0.000000 0.000000
O O16 0.500000 0.500000 0.500000
O O17 0.500000 0.500000 0.000000
#
# Coordination Sequence:
#
# PCOD9040679 Si02
#       7
#     2   2   2   2   2   2   2
#     4  11  24  49  77 111 154 206 254 326 388 461
#     4  11  27  50  75 113 152 201 261 317 390 462
#     4  11  24  44  71 102 146 190 251 315 375 456
#     4  10  23  44  71 106 141 191 251 311 384 455
#     4  11  24  45  70 110 146 197 255 309 385 457
#     4  12  27  50  74 111 155 203 258 310 385 465
#     4  10  23  43  68 105 142 188 247 313 382 445
#
# _framework density 25.237537
#
# number of rings (size 3 to 8) (size 9 to 14) (size 15 to 20)
#    0.000    1.143    2.857    1.714    6.000    2.286 
#   10.286    0.000    0.000    0.000    0.000    0.000 
#    0.000    0.000    0.000    0.000    0.000    0.000 
#
# Total GULP energy -77997.182767 kJ/mol
# GULP energy per Si atom -5571.227340 kJ/mol
# Density = 2.518010 g / cm^3
# Si number density = 25.237537 Si / 1000 Ang^3
#
#
#
# Elastic Constant Matrix: (Units=GPa)
#
#
# Indices 1 2 3 4 5 6 
#
# 1 67.6043 8.5068 35.7608 -6.0201 -35.8909 0.7405
# 2 8.5068 143.2315 47.9370 -0.5105 -5.3152 11.1072
# 3 35.7608 47.9370 177.0890 17.4775 -36.2542 8.6417
# 4 -6.0201 -0.5105 17.4775 34.9101 -7.4165 -7.5919
# 5 -35.8909 -5.3152 -36.2542 -7.4165 47.7424 -0.1582
# 6 0.7405 11.1072 8.6417 -7.5919 -0.1582 44.4374
#
#
#
# Elastic Compliance Matrix: (Units=1/GPa)
#
#
# Indices 1 2 3 4 5 6 
#
# 1 0.028298 -0.000163 -0.002554 0.011068 0.021042 0.002032
# 2 -0.000163 0.007829 -0.002268 0.000736 -0.000863 -0.001390
# 3 -0.002554 -0.002268 0.007915 -0.004110 0.003194 -0.001621
# 4 0.011068 0.000736 -0.004110 0.036405 0.010959 0.006690
# 5 0.021042 -0.000863 0.003194 0.010959 0.040800 0.001262
# 6 0.002032 -0.001390 -0.001621 0.006690 0.001262 0.024280
#
#
# Mechanical properties :
#
#
# Convention : Reuss Voigt Hill
#
# Bulk Modulus (GPa) = 29.34969 63.59264 46.47116
# Shear Modulus (GPa) = 29.96632 45.13266 37.54949
#
# Velocity S-wave (km/s) = 3.44956 4.23343 3.86144
# Velocity P-wave (km/s) = 5.24601 7.01058 6.19148
#
# Compressibility (1/GPa) = 0.03407191
#
# Stress axis : x y z
#
# Youngs Moduli (GPa) = 35.33841 127.73365 126.33981
#
# Poissons Ratio (x) = 0.02084 0.32267
# Poissons Ratio (y) = 0.00577 0.28651
# Poissons Ratio (z) = 0.09025 0.28968
#
# Static dielectric constant tensor:
#      x y z
#    x 2.182060 -0.133490 0.012570 
#    y -0.133490 2.255450 -0.077900 
#    z 0.012570 -0.077900 2.067880 
# 
# From -- ./inp_files/94339.got.cif
#   From: 2010.05.17/outbox.cif.g08.bks.cpg/sg2_48_cif.got.tgz:94339.got - 2010.06.03 11:33:40.
