data_PCOD9040922
_publ_section_title
;
Structure prediction by ZEFSAII (Michael W. Deem and Ramdas Pophale) SiO2 
 PCOD9040922
Probable space group: P -1
;
_chemical_formula_sum "Si O2"
_cell_formula_units_Z 16
_cell_length_a 27.476212
_cell_length_b 18.367902
_cell_length_c 15.127872
_cell_angle_alpha 20.437761
_cell_angle_beta 160.312976
_cell_angle_gamma 160.644955
_cell_volume 766.984308
_symmetry_space_group_name_H-M "P -1"
_symmetry_group_IT_number 2
_symmetry_cell_setting 'triclinic'
loop_
_space_group_symop_operation_xyz
x,y,z
-x,-y,-z
loop_
_atom_site_type_symbol
_atom_site_label
_atom_site_fract_x
_atom_site_fract_y
_atom_site_fract_z
Si Si1 0.396181 0.090802 0.661758
Si Si2 0.661773 0.614962 0.446392
Si Si3 0.027875 0.394052 0.078590
Si Si4 0.347347 0.015090 0.105788
Si Si5 0.554859 0.310766 0.287630
Si Si6 0.904271 0.402628 0.354914
Si Si7 0.169413 0.185287 0.303123
Si Si8 0.931408 0.642551 0.485500
O O1 0.522234 0.336792 0.545424
O O2 0.292420 0.155967 0.479424
O O3 0.263868 0.867161 0.628096
O O4 0.500000 0.000000 0.000000
O O5 0.751537 0.749853 0.537862
O O6 0.805904 0.620483 0.624981
O O7 0.590189 0.767229 0.103998
O O8 0.034088 0.561472 0.817351
O O9 0.000000 0.500000 0.000000
O O10 0.855264 0.135146 0.068687
O O11 0.414209 0.121415 0.195805
O O12 0.414675 0.828993 0.421115
O O13 0.736267 0.460646 0.379573
O O14 0.500000 0.500000 0.000000
O O15 0.000000 0.500000 0.500000
O O16 0.024445 0.384958 0.507461
O O17 0.856464 0.597296 0.018220
O O18 0.996504 0.922128 0.302561
#
# Coordination Sequence:
#
# PCOD9040922 Si02
#       8
#     2   2   2   2   2   2   2   2
#     4  11  24  46  67 103 141 175 230 292 343 409
#     4  12  23  41  72 100 134 182 224 288 350 397
#     4  11  23  43  66 101 139 174 227 281 340 411
#     4  10  25  41  64  98 131 173 235 268 335 410
#     4  10  24  45  65  93 141 179 221 280 335 413
#     4  11  25  46  71  99 137 181 231 284 345 421
#     4  11  23  43  72  98 135 176 225 288 348 403
#     4  10  23  43  69  98 132 178 225 278 346 405
#
# _framework density 20.860923
#
# number of rings (size 3 to 8) (size 9 to 14) (size 15 to 20)
#    0.000    1.250    2.500    2.250    5.250    5.000 
#    2.250    0.000    0.000    0.000    0.000    0.000 
#    0.000    0.000    0.000    0.000    0.000    0.000 
#
# Total GULP energy -89466.335644 kJ/mol
# GULP energy per Si atom -5591.645978 kJ/mol
# Density = 2.081344 g / cm^3
# Si number density = 20.860923 Si / 1000 Ang^3
#
#
#
# Elastic Constant Matrix: (Units=GPa)
#
#
# Indices 1 2 3 4 5 6 
#
# 1 82.7690 51.3753 42.6748 -4.0957 -12.2606 -18.1439
# 2 51.3753 154.3826 48.8161 -15.5771 -2.4057 -1.8630
# 3 42.6748 48.8161 112.4584 -19.4116 -4.8394 7.1146
# 4 -4.0957 -15.5771 -19.4116 35.7755 1.3381 -4.5407
# 5 -12.2606 -2.4057 -4.8394 1.3381 33.2664 -3.4196
# 6 -18.1439 -1.8630 7.1146 -4.5407 -3.4196 32.8152
#
#
#
# Elastic Compliance Matrix: (Units=1/GPa)
#
#
# Indices 1 2 3 4 5 6 
#
# 1 0.024006 -0.005451 -0.007703 -0.002203 0.008991 0.015266
# 2 -0.005451 0.008895 -0.001339 0.002327 -0.001869 -0.002091
# 3 -0.007703 -0.001339 0.013633 0.005142 -0.001855 -0.006772
# 4 -0.002203 0.002327 0.005142 0.031805 -0.000959 0.002100
# 5 0.008991 -0.001869 -0.001855 -0.000959 0.033898 0.008667
# 6 0.015266 -0.002091 -0.006772 0.002100 0.008667 0.041458
#
#
# Mechanical properties :
#
#
# Convention : Reuss Voigt Hill
#
# Bulk Modulus (GPa) = 56.98644 70.59361 63.79002
# Shear Modulus (GPa) = 26.52099 34.15435 30.33767
#
# Velocity S-wave (km/s) = 3.56943 4.05067 3.81764
# Velocity P-wave (km/s) = 6.66066 7.46933 7.07655
#
# Compressibility (1/GPa) = 0.01754803
#
# Stress axis : x y z
#
# Youngs Moduli (GPa) = 41.65652 112.41880 73.35397
#
# Poissons Ratio (x) = 0.61281 0.56501
# Poissons Ratio (y) = 0.22707 0.09824
# Poissons Ratio (z) = 0.32086 0.15055
#
# Static dielectric constant tensor:
#      x y z
#    x 1.728560 0.002160 0.003420 
#    y 0.002160 1.786600 -0.002130 
#    z 0.003420 -0.002130 1.793150 
# 
# From -- ./inp_files/519057.got.cif
#   From: 2010.05.17/outbox.cif.g08.bks.cpg/sg2_260_cif.got.tgz:519057.got - 2010.06.03 11:33:40.
