data_PCOD9040728
_publ_section_title
;
Structure prediction by ZEFSAII (Michael W. Deem and Ramdas Pophale) SiO2 
 PCOD9040728
Probable space group: P -1
;
_chemical_formula_sum "Si O2"
_cell_formula_units_Z 16
_cell_length_a 9.271364
_cell_length_b 11.681027
_cell_length_c 11.819356
_cell_angle_alpha 77.877991
_cell_angle_beta 102.167474
_cell_angle_gamma 143.124610
_cell_volume 748.986579
_symmetry_space_group_name_H-M "P -1"
_symmetry_group_IT_number 2
_symmetry_cell_setting 'triclinic'
loop_
_space_group_symop_operation_xyz
x,y,z
-x,-y,-z
loop_
_atom_site_type_symbol
_atom_site_label
_atom_site_fract_x
_atom_site_fract_y
_atom_site_fract_z
Si Si1 0.225442 0.071383 0.070042
Si Si2 0.500809 0.315523 0.513019
Si Si3 0.966062 0.728870 0.252419
Si Si4 0.903266 0.772768 0.471738
Si Si5 0.975513 0.227028 0.276826
Si Si6 0.420607 0.345270 0.250365
Si Si7 0.832067 0.396241 0.718436
Si Si8 0.545615 0.911000 0.095430
O O1 0.122281 0.888600 0.148756
O O2 0.348491 0.225810 0.154723
O O3 0.392523 0.146423 0.976417
O O4 0.000000 0.000000 0.000000
O O5 0.701208 0.544911 0.500992
O O6 0.259163 0.212793 0.554018
O O7 0.442763 0.274563 0.378811
O O8 0.639244 0.301922 0.606118
O O9 0.027004 0.826910 0.362076
O O10 0.679494 0.566872 0.225591
O O11 0.012185 0.618948 0.285763
O O12 0.071406 0.859821 0.589743
O O13 0.219966 0.316457 0.254819
O O14 0.020133 0.392959 0.272235
O O15 0.767992 0.071431 0.184739
O O16 0.680637 0.268365 0.830548
O O17 0.500000 0.000000 0.000000
#
# Coordination Sequence:
#
# PCOD9040728 Si02
#       8
#     2   2   2   2   2   2   2   2
#     4  12  27  45  63  92 125 167 220 264 299 363
#     4   8  17  37  64  94 125 160 201 254 317 375
#     4  11  24  41  65  98 127 162 208 260 316 371
#     4   8  17  37  64  95 124 155 210 257 303 377
#     4  10  23  43  69  94 123 169 206 256 321 368
#     4  10  23  43  68  96 124 161 213 262 309 368
#     4  11  24  41  66  94 129 169 200 255 326 374
#     4  12  27  47  59  90 133 167 214 258 308 377
#
# _framework density 21.362199
#
# number of rings (size 3 to 8) (size 9 to 14) (size 15 to 20)
#    0.000    1.750    2.500    2.250    5.250    7.500 
#    0.000    3.750    0.000    0.000    0.000    0.000 
#    0.000    0.000    0.000    0.000    0.000    0.000 
#
# Total GULP energy -89444.115365 kJ/mol
# GULP energy per Si atom -5590.257210 kJ/mol
# Density = 2.131358 g / cm^3
# Si number density = 21.362199 Si / 1000 Ang^3
#
#
#
# Elastic Constant Matrix: (Units=GPa)
#
#
# Indices 1 2 3 4 5 6 
#
# 1 79.4757 -0.6667 20.6425 8.9699 -15.0573 -17.8469
# 2 -0.6667 75.0165 26.2311 11.0012 -0.4909 -7.7887
# 3 20.6425 26.2311 108.6740 28.8338 -7.2710 -0.2083
# 4 8.9699 11.0012 28.8338 39.2611 -4.6544 -4.8470
# 5 -15.0573 -0.4909 -7.2710 -4.6544 41.9924 3.4417
# 6 -17.8469 -7.7887 -0.2083 -4.8470 3.4417 37.9789
#
#
#
# Elastic Compliance Matrix: (Units=1/GPa)
#
#
# Indices 1 2 3 4 5 6 
#
# 1 0.015998 0.002102 -0.003091 -0.000514 0.004558 0.007453
# 2 0.002102 0.015271 -0.003664 -0.001609 -0.000201 0.003912
# 3 -0.003091 -0.003664 0.012827 -0.008030 0.000442 -0.003198
# 4 -0.000514 -0.001609 -0.008030 0.032560 0.001738 0.003382
# 5 0.004558 -0.000201 0.000442 0.001738 0.025716 -0.000005
# 6 0.007453 0.003912 -0.003198 0.003382 -0.000005 0.031050
#
#
# Mechanical properties :
#
#
# Convention : Reuss Voigt Hill
#
# Bulk Modulus (GPa) = 28.74348 39.50887 34.12618
# Shear Modulus (GPa) = 32.39919 38.31044 35.35482
#
# Velocity S-wave (km/s) = 3.89866 4.23942 4.07260
# Velocity P-wave (km/s) = 5.80952 6.51909 6.17451
#
# Compressibility (1/GPa) = 0.03479050
#
# Stress axis : x y z
#
# Youngs Moduli (GPa) = 62.50765 65.48245 77.95805
#
# Poissons Ratio (x) = -0.13764 0.24094
# Poissons Ratio (y) = -0.13138 0.28567
# Poissons Ratio (z) = 0.19319 0.23995
#
# Static dielectric constant tensor:
#      x y z
#    x 1.857660 -0.057070 -0.039030 
#    y -0.057070 1.818900 0.026790 
#    z -0.039030 0.026790 1.793730 
# 
# From -- ./inp_files/306954.got.cif
#   From: 2010.05.17/outbox.cif.g08.bks.cpg/sg2_154_cif.got.tgz:306954.got - 2010.06.03 11:33:40.
