data_PCOD9040771
_publ_section_title
;
Structure prediction by ZEFSAII (Michael W. Deem and Ramdas Pophale) SiO2 
 PCOD9040771
Probable space group: P -1
;
_chemical_formula_sum "Si O2"
_cell_formula_units_Z 10
_cell_length_a 15.808197
_cell_length_b 16.225264
_cell_length_c 5.061076
_cell_angle_alpha 96.773631
_cell_angle_beta 96.470054
_cell_angle_gamma 18.305350
_cell_volume 404.870023
_symmetry_space_group_name_H-M "P -1"
_symmetry_group_IT_number 2
_symmetry_cell_setting 'triclinic'
loop_
_space_group_symop_operation_xyz
x,y,z
-x,-y,-z
loop_
_atom_site_type_symbol
_atom_site_label
_atom_site_fract_x
_atom_site_fract_y
_atom_site_fract_z
Si Si1 0.701500 0.719795 0.711010
Si Si2 0.953467 0.326679 0.524012
Si Si3 0.364270 0.805889 0.624477
Si Si4 0.291262 0.766072 0.082928
Si Si5 0.315771 0.074461 0.197186
O O1 0.937504 0.433853 0.684138
O O2 0.791251 0.731910 0.777418
O O3 0.529315 0.872627 0.438862
O O4 0.494805 0.891476 0.937266
O O5 0.651566 0.573522 0.538548
O O6 0.076929 0.232218 0.243143
O O7 0.144433 0.080977 0.620528
O O8 0.294348 0.796250 0.394107
O O9 0.365888 0.771034 0.909375
O O10 0.500000 0.500000 0.000000
O O11 0.000000 0.000000 0.000000
#
# Coordination Sequence:
#
# PCOD9040771 Si02
#       5
#     2   2   2   2   2
#     4  10  23  43  68  98 141 199 245 286 344 407
#     4  12  25  47  68 110 151 180 241 296 356 399
#     4  12  28  43  77 110 139 184 227 292 357 419
#     4  12  26  52  76 104 141 180 229 280 352 444
#     4  10  23  43  68  98 141 199 245 286 344 407
#
# _framework density 24.699286000000001
#
# number of rings (size 3 to 8) (size 9 to 14) (size 15 to 20)
#    0.000    0.800    2.000    4.200    2.800    4.800 
#    0.000    6.000    0.000    0.000    0.000    0.000 
#    0.000    0.000    0.000    0.000    0.000    0.000 
#
# Total GULP energy -56123.861424 kJ/mol
# GULP energy per Si atom -5612.386142 kJ/mol
# Density = 2.464307 g / cm^3
# Si number density = 24.699286 Si / 1000 Ang^3
#
#
#
# Elastic Constant Matrix: (Units=GPa)
#
#
# Indices 1 2 3 4 5 6 
#
# 1 66.3731 49.7447 -1.1176 7.6466 -14.0652 3.3795
# 2 49.7447 197.7667 16.2359 11.2776 -9.0569 28.9836
# 3 -1.1176 16.2359 107.2899 10.6414 -4.8630 6.5420
# 4 7.6466 11.2776 10.6414 26.1805 -2.9802 -0.0542
# 5 -14.0652 -9.0569 -4.8630 -2.9802 47.7271 2.9983
# 6 3.3795 28.9836 6.5420 -0.0542 2.9983 71.5253
#
#
#
# Elastic Compliance Matrix: (Units=1/GPa)
#
#
# Indices 1 2 3 4 5 6 
#
# 1 0.020176 -0.004852 0.001508 -0.003857 0.004896 0.000667
# 2 -0.004852 0.006761 -0.000815 -0.001186 -0.000151 -0.002430
# 3 0.001508 -0.000815 0.009950 -0.004010 0.001097 -0.000700
# 4 -0.003857 -0.001186 -0.004010 0.041553 0.000760 0.001029
# 5 0.004896 -0.000151 0.001097 0.000760 0.022602 -0.001217
# 6 0.000667 -0.002430 -0.000700 0.001029 -0.001217 0.015050
#
#
# Mechanical properties :
#
#
# Convention : Reuss Voigt Hill
#
# Bulk Modulus (GPa) = 35.00250 55.68397 45.34323
# Shear Modulus (GPa) = 37.33218 49.52435 43.42826
#
# Velocity S-wave (km/s) = 3.89198 4.48268 4.19773
# Velocity P-wave (km/s) = 5.86506 7.02754 6.47245
#
# Compressibility (1/GPa) = 0.02856939
#
# Stress axis : x y z
#
# Youngs Moduli (GPa) = 49.56274 147.91210 100.50531
#
# Poissons Ratio (x) = 0.71773 -0.15159
# Poissons Ratio (y) = 0.24050 0.08188
# Poissons Ratio (z) = -0.07476 0.12050
#
# Static dielectric constant tensor:
#      x y z
#    x 1.960270 -0.009880 0.022830 
#    y -0.009880 1.903090 -0.033480 
#    z 0.022830 -0.033480 1.957330 
# 
# From -- ./inp_files/3756.got.cif
#   From: 2010.05.17/outbox.cif.g08.bks.cpg/sg2_2_cif.got.tgz:3756.got - 2010.06.03 11:33:40.
