data_PCOD9040441
_publ_section_title
;
Structure prediction by ZEFSAII (Michael W. Deem and Ramdas Pophale) SiO2 
 PCOD9040441
Probable space group: P -1
;
_chemical_formula_sum "Si O2"
_cell_formula_units_Z 16
_cell_length_a 5.378747
_cell_length_b 15.987544
_cell_length_c 8.360268
_cell_angle_alpha 88.413175
_cell_angle_beta 92.092769
_cell_angle_gamma 123.645621
_cell_volume 598.066993
_symmetry_space_group_name_H-M "P -1"
_symmetry_group_IT_number 2
_symmetry_cell_setting 'triclinic'
loop_
_space_group_symop_operation_xyz
x,y,z
-x,-y,-z
loop_
_atom_site_type_symbol
_atom_site_label
_atom_site_fract_x
_atom_site_fract_y
_atom_site_fract_z
Si Si1 0.397751 0.362642 0.518802
Si Si2 0.638612 0.834372 0.547929
Si Si3 0.278402 0.013525 0.659474
Si Si4 0.228571 0.872849 0.899633
Si Si5 0.276272 0.143582 0.913096
Si Si6 0.222117 0.539186 0.801221
Si Si7 0.095417 0.699009 0.723850
Si Si8 0.591383 0.379626 0.861630
O O1 0.401123 0.262230 0.532738
O O2 0.616574 0.429641 0.371119
O O3 0.472380 0.405087 0.697991
O O4 0.077227 0.331374 0.446448
O O5 0.514804 0.897503 0.463427
O O6 0.445467 0.782403 0.703732
O O7 0.981580 0.917339 0.585549
O O8 0.179551 0.075991 0.756956
O O9 0.406821 0.964454 0.774639
O O10 0.007139 0.763314 0.819149
O O11 0.454913 0.863112 0.012883
O O12 0.011621 0.896598 0.982669
O O13 0.410302 0.260450 0.882641
O O14 0.069373 0.603650 0.802316
O O15 0.938614 0.426365 0.821298
O O16 0.412691 0.574859 0.968093
#
# Coordination Sequence:
#
# PCOD9040441 Si02
#       8
#     2   2   2   2   2   2   2   2
#     4  11  22  46  70 105 145 190 242 310 375 444
#     4  10  23  43  66  99 145 191 247 300 373 440
#     4  11  23  44  68 100 142 197 247 303 368 442
#     4  12  25  45  70 102 149 198 247 311 373 436
#     4  12  26  46  69 108 148 196 250 310 370 448
#     4  10  24  47  72 104 146 191 240 314 374 450
#     4  11  23  43  73 101 147 195 244 312 376 440
#     4  11  23  46  74 107 143 192 252 301 377 451
#
# _framework density 26.752858
#
# number of rings (size 3 to 8) (size 9 to 14) (size 15 to 20)
#    0.000    1.000    3.750    2.625    0.000    3.000 
#    4.500    1.875    0.000    0.000    0.000    0.000 
#    0.000    0.000    0.000    0.000    0.000    0.000 
#
# Total GULP energy -89531.498743 kJ/mol
# GULP energy per Si atom -5595.718671 kJ/mol
# Density = 2.669197 g / cm^3
# Si number density = 26.752858 Si / 1000 Ang^3
#
#
#
# Elastic Constant Matrix: (Units=GPa)
#
#
# Indices 1 2 3 4 5 6 
#
# 1 83.1105 15.2448 34.6189 -5.5580 11.1891 0.0238
# 2 15.2448 118.8686 26.0381 -24.2684 10.7245 -2.4634
# 3 34.6189 26.0381 137.2786 0.3088 30.5655 5.8766
# 4 -5.5580 -24.2684 0.3088 43.8215 7.1736 4.6490
# 5 11.1891 10.7245 30.5655 7.1736 27.8010 1.2812
# 6 0.0238 -2.4634 5.8766 4.6490 1.2812 32.4190
#
#
#
# Elastic Compliance Matrix: (Units=1/GPa)
#
#
# Indices 1 2 3 4 5 6 
#
# 1 0.013786 -0.000510 -0.002770 0.001915 -0.002814 0.000290
# 2 -0.000510 0.010387 -0.000858 0.006413 -0.004523 0.000204
# 3 -0.002770 -0.000858 0.010503 0.000961 -0.010272 -0.001699
# 4 0.001915 0.006413 0.000961 0.028863 -0.011594 -0.003369
# 5 -0.002814 -0.004523 -0.010272 -0.011594 0.053082 0.001085
# 6 0.000290 0.000204 -0.001699 -0.003369 0.001085 0.031610
#
#
# Mechanical properties :
#
#
# Convention : Reuss Voigt Hill
#
# Bulk Modulus (GPa) = 37.87738 54.56235 46.21987
# Shear Modulus (GPa) = 30.24652 38.36536 34.30594
#
# Velocity S-wave (km/s) = 3.36607 3.79101 3.58485
# Velocity P-wave (km/s) = 5.41260 6.29298 5.86932
#
# Compressibility (1/GPa) = 0.02640098
#
# Stress axis : x y z
#
# Youngs Moduli (GPa) = 72.53493 96.26965 95.20818
#
# Poissons Ratio (x) = 0.04914 0.26373
# Poissons Ratio (y) = 0.03702 0.08166
# Poissons Ratio (z) = 0.20093 0.08257
#
# Static dielectric constant tensor:
#      x y z
#    x 2.087470 -0.018130 -0.050460 
#    y -0.018130 2.030080 0.023110 
#    z -0.050460 0.023110 2.301850 
# 
# From -- ./inp_files/139075.got.cif
#   From: 2010.05.17/outbox.cif.g08.bks.cpg/sg2_70_cif.got.tgz:139075.got - 2010.06.03 11:33:40.
