data_PCOD9040104
_publ_section_title
;
Structure prediction by ZEFSAII (Michael W. Deem and Ramdas Pophale) SiO2 
 PCOD9040104
Probable space group: P -1
;
_chemical_formula_sum "Si O2"
_cell_formula_units_Z 16
_cell_length_a 8.583193
_cell_length_b 8.828348
_cell_length_c 18.513307
_cell_angle_alpha 74.199900
_cell_angle_beta 46.849273
_cell_angle_gamma 53.032319
_cell_volume 794.128943
_symmetry_space_group_name_H-M "P -1"
_symmetry_group_IT_number 2
_symmetry_cell_setting 'triclinic'
loop_
_space_group_symop_operation_xyz
x,y,z
-x,-y,-z
loop_
_atom_site_type_symbol
_atom_site_label
_atom_site_fract_x
_atom_site_fract_y
_atom_site_fract_z
Si Si1 0.214414 0.175737 0.097905
Si Si2 0.517220 0.160769 0.515051
Si Si3 0.791677 0.449459 0.911330
Si Si4 0.262530 0.605679 0.222843
Si Si5 0.767317 0.989697 0.604099
Si Si6 0.076745 0.010240 0.294831
Si Si7 0.979399 0.544781 0.585208
Si Si8 0.890559 0.371883 0.040653
O O1 0.218526 0.359314 0.093571
O O2 0.128969 0.116610 0.203345
O O3 0.018218 0.226370 0.086301
O O4 0.500000 0.000000 0.000000
O O5 0.263243 0.377784 0.550992
O O6 0.780139 0.134646 0.405398
O O7 0.500000 0.000000 0.500000
O O8 0.545776 0.109874 0.597743
O O9 0.869618 0.384355 0.812747
O O10 0.500000 0.500000 0.000000
O O11 0.952302 0.302413 0.946474
O O12 0.573742 0.505399 0.129019
O O13 0.223650 0.483197 0.307699
O O14 0.125455 0.820167 0.268882
O O15 0.722351 0.055583 0.692845
O O16 0.879806 0.764574 0.597799
O O17 0.000000 0.000000 0.500000
O O18 0.000000 0.500000 0.500000
O O19 0.000000 0.500000 0.000000
#
# Coordination Sequence:
#
# PCOD9040104 Si02
#       8
#     2   2   2   2   2   2   2   2
#     4  11  22  40  62  93 124 160 204 263 321 373
#     4  11  22  44  64  97 129 169 218 263 319 377
#     4   9  19  40  63  87 122 158 209 254 310 385
#     4  11  22  41  64  91 124 169 207 259 319 373
#     4  10  23  43  62  95 131 167 219 265 316 379
#     4  11  23  41  62  91 131 163 209 268 311 380
#     4  12  23  40  70  93 132 172 209 270 319 373
#     4   9  20  39  63  91 120 158 206 254 315 381
#
# _framework density 20.147862
#
# number of rings (size 3 to 8) (size 9 to 14) (size 15 to 20)
#    0.000    1.500    2.500    3.750    1.750    2.000 
#    9.000    5.625    0.000    0.000    0.000    0.000 
#    0.000    0.000    0.000    0.000    0.000    0.000 
#
# Total GULP energy -89295.775303 kJ/mol
# GULP energy per Si atom -5580.985956 kJ/mol
# Density = 2.010200 g / cm^3
# Si number density = 20.147862 Si / 1000 Ang^3
#
#
#
# Elastic Constant Matrix: (Units=GPa)
#
#
# Indices 1 2 3 4 5 6 
#
# 1 134.3572 45.8397 56.2789 -12.5901 37.2046 -14.8007
# 2 45.8397 99.6286 38.8644 -16.0668 11.9353 -1.6194
# 3 56.2789 38.8644 120.5216 -29.2739 14.2136 -5.9742
# 4 -12.5901 -16.0668 -29.2739 41.3723 -4.3658 -0.7114
# 5 37.2046 11.9353 14.2136 -4.3658 54.9091 -4.1011
# 6 -14.8007 -1.6194 -5.9742 -0.7114 -4.1011 45.4447
#
#
#
# Elastic Compliance Matrix: (Units=1/GPa)
#
#
# Indices 1 2 3 4 5 6 
#
# 1 0.012265 -0.003448 -0.003978 -0.001051 -0.006409 0.002754
# 2 -0.003448 0.012756 -0.001957 0.002527 0.000206 -0.000868
# 3 -0.003978 -0.001957 0.012420 0.006876 0.000484 0.000419
# 4 -0.001051 0.002527 0.006876 0.029807 0.000842 0.001194
# 5 -0.006409 0.000206 0.000484 0.000842 0.022453 0.000023
# 6 0.002754 -0.000868 0.000419 0.001194 0.000023 0.022947
#
#
# Mechanical properties :
#
#
# Convention : Reuss Voigt Hill
#
# Bulk Modulus (GPa) = 53.55000 70.71927 62.13464
# Shear Modulus (GPa) = 36.32699 42.58018 39.45359
#
# Velocity S-wave (km/s) = 4.25080 4.60214 4.42996
# Velocity P-wave (km/s) = 7.12240 7.96341 7.55462
#
# Compressibility (1/GPa) = 0.01867414
#
# Stress axis : x y z
#
# Youngs Moduli (GPa) = 81.52991 78.39550 80.51750
#
# Poissons Ratio (x) = 0.27034 0.32032
# Poissons Ratio (y) = 0.28114 0.15755
# Poissons Ratio (z) = 0.32435 0.15340
#
# Static dielectric constant tensor:
#      x y z
#    x 1.749820 -0.008880 0.022990 
#    y -0.008880 1.825840 0.030140 
#    z 0.022990 0.030140 1.747430 
# 
# From -- ./inp_files/216841.got.cif
#   From: 2010.05.17/outbox.cif.g08.bks.cpg/sg2_109_cif.got.tgz:216841.got - 2010.06.03 11:33:40.
