data_PCOD9040632
_publ_section_title
;
Structure prediction by ZEFSAII (Michael W. Deem and Ramdas Pophale) SiO2 
 PCOD9040632
Probable space group: P -1
;
_chemical_formula_sum "Si O2"
_cell_formula_units_Z 16
_cell_length_a 9.666827
_cell_length_b 18.507784
_cell_length_c 12.512429
_cell_angle_alpha 159.993230
_cell_angle_beta 115.873330
_cell_angle_gamma 60.073936
_cell_volume 659.810549
_symmetry_space_group_name_H-M "P -1"
_symmetry_group_IT_number 2
_symmetry_cell_setting 'triclinic'
loop_
_space_group_symop_operation_xyz
x,y,z
-x,-y,-z
loop_
_atom_site_type_symbol
_atom_site_label
_atom_site_fract_x
_atom_site_fract_y
_atom_site_fract_z
Si Si1 0.743011 0.641339 0.264744
Si Si2 0.207978 0.229589 0.130696
Si Si3 0.290045 0.789070 0.654527
Si Si4 0.638703 0.560071 0.344489
Si Si5 0.173177 0.438341 0.030795
Si Si6 0.478810 0.757841 0.861758
Si Si7 0.625652 0.085687 0.730199
Si Si8 0.959812 0.771979 0.146664
O O1 0.637572 0.660258 0.362941
O O2 0.752227 0.875622 0.541903
O O3 0.703328 0.553736 0.012982
O O4 0.894985 0.444348 0.078970
O O5 0.229764 0.386568 0.454676
O O6 0.378758 0.177148 0.055851
O O7 0.087897 0.277888 0.057912
O O8 0.192874 0.005466 0.862768
O O9 0.467223 0.683444 0.514627
O O10 0.194228 0.612046 0.365830
O O11 0.318816 0.860317 0.882671
O O12 0.673080 0.292297 0.980817
O O13 0.177324 0.225980 0.807725
O O14 0.000000 0.500000 0.000000
O O15 0.500000 0.500000 0.500000
O O16 0.473068 0.803439 0.045938
O O17 0.500000 0.000000 0.500000
O O18 0.000000 0.000000 0.500000
#
# Coordination Sequence:
#
# PCOD9040632 Si02
#       8
#     2   2   2   2   2   2   2   2
#     4  11  26  46  65 101 154 177 239 293 361 423
#     4  11  22  40  74 101 136 189 247 287 353 431
#     4  11  21  41  73 105 140 181 240 297 350 433
#     4  11  25  45  67 108 146 187 230 297 370 420
#     4  10  23  43  68 101 135 185 238 286 348 422
#     4  11  21  41  68 101 145 183 238 295 355 426
#     4  12  26  41  70 106 144 189 228 300 366 417
#     4  11  26  46  74  99 135 194 243 297 349 434
#
# _framework density 24.249385
#
# number of rings (size 3 to 8) (size 9 to 14) (size 15 to 20)
#    0.000    1.000    2.500    6.000    3.500    3.500 
#    0.000    0.625    0.000    0.000    0.000    0.000 
#    0.000    0.000    0.000    0.000    0.000    0.000 
#
# Total GULP energy -89159.677115 kJ/mol
# GULP energy per Si atom -5572.479820 kJ/mol
# Density = 2.419419 g / cm^3
# Si number density = 24.249385 Si / 1000 Ang^3
#
#
#
# Elastic Constant Matrix: (Units=GPa)
#
#
# Indices 1 2 3 4 5 6 
#
# 1 46.0997 33.7828 29.9604 -11.4976 10.3921 13.2899
# 2 33.7828 165.1108 68.2797 1.0549 9.6221 19.1321
# 3 29.9604 68.2797 143.8852 -4.8734 20.6188 0.7893
# 4 -11.4976 1.0549 -4.8734 58.2636 6.1286 -6.9926
# 5 10.3921 9.6221 20.6188 6.1286 34.0422 5.1755
# 6 13.2899 19.1321 0.7893 -6.9926 5.1755 49.1336
#
#
#
# Elastic Compliance Matrix: (Units=1/GPa)
#
#
# Indices 1 2 3 4 5 6 
#
# 1 0.031429 -0.004045 -0.003438 0.006050 -0.006651 -0.005309
# 2 -0.004045 0.008544 -0.003492 -0.001729 0.001641 -0.002596
# 3 -0.003438 -0.003492 0.010007 0.001041 -0.004632 0.002765
# 4 0.006050 -0.001729 0.001041 0.019377 -0.005841 0.002393
# 5 -0.006651 0.001641 -0.004632 -0.005841 0.035303 -0.003315
# 6 -0.005309 -0.002596 0.002765 0.002393 -0.003315 0.023445
#
#
# Mechanical properties :
#
#
# Convention : Reuss Voigt Hill
#
# Bulk Modulus (GPa) = 35.67413 68.79350 52.23382
# Shear Modulus (GPa) = 31.36788 43.15940 37.26364
#
# Velocity S-wave (km/s) = 3.60050 4.22336 3.92431
# Velocity P-wave (km/s) = 5.65934 7.22587 6.49004
#
# Compressibility (1/GPa) = 0.02803152
#
# Stress axis : x y z
#
# Youngs Moduli (GPa) = 31.81739 117.03567 99.93264
#
# Poissons Ratio (x) = 0.47339 0.34354
# Poissons Ratio (y) = 0.12870 0.34895
# Poissons Ratio (z) = 0.10938 0.40867
#
# Static dielectric constant tensor:
#      x y z
#    x 2.103210 0.031240 -0.134370 
#    y 0.031240 1.838680 0.229460 
#    z -0.134370 0.229460 1.867520 
# 
# From -- ./inp_files/437478.got.cif
#   From: 2010.05.17/outbox.cif.g08.bks.cpg/sg2_219_cif.got.tgz:437478.got - 2010.06.03 11:33:40.
