data_PCOD9040800
_publ_section_title
;
Structure prediction by ZEFSAII (Michael W. Deem and Ramdas Pophale) SiO2 
 PCOD9040800
Probable space group: P -1
;
_chemical_formula_sum "Si O2"
_cell_formula_units_Z 16
_cell_length_a 9.474473
_cell_length_b 9.465296
_cell_length_c 29.186534
_cell_angle_alpha 35.829837
_cell_angle_beta 36.467183
_cell_angle_gamma 64.034837
_cell_volume 717.658238
_symmetry_space_group_name_H-M "P -1"
_symmetry_group_IT_number 2
_symmetry_cell_setting 'triclinic'
loop_
_space_group_symop_operation_xyz
x,y,z
-x,-y,-z
loop_
_atom_site_type_symbol
_atom_site_label
_atom_site_fract_x
_atom_site_fract_y
_atom_site_fract_z
Si Si1 0.060195 0.253058 0.044451
Si Si2 0.303882 0.216455 0.425632
Si Si3 0.478603 0.452909 0.626853
Si Si4 0.994328 0.489234 0.439727
Si Si5 0.297272 0.230497 0.893497
Si Si6 0.072027 0.239434 0.148266
Si Si7 0.510931 0.911081 0.883522
Si Si8 0.618116 0.250467 0.510177
O O1 0.166681 0.249512 0.068518
O O2 0.767980 0.904216 0.206521
O O3 0.000000 0.500000 0.000000
O O4 0.249068 0.311258 0.934761
O O5 0.486676 0.353279 0.389385
O O6 0.489709 0.459491 0.272516
O O7 0.017465 0.213965 0.507953
O O8 0.260158 0.915444 0.502026
O O9 0.787086 0.500658 0.525875
O O10 0.406802 0.560541 0.571678
O O11 0.843053 0.452323 0.439541
O O12 0.328312 0.812946 0.267594
O O13 0.443261 0.054240 0.904538
O O14 0.000000 0.000000 0.000000
O O15 0.250157 0.151399 0.153922
O O16 0.205328 0.586007 0.034479
O O17 0.716245 0.003172 0.314119
#
# Coordination Sequence:
#
# PCOD9040800 Si02
#       8
#     2   2   2   2   2   2   2   2
#     4  12  25  41  69 101 130 180 239 275 336 412
#     4  11  25  42  68 101 138 177 229 282 342 404
#     4  12  24  43  71 100 136 182 227 280 343 412
#     4  11  23  44  68 101 139 180 222 284 342 404
#     4  11  22  43  67  93 137 183 223 282 339 402
#     4  11  23  43  71 101 137 178 231 281 335 413
#     4  10  23  43  69 100 137 180 224 280 347 398
#     4  12  23  45  72 102 137 182 225 279 346 412
#
# _framework density 22.294734999999999
#
# number of rings (size 3 to 8) (size 9 to 14) (size 15 to 20)
#    0.000    0.750    3.750    4.500    1.750    0.500 
#    0.000    0.000    0.000    0.000    0.000    0.000 
#    0.000    0.000    0.000    0.000    0.000    0.000 
#
# Total GULP energy -89468.092552 kJ/mol
# GULP energy per Si atom -5591.755784 kJ/mol
# Density = 2.224399 g / cm^3
# Si number density = 22.294735 Si / 1000 Ang^3
#
#
#
# Elastic Constant Matrix: (Units=GPa)
#
#
# Indices 1 2 3 4 5 6 
#
# 1 74.4746 16.4617 9.9432 -0.2933 11.1682 4.2969
# 2 16.4617 149.6333 29.2232 4.6534 16.7005 8.2432
# 3 9.9432 29.2232 66.0964 -5.8700 3.3310 1.8767
# 4 -0.2933 4.6534 -5.8700 34.5538 6.2023 3.9164
# 5 11.1682 16.7005 3.3310 6.2023 19.3646 4.1071
# 6 4.2969 8.2432 1.8767 3.9164 4.1071 43.9304
#
#
#
# Elastic Compliance Matrix: (Units=1/GPa)
#
#
# Indices 1 2 3 4 5 6 
#
# 1 0.015024 -0.000437 -0.001491 0.001512 -0.008372 -0.000676
# 2 -0.000437 0.008070 -0.003232 -0.000509 -0.005831 -0.000743
# 3 -0.001491 -0.003232 0.017111 0.003418 -0.000337 -0.000252
# 4 0.001512 -0.000509 0.003418 0.031764 -0.010766 -0.002024
# 5 -0.008372 -0.005831 -0.000337 -0.010766 0.065695 -0.003255
# 6 -0.000676 -0.000743 -0.000252 -0.002024 -0.003255 0.023464
#
#
# Mechanical properties :
#
#
# Convention : Reuss Voigt Hill
#
# Bulk Modulus (GPa) = 33.46433 44.60671 39.03552
# Shear Modulus (GPa) = 27.56187 35.20817 31.38502
#
# Velocity S-wave (km/s) = 3.51985 3.97824 3.75605
# Velocity P-wave (km/s) = 5.61798 6.41507 6.02971
#
# Compressibility (1/GPa) = 0.02988257
#
# Stress axis : x y z
#
# Youngs Moduli (GPa) = 66.56211 123.91687 58.44312
#
# Poissons Ratio (x) = 0.05414 0.08717
# Poissons Ratio (y) = 0.02908 0.18891
# Poissons Ratio (z) = 0.09927 0.40055
#
# Static dielectric constant tensor:
#      x y z
#    x 1.861260 -0.007810 -0.004910 
#    y -0.007810 1.841240 0.028290 
#    z -0.004910 0.028290 1.826600 
# 
# From -- ./inp_files/354415.got.cif
#   From: 2010.05.17/outbox.cif.g08.bks.cpg/sg2_178_cif.got.tgz:354415.got - 2010.06.03 11:33:40.
