data_PCOD9040615
_publ_section_title
;
Structure prediction by ZEFSAII (Michael W. Deem and Ramdas Pophale) SiO2 
 PCOD9040615
Probable space group: P -1
;
_chemical_formula_sum "Si O2"
_cell_formula_units_Z 12
_cell_length_a 8.883230
_cell_length_b 14.316150
_cell_length_c 10.875377
_cell_angle_alpha 151.686921
_cell_angle_beta 56.064042
_cell_angle_gamma 120.374106
_cell_volume 543.881660
_symmetry_space_group_name_H-M "P -1"
_symmetry_group_IT_number 2
_symmetry_cell_setting 'triclinic'
loop_
_space_group_symop_operation_xyz
x,y,z
-x,-y,-z
loop_
_atom_site_type_symbol
_atom_site_label
_atom_site_fract_x
_atom_site_fract_y
_atom_site_fract_z
Si Si1 0.442782 0.873469 0.177559
Si Si2 0.405603 0.427429 0.080667
Si Si3 0.643892 0.687900 0.650385
Si Si4 0.043780 0.776951 0.184393
Si Si5 0.990522 0.464367 0.315888
Si Si6 0.669739 0.725194 0.406205
O O1 0.246956 0.755215 0.118638
O O2 0.393704 0.100924 0.452811
O O3 0.555341 0.793203 0.148623
O O4 0.565230 0.831356 0.954028
O O5 0.202719 0.485673 0.219623
O O6 0.509811 0.559215 0.287431
O O7 0.500000 0.500000 0.000000
O O8 0.500000 0.500000 0.500000
O O9 0.674759 0.786679 0.617579
O O10 0.840469 0.612086 0.510517
O O11 0.868271 0.664393 0.196262
O O12 0.054167 0.726508 0.975047
O O13 0.000000 0.000000 0.500000
O O14 0.000000 0.500000 0.500000
#
# Coordination Sequence:
#
# PCOD9040615 Si02
#       6
#     2   2   2   2   2   2
#     4  11  24  45  68  98 135 181 230 278 335 410
#     4  12  25  42  67  98 139 180 219 280 350 405
#     4  12  22  42  72  96 134 180 229 279 335 407
#     4  10  23  43  68 100 132 178 234 279 327 405
#     4  12  23  42  69 100 137 177 225 280 346 400
#     4  11  24  44  68  98 134 183 229 279 334 406
#
# _framework density 22.063624999999998
#
# number of rings (size 3 to 8) (size 9 to 14) (size 15 to 20)
#    0.000    0.667    6.667    0.500    2.333    2.000 
#    0.000    0.833    0.000    0.000    0.000    0.000 
#    0.000    0.000    0.000    0.000    0.000    0.000 
#
# Total GULP energy -66833.986274 kJ/mol
# GULP energy per Si atom -5569.498856 kJ/mol
# Density = 2.201341 g / cm^3
# Si number density = 22.063625 Si / 1000 Ang^3
#
#
#
# Elastic Constant Matrix: (Units=GPa)
#
#
# Indices 1 2 3 4 5 6 
#
# 1 98.7533 27.3580 39.6216 -10.1723 -37.1382 8.1977
# 2 27.3580 74.1306 19.5554 -14.7812 -15.4039 -16.9692
# 3 39.6216 19.5554 99.9485 -18.0943 -18.8571 -4.6102
# 4 -10.1723 -14.7812 -18.0943 39.8851 0.9203 6.1208
# 5 -37.1382 -15.4039 -18.8571 0.9203 52.6161 -15.1288
# 6 8.1977 -16.9692 -4.6102 6.1208 -15.1288 42.8003
#
#
#
# Elastic Compliance Matrix: (Units=1/GPa)
#
#
# Indices 1 2 3 4 5 6 
#
# 1 0.016104 -0.003406 -0.004042 0.001142 0.008297 -0.002101
# 2 -0.003406 0.019090 0.000000 0.004591 0.005877 0.009642
# 3 -0.004042 0.000000 0.012974 0.004433 0.002406 0.002388
# 4 0.001142 0.004591 0.004433 0.029171 0.002924 -0.001059
# 5 0.008297 0.005877 0.002406 0.002924 0.030679 0.011426
# 6 -0.002101 0.009642 0.002388 -0.001059 0.011426 0.032037
#
#
# Mechanical properties :
#
#
# Convention : Reuss Voigt Hill
#
# Bulk Modulus (GPa) = 30.05602 49.54470 39.80036
# Shear Modulus (GPa) = 30.11279 39.48012 34.79646
#
# Velocity S-wave (km/s) = 3.69835 4.23469 3.97558
# Velocity P-wave (km/s) = 5.64704 6.81280 6.25713
#
# Compressibility (1/GPa) = 0.03327121
#
# Stress axis : x y z
#
# Youngs Moduli (GPa) = 62.09687 52.38225 77.07609
#
# Poissons Ratio (x) = 0.17841 0.31157
# Poissons Ratio (y) = 0.21150 0.00003
# Poissons Ratio (z) = 0.25102 0.00002
#
# Static dielectric constant tensor:
#      x y z
#    x 1.926910 0.000090 0.112870 
#    y 0.000090 1.825330 0.023320 
#    z 0.112870 0.023320 1.889990 
# 
# From -- ./inp_files/161180.got.cif
#   From: 2010.05.17/outbox.cif.g08.bks.cpg/sg2_81_cif.got.tgz:161180.got - 2010.06.03 11:33:40.
