data_PCOD9040619
_publ_section_title
;
Structure prediction by ZEFSAII (Michael W. Deem and Ramdas Pophale) SiO2 
 PCOD9040619
Probable space group: P -1
;
_chemical_formula_sum "Si O2"
_cell_formula_units_Z 12
_cell_length_a 5.183161
_cell_length_b 17.694716
_cell_length_c 5.023990
_cell_angle_alpha 110.620122
_cell_angle_beta 93.743589
_cell_angle_gamma 75.217473
_cell_volume 416.826411
_symmetry_space_group_name_H-M "P -1"
_symmetry_group_IT_number 2
_symmetry_cell_setting 'triclinic'
loop_
_space_group_symop_operation_xyz
x,y,z
-x,-y,-z
loop_
_atom_site_type_symbol
_atom_site_label
_atom_site_fract_x
_atom_site_fract_y
_atom_site_fract_z
Si Si1 0.059472 0.865747 0.993208
Si Si2 0.333235 0.623890 0.822713
Si Si3 0.984767 0.674254 0.344865
Si Si4 0.249901 0.449231 0.615649
Si Si5 0.607415 0.823605 0.211721
Si Si6 0.689329 0.035743 0.267289
O O1 0.328402 0.810115 0.071795
O O2 0.809768 0.827494 0.988502
O O3 0.170968 0.893889 0.760152
O O4 0.937841 0.956436 0.229816
O O5 0.388413 0.524146 0.766871
O O6 0.587252 0.623283 0.657289
O O7 0.102714 0.660626 0.632780
O O8 0.231399 0.663549 0.146046
O O9 0.847810 0.597000 0.203304
O O10 0.770626 0.757246 0.347482
O O11 0.000000 0.500000 0.500000
O O12 0.505700 0.913960 0.458678
O O13 0.500000 0.000000 0.000000
#
# Coordination Sequence:
#
# PCOD9040619 Si02
#       6
#     2   2   2   2   2   2
#     4  11  26  45  69 101 135 182 236 289 353 426
#     4  10  23  43  68 100 135 183 234 285 343 421
#     4  11  26  42  67 100 143 181 227 289 357 417
#     4   9  21  43  71  99 134 181 236 282 343 417
#     4  12  28  43  69 102 144 183 230 295 363 419
#     4  11  25  45  75 100 134 183 243 292 350 423
#
# _framework density 28.788962999999999
#
# number of rings (size 3 to 8) (size 9 to 14) (size 15 to 20)
#    0.000    1.333    1.667    1.500    9.333   10.000 
#    0.000    0.000    0.000    0.000    0.000    0.000 
#    0.000    0.000    0.000    0.000    0.000    0.000 
#
# Total GULP energy -67150.327688 kJ/mol
# GULP energy per Si atom -5595.860641 kJ/mol
# Density = 2.872344 g / cm^3
# Si number density = 28.788963 Si / 1000 Ang^3
#
#
#
# Elastic Constant Matrix: (Units=GPa)
#
#
# Indices 1 2 3 4 5 6 
#
# 1 161.9257 38.0298 37.1759 -5.7259 -43.5648 -12.7452
# 2 38.0298 179.0901 44.6001 -5.6511 -21.7768 -19.4882
# 3 37.1759 44.6001 110.6239 -5.5044 -16.9304 -8.1053
# 4 -5.7259 -5.6511 -5.5044 48.5142 -4.7718 -12.5594
# 5 -43.5648 -21.7768 -16.9304 -4.7718 39.8604 -0.9098
# 6 -12.7452 -19.4882 -8.1053 -12.5594 -0.9098 56.7862
#
#
#
# Elastic Compliance Matrix: (Units=1/GPa)
#
#
# Indices 1 2 3 4 5 6 
#
# 1 0.009546 -0.000089 -0.001278 0.002672 0.010223 0.002684
# 2 -0.000089 0.006768 -0.001994 0.001464 0.002983 0.002390
# 3 -0.001278 -0.001994 0.010747 0.001286 0.002253 0.000883
# 4 0.002672 0.001464 0.001286 0.023676 0.007252 0.006638
# 5 0.010223 0.002983 0.002253 0.007252 0.039849 0.005882
# 6 0.002684 0.002390 0.000883 0.006638 0.005882 0.020721
#
#
# Mechanical properties :
#
#
# Convention : Reuss Voigt Hill
#
# Bulk Modulus (GPa) = 49.16952 76.80570 62.98761
# Shear Modulus (GPa) = 40.06105 51.15441 45.60773
#
# Velocity S-wave (km/s) = 3.73438 4.21987 3.98453
# Velocity P-wave (km/s) = 5.97583 7.10492 6.56469
#
# Compressibility (1/GPa) = 0.02033780
#
# Stress axis : x y z
#
# Youngs Moduli (GPa) = 104.75408 147.74710 93.05283
#
# Poissons Ratio (x) = 0.01322 0.11891
# Poissons Ratio (y) = 0.00937 0.18558
# Poissons Ratio (z) = 0.13386 0.29466
#
# Static dielectric constant tensor:
#      x y z
#    x 2.329340 0.113810 0.140390 
#    y 0.113810 2.249250 0.054190 
#    z 0.140390 0.054190 2.248350 
# 
# From -- ./inp_files/5101.got.cif
#   From: 2010.05.17/outbox.cif.g08.bks.cpg/sg2_3_cif.got.tgz:5101.got - 2010.06.03 11:33:40.
