data_PCOD9040649
_publ_section_title
;
Structure prediction by ZEFSAII (Michael W. Deem and Ramdas Pophale) SiO2 
 PCOD9040649
Probable space group: P -1
;
_chemical_formula_sum "Si O2"
_cell_formula_units_Z 14
_cell_length_a 17.793626
_cell_length_b 12.462112
_cell_length_c 8.788737
_cell_angle_alpha 131.626565
_cell_angle_beta 38.040273
_cell_angle_gamma 149.958888
_cell_volume 600.238483
_symmetry_space_group_name_H-M "P -1"
_symmetry_group_IT_number 2
_symmetry_cell_setting 'triclinic'
loop_
_space_group_symop_operation_xyz
x,y,z
-x,-y,-z
loop_
_atom_site_type_symbol
_atom_site_label
_atom_site_fract_x
_atom_site_fract_y
_atom_site_fract_z
Si Si1 0.862827 0.200720 0.600968
Si Si2 0.022511 0.008901 0.652078
Si Si3 0.627066 0.685383 0.096670
Si Si4 0.476384 0.839209 0.037699
Si Si5 0.862533 0.294688 0.378571
Si Si6 0.678120 0.577257 0.230672
Si Si7 0.392657 0.053741 0.744751
O O1 0.901461 0.209940 0.366387
O O2 0.989296 0.453187 0.654870
O O3 0.929523 0.113790 0.493869
O O4 0.654509 0.045339 0.848817
O O5 0.165136 0.235198 0.727716
O O6 0.000000 0.000000 0.500000
O O7 0.823492 0.879270 0.897255
O O8 0.678671 0.640328 0.119008
O O9 0.547012 0.776769 0.318510
O O10 0.500000 0.500000 0.000000
O O11 0.368651 0.630484 0.909888
O O12 0.312960 0.787392 0.330051
O O13 0.572484 0.861353 0.060267
O O14 0.808107 0.173909 0.194664
O O15 0.500000 0.500000 0.500000
O O16 0.500000 0.000000 0.500000
#
# Coordination Sequence:
#
# PCOD9040649 Si02
#       7
#     2   2   2   2   2   2   2
#     4  11  23  44  69 101 143 183 242 292 352 433
#     4  12  26  45  71 107 140 186 245 301 361 432
#     4  12  24  44  75 104 141 190 235 302 363 428
#     4  11  22  44  69 103 142 185 237 291 357 429
#     4  10  24  44  70  99 143 191 234 290 360 430
#     4  12  24  44  70 103 143 188 236 298 361 421
#     4  10  23  43  68 102 141 185 235 288 360 429
#
# _framework density 23.324061
#
# number of rings (size 3 to 8) (size 9 to 14) (size 15 to 20)
#    0.000    0.857    2.857    4.286    2.000    2.857 
#    0.000    0.000    0.000    0.000    0.000    0.000 
#    0.000    0.000    0.000    0.000    0.000    0.000 
#
# Total GULP energy -78011.413160 kJ/mol
# GULP energy per Si atom -5572.243797 kJ/mol
# Density = 2.327097 g / cm^3
# Si number density = 23.324061 Si / 1000 Ang^3
#
#
#
# Elastic Constant Matrix: (Units=GPa)
#
#
# Indices 1 2 3 4 5 6 
#
# 1 128.5739 91.4344 23.0478 5.5042 12.3742 21.5225
# 2 91.4344 177.6179 51.7432 -0.8635 14.1748 20.1628
# 3 23.0478 51.7432 73.7654 -3.7671 -4.5036 1.4654
# 4 5.5042 -0.8635 -3.7671 34.3092 -0.3087 3.8661
# 5 12.3742 14.1748 -4.5036 -0.3087 44.6295 13.1761
# 6 21.5225 20.1628 1.4654 3.8661 13.1761 53.2337
#
#
#
# Elastic Compliance Matrix: (Units=1/GPa)
#
#
# Indices 1 2 3 4 5 6 
#
# 1 0.012807 -0.006370 0.000370 -0.001906 -0.000782 -0.002443
# 2 -0.006370 0.010827 -0.005667 0.000760 -0.001962 -0.000939
# 3 0.000370 -0.005667 0.017695 0.001708 0.003329 0.000562
# 4 -0.001906 0.000760 0.001708 0.029902 0.001272 -0.002051
# 5 -0.000782 -0.001962 0.003329 0.001272 0.025172 -0.005355
# 6 -0.002443 -0.000939 0.000562 -0.002051 -0.005355 0.021588
#
#
# Mechanical properties :
#
#
# Convention : Reuss Voigt Hill
#
# Bulk Modulus (GPa) = 55.56752 79.15644 67.36198
# Shear Modulus (GPa) = 33.93908 40.68326 37.31117
#
# Velocity S-wave (km/s) = 3.81873 4.18097 4.00395
# Velocity P-wave (km/s) = 6.58175 7.57091 7.09359
#
# Compressibility (1/GPa) = 0.01799612
#
# Stress axis : x y z
#
# Youngs Moduli (GPa) = 78.08013 92.36144 56.51346
#
# Poissons Ratio (x) = 0.58838 -0.02093
# Poissons Ratio (y) = 0.49740 0.32024
# Poissons Ratio (z) = -0.02892 0.52337
#
# Static dielectric constant tensor:
#      x y z
#    x 2.032830 0.018620 -0.097170 
#    y 0.018620 1.932060 0.033010 
#    z -0.097170 0.033010 1.866610 
# 
# From -- ./inp_files/333684.got.cif
#   From: 2010.05.17/outbox.cif.g08.bks.cpg/sg2_167_cif.got.tgz:333684.got - 2010.06.03 11:33:40.
