data_PCOD9040699
_publ_section_title
;
Structure prediction by ZEFSAII (Michael W. Deem and Ramdas Pophale) SiO2 
 PCOD9040699
Probable space group: P -1
;
_chemical_formula_sum "Si O2"
_cell_formula_units_Z 14
_cell_length_a 6.979150
_cell_length_b 22.842506
_cell_length_c 9.376615
_cell_angle_alpha 37.747822
_cell_angle_beta 130.845510
_cell_angle_gamma 120.178269
_cell_volume 691.926743
_symmetry_space_group_name_H-M "P -1"
_symmetry_group_IT_number 2
_symmetry_cell_setting 'triclinic'
loop_
_space_group_symop_operation_xyz
x,y,z
-x,-y,-z
loop_
_atom_site_type_symbol
_atom_site_label
_atom_site_fract_x
_atom_site_fract_y
_atom_site_fract_z
Si Si1 0.142990 0.451677 0.796177
Si Si2 0.949879 0.225688 0.481960
Si Si3 0.460251 0.760755 0.324762
Si Si4 0.178603 0.054737 0.588938
Si Si5 0.892749 0.248590 0.100724
Si Si6 0.699270 0.391733 0.228763
Si Si7 0.263711 0.926408 0.126487
O O1 0.141204 0.522382 0.795245
O O2 0.000000 0.500000 0.500000
O O3 0.014144 0.351937 0.957837
O O4 0.442387 0.431131 0.952625
O O5 0.854708 0.317581 0.349289
O O6 0.902857 0.132034 0.733504
O O7 0.242929 0.233434 0.569833
O O8 0.800139 0.226512 0.257704
O O9 0.395943 0.668013 0.565276
O O10 0.358432 0.850271 0.197554
O O11 0.316392 0.757791 0.110585
O O12 0.105146 0.166318 0.329159
O O13 0.478810 0.040701 0.736331
O O14 0.000000 0.000000 0.500000
O O15 0.136840 0.012509 0.808781
#
# Coordination Sequence:
#
# PCOD9040699 Si02
#       7
#     2   2   2   2   2   2   2
#     4  11  22  42  71  94 128 173 222 261 322 389
#     4  11  24  43  65  99 136 163 216 268 320 389
#     4  11  21  43  66  94 132 173 211 259 326 386
#     4  11  22  42  71  94 128 173 222 261 322 389
#     4  12  23  40  65  97 132 170 217 273 320 381
#     4  10  23  43  68  93 130 177 208 267 327 377
#     4  10  23  43  68  93 130 177 208 267 327 377
#
# _framework density 20.233357000000002
#
# number of rings (size 3 to 8) (size 9 to 14) (size 15 to 20)
#    0.000    1.143    5.714    0.857    0.000    3.429 
#    0.000    2.857    0.000    0.000    0.000    0.000 
#    0.000    0.000    0.000    0.000    0.000    0.000 
#
# Total GULP energy -78267.443870 kJ/mol
# GULP energy per Si atom -5590.531705 kJ/mol
# Density = 2.018731 g / cm^3
# Si number density = 20.233357 Si / 1000 Ang^3
#
#
#
# Elastic Constant Matrix: (Units=GPa)
#
#
# Indices 1 2 3 4 5 6 
#
# 1 82.4902 24.8070 29.1685 9.3807 -13.1545 -4.1784
# 2 24.8070 99.8568 43.0938 16.3901 -11.4068 14.8854
# 3 29.1685 43.0938 140.4690 13.5780 -13.3703 5.8611
# 4 9.3807 16.3901 13.5780 47.9943 3.1456 -5.2942
# 5 -13.1545 -11.4068 -13.3703 3.1456 19.7118 -2.5448
# 6 -4.1784 14.8854 5.8611 -5.2942 -2.5448 12.8600
#
#
#
# Elastic Compliance Matrix: (Units=1/GPa)
#
#
# Indices 1 2 3 4 5 6 
#
# 1 0.016002 -0.003923 -0.001723 -0.000553 0.008884 0.012057
# 2 -0.003923 0.016856 -0.002413 -0.006961 0.003796 -0.021800
# 3 -0.001723 -0.002413 0.008792 -0.001753 0.003463 -0.001810
# 4 -0.000553 -0.006961 -0.001753 0.026294 -0.007455 0.018026
# 5 0.008884 0.003796 0.003463 -0.007455 0.063215 0.006355
# 6 0.012057 -0.021800 -0.001810 0.018026 0.006355 0.116416
#
#
# Mechanical properties :
#
#
# Convention : Reuss Voigt Hill
#
# Bulk Modulus (GPa) = 39.16768 57.43941 48.30354
# Shear Modulus (GPa) = 18.36857 31.16300 24.76578
#
# Velocity S-wave (km/s) = 3.01630 3.92877 3.50238
# Velocity P-wave (km/s) = 5.61523 7.00217 6.34670
#
# Compressibility (1/GPa) = 0.02553126
#
# Stress axis : x y z
#
# Youngs Moduli (GPa) = 62.49152 59.32586 113.74395
#
# Poissons Ratio (x) = 0.23275 0.19601
# Poissons Ratio (y) = 0.24517 0.27444
# Poissons Ratio (z) = 0.10769 0.14314
#
# Static dielectric constant tensor:
#      x y z
#    x 1.695860 -0.016490 -0.003270 
#    y -0.016490 1.727560 -0.018750 
#    z -0.003270 -0.018750 1.741150 
# 
# From -- ./inp_files/123045.got.cif
#   From: 2010.05.17/outbox.cif.g08.bks.cpg/sg2_62_cif.got.tgz:123045.got - 2010.06.03 11:33:40.
