data_PCOD9040002
_publ_section_title
;
Structure prediction by ZEFSAII (Michael W. Deem and Ramdas Pophale) SiO2 
 PCOD9040002
Probable space group: P -1
;
_chemical_formula_sum "Si O2"
_cell_formula_units_Z 16
_cell_length_a 21.395041
_cell_length_b 19.144711
_cell_length_c 5.822483
_cell_angle_alpha 65.486523
_cell_angle_beta 64.048274
_cell_angle_gamma 18.542223
_cell_volume 681.930976
_symmetry_space_group_name_H-M "P -1"
_symmetry_group_IT_number 2
_symmetry_cell_setting 'triclinic'
loop_
_space_group_symop_operation_xyz
x,y,z
-x,-y,-z
loop_
_atom_site_type_symbol
_atom_site_label
_atom_site_fract_x
_atom_site_fract_y
_atom_site_fract_z
Si Si1 0.883232 0.909279 0.763017
Si Si2 0.528632 0.906996 0.273739
Si Si3 0.267681 0.721015 0.034995
Si Si4 0.253159 0.566172 0.341978
Si Si5 0.799268 0.666780 0.528990
Si Si6 0.188020 0.519482 0.118647
Si Si7 0.547457 0.182478 0.671451
Si Si8 0.722337 0.236342 0.538360
O O1 0.078734 0.746227 0.563750
O O2 0.764681 0.973904 0.701994
O O3 0.731943 0.136446 0.726413
O O4 0.978054 0.764712 0.018197
O O5 0.747658 0.693117 0.318272
O O6 0.477908 0.874214 0.324509
O O7 0.366586 0.098668 0.462123
O O8 0.500000 0.000000 0.000000
O O9 0.246803 0.652648 0.104228
O O10 0.190272 0.816239 0.293314
O O11 0.500000 0.500000 0.000000
O O12 0.195090 0.838974 0.756810
O O13 0.205974 0.539286 0.309514
O O14 0.470071 0.328781 0.426240
O O15 0.790445 0.594357 0.772387
O O16 0.000000 0.500000 0.500000
O O17 0.380198 0.354141 0.904172
O O18 0.500000 0.500000 0.500000
#
# Coordination Sequence:
#
# PCOD9040002 Si02
#       8
#     2   2   2   2   2   2   2   2
#     4  11  28  43  73 103 137 189 238 295 372 431
#     4  11  24  44  68 101 134 185 238 283 353 430
#     4  10  23  42  73  99 142 190 241 299 372 433
#     4  11  26  46  69 103 146 182 239 298 359 444
#     4  11  26  44  69 102 143 184 235 296 356 428
#     4  11  26  45  66 105 141 183 235 296 361 435
#     4  11  24  46  70  98 143 185 236 295 360 432
#     4  10  23  45  70 106 138 190 250 296 371 441
#
# _framework density 23.462785
#
# number of rings (size 3 to 8) (size 9 to 14) (size 15 to 20)
#    0.000    1.250    2.500    1.500   12.250    2.500 
#    0.000    0.000    0.000    0.000    0.000    0.000 
#    0.000    0.000    0.000    0.000    0.000    0.000 
#
# Total GULP energy -89287.771016 kJ/mol
# GULP energy per Si atom -5580.485688 kJ/mol
# Density = 2.340938 g / cm^3
# Si number density = 23.462785 Si / 1000 Ang^3
#
#
#
# Elastic Constant Matrix: (Units=GPa)
#
#
# Indices 1 2 3 4 5 6 
#
# 1 100.4260 19.2273 10.5180 -8.6390 4.9557 -9.6106
# 2 19.2273 68.7892 10.8325 -20.6424 9.8863 -7.2131
# 3 10.5180 10.8325 80.5857 -24.0989 10.5708 -2.5523
# 4 -8.6390 -20.6424 -24.0989 35.3335 0.0526 8.0208
# 5 4.9557 9.8863 10.5708 0.0526 36.1149 -8.8858
# 6 -9.6106 -7.2131 -2.5523 8.0208 -8.8858 50.1671
#
#
#
# Elastic Compliance Matrix: (Units=1/GPa)
#
#
# Indices 1 2 3 4 5 6 
#
# 1 0.010728 -0.002654 -0.000970 0.000047 -0.000067 0.001605
# 2 -0.002654 0.019390 0.002148 0.012287 -0.005736 -0.000592
# 3 -0.000970 0.002148 0.016846 0.013004 -0.005934 -0.002150
# 4 0.000047 0.012287 0.013004 0.045840 -0.008832 -0.006456
# 5 -0.000067 -0.005736 -0.005934 -0.008832 0.032502 0.006029
# 6 0.001605 -0.000592 -0.002150 -0.006456 0.006029 0.022147
#
#
# Mechanical properties :
#
#
# Convention : Reuss Voigt Hill
#
# Bulk Modulus (GPa) = 22.72066 36.77296 29.74681
# Shear Modulus (GPa) = 30.28922 38.27132 34.28027
#
# Velocity S-wave (km/s) = 3.59687 4.04313 3.82651
# Velocity P-wave (km/s) = 5.19179 6.12395 5.67704
#
# Compressibility (1/GPa) = 0.04401281
#
# Stress axis : x y z
#
# Youngs Moduli (GPa) = 93.21232 51.57258 59.36064
#
# Poissons Ratio (x) = 0.13687 0.05757
# Poissons Ratio (y) = 0.24738 -0.12751
# Poissons Ratio (z) = 0.09040 -0.11078
#
# Static dielectric constant tensor:
#      x y z
#    x 1.886440 -0.002670 0.059760 
#    y -0.002670 1.937350 0.056170 
#    z 0.059760 0.056170 1.988310 
# 
# From -- ./inp_files/120005.got.cif
#   From: 2010.05.17/outbox.cif.g08.bks.cpg/sg2_61_cif.got.tgz:120005.got - 2010.06.03 11:33:40.
