data_PCOD9040664
_publ_section_title
;
Structure prediction by ZEFSAII (Michael W. Deem and Ramdas Pophale) SiO2 
 PCOD9040664
Probable space group: P -1
;
_chemical_formula_sum "Si O2"
_cell_formula_units_Z 15
_cell_length_a 18.289947
_cell_length_b 5.155821
_cell_length_c 16.596812
_cell_angle_alpha 60.972553
_cell_angle_beta 25.307989
_cell_angle_gamma 63.981042
_cell_volume 585.003693
_symmetry_space_group_name_H-M "P -1"
_symmetry_group_IT_number 2
_symmetry_cell_setting 'triclinic'
loop_
_space_group_symop_operation_xyz
x,y,z
-x,-y,-z
loop_
_atom_site_type_symbol
_atom_site_label
_atom_site_fract_x
_atom_site_fract_y
_atom_site_fract_z
Si Si1 0.500000 0.000000 0.500000
Si Si2 0.476216 0.402658 0.719335
Si Si3 0.323784 0.198849 0.240933
Si Si4 0.834599 0.194710 0.654399
Si Si5 0.863434 0.295989 0.327131
Si Si6 0.576349 0.455011 0.067823
Si Si7 0.879090 0.972838 0.201092
Si Si8 0.824857 0.011881 0.870373
O O1 0.452995 0.684384 0.642159
O O2 0.684894 0.005318 0.360921
O O3 0.658717 0.259100 0.535824
O O4 0.489996 0.491645 0.785638
O O5 0.304488 0.201952 0.919891
O O6 0.181645 0.453575 0.365096
O O7 0.454961 0.213145 0.181139
O O8 0.267538 0.878164 0.314837
O O9 0.411864 0.316382 0.052614
O O10 0.777609 0.041881 0.818395
O O11 0.000000 0.000000 0.500000
O O12 0.898937 0.635601 0.263933
O O13 0.981177 0.084825 0.296254
O O14 0.920730 0.210205 0.192614
O O15 0.770534 0.337265 0.905400
O O16 0.000000 0.000000 0.000000
#
# Coordination Sequence:
#
# PCOD9040664 Si02
#       8
#     1   2   2   2   2   2   2   2
#     4  10  26  46  74 104 140 186 250 290 364 440
#     4  11  25  48  71 105 145 195 240 310 365 436
#     4  10  23  43  68 103 141 192 247 293 362 436
#     4  11  24  43  67 107 147 192 241 303 361 434
#     4  11  28  43  72 109 139 181 248 290 363 437
#     4  10  24  42  73 100 143 193 245 295 371 428
#     4  11  25  48  72 104 139 187 231 308 364 425
#     4  11  26  44  74 105 148 195 240 302 372 436
#
# _framework density 25.640865000000002
#
# number of rings (size 3 to 8) (size 9 to 14) (size 15 to 20)
#    0.000    1.333    1.333    1.600   11.200    3.733 
#    0.000    0.000    0.000    0.000    0.000    0.000 
#    0.000    0.000    0.000    0.000    0.000    0.000 
#
# Total GULP energy -83600.397476 kJ/mol
# GULP energy per Si atom -5573.359832 kJ/mol
# Density = 2.558250 g / cm^3
# Si number density = 25.640865 Si / 1000 Ang^3
#
#
#
# Elastic Constant Matrix: (Units=GPa)
#
#
# Indices 1 2 3 4 5 6 
#
# 1 85.6950 40.6554 -7.9591 28.7988 4.8626 -7.3168
# 2 40.6554 127.4140 39.0823 13.1325 8.3678 -25.3121
# 3 -7.9591 39.0823 85.2467 15.7648 22.6143 -4.8770
# 4 28.7988 13.1325 15.7648 55.6767 -1.4508 5.0682
# 5 4.8626 8.3678 22.6143 -1.4508 26.2392 5.4803
# 6 -7.3168 -25.3121 -4.8770 5.0682 5.4803 48.3177
#
#
#
# Elastic Compliance Matrix: (Units=1/GPa)
#
#
# Indices 1 2 3 4 5 6 
#
# 1 0.022032 -0.007703 0.011819 -0.013584 -0.013280 0.003425
# 2 -0.007703 0.013041 -0.007867 0.002840 0.003329 0.004196
# 3 0.011819 -0.007867 0.024978 -0.012292 -0.022736 0.004058
# 4 -0.013584 0.002840 -0.012292 0.028789 0.015165 -0.006550
# 5 -0.013280 0.003329 -0.022736 0.015165 0.062287 -0.011217
# 6 0.003425 0.004196 0.004058 -0.006550 -0.011217 0.025782
#
#
# Mechanical properties :
#
#
# Convention : Reuss Voigt Hill
#
# Bulk Modulus (GPa) = 19.02900 49.10144 34.06522
# Shear Modulus (GPa) = 24.76152 41.15186 32.95669
#
# Velocity S-wave (km/s) = 3.11095 4.01051 3.58902
# Velocity P-wave (km/s) = 4.51015 6.37470 5.52170
#
# Compressibility (1/GPa) = 0.05255136
#
# Stress axis : x y z
#
# Youngs Moduli (GPa) = 45.38754 76.67883 40.03603
#
# Poissons Ratio (x) = 0.59065 -0.47320
# Poissons Ratio (y) = 0.34962 0.31494
# Poissons Ratio (z) = -0.53646 0.60320
#
# Static dielectric constant tensor:
#      x y z
#    x 1.987840 0.030770 -0.073660 
#    y 0.030770 2.201590 0.033940 
#    z -0.073660 0.033940 2.115420 
# 
# From -- ./inp_files/536145.got.cif
#   From: 2010.05.17/outbox.cif.g08.bks.cpg/sg2_269_cif.got.tgz:536145.got - 2010.06.03 11:33:40.
