data_PCOD9040361
_publ_section_title
;
Structure prediction by ZEFSAII (Michael W. Deem and Ramdas Pophale) SiO2 
 PCOD9040361
Probable space group: P -1
;
_chemical_formula_sum "Si O2"
_cell_formula_units_Z 16
_cell_length_a 17.632022
_cell_length_b 9.190026
_cell_length_c 5.466208
_cell_angle_alpha 68.606453
_cell_angle_beta 91.822244
_cell_angle_gamma 128.297579
_cell_volume 623.940642
_symmetry_space_group_name_H-M "P -1"
_symmetry_group_IT_number 2
_symmetry_cell_setting 'triclinic'
loop_
_space_group_symop_operation_xyz
x,y,z
-x,-y,-z
loop_
_atom_site_type_symbol
_atom_site_label
_atom_site_fract_x
_atom_site_fract_y
_atom_site_fract_z
Si Si1 0.934455 0.786809 0.772299
Si Si2 0.625676 0.356955 0.353188
Si Si3 0.385322 0.354307 0.132650
Si Si4 0.889674 0.083853 0.051100
Si Si5 0.573851 0.010489 0.193943
Si Si6 0.915368 0.441066 0.711463
Si Si7 0.752691 0.650902 0.577403
Si Si8 0.729912 0.056877 0.819451
O O1 0.939807 0.635327 0.713865
O O2 0.818557 0.678312 0.798982
O O3 0.996933 0.830718 0.999727
O O4 0.000000 0.000000 0.500000
O O5 0.625594 0.213017 0.246731
O O6 0.708009 0.457950 0.515389
O O7 0.511146 0.197786 0.537756
O O8 0.646993 0.556073 0.120954
O O9 0.346175 0.383108 0.352287
O O10 0.343733 0.122398 0.265355
O O11 0.500000 0.500000 0.000000
O O12 0.828440 0.876595 0.325644
O O13 0.899894 0.280839 0.009686
O O14 0.811374 0.020164 0.867992
O O15 0.500000 0.000000 0.000000
O O16 0.657085 0.017261 0.057106
O O17 0.000000 0.500000 0.500000
O O18 0.810427 0.299628 0.641232
#
# Coordination Sequence:
#
# PCOD9040361 Si02
#       8
#     2   2   2   2   2   2   2   2
#     4  10  23  44  67  98 137 188 230 298 350 423
#     4  11  24  44  70 101 141 189 228 294 356 418
#     4  12  26  43  73 104 137 188 239 295 352 429
#     4   9  22  43  71  96 141 184 238 290 358 417
#     4  11  25  46  67 104 150 181 237 288 356 437
#     4  10  23  43  66 102 138 183 243 291 356 427
#     4  11  24  46  71 105 146 180 245 290 364 427
#     4  10  24  44  68 103 140 184 236 293 360 413
#
# _framework density 25.643464999999999
#
# number of rings (size 3 to 8) (size 9 to 14) (size 15 to 20)
#    0.750    0.750    1.250    2.625    8.750    1.000 
#    4.500    1.875    0.000    0.000    0.000    0.000 
#    0.000    0.000    0.000    0.000    0.000    0.000 
#
# Total GULP energy -89102.458261 kJ/mol
# GULP energy per Si atom -5568.903641 kJ/mol
# Density = 2.558510 g / cm^3
# Si number density = 25.643465 Si / 1000 Ang^3
#
#
#
# Elastic Constant Matrix: (Units=GPa)
#
#
# Indices 1 2 3 4 5 6 
#
# 1 146.0749 81.3378 28.1623 19.9488 -4.3392 13.9473
# 2 81.3378 172.0481 40.3676 -11.9024 -7.7691 -10.6882
# 3 28.1623 40.3676 32.2649 1.6906 -13.1757 4.0436
# 4 19.9488 -11.9024 1.6906 29.2528 -5.5567 -1.1713
# 5 -4.3392 -7.7691 -13.1757 -5.5567 25.2115 11.6074
# 6 13.9473 -10.6882 4.0436 -1.1713 11.6074 44.0761
#
#
#
# Elastic Compliance Matrix: (Units=1/GPa)
#
#
# Indices 1 2 3 4 5 6 
#
# 1 0.013421 -0.007250 -0.001517 -0.012384 -0.000676 -0.006017
# 2 -0.007250 0.013898 -0.015667 0.010528 -0.007090 0.009249
# 3 -0.001517 -0.015667 0.071547 -0.002454 0.041356 -0.020839
# 4 -0.012384 0.010528 -0.002454 0.048785 0.007855 0.005925
# 5 -0.000676 -0.007090 0.041356 0.007855 0.071751 -0.023986
# 6 -0.006017 0.009249 -0.020839 0.005925 -0.023986 0.035221
#
#
# Mechanical properties :
#
#
# Convention : Reuss Voigt Hill
#
# Bulk Modulus (GPa) = 20.00047 72.23593 46.11820
# Shear Modulus (GPa) = 15.61740 33.07609 24.34675
#
# Velocity S-wave (km/s) = 2.47051 3.59534 3.08463
# Velocity P-wave (km/s) = 3.99428 6.74283 5.54166
#
# Compressibility (1/GPa) = 0.04999881
#
# Stress axis : x y z
#
# Youngs Moduli (GPa) = 74.51107 71.95033 13.97687
#
# Poissons Ratio (x) = 0.52164 0.02120
# Poissons Ratio (y) = 0.54021 0.21897
# Poissons Ratio (z) = 0.11302 1.12723
#
# Static dielectric constant tensor:
#      x y z
#    x 2.024560 0.093610 0.118190 
#    y 0.093610 2.045910 0.062990 
#    z 0.118190 0.062990 2.153980 
# 
# From -- ./inp_files/106725.got.cif
#   From: 2010.05.17/outbox.cif.g08.bks.cpg/sg2_54_cif.got.tgz:106725.got - 2010.06.03 11:33:40.
