data_PCOD9040281
_publ_section_title
;
Structure prediction by ZEFSAII (Michael W. Deem and Ramdas Pophale) SiO2 
 PCOD9040281
Probable space group: P -1
;
_chemical_formula_sum "Si O2"
_cell_formula_units_Z 14
_cell_length_a 8.596243
_cell_length_b 23.417914
_cell_length_c 8.172375
_cell_angle_alpha 149.753569
_cell_angle_beta 124.376187
_cell_angle_gamma 43.357827
_cell_volume 559.276466
_symmetry_space_group_name_H-M "P -1"
_symmetry_group_IT_number 2
_symmetry_cell_setting 'triclinic'
loop_
_space_group_symop_operation_xyz
x,y,z
-x,-y,-z
loop_
_atom_site_type_symbol
_atom_site_label
_atom_site_fract_x
_atom_site_fract_y
_atom_site_fract_z
Si Si1 0.597247 0.813693 0.982856
Si Si2 0.341441 0.979107 0.965254
Si Si3 0.263562 0.345375 0.033309
Si Si4 0.082526 0.639764 0.685890
Si Si5 0.598896 0.288101 0.804271
Si Si6 0.867993 0.151613 0.206491
Si Si7 0.182441 0.588008 0.231901
O O1 0.447940 0.960023 0.163074
O O2 0.722717 0.764987 0.109867
O O3 0.386004 0.801739 0.871659
O O4 0.809986 0.718812 0.749661
O O5 0.361470 0.838063 0.590135
O O6 0.500000 0.000000 0.000000
O O7 0.076985 0.102059 0.081533
O O8 0.212522 0.480980 0.432812
O O9 0.480312 0.285936 0.896682
O O10 0.041454 0.403925 0.933379
O O11 0.159528 0.620583 0.494126
O O12 0.177292 0.716966 0.027540
O O13 0.412051 0.434731 0.972644
O O14 0.820803 0.296534 0.592540
O O15 0.000000 0.000000 0.000000
#
# Coordination Sequence:
#
# PCOD9040281 Si02
#       7
#     2   2   2   2   2   2   2
#     4  11  23  41  63  93 135 172 213 269 326 389
#     4  11  24  47  71  96 131 175 220 269 331 398
#     4  11  22  39  66 101 133 169 218 279 331 379
#     4  11  22  40  66 100 133 171 221 272 325 391
#     4  11  23  42  71  99 127 175 225 270 324 390
#     4  10  23  43  65  94 132 171 214 274 331 383
#     4  11  22  44  71  95 130 177 224 271 324 392
#
# _framework density 25.032344999999999
#
# number of rings (size 3 to 8) (size 9 to 14) (size 15 to 20)
#    0.000    1.143    0.000    9.000    0.000    2.286 
#    0.000   22.857    0.000    0.000    0.000    0.000 
#    0.000    0.000    0.000    0.000    0.000    0.000 
#
# Total GULP energy -78127.781438 kJ/mol
# GULP energy per Si atom -5580.555817 kJ/mol
# Density = 2.497537 g / cm^3
# Si number density = 25.032345 Si / 1000 Ang^3
#
#
#
# Elastic Constant Matrix: (Units=GPa)
#
#
# Indices 1 2 3 4 5 6 
#
# 1 98.8807 39.1008 15.5212 8.3279 -3.8048 -26.6830
# 2 39.1008 114.3589 46.1754 5.4202 3.9483 -5.9494
# 3 15.5212 46.1754 113.9610 32.5367 4.8406 4.6248
# 4 8.3279 5.4202 32.5367 34.1257 -6.7780 3.5953
# 5 -3.8048 3.9483 4.8406 -6.7780 32.9199 15.6763
# 6 -26.6830 -5.9494 4.6248 3.5953 15.6763 50.5743
#
#
#
# Elastic Compliance Matrix: (Units=1/GPa)
#
#
# Indices 1 2 3 4 5 6 
#
# 1 0.014291 -0.004609 0.001263 -0.005419 -0.003001 0.008197
# 2 -0.004609 0.012345 -0.005698 0.004729 0.000207 -0.000859
# 3 0.001263 -0.005698 0.015450 -0.015303 -0.005205 0.001285
# 4 -0.005419 0.004729 -0.015303 0.048480 0.015380 -0.009117
# 5 -0.003001 0.000207 -0.005205 0.015380 0.041029 -0.014894
# 6 0.008197 -0.000859 0.001285 -0.009117 -0.014894 0.029144
#
#
# Mechanical properties :
#
#
# Convention : Reuss Voigt Hill
#
# Bulk Modulus (GPa) = 41.67205 58.75505 50.21355
# Shear Modulus (GPa) = 26.76274 38.61753 32.69013
#
# Velocity S-wave (km/s) = 3.27330 3.93199 3.61767
# Velocity P-wave (km/s) = 5.56501 6.64354 6.12805
#
# Compressibility (1/GPa) = 0.02399690
#
# Stress axis : x y z
#
# Youngs Moduli (GPa) = 69.97610 81.00235 64.72612
#
# Poissons Ratio (x) = 0.37337 -0.08177
# Poissons Ratio (y) = 0.32254 0.36883
# Poissons Ratio (z) = -0.08841 0.46158
#
# Static dielectric constant tensor:
#      x y z
#    x 2.071190 0.080020 -0.009410 
#    y 0.080020 2.007470 -0.018590 
#    z -0.009410 -0.018590 1.973710 
# 
# From -- ./inp_files/226813.got.cif
#   From: 2010.05.17/outbox.cif.g08.bks.cpg/sg2_114_cif.got.tgz:226813.got - 2010.06.03 11:33:40.
