data_PCOD9040226
_publ_section_title
;
Structure prediction by ZEFSAII (Michael W. Deem and Ramdas Pophale) SiO2 
 PCOD9040226
Probable space group: P -1
;
_chemical_formula_sum "Si O2"
_cell_formula_units_Z 16
_cell_length_a 13.318207
_cell_length_b 5.284784
_cell_length_c 16.216545
_cell_angle_alpha 97.955569
_cell_angle_beta 144.430342
_cell_angle_gamma 72.685799
_cell_volume 622.705174
_symmetry_space_group_name_H-M "P -1"
_symmetry_group_IT_number 2
_symmetry_cell_setting 'triclinic'
loop_
_space_group_symop_operation_xyz
x,y,z
-x,-y,-z
loop_
_atom_site_type_symbol
_atom_site_label
_atom_site_fract_x
_atom_site_fract_y
_atom_site_fract_z
Si Si1 0.550036 0.700467 0.481641
Si Si2 0.773713 0.013787 0.116201
Si Si3 0.115775 0.169152 0.510004
Si Si4 0.718566 0.982928 0.803730
Si Si5 0.709536 0.208295 0.257168
Si Si6 0.053933 0.793192 0.907727
Si Si7 0.888864 0.380718 0.599943
Si Si8 0.377469 0.272931 0.126367
O O1 0.500000 0.500000 0.500000
O O2 0.756878 0.544911 0.589727
O O3 0.500000 0.000000 0.500000
O O4 0.424618 0.752219 0.318265
O O5 0.906178 0.741271 0.234683
O O6 0.676954 0.190121 0.137465
O O7 0.909267 0.128782 0.157350
O O8 0.633293 0.954518 0.956599
O O9 0.144214 0.397144 0.482834
O O10 0.900780 0.265775 0.391467
O O11 0.232779 0.078009 0.666801
O O12 0.152831 0.887065 0.471603
O O13 0.604289 0.829473 0.772286
O O14 0.853502 0.843291 0.812826
O O15 0.853092 0.034103 0.964683
O O16 0.533459 0.380688 0.197962
O O17 0.180313 0.493094 0.997017
#
# Coordination Sequence:
#
# PCOD9040226 Si02
#       8
#     2   2   2   2   2   2   2   2
#     4  12  27  42  72 107 137 177 227 289 340 403
#     4  10  24  41  63  98 135 179 221 286 339 404
#     4  10  24  45  69  98 133 187 221 280 342 412
#     4  10  24  44  66  96 136 173 231 277 338 411
#     4  10  23  43  65 100 135 170 234 281 343 403
#     4  10  23  43  66  96 130 182 225 277 343 402
#     4  11  24  45  70  97 142 181 229 276 348 407
#     4  11  23  41  70  95 130 181 226 281 338 402
#
# _framework density 25.694341999999999
#
# number of rings (size 3 to 8) (size 9 to 14) (size 15 to 20)
#    0.000    1.500    0.000    3.000    8.750    5.000 
#    9.000    0.000    0.000    0.000    0.000    0.000 
#    0.000    0.000    0.000    0.000    0.000    0.000 
#
# Total GULP energy -89538.892701 kJ/mol
# GULP energy per Si atom -5596.180794 kJ/mol
# Density = 2.563586 g / cm^3
# Si number density = 25.694342 Si / 1000 Ang^3
#
#
#
# Elastic Constant Matrix: (Units=GPa)
#
#
# Indices 1 2 3 4 5 6 
#
# 1 131.3354 45.1643 34.0216 21.5101 -27.1221 -2.1857
# 2 45.1643 120.1335 17.3979 -0.1276 -18.7388 3.0326
# 3 34.0216 17.3979 75.6338 -8.4561 -5.8769 1.1176
# 4 21.5101 -0.1276 -8.4561 21.1583 8.3048 -8.3337
# 5 -27.1221 -18.7388 -5.8769 8.3048 48.0916 -17.5838
# 6 -2.1857 3.0326 1.1176 -8.3337 -17.5838 29.1960
#
#
#
# Elastic Compliance Matrix: (Units=1/GPa)
#
#
# Indices 1 2 3 4 5 6 
#
# 1 0.018577 -0.003588 -0.009540 -0.027018 0.013513 0.002555
# 2 -0.003588 0.009917 -0.000198 0.003263 0.001438 0.000506
# 3 -0.009540 -0.000198 0.019301 0.020102 -0.006406 0.000447
# 4 -0.027018 0.003263 0.020102 0.096194 -0.024655 0.009477
# 5 0.013513 0.001438 -0.006406 -0.024655 0.038833 0.017457
# 6 0.002555 0.000506 0.000447 0.009477 0.017457 0.047592
#
#
# Mechanical properties :
#
#
# Convention : Reuss Voigt Hill
#
# Bulk Modulus (GPa) = 47.29485 57.80781 52.55133
# Shear Modulus (GPa) = 18.93129 35.05709 26.99419
#
# Velocity S-wave (km/s) = 2.71733 3.69777 3.24480
# Velocity P-wave (km/s) = 5.31901 6.38580 5.87666
#
# Compressibility (1/GPa) = 0.02114395
#
# Stress axis : x y z
#
# Youngs Moduli (GPa) = 53.82938 100.84063 51.80999
#
# Poissons Ratio (x) = 0.36182 0.49424
# Poissons Ratio (y) = 0.19314 0.01026
# Poissons Ratio (z) = 0.51351 0.01997
#
# Static dielectric constant tensor:
#      x y z
#    x 2.026920 -0.029890 -0.013960 
#    y -0.029890 2.077910 0.089060 
#    z -0.013960 0.089060 2.015330 
# 
# From -- ./inp_files/511018.got.cif
#   From: 2010.05.17/outbox.cif.g08.bks.cpg/sg2_256_cif.got.tgz:511018.got - 2010.06.03 11:33:40.
