data_PCOD9040174
_publ_section_title
;
Structure prediction by ZEFSAII (Michael W. Deem and Ramdas Pophale) SiO2 
 PCOD9040174
Probable space group: P -1
;
_chemical_formula_sum "Si O2"
_cell_formula_units_Z 16
_cell_length_a 17.604242
_cell_length_b 7.955253
_cell_length_c 13.622641
_cell_angle_alpha 148.139203
_cell_angle_beta 130.170728
_cell_angle_gamma 47.986959
_cell_volume 733.814096
_symmetry_space_group_name_H-M "P -1"
_symmetry_group_IT_number 2
_symmetry_cell_setting 'triclinic'
loop_
_space_group_symop_operation_xyz
x,y,z
-x,-y,-z
loop_
_atom_site_type_symbol
_atom_site_label
_atom_site_fract_x
_atom_site_fract_y
_atom_site_fract_z
Si Si1 0.114215 0.050544 0.732021
Si Si2 0.690509 0.470848 0.018821
Si Si3 0.066914 0.123788 0.394059
Si Si4 0.314646 0.846647 0.927539
Si Si5 0.494094 0.273105 0.713018
Si Si6 0.578783 0.717555 0.663170
Si Si7 0.245037 0.879239 0.575095
Si Si8 0.097021 0.795187 0.043364
O O1 0.200343 0.988449 0.858419
O O2 0.170824 0.833649 0.578946
O O3 0.089040 0.424774 0.859682
O O4 0.011008 0.998896 0.663128
O O5 0.690623 0.327372 0.058065
O O6 0.696507 0.849419 0.211027
O O7 0.587315 0.436710 0.864190
O O8 0.793190 0.242738 0.936476
O O9 0.000000 0.500000 0.500000
O O10 0.172635 0.055580 0.510566
O O11 0.092137 0.937593 0.219178
O O12 0.386233 0.563056 0.775960
O O13 0.369042 0.139519 0.132603
O O14 0.500000 0.000000 0.500000
O O15 0.515683 0.054503 0.721867
O O16 0.500000 0.500000 0.500000
O O17 0.675281 0.473855 0.562966
O O18 0.000000 0.000000 0.000000
#
# Coordination Sequence:
#
# PCOD9040174 Si02
#       8
#     2   2   2   2   2   2   2   2
#     4  11  24  42  64  92 127 169 213 262 317 381
#     4  10  23  43  64  91 128 168 211 262 317 378
#     4  12  25  41  65  95 127 168 213 266 321 377
#     4  11  22  42  65  92 128 169 209 260 318 377
#     4  11  24  41  64  93 125 168 212 258 315 378
#     4  11  23  39  63  93 125 165 210 261 316 375
#     4  11  23  41  63  95 128 166 213 263 316 379
#     4  11  24  43  65  93 127 169 214 264 320 377
#
# _framework density 21.803888000000001
#
# number of rings (size 3 to 8) (size 9 to 14) (size 15 to 20)
#    0.000    1.000    0.000    8.250    0.000    9.000 
#    0.000    4.375    0.000    0.000    0.000    0.000 
#    0.000    0.000    0.000    0.000    0.000    0.000 
#
# Total GULP energy -89530.720554 kJ/mol
# GULP energy per Si atom -5595.670035 kJ/mol
# Density = 2.175426 g / cm^3
# Si number density = 21.803888 Si / 1000 Ang^3
#
#
#
# Elastic Constant Matrix: (Units=GPa)
#
#
# Indices 1 2 3 4 5 6 
#
# 1 105.7275 5.8410 36.1342 9.4218 -5.8543 -14.4120
# 2 5.8410 66.2990 7.7226 8.5318 4.5621 -15.0590
# 3 36.1342 7.7226 92.6290 1.9063 -1.7670 -16.8636
# 4 9.4218 8.5318 1.9063 33.0774 -7.0646 -10.2563
# 5 -5.8543 4.5621 -1.7670 -7.0646 39.4860 1.9594
# 6 -14.4120 -15.0590 -16.8636 -10.2563 1.9594 27.9753
#
#
#
# Elastic Compliance Matrix: (Units=1/GPa)
#
#
# Indices 1 2 3 4 5 6 
#
# 1 0.011395 0.000293 -0.003884 -0.001992 0.000982 0.002888
# 2 0.000293 0.017600 0.000043 -0.002464 -0.002873 0.008949
# 3 -0.003884 0.000043 0.013553 0.002548 0.000128 0.007118
# 4 -0.001992 -0.002464 0.002548 0.036315 0.006001 0.012077
# 5 0.000982 -0.002873 0.000128 0.006001 0.026915 -0.000648
# 6 0.002888 0.008949 0.007118 0.012077 -0.000648 0.050814
#
#
# Mechanical properties :
#
#
# Convention : Reuss Voigt Hill
#
# Bulk Modulus (GPa) = 28.20648 40.45012 34.32830
# Shear Modulus (GPa) = 28.48937 34.43826 31.46382
#
# Velocity S-wave (km/s) = 3.61864 3.97855 3.80285
# Velocity P-wave (km/s) = 5.51579 6.30057 5.92120
#
# Compressibility (1/GPa) = 0.03545284
#
# Stress axis : x y z
#
# Youngs Moduli (GPa) = 87.75695 56.81898 73.78366
#
# Poissons Ratio (x) = -0.01666 0.28659
# Poissons Ratio (y) = -0.02573 -0.00320
# Poissons Ratio (z) = 0.34087 -0.00247
#
# Static dielectric constant tensor:
#      x y z
#    x 1.761150 0.078330 0.017570 
#    y 0.078330 1.747730 -0.051940 
#    z 0.017570 -0.051940 1.793070 
# 
# From -- ./inp_files/352042.got.cif
#   From: 2010.05.17/outbox.cif.g08.bks.cpg/sg2_177_cif.got.tgz:352042.got - 2010.06.03 11:33:40.
