data_PCOD9040323
_publ_section_title
;
Structure prediction by ZEFSAII (Michael W. Deem and Ramdas Pophale) SiO2 
 PCOD9040323
Probable space group: P -1
;
_chemical_formula_sum "Si O2"
_cell_formula_units_Z 15
_cell_length_a 5.337456
_cell_length_b 18.627735
_cell_length_c 8.380132
_cell_angle_alpha 56.663189
_cell_angle_beta 118.738122
_cell_angle_gamma 111.937079
_cell_volume 603.514602
_symmetry_space_group_name_H-M "P -1"
_symmetry_group_IT_number 2
_symmetry_cell_setting 'triclinic'
loop_
_space_group_symop_operation_xyz
x,y,z
-x,-y,-z
loop_
_atom_site_type_symbol
_atom_site_label
_atom_site_fract_x
_atom_site_fract_y
_atom_site_fract_z
Si Si1 0.760979 0.828521 0.359723
Si Si2 0.461565 0.292268 0.296625
Si Si3 0.500000 0.500000 0.500000
Si Si4 0.931788 0.783378 0.980248
Si Si5 0.293693 0.459505 0.128992
Si Si6 0.169406 0.918835 0.618893
Si Si7 0.266315 0.067850 0.053844
Si Si8 0.042175 0.326526 0.592198
O O1 0.579617 0.792912 0.501272
O O2 0.059601 0.879630 0.461920
O O3 0.814148 0.746422 0.370289
O O4 0.605357 0.891010 0.124383
O O5 0.374557 0.264177 0.126308
O O6 0.238060 0.356598 0.200743
O O7 0.772966 0.340675 0.381942
O O8 0.453256 0.476555 0.324382
O O9 0.261421 0.413474 0.575811
O O10 0.093799 0.834890 0.817624
O O11 0.869687 0.858356 0.986277
O O12 0.059551 0.713527 0.215464
O O13 0.500000 0.500000 0.000000
O O14 0.000000 0.500000 0.000000
O O15 0.000000 0.000000 0.500000
O O16 0.504156 0.044295 0.277102
O O17 0.000000 0.000000 0.000000
#
# Coordination Sequence:
#
# PCOD9040323 Si02
#       8
#     2   2   1   2   2   2   2   2
#     4  10  23  43  65  98 136 180 235 295 364 444
#     4  11  23  45  71  97 139 191 238 304 377 451
#     4  12  26  48  76 110 148 202 260 318 394 460
#     4  10  24  43  70 104 139 188 243 303 377 451
#     4  12  28  49  75 112 154 201 261 328 390 469
#     4  11  24  42  69 101 139 185 235 293 372 457
#     4  11  24  42  68 105 140 182 236 301 367 455
#     4  11  23  44  69 101 139 186 245 307 375 447
#
# _framework density 24.854413000000001
#
# number of rings (size 3 to 8) (size 9 to 14) (size 15 to 20)
#    0.000    1.067    1.333    4.000    0.000   11.733 
#    9.600    0.000    0.000    0.000    0.000    0.000 
#    0.000    0.000    0.000    0.000    0.000    0.000 
#
# Total GULP energy -83663.734995 kJ/mol
# GULP energy per Si atom -5577.582333 kJ/mol
# Density = 2.479784 g / cm^3
# Si number density = 24.854413 Si / 1000 Ang^3
#
#
#
# Elastic Constant Matrix: (Units=GPa)
#
#
# Indices 1 2 3 4 5 6 
#
# 1 50.3007 14.4790 15.3299 -10.6642 1.6803 3.3627
# 2 14.4790 180.3190 30.1796 20.2290 11.5381 11.2012
# 3 15.3299 30.1796 111.0108 8.9121 -16.4231 9.3198
# 4 -10.6642 20.2290 8.9121 39.8305 -3.1724 -4.5047
# 5 1.6803 11.5381 -16.4231 -3.1724 42.9042 7.3220
# 6 3.3627 11.2012 9.3198 -4.5047 7.3220 24.5765
#
#
#
# Elastic Compliance Matrix: (Units=1/GPa)
#
#
# Indices 1 2 3 4 5 6 
#
# 1 0.023290 -0.002173 -0.003551 0.008149 -0.001259 0.001019
# 2 -0.002173 0.006683 -0.001297 -0.004123 -0.002107 -0.002385
# 3 -0.003551 -0.001297 0.011370 -0.003009 0.005546 -0.005438
# 4 0.008149 -0.004123 -0.003009 0.030943 0.000666 0.007378
# 5 -0.001259 -0.002107 0.005546 0.000666 0.027646 -0.009085
# 6 0.001019 -0.002385 -0.005438 0.007378 -0.009085 0.047758
#
#
# Mechanical properties :
#
#
# Convention : Reuss Voigt Hill
#
# Bulk Modulus (GPa) = 36.63032 51.28971 43.96002
# Shear Modulus (GPa) = 29.26861 40.23839 34.75350
#
# Velocity S-wave (km/s) = 3.43534 4.02800 3.74342
# Velocity P-wave (km/s) = 5.52317 6.50491 6.03404
#
# Compressibility (1/GPa) = 0.02729979
#
# Stress axis : x y z
#
# Youngs Moduli (GPa) = 42.93751 149.63915 87.95219
#
# Poissons Ratio (x) = 0.32510 0.31236
# Poissons Ratio (y) = 0.09329 0.11409
# Poissons Ratio (z) = 0.15249 0.19411
#
# Static dielectric constant tensor:
#      x y z
#    x 2.019690 0.067930 -0.035000 
#    y 0.067930 1.946460 -0.042350 
#    z -0.035000 -0.042350 2.021740 
# 
# From -- ./inp_files/141200.got.cif
#   From: 2010.05.17/outbox.cif.g08.bks.cpg/sg2_71_cif.got.tgz:141200.got - 2010.06.03 11:33:40.
