data_PCOD9040707
_publ_section_title
;
Structure prediction by ZEFSAII (Michael W. Deem and Ramdas Pophale) SiO2 
 PCOD9040707
Probable space group: P -1
;
_chemical_formula_sum "Si O2"
_cell_formula_units_Z 16
_cell_length_a 11.811882
_cell_length_b 14.491322
_cell_length_c 5.195823
_cell_angle_alpha 80.361995
_cell_angle_beta 108.745712
_cell_angle_gamma 119.762427
_cell_volume 731.064567
_symmetry_space_group_name_H-M "P -1"
_symmetry_group_IT_number 2
_symmetry_cell_setting 'triclinic'
loop_
_space_group_symop_operation_xyz
x,y,z
-x,-y,-z
loop_
_atom_site_type_symbol
_atom_site_label
_atom_site_fract_x
_atom_site_fract_y
_atom_site_fract_z
Si Si1 0.081268 0.440830 0.886929
Si Si2 0.191331 0.635232 0.577546
Si Si3 0.335603 0.886075 0.185245
Si Si4 0.496871 0.874390 0.806226
Si Si5 0.807948 0.666011 0.384121
Si Si6 0.610932 0.429143 0.516950
Si Si7 0.071394 0.737932 0.779281
Si Si8 0.551011 0.675976 0.033797
O O1 0.185848 0.562804 0.853206
O O2 0.140044 0.375320 0.801768
O O3 0.942257 0.422104 0.663833
O O4 0.024658 0.383094 0.139402
O O5 0.305904 0.632546 0.483663
O O6 0.168320 0.728760 0.638797
O O7 0.404545 0.862586 0.493817
O O8 0.372724 0.009439 0.177593
O O9 0.417926 0.877190 0.003891
O O10 0.176054 0.810639 0.040415
O O11 0.532315 0.778954 0.910509
O O12 0.712807 0.555923 0.524429
O O13 0.705239 0.707227 0.198085
O O14 0.947831 0.755187 0.575592
O O15 0.537322 0.385288 0.752603
O O16 0.501897 0.399433 0.220465
#
# Coordination Sequence:
#
# PCOD9040707 Si02
#       8
#     2   2   2   2   2   2   2   2
#     4   9  20  35  55  82 127 167 197 255 301 368
#     4   9  20  35  53  91 121 158 210 254 307 362
#     4  10  23  43  68  94 122 153 202 266 335 361
#     4  10  23  44  66  95 122 153 206 269 311 379
#     4  10  25  41  55  93 131 174 212 250 296 377
#     4  11  25  39  64  91 129 172 213 258 305 362
#     4  11  22  36  65  86 129 165 202 258 320 373
#     4  12  25  41  66  89 126 175 216 251 306 369
#
# _framework density 21.885891000000001
#
# number of rings (size 3 to 8) (size 9 to 14) (size 15 to 20)
#    0.000    1.750    0.000    3.375   14.000    0.000 
#    0.000    0.625    0.000    0.750    0.000    0.000 
#    0.000    0.000    0.000    0.000    0.000    0.000 
#
# Total GULP energy -89287.264591 kJ/mol
# GULP energy per Si atom -5580.454037 kJ/mol
# Density = 2.183608 g / cm^3
# Si number density = 21.885891 Si / 1000 Ang^3
#
#
#
# Elastic Constant Matrix: (Units=GPa)
#
#
# Indices 1 2 3 4 5 6 
#
# 1 116.1396 38.1227 62.9330 2.4368 21.0411 2.4703
# 2 38.1227 108.6749 53.5560 6.6525 20.1417 4.1811
# 3 62.9330 53.5560 144.3582 10.9156 17.2713 12.7941
# 4 2.4368 6.6525 10.9156 31.8251 14.4490 7.2796
# 5 21.0411 20.1417 17.2713 14.4490 36.2634 -1.5352
# 6 2.4703 4.1811 12.7941 7.2796 -1.5352 19.5840
#
#
#
# Elastic Compliance Matrix: (Units=1/GPa)
#
#
# Indices 1 2 3 4 5 6 
#
# 1 0.012453 -0.001284 -0.004519 0.003502 -0.005759 -0.000097
# 2 -0.001284 0.012197 -0.003369 0.001196 -0.004947 -0.001074
# 3 -0.004519 -0.003369 0.010754 -0.001271 -0.000346 -0.005291
# 4 0.003502 0.001196 -0.001271 0.044928 -0.020762 -0.018194
# 5 -0.005759 -0.004947 -0.000346 -0.020762 0.042656 0.013070
# 6 -0.000097 -0.001074 -0.005291 -0.018194 0.013070 0.062548
#
#
# Mechanical properties :
#
#
# Convention : Reuss Voigt Hill
#
# Bulk Modulus (GPa) = 58.62052 75.37732 66.99892
# Shear Modulus (GPa) = 23.85879 31.83855 27.84867
#
# Velocity S-wave (km/s) = 3.30532 3.81826 3.57101
# Velocity P-wave (km/s) = 6.43503 7.34538 6.90522
#
# Compressibility (1/GPa) = 0.01705887
#
# Stress axis : x y z
#
# Youngs Moduli (GPa) = 80.30259 81.98471 92.99212
#
# Poissons Ratio (x) = 0.10530 0.42028
# Poissons Ratio (y) = 0.10314 0.31325
# Poissons Ratio (z) = 0.36293 0.27617
#
# Static dielectric constant tensor:
#      x y z
#    x 1.811820 0.035280 0.040890 
#    y 0.035280 1.904610 0.005230 
#    z 0.040890 0.005230 1.930560 
# 
# From -- ./inp_files/77677.got.cif
#   From: 2010.05.17/outbox.cif.g08.bks.cpg/sg2_39_cif.got.tgz:77677.got - 2010.06.03 11:33:40.
