data_PCOD9040341
_publ_section_title
;
Structure prediction by ZEFSAII (Michael W. Deem and Ramdas Pophale) SiO2 
 PCOD9040341
Probable space group: P -1
;
_chemical_formula_sum "Si O2"
_cell_formula_units_Z 14
_cell_length_a 23.315768
_cell_length_b 5.909238
_cell_length_c 8.171290
_cell_angle_alpha 87.522969
_cell_angle_beta 147.293044
_cell_angle_gamma 94.006429
_cell_volume 606.592487
_symmetry_space_group_name_H-M "P -1"
_symmetry_group_IT_number 2
_symmetry_cell_setting 'triclinic'
loop_
_space_group_symop_operation_xyz
x,y,z
-x,-y,-z
loop_
_atom_site_type_symbol
_atom_site_label
_atom_site_fract_x
_atom_site_fract_y
_atom_site_fract_z
Si Si1 0.017591 0.565158 0.354304
Si Si2 0.393636 0.597874 0.314140
Si Si3 0.303828 0.975960 0.278631
Si Si4 0.111238 0.925515 0.345487
Si Si5 0.801418 0.384871 0.713915
Si Si6 0.790128 0.718660 0.229262
Si Si7 0.393885 0.375477 0.676486
O O1 0.077057 0.800569 0.437585
O O2 0.093698 0.375355 0.482147
O O3 0.000000 0.500000 0.500000
O O4 0.902942 0.547459 0.998237
O O5 0.500000 0.500000 0.500000
O O6 0.384307 0.485150 0.472359
O O7 0.376097 0.857485 0.317295
O O8 0.296653 0.492155 0.975430
O O9 0.374432 0.111093 0.585074
O O10 0.229223 0.790354 0.204502
O O11 0.234092 0.143814 0.000001
O O12 0.162482 0.755159 0.349283
O O13 0.203555 0.113307 0.608248
O O14 0.000000 0.000000 0.000000
O O15 0.701976 0.537144 0.449772
O O16 0.500000 0.500000 0.000000
#
# Coordination Sequence:
#
# PCOD9040341 Si02
#       7
#     2   2   2   2   2   2   2
#     4  12  25  43  68  97 139 184 234 281 344 422
#     4  10  23  43  66 100 135 179 236 292 335 422
#     4  10  23  45  68  99 133 183 237 278 356 418
#     4  12  27  42  65 106 141 185 234 288 354 409
#     4  11  25  42  67  98 141 176 232 293 341 418
#     4  11  24  42  68  96 138 182 231 284 350 417
#     4  10  24  42  67  99 135 182 229 292 350 409
#
# _framework density 23.079743000000001
#
# number of rings (size 3 to 8) (size 9 to 14) (size 15 to 20)
#    0.000    1.143    1.429    4.714    4.000   10.286 
#    0.000    0.000    0.000    0.000    0.000    0.000 
#    0.000    0.000    0.000    0.000    0.000    0.000 
#
# Total GULP energy -78152.453940 kJ/mol
# GULP energy per Si atom -5582.318139 kJ/mol
# Density = 2.302721 g / cm^3
# Si number density = 23.079743 Si / 1000 Ang^3
#
#
#
# Elastic Constant Matrix: (Units=GPa)
#
#
# Indices 1 2 3 4 5 6 
#
# 1 93.3416 32.3405 35.4239 -3.2016 7.7652 -19.3186
# 2 32.3405 91.3939 49.3974 16.9757 10.4287 -19.1433
# 3 35.4239 49.3974 146.4138 32.2155 19.6853 -26.1560
# 4 -3.2016 16.9757 32.2155 38.0828 -5.0615 -14.8130
# 5 7.7652 10.4287 19.6853 -5.0615 38.7449 -8.8964
# 6 -19.3186 -19.1433 -26.1560 -14.8130 -8.8964 44.3125
#
#
#
# Elastic Compliance Matrix: (Units=1/GPa)
#
#
# Indices 1 2 3 4 5 6 
#
# 1 0.014692 -0.003984 -0.003303 0.008451 0.002292 0.006020
# 2 -0.003984 0.015144 -0.002572 -0.004732 -0.002304 0.001242
# 3 -0.003303 -0.002572 0.011328 -0.009548 -0.005694 -0.000200
# 4 0.008451 -0.004732 -0.009548 0.044143 0.013281 0.013427
# 5 0.002292 -0.002304 -0.005694 0.013281 0.032338 0.007575
# 6 0.006020 0.001242 -0.000200 0.013427 0.007575 0.031620
#
#
# Mechanical properties :
#
#
# Convention : Reuss Voigt Hill
#
# Bulk Modulus (GPa) = 46.63096 62.83034 54.73065
# Shear Modulus (GPa) = 28.38783 38.49388 33.44086
#
# Velocity S-wave (km/s) = 3.51092 4.08838 3.81061
# Velocity P-wave (km/s) = 6.05670 7.04051 6.56705
#
# Compressibility (1/GPa) = 0.02144498
#
# Stress axis : x y z
#
# Youngs Moduli (GPa) = 68.06266 66.03285 88.27966
#
# Poissons Ratio (x) = 0.26309 0.29157
# Poissons Ratio (y) = 0.27118 0.22709
# Poissons Ratio (z) = 0.22480 0.16986
#
# Static dielectric constant tensor:
#      x y z
#    x 1.901660 -0.052670 0.083530 
#    y -0.052670 2.118680 0.000170 
#    z 0.083530 0.000170 2.112920 
# 
# From -- ./inp_files/46943.got.cif
#   From: 2010.05.17/outbox.cif.g08.bks.cpg/sg2_24_cif.got.tgz:46943.got - 2010.06.03 11:33:40.
