data_PCOD9040937
_publ_section_title
;
Structure prediction by ZEFSAII (Michael W. Deem and Ramdas Pophale) SiO2 
 PCOD9040937
Probable space group: P -1
;
_chemical_formula_sum "Si O2"
_cell_formula_units_Z 16
_cell_length_a 10.140308
_cell_length_b 8.190355
_cell_length_c 10.728722
_cell_angle_alpha 86.638336
_cell_angle_beta 118.427803
_cell_angle_gamma 60.094611
_cell_volume 625.977787
_symmetry_space_group_name_H-M "P -1"
_symmetry_group_IT_number 2
_symmetry_cell_setting 'triclinic'
loop_
_space_group_symop_operation_xyz
x,y,z
-x,-y,-z
loop_
_atom_site_type_symbol
_atom_site_label
_atom_site_fract_x
_atom_site_fract_y
_atom_site_fract_z
Si Si1 0.539200 0.091620 0.147104
Si Si2 0.033922 0.735067 0.084570
Si Si3 0.069155 0.637446 0.619575
Si Si4 0.932043 0.720882 0.300669
Si Si5 0.631375 0.287454 0.637523
Si Si6 0.626843 0.153190 0.888406
Si Si7 0.650860 0.990772 0.481376
Si Si8 0.269082 0.571821 0.958366
O O1 0.551154 0.098283 0.302311
O O2 0.405499 0.325807 0.034130
O O3 0.756188 0.958278 0.207979
O O4 0.464772 0.954628 0.097519
O O5 0.198112 0.735222 0.217858
O O6 0.110567 0.632664 0.989143
O O7 0.997225 0.643942 0.192437
O O8 0.841468 0.957705 0.969395
O O9 0.136871 0.406981 0.671452
O O10 0.073165 0.690369 0.474228
O O11 0.181977 0.654754 0.778245
O O12 0.848862 0.776992 0.551452
O O13 0.500000 0.500000 0.500000
O O14 0.532683 0.255406 0.708007
O O15 0.705171 0.115849 0.576151
O O16 0.635755 0.320920 0.957221
O O17 0.500000 0.000000 0.500000
#
# Coordination Sequence:
#
# PCOD9040937 Si02
#       8
#     2   2   2   2   2   2   2   2
#     4  11  25  45  69 105 141 190 233 291 349 424
#     4  11  24  43  72 102 142 183 230 296 351 415
#     4  10  23  43  69  98 140 185 234 283 346 424
#     4  10  25  46  69 102 147 187 229 284 364 417
#     4  11  23  39  65 104 143 175 229 298 354 402
#     4  11  23  43  68 102 144 180 232 296 350 405
#     4  11  21  38  67  97 132 178 235 282 338 410
#     4  11  24  44  75 106 134 182 248 286 345 414
#
# _framework density 25.560013000000001
#
# number of rings (size 3 to 8) (size 9 to 14) (size 15 to 20)
#    0.000    1.250    1.250    5.250    3.500    4.000 
#    0.000    9.375    0.000    0.000    0.000    0.000 
#    0.000    0.000    0.000    0.000    0.000    0.000 
#
# Total GULP energy -89546.408583 kJ/mol
# GULP energy per Si atom -5596.650536 kJ/mol
# Density = 2.550184 g / cm^3
# Si number density = 25.560013 Si / 1000 Ang^3
#
#
#
# Elastic Constant Matrix: (Units=GPa)
#
#
# Indices 1 2 3 4 5 6 
#
# 1 104.5701 34.2011 38.2399 -11.9811 -18.9146 -2.2814
# 2 34.2011 157.2806 56.0093 2.4293 1.2604 -2.2962
# 3 38.2399 56.0093 175.4282 2.4658 -23.9938 1.1155
# 4 -11.9811 2.4293 2.4658 60.0329 -8.2609 -2.2096
# 5 -18.9146 1.2604 -23.9938 -8.2609 42.1770 -4.2659
# 6 -2.2814 -2.2962 1.1155 -2.2096 -4.2659 27.4197
#
#
#
# Elastic Compliance Matrix: (Units=1/GPa)
#
#
# Indices 1 2 3 4 5 6 
#
# 1 0.012238 -0.002301 -0.001208 0.003452 0.005753 0.002048
# 2 -0.002301 0.007729 -0.002334 -0.001059 -0.002795 0.000031
# 3 -0.001208 -0.002334 0.007205 0.000057 0.003636 -0.000019
# 4 0.003452 -0.001059 0.000057 0.018228 0.005436 0.002511
# 5 0.005753 -0.002795 0.003636 0.005436 0.030033 0.005207
# 6 0.002048 0.000031 -0.000019 0.002511 0.005207 0.037656
#
#
# Mechanical properties :
#
#
# Convention : Reuss Voigt Hill
#
# Bulk Modulus (GPa) = 64.56643 77.13107 70.84875
# Shear Modulus (GPa) = 38.48064 46.51448 42.49756
#
# Velocity S-wave (km/s) = 3.88429 4.27056 4.08199
# Velocity P-wave (km/s) = 6.74036 7.38640 7.07076
#
# Compressibility (1/GPa) = 0.01548793
#
# Stress axis : x y z
#
# Youngs Moduli (GPa) = 81.71337 129.39050 138.78629
#
# Poissons Ratio (x) = 0.29767 0.16762
# Poissons Ratio (y) = 0.18799 0.32387
# Poissons Ratio (z) = 0.09869 0.30194
#
# Static dielectric constant tensor:
#      x y z
#    x 2.165620 -0.012260 -0.068300 
#    y -0.012260 1.885750 0.132190 
#    z -0.068300 0.132190 1.998450 
# 
# From -- ./inp_files/419483.got.cif
#   From: 2010.05.17/outbox.cif.g08.bks.cpg/sg2_210_cif.got.tgz:419483.got - 2010.06.03 11:33:40.
