data_PCOD9040338
_publ_section_title
;
Structure prediction by ZEFSAII (Michael W. Deem and Ramdas Pophale) SiO2 
 PCOD9040338
Probable space group: P -1
;
_chemical_formula_sum "Si O2"
_cell_formula_units_Z 16
_cell_length_a 8.515821
_cell_length_b 12.210495
_cell_length_c 10.947390
_cell_angle_alpha 125.288221
_cell_angle_beta 55.173421
_cell_angle_gamma 130.672628
_cell_volume 669.009580
_symmetry_space_group_name_H-M "P -1"
_symmetry_group_IT_number 2
_symmetry_cell_setting 'triclinic'
loop_
_space_group_symop_operation_xyz
x,y,z
-x,-y,-z
loop_
_atom_site_type_symbol
_atom_site_label
_atom_site_fract_x
_atom_site_fract_y
_atom_site_fract_z
Si Si1 0.598206 0.008984 0.595710
Si Si2 0.032715 0.073586 0.338994
Si Si3 0.160748 0.684387 0.167430
Si Si4 0.246948 0.874869 0.029627
Si Si5 0.696242 0.642073 0.435961
Si Si6 0.112695 0.479141 0.256884
Si Si7 0.663031 0.326479 0.490966
Si Si8 0.983374 0.152795 0.139581
O O1 0.421514 0.847867 0.622103
O O2 0.500000 0.000000 0.500000
O O3 0.659188 0.158783 0.744598
O O4 0.825741 0.009638 0.477450
O O5 0.221106 0.221859 0.414653
O O6 0.960349 0.124182 0.278172
O O7 0.114899 0.951575 0.202131
O O8 0.204141 0.726659 0.033020
O O9 0.174917 0.544543 0.135179
O O10 0.916366 0.649274 0.291508
O O11 0.156957 0.845126 0.914027
O O12 0.500000 0.000000 0.000000
O O13 0.500000 0.500000 0.500000
O O14 0.554990 0.660073 0.403456
O O15 0.238119 0.620934 0.385126
O O16 0.860736 0.424807 0.373784
O O17 0.154381 0.336657 0.177366
O O18 0.000000 0.000000 0.000000
#
# Coordination Sequence:
#
# PCOD9040338 Si02
#       8
#     2   2   2   2   2   2   2   2
#     4  11  21  37  69 103 136 176 211 287 358 418
#     4  10  23  43  66 100 134 177 240 280 336 421
#     4  11  24  42  63 108 141 170 233 279 347 422
#     4  11  26  43  67  94 131 193 241 280 327 395
#     4  11  21  38  66 102 140 171 204 290 366 402
#     4  11  23  40  66 103 138 172 225 282 341 425
#     4  11  22  36  65 106 137 174 213 273 364 410
#     4  10  24  45  66  88 131 188 234 280 326 399
#
# _framework density 23.915952000000001
#
# number of rings (size 3 to 8) (size 9 to 14) (size 15 to 20)
#    0.000    1.250    2.500    3.000    8.750    2.500 
#    0.000    0.000    0.000   15.000    0.000    0.000 
#    0.000    0.000    0.000    0.000    0.000    0.000 
#
# Total GULP energy -89231.423456 kJ/mol
# GULP energy per Si atom -5576.963966 kJ/mol
# Density = 2.386152 g / cm^3
# Si number density = 23.915952 Si / 1000 Ang^3
#
#
#
# Elastic Constant Matrix: (Units=GPa)
#
#
# Indices 1 2 3 4 5 6 
#
# 1 79.3024 34.8679 10.4414 -8.1703 27.3702 4.1422
# 2 34.8679 157.2417 27.2179 -12.9328 18.6789 -6.8339
# 3 10.4414 27.2179 58.1204 3.7216 12.9688 -1.4048
# 4 -8.1703 -12.9328 3.7216 33.6429 -8.2130 14.6630
# 5 27.3702 18.6789 12.9688 -8.2130 28.9165 4.9535
# 6 4.1422 -6.8339 -1.4048 14.6630 4.9535 51.3499
#
#
#
# Elastic Compliance Matrix: (Units=1/GPa)
#
#
# Indices 1 2 3 4 5 6 
#
# 1 0.019615 -0.002587 0.001745 -0.000841 -0.017933 0.000091
# 2 -0.002587 0.007767 -0.003181 0.002332 -0.000573 0.000545
# 3 0.001745 -0.003181 0.021634 -0.007592 -0.012030 0.003356
# 4 -0.000841 0.002332 -0.007592 0.041041 0.016604 -0.013150
# 5 -0.017933 -0.000573 -0.012030 0.016604 0.063725 -0.009847
# 6 0.000091 0.000545 0.003356 -0.013150 -0.009847 0.024336
#
#
# Mechanical properties :
#
#
# Convention : Reuss Voigt Hill
#
# Bulk Modulus (GPa) = 24.40767 48.85766 36.63267
# Shear Modulus (GPa) = 25.02241 37.59102 31.30671
#
# Velocity S-wave (km/s) = 3.23811 3.96889 3.62198
# Velocity P-wave (km/s) = 4.92019 6.44019 5.73081
#
# Compressibility (1/GPa) = 0.04097072
#
# Stress axis : x y z
#
# Youngs Moduli (GPa) = 50.98063 128.74231 46.22452
#
# Poissons Ratio (x) = 0.33301 -0.08066
# Poissons Ratio (y) = 0.13187 0.14704
# Poissons Ratio (z) = -0.08896 0.40954
#
# Static dielectric constant tensor:
#      x y z
#    x 1.477620 -0.099680 0.097990 
#    y -0.099680 1.992920 0.054320 
#    z 0.097990 0.054320 1.879900 
# 
# From -- ./inp_files/390947.got.cif
#   From: 2010.05.17/outbox.cif.g08.bks.cpg/sg2_196_cif.got.tgz:390947.got - 2010.06.03 11:33:40.
