data_PCOD9040177
_publ_section_title
;
Structure prediction by ZEFSAII (Michael W. Deem and Ramdas Pophale) SiO2 
 PCOD9040177
Probable space group: P -1
;
_chemical_formula_sum "Si O2"
_cell_formula_units_Z 14
_cell_length_a 5.138360
_cell_length_b 9.108210
_cell_length_c 21.918686
_cell_angle_alpha 136.607045
_cell_angle_beta 71.947579
_cell_angle_gamma 121.603014
_cell_volume 595.801492
_symmetry_space_group_name_H-M "P -1"
_symmetry_group_IT_number 2
_symmetry_cell_setting 'triclinic'
loop_
_space_group_symop_operation_xyz
x,y,z
-x,-y,-z
loop_
_atom_site_type_symbol
_atom_site_label
_atom_site_fract_x
_atom_site_fract_y
_atom_site_fract_z
Si Si1 0.070076 0.632596 0.421454
Si Si2 0.324272 0.867799 0.650743
Si Si3 0.682323 0.344012 0.942621
Si Si4 0.213297 0.029863 0.247410
Si Si5 0.748115 0.443604 0.258650
Si Si6 0.707534 0.905027 0.401005
Si Si7 0.267533 0.938436 0.942053
O O1 0.437823 0.757299 0.424541
O O2 0.916780 0.414405 0.413393
O O3 0.945255 0.523177 0.330765
O O4 0.025403 0.861103 0.515457
O O5 0.612462 0.891280 0.676631
O O6 0.125476 0.989212 0.733141
O O7 0.399693 0.984480 0.614008
O O8 0.458578 0.120537 0.931043
O O9 0.768103 0.215510 0.842551
O O10 0.500000 0.500000 0.000000
O O11 0.000000 0.500000 0.000000
O O12 0.415781 0.239803 0.246727
O O13 0.772136 0.692389 0.307412
O O14 0.846677 0.318989 0.159952
O O15 0.500000 0.000000 0.000000
O O16 0.000000 0.000000 0.000000
#
# Coordination Sequence:
#
# PCOD9040177 Si02
#       7
#     2   2   2   2   2   2   2
#     4  10  23  44  63  98 138 174 223 276 331 396
#     4  11  23  42  66  97 131 175 221 268 326 391
#     4  11  23  42  66  93 131 175 217 280 345 394
#     4  10  23  43  64  91 132 176 216 273 331 401
#     4  10  23  43  68  89 139 178 220 271 347 387
#     4  11  23  40  69  98 130 182 223 272 332 398
#     4  11  26  44  69 100 135 175 227 283 335 403
#
# _framework density 23.497758999999999
#
# number of rings (size 3 to 8) (size 9 to 14) (size 15 to 20)
#    0.000    1.429    1.429    2.571    4.000    5.714 
#    0.000    2.143    0.000    0.000    0.000    0.000 
#    0.000    0.000    0.000    0.000    0.000    0.000 
#
# Total GULP energy -78204.177110 kJ/mol
# GULP energy per Si atom -5586.012651 kJ/mol
# Density = 2.344428 g / cm^3
# Si number density = 23.497759 Si / 1000 Ang^3
#
#
#
# Elastic Constant Matrix: (Units=GPa)
#
#
# Indices 1 2 3 4 5 6 
#
# 1 80.5552 5.7893 24.7851 13.2133 -7.5523 -3.1311
# 2 5.7893 95.9672 36.6397 19.1089 -7.1298 -17.0510
# 3 24.7851 36.6397 171.0028 30.8835 -7.6262 -5.1961
# 4 13.2133 19.1089 30.8835 38.7095 -7.2664 -7.3018
# 5 -7.5523 -7.1298 -7.6262 -7.2664 28.0998 -2.4623
# 6 -3.1311 -17.0510 -5.1961 -7.3018 -2.4623 37.3511
#
#
#
# Elastic Compliance Matrix: (Units=1/GPa)
#
#
# Indices 1 2 3 4 5 6 
#
# 1 0.013605 0.000697 -0.001396 -0.003215 0.002694 0.000814
# 2 0.000697 0.012945 -0.001951 -0.003640 0.002452 0.005146
# 3 -0.001396 -0.001951 0.007255 -0.004547 -0.000156 -0.000898
# 4 -0.003215 -0.003640 -0.004547 0.034396 0.006274 0.004574
# 5 0.002694 0.002452 -0.000156 0.006274 0.038962 0.005118
# 6 0.000814 0.005146 -0.000898 0.004574 0.005118 0.030297
#
#
# Mechanical properties :
#
#
# Convention : Reuss Voigt Hill
#
# Bulk Modulus (GPa) = 35.08200 53.55038 44.31619
# Shear Modulus (GPa) = 32.83815 39.51950 36.17882
#
# Velocity S-wave (km/s) = 3.74237 4.10547 3.92812
# Velocity P-wave (km/s) = 5.79967 6.73144 6.28285
#
# Compressibility (1/GPa) = 0.02850465
#
# Stress axis : x y z
#
# Youngs Moduli (GPa) = 73.50340 77.25248 137.83021
#
# Poissons Ratio (x) = -0.05385 0.19236
# Poissons Ratio (y) = -0.05124 0.26897
# Poissons Ratio (z) = 0.10259 0.15076
#
# Static dielectric constant tensor:
#      x y z
#    x 1.900130 0.000170 -0.053220 
#    y 0.000170 1.874040 -0.016510 
#    z -0.053220 -0.016510 2.034970 
# 
# From -- ./inp_files/37092.got.cif
#   From: 2010.05.17/outbox.cif.g08.bks.cpg/sg2_19_cif.got.tgz:37092.got - 2010.06.03 11:33:40.
