data_PCOD9040611
_publ_section_title
;
Structure prediction by ZEFSAII (Michael W. Deem and Ramdas Pophale) SiO2 
 PCOD9040611
Probable space group: P -1
;
_chemical_formula_sum "Si O2"
_cell_formula_units_Z 16
_cell_length_a 13.949559
_cell_length_b 24.929228
_cell_length_c 16.820177
_cell_angle_alpha 21.928570
_cell_angle_beta 22.782894
_cell_angle_gamma 20.852795
_cell_volume 707.662702
_symmetry_space_group_name_H-M "P -1"
_symmetry_group_IT_number 2
_symmetry_cell_setting 'triclinic'
loop_
_space_group_symop_operation_xyz
x,y,z
-x,-y,-z
loop_
_atom_site_type_symbol
_atom_site_label
_atom_site_fract_x
_atom_site_fract_y
_atom_site_fract_z
Si Si1 0.690251 0.432756 0.786023
Si Si2 0.352140 0.253377 0.538393
Si Si3 0.653605 0.739807 0.708933
Si Si4 0.771336 0.988497 0.454002
Si Si5 0.679657 0.448612 0.590747
Si Si6 0.705846 0.016207 0.731122
Si Si7 0.729011 0.676458 0.927870
Si Si8 0.425735 0.823623 0.213235
O O1 0.675260 0.568514 0.671600
O O2 0.589972 0.503887 0.675353
O O3 0.036774 0.286351 0.712298
O O4 0.495548 0.363420 0.059313
O O5 0.438771 0.162571 0.682191
O O6 0.606342 0.138820 0.438524
O O7 0.716232 0.701427 0.807649
O O8 0.969601 0.662409 0.533913
O O9 0.418893 0.929502 0.593425
O O10 0.747275 0.836342 0.719179
O O11 0.114935 0.917449 0.275245
O O12 0.545393 0.624238 0.403051
O O13 0.550958 0.334368 0.821960
O O14 0.666391 0.078433 0.766059
O O15 0.000000 0.000000 0.500000
O O16 0.687511 0.851669 0.952713
O O17 0.000000 0.500000 0.000000
#
# Coordination Sequence:
#
# PCOD9040611 Si02
#       8
#     2   2   2   2   2   2   2   2
#     4  10  23  43  67  99 143 175 226 278 345 403
#     4  11  22  41  68  98 140 184 218 281 344 406
#     4  11  26  45  72  99 134 182 233 286 338 412
#     4  12  24  46  70 105 136 183 233 283 345 402
#     4  11  23  45  70  99 132 186 228 280 344 407
#     4  11  23  38  60  99 137 179 221 274 335 403
#     4  11  26  49  72  97 140 178 232 294 342 402
#     4  11  24  39  67  97 142 175 230 276 339 410
#
# _framework density 22.609642000000001
#
# number of rings (size 3 to 8) (size 9 to 14) (size 15 to 20)
#    0.000    1.000    5.000    1.125    1.750    2.500 
#    4.500    0.000    0.000    0.000    0.000    0.000 
#    0.000    0.000    0.000    0.000    0.000    0.000 
#
# Total GULP energy -89390.162336 kJ/mol
# GULP energy per Si atom -5586.885146 kJ/mol
# Density = 2.255818 g / cm^3
# Si number density = 22.609642 Si / 1000 Ang^3
#
#
#
# Elastic Constant Matrix: (Units=GPa)
#
#
# Indices 1 2 3 4 5 6 
#
# 1 73.1039 29.8411 11.0245 -0.4175 7.4119 -23.8873
# 2 29.8411 70.5468 44.8811 -3.6917 -0.4144 -36.5279
# 3 11.0245 44.8811 157.5110 8.0746 -16.8544 -14.7671
# 4 -0.4175 -3.6917 8.0746 33.0269 -12.8765 -0.8842
# 5 7.4119 -0.4144 -16.8544 -12.8765 26.5070 -2.4960
# 6 -23.8873 -36.5279 -14.7671 -0.8842 -2.4960 30.5936
#
#
#
# Elastic Compliance Matrix: (Units=1/GPa)
#
#
# Indices 1 2 3 4 5 6 
#
# 1 0.018873 -0.001666 -0.000157 -0.001530 -0.004996 0.012220
# 2 -0.001666 0.048800 -0.008671 0.011458 0.006331 0.053628
# 3 -0.000157 -0.008671 0.008802 -0.001670 0.004134 -0.005937
# 4 -0.001530 0.011458 -0.001670 0.040331 0.020504 0.014518
# 5 -0.004996 0.006331 0.004134 0.020504 0.052805 0.010555
# 6 0.012220 0.053628 -0.005937 0.014518 0.010555 0.104672
#
#
# Mechanical properties :
#
#
# Convention : Reuss Voigt Hill
#
# Bulk Modulus (GPa) = 18.02174 52.51723 35.26949
# Shear Modulus (GPa) = 15.93545 32.38651 24.16098
#
# Velocity S-wave (km/s) = 2.65770 3.78884 3.27251
# Velocity P-wave (km/s) = 4.17205 6.51296 5.46921
#
# Compressibility (1/GPa) = 0.05548853
#
# Stress axis : x y z
#
# Youngs Moduli (GPa) = 52.98435 20.49181 113.61423
#
# Poissons Ratio (x) = 0.03414 0.01782
# Poissons Ratio (y) = 0.08827 0.98511
# Poissons Ratio (z) = 0.00831 0.17768
#
# Static dielectric constant tensor:
#      x y z
#    x 1.891540 0.003280 0.002600 
#    y 0.003280 1.810900 -0.020390 
#    z 0.002600 -0.020390 1.875600 
# 
# From -- ./inp_files/574496.got.cif
#   From: 2010.05.17/outbox.cif.g08.bks.cpg/sg2_288_cif.got.tgz:574496.got - 2010.06.03 11:33:40.
