data_PCOD9040716
_publ_section_title
;
Structure prediction by ZEFSAII (Michael W. Deem and Ramdas Pophale) SiO2 
 PCOD9040716
Probable space group: P -1
;
_chemical_formula_sum "Si O2"
_cell_formula_units_Z 16
_cell_length_a 16.753746
_cell_length_b 6.256876
_cell_length_c 17.146408
_cell_angle_alpha 131.008826
_cell_angle_beta 148.910546
_cell_angle_gamma 54.608438
_cell_volume 699.688573
_symmetry_space_group_name_H-M "P -1"
_symmetry_group_IT_number 2
_symmetry_cell_setting 'triclinic'
loop_
_space_group_symop_operation_xyz
x,y,z
-x,-y,-z
loop_
_atom_site_type_symbol
_atom_site_label
_atom_site_fract_x
_atom_site_fract_y
_atom_site_fract_z
Si Si1 0.663800 0.396780 0.321071
Si Si2 0.852220 0.837921 0.154291
Si Si3 0.381504 0.726614 0.415933
Si Si4 0.889789 0.912306 0.661914
Si Si5 0.836808 0.854578 0.328022
Si Si6 0.596425 0.250168 0.736076
Si Si7 0.914722 0.188001 0.040084
Si Si8 0.664382 0.358827 0.127733
O O1 0.788684 0.635894 0.499241
O O2 0.498268 0.500525 0.239665
O O3 0.657963 0.347472 0.212513
O O4 0.721351 0.091016 0.327166
O O5 0.814691 0.797095 0.203976
O O6 0.893778 0.523553 0.082534
O O7 0.711489 0.049288 0.058252
O O8 0.003832 0.013202 0.304239
O O9 0.500000 0.500000 0.500000
O O10 0.348380 0.658907 0.281751
O O11 0.224743 0.813630 0.351144
O O12 0.472212 0.015799 0.562028
O O13 0.996532 0.858102 0.815116
O O14 0.802572 0.562665 0.270323
O O15 0.000000 0.000000 0.500000
O O16 0.735388 0.112453 0.870319
O O17 0.000000 0.000000 0.000000
O O18 0.500000 0.500000 0.000000
#
# Coordination Sequence:
#
# PCOD9040716 Si02
#       8
#     2   2   2   2   2   2   2   2
#     4  10  24  42  72  98 137 177 232 277 354 411
#     4  11  26  41  70  97 138 177 231 281 346 404
#     4  10  23  43  68  94 138 176 235 286 344 406
#     4  11  24  45  67 105 133 186 231 287 342 416
#     4  11  23  44  71  99 135 180 227 288 346 419
#     4  10  24  43  64 100 134 182 228 282 343 411
#     4  12  26  44  69  96 142 184 233 285 342 408
#     4  11  26  44  68 106 141 179 230 288 352 421
#
# _framework density 22.867317
#
# number of rings (size 3 to 8) (size 9 to 14) (size 15 to 20)
#    0.000    1.250    1.250    3.000    7.000    7.500 
#    0.000    0.000    0.000    0.000    0.000    0.000 
#    0.000    0.000    0.000    0.000    0.000    0.000 
#
# Total GULP energy -89389.417115 kJ/mol
# GULP energy per Si atom -5586.838570 kJ/mol
# Density = 2.281527 g / cm^3
# Si number density = 22.867317 Si / 1000 Ang^3
#
#
#
# Elastic Constant Matrix: (Units=GPa)
#
#
# Indices 1 2 3 4 5 6 
#
# 1 67.2667 42.2578 0.8132 3.2326 6.7849 -34.9475
# 2 42.2578 143.2795 9.5819 -5.7704 -4.0412 -44.5682
# 3 0.8132 9.5819 69.1646 -11.9615 -4.2147 -17.0001
# 4 3.2326 -5.7704 -11.9615 38.0614 -3.1731 7.3076
# 5 6.7849 -4.0412 -4.2147 -3.1731 28.1380 -5.9908
# 6 -34.9475 -44.5682 -17.0001 7.3076 -5.9908 38.6713
#
#
#
# Elastic Compliance Matrix: (Units=1/GPa)
#
#
# Indices 1 2 3 4 5 6 
#
# 1 0.032745 0.000178 0.006678 -0.007226 -0.000440 0.034030
# 2 0.000178 0.011794 0.002554 0.000008 0.005379 0.015708
# 3 0.006678 0.002554 0.019255 0.002938 0.005757 0.017780
# 4 -0.007226 0.000008 0.002938 0.030087 0.003364 -0.010394
# 5 -0.000440 0.005379 0.005757 0.003364 0.040639 0.013993
# 6 0.034030 0.015708 0.017780 -0.010394 0.013993 0.086663
#
#
# Mechanical properties :
#
#
# Convention : Reuss Voigt Hill
#
# Bulk Modulus (GPa) = 12.10444 42.77962 27.44203
# Shear Modulus (GPa) = 21.74842 36.11131 28.92987
#
# Velocity S-wave (km/s) = 3.08729 3.97818 3.56071
# Velocity P-wave (km/s) = 4.24421 6.31266 5.37880
#
# Compressibility (1/GPa) = 0.08261429
#
# Stress axis : x y z
#
# Youngs Moduli (GPa) = 30.53871 84.78730 51.93458
#
# Poissons Ratio (x) = -0.01506 -0.34683
# Poissons Ratio (y) = -0.00542 -0.13264
# Poissons Ratio (z) = -0.20395 -0.21655
#
# Static dielectric constant tensor:
#      x y z
#    x 1.830420 -0.034990 0.010470 
#    y -0.034990 1.934110 -0.005530 
#    z 0.010470 -0.005530 1.910280 
# 
# From -- ./inp_files/574944.got.cif
#   From: 2010.05.17/outbox.cif.g08.bks.cpg/sg2_288_cif.got.tgz:574944.got - 2010.06.03 11:33:40.
