data_PCOD9040928
_publ_section_title
;
Structure prediction by ZEFSAII (Michael W. Deem and Ramdas Pophale) SiO2 
 PCOD9040928
Probable space group: P -1
;
_chemical_formula_sum "Si O2"
_cell_formula_units_Z 12
_cell_length_a 7.682425
_cell_length_b 13.898843
_cell_length_c 13.396671
_cell_angle_alpha 148.112235
_cell_angle_beta 136.115457
_cell_angle_gamma 37.142151
_cell_volume 451.913777
_symmetry_space_group_name_H-M "P -1"
_symmetry_group_IT_number 2
_symmetry_cell_setting 'triclinic'
loop_
_space_group_symop_operation_xyz
x,y,z
-x,-y,-z
loop_
_atom_site_type_symbol
_atom_site_label
_atom_site_fract_x
_atom_site_fract_y
_atom_site_fract_z
Si Si1 0.570933 0.682828 0.200852
Si Si2 0.284553 0.149591 0.876628
Si Si3 0.169878 0.023584 0.184173
Si Si4 0.853161 0.395186 0.748804
Si Si5 0.038883 0.423963 0.561189
Si Si6 0.460977 0.723031 0.638960
O O1 0.305973 0.863037 0.189722
O O2 0.653276 0.685579 0.352713
O O3 0.861298 0.654277 0.241307
O O4 0.500000 0.500000 0.000000
O O5 0.541283 0.005767 0.777971
O O6 0.979025 0.284012 0.809736
O O7 0.306140 0.977278 0.813810
O O8 0.330630 0.347617 0.098134
O O9 0.971356 0.236544 0.351284
O O10 0.000000 0.000000 0.000000
O O11 0.687571 0.289058 0.536800
O O12 0.000000 0.500000 0.500000
O O13 0.808198 0.636490 0.708549
O O14 0.500000 0.500000 0.500000
#
# Coordination Sequence:
#
# PCOD9040928 Si02
#       6
#     2   2   2   2   2   2
#     4  11  25  44  67 101 140 183 236 289 347 419
#     4  10  23  43  69  98 137 184 228 289 351 424
#     4  11  23  43  70 101 140 183 233 287 353 418
#     4  10  23  46  67 100 136 182 238 285 354 414
#     4  12  24  44  68 100 141 183 231 283 350 417
#     4  12  24  42  69 101 139 177 233 288 349 418
#
# _framework density 26.553737000000002
#
# number of rings (size 3 to 8) (size 9 to 14) (size 15 to 20)
#    0.000    1.000    3.333    3.000    0.000    4.667 
#    6.000    0.000    0.000    0.000    0.000    0.000 
#    0.000    0.000    0.000    0.000    0.000    0.000 
#
# Total GULP energy -66836.139217 kJ/mol
# GULP energy per Si atom -5569.678268 kJ/mol
# Density = 2.649330 g / cm^3
# Si number density = 26.553737 Si / 1000 Ang^3
#
#
#
# Elastic Constant Matrix: (Units=GPa)
#
#
# Indices 1 2 3 4 5 6 
#
# 1 55.8137 44.1024 0.6449 13.8349 6.5182 -2.1844
# 2 44.1024 217.6148 86.8560 11.0889 13.8070 39.3275
# 3 0.6449 86.8560 150.0839 -4.0767 5.8951 2.4202
# 4 13.8349 11.0889 -4.0767 76.1471 8.2331 2.3466
# 5 6.5182 13.8070 5.8951 8.2331 33.7103 8.8918
# 6 -2.1844 39.3275 2.4202 2.3466 8.8918 47.9366
#
#
#
# Elastic Compliance Matrix: (Units=1/GPa)
#
#
# Indices 1 2 3 4 5 6 
#
# 1 0.025931 -0.008226 0.004582 -0.003105 -0.003952 0.008584
# 2 -0.008226 0.009995 -0.005644 -0.000082 0.000725 -0.008420
# 3 0.004582 -0.005644 0.009915 0.000558 -0.001663 0.004620
# 4 -0.003105 -0.000082 0.000558 0.014052 -0.002825 -0.000266
# 5 -0.003952 0.000725 -0.001663 -0.002825 0.032866 -0.006649
# 6 0.008584 -0.008420 0.004620 -0.000266 -0.006649 0.029173
#
#
# Mechanical properties :
#
#
# Convention : Reuss Voigt Hill
#
# Bulk Modulus (GPa) = 36.67740 76.30212 56.48976
# Shear Modulus (GPa) = 33.42278 51.01941 42.22110
#
# Velocity S-wave (km/s) = 3.55164 4.38809 3.99184
# Velocity P-wave (km/s) = 5.53727 7.38046 6.52428
#
# Compressibility (1/GPa) = 0.02726474
#
# Stress axis : x y z
#
# Youngs Moduli (GPa) = 38.56344 100.05033 100.85322
#
# Poissons Ratio (x) = 0.82306 -0.46209
# Poissons Ratio (y) = 0.31724 0.56920
# Poissons Ratio (z) = -0.17669 0.56467
#
# Static dielectric constant tensor:
#      x y z
#    x 1.580010 0.194980 -0.561690 
#    y 0.194980 1.872840 0.108050 
#    z -0.561690 0.108050 1.630440 
# 
# From -- ./inp_files/166962.got.cif
#   From: 2010.05.17/outbox.cif.g08.bks.cpg/sg2_84_cif.got.tgz:166962.got - 2010.06.03 11:33:40.
