data_PCOD9040139
_publ_section_title
;
Structure prediction by ZEFSAII (Michael W. Deem and Ramdas Pophale) SiO2 
 PCOD9040139
Probable space group: P -1
;
_chemical_formula_sum "Si O2"
_cell_formula_units_Z 12
_cell_length_a 11.919152
_cell_length_b 5.701680
_cell_length_c 12.284573
_cell_angle_alpha 90.031346
_cell_angle_beta 46.001425
_cell_angle_gamma 113.169067
_cell_volume 502.974484
_symmetry_space_group_name_H-M "P -1"
_symmetry_group_IT_number 2
_symmetry_cell_setting 'triclinic'
loop_
_space_group_symop_operation_xyz
x,y,z
-x,-y,-z
loop_
_atom_site_type_symbol
_atom_site_label
_atom_site_fract_x
_atom_site_fract_y
_atom_site_fract_z
Si Si1 0.209754 0.316691 0.636731
Si Si2 0.963878 0.151558 0.427285
Si Si3 0.623376 0.781529 0.985765
Si Si4 0.879809 0.060436 0.998902
Si Si5 0.565821 0.862987 0.367392
Si Si6 0.732932 0.237075 0.742931
O O1 0.365950 0.591670 0.466326
O O2 0.325399 0.259534 0.646088
O O3 0.115626 0.053144 0.620003
O O4 0.041722 0.311548 0.814312
O O5 0.819557 0.221371 0.572525
O O6 0.149034 0.454108 0.285575
O O7 0.000000 0.000000 0.500000
O O8 0.475627 0.848043 0.131392
O O9 0.751944 0.808685 0.999124
O O10 0.500000 0.500000 0.000000
O O11 0.740669 0.027146 0.820510
O O12 0.722631 0.072477 0.174032
O O13 0.000000 0.000000 0.000000
O O14 0.500000 0.000000 0.500000
#
# Coordination Sequence:
#
# PCOD9040139 Si02
#       6
#     2   2   2   2   2   2
#     4  10  23  43  63  96 133 174 227 280 347 408
#     4  11  23  41  67  98 139 181 225 293 347 417
#     4  11  23  43  68 102 143 181 230 295 351 420
#     4  10  23  44  69  98 136 187 230 280 358 416
#     4  10  24  42  67  95 128 177 231 284 339 414
#     4  10  24  39  64 108 133 183 236 276 356 429
#
# _framework density 23.858070999999999
#
# number of rings (size 3 to 8) (size 9 to 14) (size 15 to 20)
#    0.000    1.667    0.000    3.000    7.000    3.333 
#    0.000    3.333    0.000    0.000    0.000    0.000 
#    0.000    0.000    0.000    0.000    0.000    0.000 
#
# Total GULP energy -66990.827357 kJ/mol
# GULP energy per Si atom -5582.568946 kJ/mol
# Density = 2.380377 g / cm^3
# Si number density = 23.858071 Si / 1000 Ang^3
#
#
#
# Elastic Constant Matrix: (Units=GPa)
#
#
# Indices 1 2 3 4 5 6 
#
# 1 115.7449 24.8502 28.3970 -6.5114 -0.6987 23.1128
# 2 24.8502 99.3085 44.0514 -12.9907 -4.4686 21.8250
# 3 28.3970 44.0514 192.8439 13.0915 -43.7226 13.5950
# 4 -6.5114 -12.9907 13.0915 41.8985 -13.6390 -0.1523
# 5 -0.6987 -4.4686 -43.7226 -13.6390 29.2598 1.9653
# 6 23.1128 21.8250 13.5950 -0.1523 1.9653 28.9011
#
#
#
# Elastic Compliance Matrix: (Units=1/GPa)
#
#
# Indices 1 2 3 4 5 6 
#
# 1 0.010619 -0.000206 -0.001096 0.001898 -0.000007 -0.007810
# 2 -0.000206 0.014124 -0.002558 0.005627 0.001582 -0.009375
# 3 -0.001096 -0.002558 0.009181 0.000639 0.013764 -0.002442
# 4 0.001898 0.005627 0.000639 0.031171 0.016864 -0.007051
# 5 -0.000007 0.001582 0.013764 0.016864 0.063646 -0.011903
# 6 -0.007810 -0.009375 -0.002442 -0.007051 -0.011903 0.049848
#
#
# Mechanical properties :
#
#
# Convention : Reuss Voigt Hill
#
# Bulk Modulus (GPa) = 38.16558 66.94384 52.55471
# Shear Modulus (GPa) = 25.63515 40.71845 33.17680
#
# Velocity S-wave (km/s) = 3.28149 4.13570 3.73311
# Velocity P-wave (km/s) = 5.51264 7.13621 6.37631
#
# Compressibility (1/GPa) = 0.02620162
#
# Stress axis : x y z
#
# Youngs Moduli (GPa) = 94.16729 70.80262 108.92280
#
# Poissons Ratio (x) = 0.01462 0.11942
# Poissons Ratio (y) = 0.01944 0.27866
# Poissons Ratio (z) = 0.10324 0.18114
#
# Static dielectric constant tensor:
#      x y z
#    x 1.879570 -0.020700 -0.021540 
#    y -0.020700 1.831750 0.007590 
#    z -0.021540 0.007590 2.037810 
# 
# From -- ./inp_files/26150.got.cif
#   From: 2010.05.17/outbox.cif.g08.bks.cpg/sg2_14_cif.got.tgz:26150.got - 2010.06.03 11:33:40.
