data_PCOD9040742
_publ_section_title
;
Structure prediction by ZEFSAII (Michael W. Deem and Ramdas Pophale) SiO2 
 PCOD9040742
Probable space group: P -1
;
_chemical_formula_sum "Si O2"
_cell_formula_units_Z 16
_cell_length_a 15.642614
_cell_length_b 14.976158
_cell_length_c 9.001760
_cell_angle_alpha 69.395704
_cell_angle_beta 91.266769
_cell_angle_gamma 29.044917
_cell_volume 659.392712
_symmetry_space_group_name_H-M "P -1"
_symmetry_group_IT_number 2
_symmetry_cell_setting 'triclinic'
loop_
_space_group_symop_operation_xyz
x,y,z
-x,-y,-z
loop_
_atom_site_type_symbol
_atom_site_label
_atom_site_fract_x
_atom_site_fract_y
_atom_site_fract_z
Si Si1 0.584472 0.106784 0.836029
Si Si2 0.360835 0.636467 0.643636
Si Si3 0.775045 0.416400 0.233867
Si Si4 0.407303 0.425441 0.183903
Si Si5 0.819927 0.059980 0.830591
Si Si6 0.815362 0.859896 0.598667
Si Si7 0.229895 0.182478 0.690997
Si Si8 0.604778 0.923044 0.712351
O O1 0.346370 0.404560 0.734765
O O2 0.741686 0.031650 0.825058
O O3 0.507426 0.109090 0.711593
O O4 0.743334 0.891383 0.102791
O O5 0.183354 0.736512 0.630928
O O6 0.427249 0.652986 0.745421
O O7 0.633260 0.298948 0.810022
O O8 0.248750 0.804598 0.394653
O O9 0.600234 0.592359 0.979055
O O10 0.001244 0.246748 0.293168
O O11 0.532797 0.203017 0.399807
O O12 0.123961 0.743495 0.049029
O O13 0.843026 0.806496 0.457584
O O14 0.850215 0.727193 0.775068
O O15 0.000000 0.500000 0.500000
O O16 0.509358 0.933575 0.801823
O O17 0.500000 0.000000 0.500000
#
# Coordination Sequence:
#
# PCOD9040742 Si02
#       8
#     2   2   2   2   2   2   2   2
#     4  11  22  46  69 101 136 181 229 279 351 407
#     4  10  23  44  65 101 137 182 235 275 333 395
#     4  11  24  42  69  96 142 181 229 281 333 409
#     4  12  22  40  67  99 140 179 231 277 339 408
#     4  10  24  43  68 100 138 184 226 281 336 407
#     4  11  25  45  65 105 137 181 226 284 348 400
#     4  11  24  45  70 101 134 176 231 287 345 410
#     4  10  23  43  68  97 135 172 227 282 344 409
#
# _framework density 24.264748000000001
#
# number of rings (size 3 to 8) (size 9 to 14) (size 15 to 20)
#    0.000    1.250    1.250    4.125    1.750    3.000 
#    6.750    1.875    0.000    0.000    0.000    0.000 
#    0.000    0.000    0.000    0.000    0.000    0.000 
#
# Total GULP energy -89310.223430 kJ/mol
# GULP energy per Si atom -5581.888964 kJ/mol
# Density = 2.420952 g / cm^3
# Si number density = 24.264748 Si / 1000 Ang^3
#
#
#
# Elastic Constant Matrix: (Units=GPa)
#
#
# Indices 1 2 3 4 5 6 
#
# 1 167.0142 28.7507 57.5988 17.6422 1.6336 -7.7111
# 2 28.7507 87.4111 35.3569 12.8614 4.4009 9.8949
# 3 57.5988 35.3569 75.6018 5.5758 -21.5356 2.9254
# 4 17.6422 12.8614 5.5758 42.4320 0.1855 3.1995
# 5 1.6336 4.4009 -21.5356 0.1855 45.5402 10.0671
# 6 -7.7111 9.8949 2.9254 3.1995 10.0671 57.4093
#
#
#
# Elastic Compliance Matrix: (Units=1/GPa)
#
#
# Indices 1 2 3 4 5 6 
#
# 1 0.009445 0.000981 -0.009023 -0.003216 -0.005276 0.002664
# 2 0.000981 0.015956 -0.009566 -0.003895 -0.005890 -0.000881
# 3 -0.009023 -0.009566 0.029015 0.003070 0.015839 -0.003990
# 4 -0.003216 -0.003895 0.003070 0.025803 0.002224 -0.001745
# 5 -0.005276 -0.005890 0.015839 0.002224 0.031560 -0.006159
# 6 0.002664 -0.000881 -0.003990 -0.001745 -0.006159 0.019309
#
#
# Mechanical properties :
#
#
# Convention : Reuss Voigt Hill
#
# Bulk Modulus (GPa) = 52.08528 63.71555 57.90041
# Shear Modulus (GPa) = 28.95095 42.96433 35.95764
#
# Velocity S-wave (km/s) = 3.45792 4.21247 3.85371
# Velocity P-wave (km/s) = 6.12004 7.06933 6.61174
#
# Compressibility (1/GPa) = 0.01919928
#
# Stress axis : x y z
#
# Youngs Moduli (GPa) = 105.87649 62.67078 34.46454
#
# Poissons Ratio (x) = -0.06146 0.31099
# Poissons Ratio (y) = -0.10382 0.32969
# Poissons Ratio (z) = 0.95536 0.59951
#
# Static dielectric constant tensor:
#      x y z
#    x 1.925120 -0.027930 -0.011320 
#    y -0.027930 2.001080 -0.070020 
#    z -0.011320 -0.070020 1.982680 
# 
# From -- ./inp_files/314908.got.cif
#   From: 2010.05.17/outbox.cif.g08.bks.cpg/sg2_158_cif.got.tgz:314908.got - 2010.06.03 11:33:40.
