data_PCOD9040977
_publ_section_title
;
Structure prediction by ZEFSAII (Michael W. Deem and Ramdas Pophale) SiO2 
 PCOD9040977
Probable space group: P -1
;
_chemical_formula_sum "Si O2"
_cell_formula_units_Z 10
_cell_length_a 8.933258
_cell_length_b 9.570896
_cell_length_c 9.361599
_cell_angle_alpha 125.184947
_cell_angle_beta 52.297478
_cell_angle_gamma 86.071183
_cell_volume 392.919734
_symmetry_space_group_name_H-M "P -1"
_symmetry_group_IT_number 2
_symmetry_cell_setting 'triclinic'
loop_
_space_group_symop_operation_xyz
x,y,z
-x,-y,-z
loop_
_atom_site_type_symbol
_atom_site_label
_atom_site_fract_x
_atom_site_fract_y
_atom_site_fract_z
Si Si1 0.173755 0.236608 0.465197
Si Si2 0.784878 0.264346 0.197047
Si Si3 0.243046 0.710904 0.437793
Si Si4 0.474116 0.754673 0.901103
Si Si5 0.769638 0.892701 0.338764
O O1 0.271173 0.344646 0.387750
O O2 0.147828 0.266773 0.667155
O O3 0.938943 0.296410 0.556439
O O4 0.394463 0.965260 0.161475
O O5 0.500000 0.500000 0.500000
O O6 0.825850 0.209434 0.307928
O O7 0.736398 0.144149 0.037152
O O8 0.010337 0.240837 0.985791
O O9 0.486592 0.445621 0.156619
O O10 0.260574 0.889945 0.470337
O O11 0.500000 0.000000 0.500000
#
# Coordination Sequence:
#
# PCOD9040977 Si02
#       5
#     2   2   2   2   2
#     4  11  24  43  70 102 140 175 231 291 335 409
#     4  10  23  46  70  96 139 186 226 274 347 416
#     4  11  23  44  73  96 140 186 226 278 345 416
#     4  10  23  43  70 101 137 184 227 273 356 409
#     4  12  26  44  71 104 140 178 233 289 340 399
#
# _framework density 25.450488
#
# number of rings (size 3 to 8) (size 9 to 14) (size 15 to 20)
#    0.000    1.200    2.000    3.000    5.600    0.800 
#    3.600    8.000    0.000    0.000    0.000    0.000 
#    0.000    0.000    0.000    0.000    0.000    0.000 
#
# Total GULP energy -55902.930256 kJ/mol
# GULP energy per Si atom -5590.293026 kJ/mol
# Density = 2.539256 g / cm^3
# Si number density = 25.450488 Si / 1000 Ang^3
#
#
#
# Elastic Constant Matrix: (Units=GPa)
#
#
# Indices 1 2 3 4 5 6 
#
# 1 144.9275 14.6083 15.9910 -16.7235 -41.9589 -17.1349
# 2 14.6083 105.1728 14.1986 -3.1078 -5.2321 -9.5600
# 3 15.9910 14.1986 96.7249 -20.0308 -2.8877 -3.7184
# 4 -16.7235 -3.1078 -20.0308 45.6377 1.6402 6.4508
# 5 -41.9589 -5.2321 -2.8877 1.6402 44.8985 1.6293
# 6 -17.1349 -9.5600 -3.7184 6.4508 1.6293 48.5412
#
#
#
# Elastic Compliance Matrix: (Units=1/GPa)
#
#
# Indices 1 2 3 4 5 6 
#
# 1 0.010407 -0.000546 -0.000683 0.002738 0.009416 0.002834
# 2 -0.000546 0.009937 -0.001367 -0.000381 0.000512 0.001693
# 3 -0.000683 -0.001367 0.011631 0.004805 -0.000216 -0.000251
# 4 0.002738 -0.000381 0.004805 0.025232 0.001980 -0.002160
# 5 0.009416 0.000512 -0.000216 0.001980 0.030969 0.002105
# 6 0.002834 0.001693 -0.000251 -0.002160 0.002105 0.022132
#
#
# Mechanical properties :
#
#
# Convention : Reuss Voigt Hill
#
# Bulk Modulus (GPa) = 37.33881 48.49121 42.91501
# Shear Modulus (GPa) = 40.18376 47.95066 44.06721
#
# Velocity S-wave (km/s) = 3.97785 4.34530 4.16563
# Velocity P-wave (km/s) = 5.98337 6.65358 6.32735
#
# Compressibility (1/GPa) = 0.02678178
#
# Stress axis : x y z
#
# Youngs Moduli (GPa) = 96.08559 100.63730 85.97608
#
# Poissons Ratio (x) = 0.05499 0.05876
# Poissons Ratio (y) = 0.05250 0.11752
# Poissons Ratio (z) = 0.06567 0.13756
#
# Static dielectric constant tensor:
#      x y z
#    x 1.954990 0.011830 0.056640 
#    y 0.011830 2.015370 0.055410 
#    z 0.056640 0.055410 2.153800 
# 
# From -- ./inp_files/147643.got.cif
#   From: 2010.05.17/outbox.cif.g08.bks.cpg/sg2_74_cif.got.tgz:147643.got - 2010.06.03 11:33:40.
