data_PCOD9040903
_publ_section_title
;
Structure prediction by ZEFSAII (Michael W. Deem and Ramdas Pophale) SiO2 
 PCOD9040903
Probable space group: P -1
;
_chemical_formula_sum "Si O2"
_cell_formula_units_Z 16
_cell_length_a 12.109641
_cell_length_b 10.703693
_cell_length_c 14.340866
_cell_angle_alpha 60.251013
_cell_angle_beta 148.107582
_cell_angle_gamma 97.449618
_cell_volume 658.110949
_symmetry_space_group_name_H-M "P -1"
_symmetry_group_IT_number 2
_symmetry_cell_setting 'triclinic'
loop_
_space_group_symop_operation_xyz
x,y,z
-x,-y,-z
loop_
_atom_site_type_symbol
_atom_site_label
_atom_site_fract_x
_atom_site_fract_y
_atom_site_fract_z
Si Si1 0.206515 0.904324 0.866152
Si Si2 0.475892 0.302138 0.004213
Si Si3 0.102163 0.766096 0.101856
Si Si4 0.319936 0.235928 0.618096
Si Si5 0.318758 0.153322 0.090725
Si Si6 0.774436 0.910911 0.636395
Si Si7 0.324957 0.361488 0.394296
Si Si8 0.104200 0.708245 0.562004
O O1 0.004054 0.859619 0.745870
O O2 0.347146 0.860424 0.883253
O O3 0.445556 0.779635 0.156241
O O4 0.037021 0.126055 0.675315
O O5 0.291883 0.494800 0.743773
O O6 0.290052 0.292471 0.944166
O O7 0.693612 0.284554 0.233076
O O8 0.216223 0.565912 0.213717
O O9 0.357304 0.754236 0.312520
O O10 0.946807 0.800199 0.073758
O O11 0.891624 0.912385 0.818556
O O12 0.184048 0.386938 0.383168
O O13 0.119873 0.260002 0.541839
O O14 0.485024 0.041316 0.752579
O O15 0.503022 0.106897 0.331700
O O16 0.724408 0.760481 0.655961
#
# Coordination Sequence:
#
# PCOD9040903 Si02
#       8
#     2   2   2   2   2   2   2   2
#     4  12  23  44  66  97 138 174 223 274 335 398
#     4  11  23  41  68  97 132 178 219 276 333 403
#     4  11  23  45  67  99 132 171 229 275 337 397
#     4  11  23  42  66  93 136 176 219 280 333 395
#     4  11  23  41  67  94 131 176 220 277 334 397
#     4  11  23  43  69  95 132 178 219 278 336 397
#     4  10  23  43  69  96 131 177 219 285 333 391
#     4  11  23  41  65  98 132 176 225 270 336 395
#
# _framework density 24.312011999999999
#
# number of rings (size 3 to 8) (size 9 to 14) (size 15 to 20)
#    0.000    1.000    3.750    3.750    0.000    3.500 
#    4.500    0.000    0.000    0.000    0.000    0.000 
#    0.000    0.000    0.000    0.000    0.000    0.000 
#
# Total GULP energy -89466.253979 kJ/mol
# GULP energy per Si atom -5591.640874 kJ/mol
# Density = 2.425668 g / cm^3
# Si number density = 24.312012 Si / 1000 Ang^3
#
#
#
# Elastic Constant Matrix: (Units=GPa)
#
#
# Indices 1 2 3 4 5 6 
#
# 1 77.4701 16.9937 27.2180 18.2495 23.9423 13.3937
# 2 16.9937 62.8963 27.1867 -0.5693 0.1512 12.6546
# 3 27.2180 27.1867 34.6001 8.0505 2.0708 -0.6196
# 4 18.2495 -0.5693 8.0505 38.9872 9.1005 2.6343
# 5 23.9423 0.1512 2.0708 9.1005 40.1556 1.7550
# 6 13.3937 12.6546 -0.6196 2.6343 1.7550 21.3305
#
#
#
# Elastic Compliance Matrix: (Units=1/GPa)
#
#
# Indices 1 2 3 4 5 6 
#
# 1 0.031715 0.010376 -0.031987 -0.002740 -0.015569 -0.025380
# 2 0.010376 0.035234 -0.037590 0.006443 -0.004577 -0.028929
# 3 -0.031987 -0.037590 0.085791 -0.009837 0.015058 0.044854
# 4 -0.002740 0.006443 -0.009837 0.030509 -0.004545 -0.005781
# 5 -0.015569 -0.004577 0.015058 -0.004545 0.033989 0.010694
# 6 -0.025380 -0.028929 0.044854 -0.005781 0.010694 0.081117
#
#
# Mechanical properties :
#
#
# Convention : Reuss Voigt Hill
#
# Bulk Modulus (GPa) = 29.12198 35.30703 32.21450
# Shear Modulus (GPa) = 11.67672 26.99920 19.33796
#
# Velocity S-wave (km/s) = 2.19392 3.33608 2.82336
# Velocity P-wave (km/s) = 4.29210 5.42155 4.88955
#
# Compressibility (1/GPa) = 0.03433833
#
# Stress axis : x y z
#
# Youngs Moduli (GPa) = 31.53054 28.38201 11.65628
#
# Poissons Ratio (x) = -0.29450 0.37285
# Poissons Ratio (y) = -0.32717 0.43816
# Poissons Ratio (z) = 1.00856 1.06688
#
# Static dielectric constant tensor:
#      x y z
#    x 1.939010 0.024360 -0.037730 
#    y 0.024360 1.955180 -0.031260 
#    z -0.037730 -0.031260 1.946230 
# 
# From -- ./inp_files/462089.got.cif
#   From: 2010.05.17/outbox.cif.g08.bks.cpg/sg2_232_cif.got.tgz:462089.got - 2010.06.03 11:33:40.
