data_PCOD9040731
_publ_section_title
;
Structure prediction by ZEFSAII (Michael W. Deem and Ramdas Pophale) SiO2 
 PCOD9040731
Probable space group: P -1
;
_chemical_formula_sum "Si O2"
_cell_formula_units_Z 16
_cell_length_a 9.229650
_cell_length_b 14.242421
_cell_length_c 25.393891
_cell_angle_alpha 156.597595
_cell_angle_beta 143.399790
_cell_angle_gamma 45.758672
_cell_volume 779.660601
_symmetry_space_group_name_H-M "P -1"
_symmetry_group_IT_number 2
_symmetry_cell_setting 'triclinic'
loop_
_space_group_symop_operation_xyz
x,y,z
-x,-y,-z
loop_
_atom_site_type_symbol
_atom_site_label
_atom_site_fract_x
_atom_site_fract_y
_atom_site_fract_z
Si Si1 0.808205 0.772453 0.345382
Si Si2 0.387155 0.703651 0.102585
Si Si3 0.649206 0.544653 0.403858
Si Si4 0.096540 0.398861 0.029351
Si Si5 0.140006 0.377308 0.218990
Si Si6 0.076500 0.845042 0.750153
Si Si7 0.588703 0.753492 0.385025
Si Si8 0.865436 0.934137 0.844022
O O1 0.557298 0.767804 0.236542
O O2 0.755278 0.784039 0.397716
O O3 0.927662 0.536812 0.247213
O O4 0.000000 0.000000 0.500000
O O5 0.351221 0.940662 0.181051
O O6 0.500000 0.500000 0.000000
O O7 0.111801 0.592948 0.983285
O O8 0.372934 0.529391 0.335945
O O9 0.835058 0.685884 0.572676
O O10 0.707589 0.675322 0.432573
O O11 0.701717 0.278243 0.270110
O O12 0.354171 0.551431 0.199683
O O13 0.000000 0.500000 0.000000
O O14 0.110756 0.119417 0.883469
O O15 0.214614 0.273577 0.243524
O O16 0.033713 0.149430 0.035034
O O17 0.026329 0.847023 0.799032
O O18 0.500000 0.000000 0.500000
#
# Coordination Sequence:
#
# PCOD9040731 Si02
#       8
#     2   2   2   2   2   2   2   2
#     4  12  27  44  66 100 139 177 217 278 340 401
#     4  11  23  43  67 100 136 174 223 274 333 402
#     4  11  24  44  66  98 136 174 222 280 334 396
#     4  11  23  42  69  96 128 180 223 276 327 394
#     4  11  24  43  68  99 132 175 227 275 341 396
#     4  10  24  43  65  95 134 174 225 275 333 392
#     4  12  26  44  69  99 136 175 225 276 335 401
#     4  10  23  43  68  96 130 177 226 275 328 403
#
# _framework density 20.521750999999998
#
# number of rings (size 3 to 8) (size 9 to 14) (size 15 to 20)
#    0.000    1.000    2.500    3.750    7.000    5.500 
#    4.500    0.000    0.000    0.000    0.000    0.000 
#    0.000    0.000    0.000    0.000    0.000    0.000 
#
# Total GULP energy -89477.017133 kJ/mol
# GULP energy per Si atom -5592.313571 kJ/mol
# Density = 2.047504 g / cm^3
# Si number density = 20.521751 Si / 1000 Ang^3
#
#
#
# Elastic Constant Matrix: (Units=GPa)
#
#
# Indices 1 2 3 4 5 6 
#
# 1 119.6885 34.7658 44.3017 1.6624 -3.4238 11.4783
# 2 34.7658 77.7969 -2.3145 11.7401 -2.4938 12.9316
# 3 44.3017 -2.3145 55.9588 19.2193 -9.3732 -3.2663
# 4 1.6624 11.7401 19.2193 26.0798 -1.8079 -2.4556
# 5 -3.4238 -2.4938 -9.3732 -1.8079 34.6070 1.8305
# 6 11.4783 12.9316 -3.2663 -2.4556 1.8305 42.5218
#
#
#
# Elastic Compliance Matrix: (Units=1/GPa)
#
#
# Indices 1 2 3 4 5 6 
#
# 1 0.022917 -0.014762 -0.028544 0.025662 -0.005071 -0.002189
# 2 -0.014762 0.024970 0.022650 -0.026971 0.005258 -0.003653
# 3 -0.028544 0.022650 0.061797 -0.052853 0.012681 0.001966
# 4 0.025662 -0.026971 -0.052853 0.087406 -0.009295 0.002663
# 5 -0.005071 0.005258 0.012681 -0.009295 0.031783 -0.001161
# 6 -0.002189 -0.003653 0.001966 0.002663 -0.001161 0.025574
#
#
# Mechanical properties :
#
#
# Convention : Reuss Voigt Hill
#
# Bulk Modulus (GPa) = 14.62580 45.21668 29.92124
# Shear Modulus (GPa) = 15.69613 32.42114 24.05863
#
# Velocity S-wave (km/s) = 2.76860 3.97904 3.42767
# Velocity P-wave (km/s) = 4.16685 6.57204 5.50247
#
# Compressibility (1/GPa) = 0.06837235
#
# Stress axis : x y z
#
# Youngs Moduli (GPa) = 43.63620 40.04735 16.18205
#
# Poissons Ratio (x) = 0.59116 0.46191
# Poissons Ratio (y) = 0.64414 -0.36653
# Poissons Ratio (z) = 1.24557 -0.90708
#
# Static dielectric constant tensor:
#      x y z
#    x 1.707310 0.044610 0.039960 
#    y 0.044610 1.674090 -0.108930 
#    z 0.039960 -0.108930 1.535600 
# 
# From -- ./inp_files/260549.got.cif
#   From: 2010.05.17/outbox.cif.g08.bks.cpg/sg2_131_cif.got.tgz:260549.got - 2010.06.03 11:33:40.
