data_PCOD9040432
_publ_section_title
;
Structure prediction by ZEFSAII (Michael W. Deem and Ramdas Pophale) SiO2 
 PCOD9040432
Probable space group: P -1
;
_chemical_formula_sum "Si O2"
_cell_formula_units_Z 15
_cell_length_a 14.991374
_cell_length_b 12.194537
_cell_length_c 8.686526
_cell_angle_alpha 88.261447
_cell_angle_beta 109.362033
_cell_angle_gamma 32.644185
_cell_volume 641.521269
_symmetry_space_group_name_H-M "P -1"
_symmetry_group_IT_number 2
_symmetry_cell_setting 'triclinic'
loop_
_space_group_symop_operation_xyz
x,y,z
-x,-y,-z
loop_
_atom_site_type_symbol
_atom_site_label
_atom_site_fract_x
_atom_site_fract_y
_atom_site_fract_z
Si Si1 0.992777 0.016789 0.809481
Si Si2 0.475628 0.302672 0.178571
Si Si3 0.819774 0.542170 0.402182
Si Si4 0.500000 0.500000 0.000000
Si Si5 0.718836 0.520867 0.627456
Si Si6 0.744708 0.833212 0.186152
Si Si7 0.979606 0.793468 0.743201
Si Si8 0.081375 0.292832 0.015730
O O1 0.892053 0.008929 0.688381
O O2 0.240865 0.771417 0.901093
O O3 0.843742 0.276900 0.672162
O O4 0.000000 0.000000 0.000000
O O5 0.551565 0.336134 0.144542
O O6 0.466164 0.310565 0.358026
O O7 0.608652 0.059347 0.202305
O O8 0.226044 0.548448 0.965301
O O9 0.672331 0.628934 0.434489
O O10 0.702360 0.751804 0.212402
O O11 0.969051 0.306624 0.391398
O O12 0.995328 0.424341 0.611487
O O13 0.891583 0.418653 0.820633
O O14 0.735709 0.880341 0.002703
O O15 0.863632 0.829699 0.791060
O O16 0.000000 0.500000 0.000000
#
# Coordination Sequence:
#
# PCOD9040432 Si02
#       8
#     2   2   2   1   2   2   2   2
#     4  11  19  37  62  89 115 156 199 248 296 353
#     4  10  21  36  59  87 109 157 203 245 285 353
#     4  10  21  38  54  82 120 156 189 239 306 355
#     4  10  18  32  62  86 112 142 206 248 288 340
#     4  10  21  37  57  81 121 157 192 239 305 356
#     4  10  21  35  59  81 116 159 195 235 299 361
#     4  10  21  36  59  88 115 146 199 247 295 343
#     4  10  17  33  56  82 109 149 194 240 278 348
#
# _framework density 23.381920000000001
#
# number of rings (size 3 to 8) (size 9 to 14) (size 15 to 20)
#    0.000    1.867    5.333    1.600    0.000    1.600 
#    0.000    1.333    0.000    4.000    0.000    0.000 
#    0.000    0.000    0.000    0.000    0.000    0.000 
#
# Total GULP energy -83547.233686 kJ/mol
# GULP energy per Si atom -5569.815579 kJ/mol
# Density = 2.332870 g / cm^3
# Si number density = 23.381920 Si / 1000 Ang^3
#
#
#
# Elastic Constant Matrix: (Units=GPa)
#
#
# Indices 1 2 3 4 5 6 
#
# 1 166.9258 79.2033 47.5918 15.2647 -52.9248 -0.6266
# 2 79.2033 141.1063 17.8374 15.9127 -32.8033 13.9147
# 3 47.5918 17.8374 73.0454 1.4553 -23.2829 -0.1675
# 4 15.2647 15.9127 1.4553 32.8415 -8.8906 -14.1863
# 5 -52.9248 -32.8033 -23.2829 -8.8906 44.5021 3.0917
# 6 -0.6266 13.9147 -0.1675 -14.1863 3.0917 50.7964
#
#
#
# Elastic Compliance Matrix: (Units=1/GPa)
#
#
# Indices 1 2 3 4 5 6 
#
# 1 0.011972 -0.004101 -0.003921 -0.000757 0.008977 0.000500
# 2 -0.004101 0.010942 0.001089 -0.004532 0.003165 -0.004503
# 3 -0.003921 0.001089 0.017810 0.002067 0.005875 -0.000068
# 4 -0.000757 -0.004532 0.002067 0.039090 0.003821 0.011923
# 5 0.008977 0.003165 0.005875 0.003821 0.039462 -0.002072
# 6 0.000500 -0.004503 -0.000068 0.011923 -0.002072 0.024382
#
#
# Mechanical properties :
#
#
# Convention : Reuss Voigt Hill
#
# Bulk Modulus (GPa) = 37.23283 74.48250 55.85766
# Shear Modulus (GPa) = 30.03408 41.39100 35.71254
#
# Velocity S-wave (km/s) = 3.58788 4.21196 3.91238
# Velocity P-wave (km/s) = 5.75519 7.45506 6.65959
#
# Compressibility (1/GPa) = 0.02685802
#
# Stress axis : x y z
#
# Youngs Moduli (GPa) = 83.52848 91.38954 56.14741
#
# Poissons Ratio (x) = 0.37481 0.22015
# Poissons Ratio (y) = 0.34257 -0.06114
# Poissons Ratio (z) = 0.32751 -0.09952
#
# Static dielectric constant tensor:
#      x y z
#    x 1.922330 -0.004030 0.008760 
#    y -0.004030 1.868170 -0.018270 
#    z 0.008760 -0.018270 1.969030 
# 
# From -- ./inp_files/171827.got.cif
#   From: 2010.05.17/outbox.cif.g08.bks.cpg/sg2_86_cif.got.tgz:171827.got - 2010.06.03 11:33:40.
