data_PCOD9040823
_publ_section_title
;
Structure prediction by ZEFSAII (Michael W. Deem and Ramdas Pophale) SiO2 
 PCOD9040823
Probable space group: P -1
;
_chemical_formula_sum "Si O2"
_cell_formula_units_Z 16
_cell_length_a 10.400079
_cell_length_b 9.479853
_cell_length_c 11.746674
_cell_angle_alpha 115.564381
_cell_angle_beta 47.271608
_cell_angle_gamma 127.360947
_cell_volume 675.795867
_symmetry_space_group_name_H-M "P -1"
_symmetry_group_IT_number 2
_symmetry_cell_setting 'triclinic'
loop_
_space_group_symop_operation_xyz
x,y,z
-x,-y,-z
loop_
_atom_site_type_symbol
_atom_site_label
_atom_site_fract_x
_atom_site_fract_y
_atom_site_fract_z
Si Si1 0.072441 0.893734 0.336899
Si Si2 0.035817 0.932349 0.731951
Si Si3 0.578564 0.922670 0.324876
Si Si4 0.589459 0.667768 0.923088
Si Si5 0.525938 0.001286 0.139345
Si Si6 0.085749 0.507064 0.756779
Si Si7 0.826885 0.331706 0.484776
Si Si8 0.705782 0.387257 0.096077
O O1 0.305042 0.970270 0.244057
O O2 0.968273 0.682282 0.333174
O O3 0.020494 0.940010 0.260422
O O4 0.000000 0.000000 0.500000
O O5 0.825912 0.766556 0.831940
O O6 0.134726 0.834015 0.565468
O O7 0.202511 0.044339 0.763879
O O8 0.587682 0.025778 0.241601
O O9 0.395395 0.722730 0.357747
O O10 0.500000 0.000000 0.500000
O O11 0.489745 0.612878 0.838465
O O12 0.500000 0.500000 0.000000
O O13 0.533198 0.822554 0.041498
O O14 0.666287 0.183203 0.054123
O O15 0.154127 0.638199 0.652873
O O16 0.237547 0.546591 0.785031
O O17 0.889225 0.490194 0.934225
O O18 0.000000 0.500000 0.500000
#
# Coordination Sequence:
#
# PCOD9040823 Si02
#       8
#     2   2   2   2   2   2   2   2
#     4  12  24  44  70 106 145 193 244 290 364 453
#     4  11  24  43  66 102 140 182 248 294 363 438
#     4  10  23  43  69 101 140 188 238 296 362 438
#     4  12  26  43  72 107 146 187 254 311 368 444
#     4  12  24  47  74 100 146 198 241 301 378 440
#     4  11  24  43  73 108 145 193 244 301 373 430
#     4  11  23  45  74 101 144 195 243 300 364 436
#     4  11  23  45  73 105 147 191 240 308 370 440
#
# _framework density 23.675789000000002
#
# number of rings (size 3 to 8) (size 9 to 14) (size 15 to 20)
#    0.000    0.750    2.500    6.375    1.750    2.500 
#    0.000    1.250    0.000    0.000    0.000    0.000 
#    0.000    0.000    0.000    0.000    0.000    0.000 
#
# Total GULP energy -89463.532079 kJ/mol
# GULP energy per Si atom -5591.470755 kJ/mol
# Density = 2.362190 g / cm^3
# Si number density = 23.675789 Si / 1000 Ang^3
#
#
#
# Elastic Constant Matrix: (Units=GPa)
#
#
# Indices 1 2 3 4 5 6 
#
# 1 206.0361 31.9430 45.4399 -25.6955 -0.7258 23.9746
# 2 31.9430 62.8967 -0.4661 -16.3731 -4.1266 11.0617
# 3 45.4399 -0.4661 63.0950 -15.1162 6.6024 6.9827
# 4 -25.6955 -16.3731 -15.1162 49.3768 -0.9497 1.4261
# 5 -0.7258 -4.1266 6.6024 -0.9497 48.2427 -9.1055
# 6 23.9746 11.0617 6.9827 1.4261 -9.1055 46.3850
#
#
#
# Elastic Compliance Matrix: (Units=1/GPa)
#
#
# Indices 1 2 3 4 5 6 
#
# 1 0.006619 -0.002659 -0.004234 0.001331 0.000067 -0.002177
# 2 -0.002659 0.019715 0.004019 0.006510 0.000462 -0.004042
# 3 -0.004234 0.004019 0.020859 0.005535 -0.002968 -0.002663
# 4 0.001331 0.006510 0.005535 0.024903 -0.000431 -0.003924
# 5 0.000067 0.000462 -0.002968 -0.000431 0.022043 0.004643
# 6 -0.002177 -0.004042 -0.002663 -0.003924 0.004643 0.025081
#
#
# Mechanical properties :
#
#
# Convention : Reuss Voigt Hill
#
# Bulk Modulus (GPa) = 24.12765 53.98460 39.05613
# Shear Modulus (GPa) = 36.02736 45.80829 40.91782
#
# Velocity S-wave (km/s) = 3.90512 4.40343 4.16174
# Velocity P-wave (km/s) = 5.52687 6.97887 6.29488
#
# Compressibility (1/GPa) = 0.04144622
#
# Stress axis : x y z
#
# Youngs Moduli (GPa) = 151.07800 50.72257 47.94008
#
# Poissons Ratio (x) = 0.13488 0.20297
# Poissons Ratio (y) = 0.40175 -0.19269
# Poissons Ratio (z) = 0.63963 -0.20387
#
# Static dielectric constant tensor:
#      x y z
#    x 1.954110 0.086280 0.003790 
#    y 0.086280 1.956780 0.000680 
#    z 0.003790 0.000680 1.945460 
# 
# From -- ./inp_files/382545.got.cif
#   From: 2010.05.17/outbox.cif.g08.bks.cpg/sg2_192_cif.got.tgz:382545.got - 2010.06.03 11:33:40.
