data_PCOD9040732
_publ_section_title
;
Structure prediction by ZEFSAII (Michael W. Deem and Ramdas Pophale) SiO2 
 PCOD9040732
Probable space group: P -1
;
_chemical_formula_sum "Si O2"
_cell_formula_units_Z 12
_cell_length_a 14.328407
_cell_length_b 8.052273
_cell_length_c 13.772686
_cell_angle_alpha 117.143602
_cell_angle_beta 25.062213
_cell_angle_gamma 128.232233
_cell_volume 502.062795
_symmetry_space_group_name_H-M "P -1"
_symmetry_group_IT_number 2
_symmetry_cell_setting 'triclinic'
loop_
_space_group_symop_operation_xyz
x,y,z
-x,-y,-z
loop_
_atom_site_type_symbol
_atom_site_label
_atom_site_fract_x
_atom_site_fract_y
_atom_site_fract_z
Si Si1 0.651022 0.109005 0.108803
Si Si2 0.197551 0.467701 0.618977
Si Si3 0.037492 0.302234 0.212552
Si Si4 0.400344 0.110764 0.549159
Si Si5 0.600588 0.742209 0.760007
Si Si6 0.736615 0.755001 0.847935
O O1 0.513102 0.111763 0.337419
O O2 0.501644 0.118247 0.156842
O O3 0.943588 0.332681 0.890334
O O4 0.673778 0.898783 0.015953
O O5 0.461846 0.640328 0.474284
O O6 0.226114 0.287468 0.488710
O O7 0.130379 0.596675 0.637107
O O8 0.088457 0.934065 0.786710
O O9 0.031638 0.251906 0.319115
O O10 0.336441 0.493195 0.956087
O O11 0.500000 0.000000 0.500000
O O12 0.747896 0.827931 0.746150
O O13 0.500000 0.500000 0.000000
#
# Coordination Sequence:
#
# PCOD9040732 Si02
#       6
#     2   2   2   2   2   2
#     4  11  24  44  64  99 134 168 220 263 332 384
#     4  10  23  44  67  96 135 172 214 264 328 389
#     4   9  22  42  64  99 126 178 214 265 316 378
#     4  10  23  43  68  96 131 171 219 271 318 385
#     4  10  23  44  67  96 135 172 214 264 328 389
#     4  10  23  43  68  96 131 171 219 271 318 385
#
# _framework density 23.901392000000001
#
# number of rings (size 3 to 8) (size 9 to 14) (size 15 to 20)
#    0.000    2.000    0.000    1.000   11.667    2.667 
#   12.000    0.000    0.000    0.000    0.000    0.000 
#    0.000    0.000    0.000    0.000    0.000    0.000 
#
# Total GULP energy -67064.455166 kJ/mol
# GULP energy per Si atom -5588.704597 kJ/mol
# Density = 2.384699 g / cm^3
# Si number density = 23.901392 Si / 1000 Ang^3
#
#
#
# Elastic Constant Matrix: (Units=GPa)
#
#
# Indices 1 2 3 4 5 6 
#
# 1 123.9652 37.0834 17.5464 -14.8023 -6.6148 3.8488
# 2 37.0834 96.5213 9.4902 -4.9833 -14.0514 8.7909
# 3 17.5464 9.4902 46.5801 -10.4188 1.7391 -0.9075
# 4 -14.8023 -4.9833 -10.4188 33.4933 8.7197 -2.7948
# 5 -6.6148 -14.0514 1.7391 8.7197 27.8950 -4.1370
# 6 3.8488 8.7909 -0.9075 -2.7948 -4.1370 36.3810
#
#
#
# Elastic Compliance Matrix: (Units=1/GPa)
#
#
# Indices 1 2 3 4 5 6 
#
# 1 0.009772 -0.003399 -0.002272 0.003167 -0.000251 -0.000054
# 2 -0.003399 0.012858 -0.002059 -0.002004 0.006090 -0.002260
# 3 -0.002272 -0.002059 0.024738 0.007900 -0.005388 0.001349
# 4 0.003167 -0.002004 0.007900 0.036677 -0.011948 0.001805
# 5 -0.000251 0.006090 -0.005388 -0.011948 0.043287 0.002425
# 6 -0.000054 -0.002260 0.001349 0.001805 0.002425 0.028487
#
#
# Mechanical properties :
#
#
# Convention : Reuss Voigt Hill
#
# Bulk Modulus (GPa) = 31.33975 43.92296 37.63135
# Shear Modulus (GPa) = 27.48556 33.08363 30.28459
#
# Velocity S-wave (km/s) = 3.39478 3.72448 3.56345
# Velocity P-wave (km/s) = 5.33916 6.07555 5.71922
#
# Compressibility (1/GPa) = 0.03190836
#
# Stress axis : x y z
#
# Youngs Moduli (GPa) = 102.33791 77.77418 40.42348
#
# Poissons Ratio (x) = 0.26435 0.09183
# Poissons Ratio (y) = 0.34785 0.08323
# Poissons Ratio (z) = 0.23248 0.16013
#
# Static dielectric constant tensor:
#      x y z
#    x 1.913670 -0.018500 -0.001280 
#    y -0.018500 1.908830 -0.062650 
#    z -0.001280 -0.062650 1.889340 
# 
# From -- ./inp_files/471364.got.cif
#   From: 2010.05.17/outbox.cif.g08.bks.cpg/sg2_236_cif.got.tgz:471364.got - 2010.06.03 11:33:40.
