data_PCOD9040840
_publ_section_title
;
Structure prediction by ZEFSAII (Michael W. Deem and Ramdas Pophale) SiO2 
 PCOD9040840
Probable space group: P -1
;
_chemical_formula_sum "Si O2"
_cell_formula_units_Z 12
_cell_length_a 12.055553
_cell_length_b 16.013245
_cell_length_c 14.721107
_cell_angle_alpha 152.623110
_cell_angle_beta 152.209250
_cell_angle_gamma 25.943760
_cell_volume 516.651032
_symmetry_space_group_name_H-M "P -1"
_symmetry_group_IT_number 2
_symmetry_cell_setting 'triclinic'
loop_
_space_group_symop_operation_xyz
x,y,z
-x,-y,-z
loop_
_atom_site_type_symbol
_atom_site_label
_atom_site_fract_x
_atom_site_fract_y
_atom_site_fract_z
Si Si1 0.710801 0.461486 0.905780
Si Si2 0.656590 0.876830 0.904712
Si Si3 0.311632 0.932707 0.066895
Si Si4 0.072976 0.197911 0.410860
Si Si5 0.412275 0.229495 0.543644
Si Si6 0.523397 0.537961 0.447060
O O1 0.508618 0.382503 0.721378
O O2 0.693293 0.455776 0.777485
O O3 0.576860 0.707756 0.075615
O O4 0.022358 0.304136 0.014892
O O5 0.502791 0.762898 0.644162
O O6 0.647225 0.039424 0.982325
O O7 0.500000 0.000000 0.000000
O O8 0.283374 0.140084 0.291910
O O9 0.055600 0.895298 0.844223
O O10 0.203816 0.311209 0.557723
O O11 0.826872 0.358726 0.454474
O O12 0.311404 0.988324 0.431996
O O13 0.500000 0.500000 0.500000
#
# Coordination Sequence:
#
# PCOD9040840 Si02
#       6
#     2   2   2   2   2   2
#     4  11  25  44  70 101 136 177 224 276 341 395
#     4  12  25  44  68  99 137 178 229 280 331 402
#     4  11  23  43  67 101 135 175 228 272 335 401
#     4  10  23  43  69 102 138 174 230 276 328 405
#     4  11  22  44  70 100 139 180 219 278 339 396
#     4  11  25  45  70 100 135 179 227 278 335 401
#
# _framework density 23.226510000000001
#
# number of rings (size 3 to 8) (size 9 to 14) (size 15 to 20)
#    0.000    1.000    3.333    3.500    0.000    7.333 
#    3.000    2.500    0.000    0.000    0.000    0.000 
#    0.000    0.000    0.000    0.000    0.000    0.000 
#
# Total GULP energy -67143.325587 kJ/mol
# GULP energy per Si atom -5595.277132 kJ/mol
# Density = 2.317365 g / cm^3
# Si number density = 23.226510 Si / 1000 Ang^3
#
#
#
# Elastic Constant Matrix: (Units=GPa)
#
#
# Indices 1 2 3 4 5 6 
#
# 1 110.3747 15.5493 -6.4181 4.4060 -4.2810 14.9278
# 2 15.5493 62.7287 8.9478 7.2199 7.0164 17.7223
# 3 -6.4181 8.9478 58.5088 11.8376 -6.9140 -1.2271
# 4 4.4060 7.2199 11.8376 32.7957 0.8822 4.3330
# 5 -4.2810 7.0164 -6.9140 0.8822 25.0802 7.7573
# 6 14.9278 17.7223 -1.2271 4.3330 7.7573 27.5715
#
#
#
# Elastic Compliance Matrix: (Units=1/GPa)
#
#
# Indices 1 2 3 4 5 6 
#
# 1 0.010391 -0.001675 0.002053 -0.001156 0.004569 -0.005561
# 2 -0.001675 0.020638 -0.003714 -0.001388 -0.003536 -0.011311
# 3 0.002053 -0.003714 0.020149 -0.007096 0.006766 0.001384
# 4 -0.001156 -0.001388 -0.007096 0.034043 -0.001840 -0.003630
# 5 0.004569 -0.003536 0.006766 -0.001840 0.047592 -0.013001
# 6 -0.005561 -0.011311 0.001384 -0.003630 -0.013001 0.050840
#
#
# Mechanical properties :
#
#
# Convention : Reuss Voigt Hill
#
# Bulk Modulus (GPa) = 22.46930 29.75222 26.11076
# Shear Modulus (GPa) = 24.37117 31.32504 27.84810
#
# Velocity S-wave (km/s) = 3.24278 3.67642 3.46638
# Velocity P-wave (km/s) = 4.86989 5.55507 5.22372
#
# Compressibility (1/GPa) = 0.04450516
#
# Stress axis : x y z
#
# Youngs Moduli (GPa) = 96.23690 48.45541 49.63060
#
# Poissons Ratio (x) = 0.08118 -0.10191
# Poissons Ratio (y) = 0.16123 0.18433
# Poissons Ratio (z) = -0.19761 0.17997
#
# Static dielectric constant tensor:
#      x y z
#    x 1.913670 0.024430 -0.006710 
#    y 0.024430 1.844110 -0.026180 
#    z -0.006710 -0.026180 1.887510 
# 
# From -- ./inp_files/168281.got.cif
#   From: 2010.05.17/outbox.cif.g08.bks.cpg/sg2_85_cif.got.tgz:168281.got - 2010.06.03 11:33:40.
