data_PCOD9040112
_publ_section_title
;
Structure prediction by ZEFSAII (Michael W. Deem and Ramdas Pophale) SiO2 
 PCOD9040112
Probable space group: P -1
;
_chemical_formula_sum "Si O2"
_cell_formula_units_Z 14
_cell_length_a 18.404879
_cell_length_b 14.587765
_cell_length_c 8.278647
_cell_angle_alpha 50.059657
_cell_angle_beta 128.296414
_cell_angle_gamma 158.406923
_cell_volume 625.107189
_symmetry_space_group_name_H-M "P -1"
_symmetry_group_IT_number 2
_symmetry_cell_setting 'triclinic'
loop_
_space_group_symop_operation_xyz
x,y,z
-x,-y,-z
loop_
_atom_site_type_symbol
_atom_site_label
_atom_site_fract_x
_atom_site_fract_y
_atom_site_fract_z
Si Si1 0.538255 0.178166 0.284154
Si Si2 0.125606 0.691840 0.180164
Si Si3 0.990072 0.022555 0.272104
Si Si4 0.777091 0.911308 0.614785
Si Si5 0.019689 0.288658 0.825390
Si Si6 0.067496 0.389599 0.273855
Si Si7 0.378755 0.557493 0.602291
O O1 0.749648 0.429701 0.207544
O O2 0.538887 0.277201 0.316254
O O3 0.500000 0.000000 0.500000
O O4 0.352747 0.986278 0.127055
O O5 0.077172 0.695722 0.279789
O O6 0.104261 0.526402 0.314526
O O7 0.973797 0.578922 0.974606
O O8 0.789268 0.731460 0.257803
O O9 0.000000 0.000000 0.500000
O O10 0.175129 0.171395 0.267742
O O11 0.988512 0.159759 0.075073
O O12 0.554646 0.694969 0.592340
O O13 0.874751 0.094629 0.392852
O O14 0.910870 0.103239 0.734410
O O15 0.254734 0.515881 0.379768
#
# Coordination Sequence:
#
# PCOD9040112 Si02
#       7
#     2   2   2   2   2   2   2
#     4  12  24  42  68 106 137 173 226 277 327 401
#     4  11  24  40  66  99 137 180 218 275 336 398
#     4  11  26  47  66  98 140 173 224 284 332 397
#     4  11  23  41  71  96 128 180 223 276 338 390
#     4  12  24  41  71 100 133 179 226 274 335 394
#     4  10  23  43  62  99 143 172 220 276 334 397
#     4  11  23  43  70  95 134 174 224 277 327 396
#
# _framework density 22.396159000000001
#
# number of rings (size 3 to 8) (size 9 to 14) (size 15 to 20)
#    0.000    0.857    5.714    2.143    2.000    5.714 
#    0.000    2.857    0.000    0.000    0.000    0.000 
#    0.000    0.000    0.000    0.000    0.000    0.000 
#
# Total GULP energy -78283.067272 kJ/mol
# GULP energy per Si atom -5591.647662 kJ/mol
# Density = 2.234518 g / cm^3
# Si number density = 22.396159 Si / 1000 Ang^3
#
#
#
# Elastic Constant Matrix: (Units=GPa)
#
#
# Indices 1 2 3 4 5 6 
#
# 1 126.9678 35.8573 -1.6766 -4.1378 23.4043 10.5655
# 2 35.8573 104.1242 23.5170 2.3539 23.2083 23.6108
# 3 -1.6766 23.5170 62.2907 -6.9829 7.3014 -3.2131
# 4 -4.1378 2.3539 -6.9829 24.5668 -1.1621 6.2375
# 5 23.4043 23.2083 7.3014 -1.1621 29.9938 3.6825
# 6 10.5655 23.6108 -3.2131 6.2375 3.6825 50.2430
#
#
#
# Elastic Compliance Matrix: (Units=1/GPa)
#
#
# Indices 1 2 3 4 5 6 
#
# 1 0.009852 -0.002404 0.002128 0.002367 -0.006175 -0.000647
# 2 -0.002404 0.014702 -0.005276 -0.002169 -0.007573 -0.005916
# 3 0.002128 -0.005276 0.019137 0.005495 -0.002361 0.002747
# 4 0.002367 -0.002169 0.005495 0.044093 0.000774 -0.004658
# 5 -0.006175 -0.007573 -0.002361 0.000774 0.044457 0.001352
# 6 -0.000647 -0.005916 0.002747 -0.004658 0.001352 0.023474
#
#
# Mechanical properties :
#
#
# Convention : Reuss Voigt Hill
#
# Bulk Modulus (GPa) = 30.68554 45.41979 38.05267
# Shear Modulus (GPa) = 28.14018 36.67307 32.40663
#
# Velocity S-wave (km/s) = 3.54852 4.05096 3.80804
# Velocity P-wave (km/s) = 5.52452 6.49650 6.03013
#
# Compressibility (1/GPa) = 0.03258864
#
# Stress axis : x y z
#
# Youngs Moduli (GPa) = 101.50007 68.01772 52.25394
#
# Poissons Ratio (x) = 0.16352 -0.11122
# Poissons Ratio (y) = 0.24401 0.27569
# Poissons Ratio (z) = -0.21604 0.35886
#
# Static dielectric constant tensor:
#      x y z
#    x 1.855780 -0.022020 -0.016990 
#    y -0.022020 1.794500 0.036140 
#    z -0.016990 0.036140 1.847840 
# 
# From -- ./inp_files/77365.got.cif
#   From: 2010.05.17/outbox.cif.g08.bks.cpg/sg2_39_cif.got.tgz:77365.got - 2010.06.03 11:33:40.
