data_PCOD9040386
_publ_section_title
;
Structure prediction by ZEFSAII (Michael W. Deem and Ramdas Pophale) SiO2 
 PCOD9040386
Probable space group: P -1
;
_chemical_formula_sum "Si O2"
_cell_formula_units_Z 16
_cell_length_a 16.158447
_cell_length_b 15.209965
_cell_length_c 9.343680
_cell_angle_alpha 89.816244
_cell_angle_beta 108.788456
_cell_angle_gamma 152.757492
_cell_volume 753.399019
_symmetry_space_group_name_H-M "P -1"
_symmetry_group_IT_number 2
_symmetry_cell_setting 'triclinic'
loop_
_space_group_symop_operation_xyz
x,y,z
-x,-y,-z
loop_
_atom_site_type_symbol
_atom_site_label
_atom_site_fract_x
_atom_site_fract_y
_atom_site_fract_z
Si Si1 0.263972 0.180300 0.776881
Si Si2 0.859429 0.305105 0.080857
Si Si3 0.922442 0.198164 0.933776
Si Si4 0.677473 0.643346 0.463261
Si Si5 0.479170 0.310079 0.164370
Si Si6 0.429679 0.689564 0.059079
Si Si7 0.244616 0.814522 0.360494
Si Si8 0.361506 0.927885 0.739849
O O1 0.351620 0.317803 0.687802
O O2 0.321000 0.132239 0.769494
O O3 0.418297 0.327385 0.010665
O O4 0.976320 0.928987 0.657569
O O5 0.039521 0.559506 0.169366
O O6 0.820850 0.259678 0.228788
O O7 0.962161 0.311005 0.075315
O O8 0.580209 0.059790 0.862323
O O9 0.761552 0.098148 0.723223
O O10 0.769505 0.972631 0.913614
O O11 0.188430 0.425375 0.009748
O O12 0.500000 0.500000 0.500000
O O13 0.617328 0.489396 0.368715
O O14 0.612590 0.363573 0.135268
O O15 0.481960 0.836934 0.135470
O O16 0.500000 0.000000 0.500000
O O17 0.209416 0.793990 0.509949
#
# Coordination Sequence:
#
# PCOD9040386 Si02
#       8
#     2   2   2   2   2   2   2   2
#     4   9  24  46  69 102 137 169 217 265 332 400
#     4  11  22  43  64  91 130 179 234 273 335 397
#     4  12  23  44  68  93 138 180 229 277 331 396
#     4  11  24  45  77 106 133 168 218 269 323 415
#     4  10  25  46  66 102 135 175 214 269 340 397
#     4  10  23  43  66  92 137 178 213 277 333 382
#     4  12  24  38  61  96 123 176 235 283 329 383
#     4  11  22  42  66  90 132 177 225 286 333 384
#
# _framework density 21.237086000000001
#
# number of rings (size 3 to 8) (size 9 to 14) (size 15 to 20)
#    0.750    0.500    3.750    1.875    1.750    4.500 
#    6.750    0.000    0.000    0.000    0.000    0.000 
#    0.000    0.000    0.000    0.000    0.000    0.000 
#
# Total GULP energy -89202.789672 kJ/mol
# GULP energy per Si atom -5575.174354 kJ/mol
# Density = 2.118875 g / cm^3
# Si number density = 21.237086 Si / 1000 Ang^3
#
#
#
# Elastic Constant Matrix: (Units=GPa)
#
#
# Indices 1 2 3 4 5 6 
#
# 1 40.6423 10.6346 15.3309 -4.4464 -2.3780 13.2294
# 2 10.6346 104.6052 1.8633 -17.5510 -6.4222 19.6425
# 3 15.3309 1.8633 69.2195 -21.8150 -14.5000 10.2171
# 4 -4.4464 -17.5510 -21.8150 26.0144 -3.1094 -2.1055
# 5 -2.3780 -6.4222 -14.5000 -3.1094 39.1683 -1.0840
# 6 13.2294 19.6425 10.2171 -2.1055 -1.0840 35.9781
#
#
#
# Elastic Compliance Matrix: (Units=1/GPa)
#
#
# Indices 1 2 3 4 5 6 
#
# 1 0.029858 -0.001789 -0.006268 -0.002183 -0.001206 -0.008386
# 2 -0.001789 0.014042 0.007251 0.015303 0.005872 -0.007995
# 3 -0.006268 0.007251 0.028716 0.028893 0.013519 -0.007711
# 4 -0.002183 0.015303 0.028893 0.073970 0.018644 -0.010867
# 5 -0.001206 0.005872 0.013519 0.018644 0.032780 -0.004523
# 6 -0.008386 -0.007995 -0.007711 -0.010867 -0.004523 0.036661
#
#
# Mechanical properties :
#
#
# Convention : Reuss Voigt Hill
#
# Bulk Modulus (GPa) = 14.08360 30.01385 22.04872
# Shear Modulus (GPa) = 20.72062 32.67469 26.69765
#
# Velocity S-wave (km/s) = 3.12698 3.92671 3.54944
# Velocity P-wave (km/s) = 4.43659 5.89255 5.21563
#
# Compressibility (1/GPa) = 0.07100456
#
# Stress axis : x y z
#
# Youngs Moduli (GPa) = 33.49211 71.21524 34.82405
#
# Poissons Ratio (x) = 0.12743 0.21826
# Poissons Ratio (y) = 0.05993 -0.25252
# Poissons Ratio (z) = 0.20991 -0.51641
#
# Static dielectric constant tensor:
#      x y z
#    x 1.788780 0.009100 -0.013950 
#    y 0.009100 1.803200 -0.025840 
#    z -0.013950 -0.025840 1.792420 
# 
# From -- ./inp_files/315467.got.cif
#   From: 2010.05.17/outbox.cif.g08.bks.cpg/sg2_158_cif.got.tgz:315467.got - 2010.06.03 11:33:40.
