data_PCOD9040043
_publ_section_title
;
Structure prediction by ZEFSAII (Michael W. Deem and Ramdas Pophale) SiO2 
 PCOD9040043
Probable space group: P -1
;
_chemical_formula_sum "Si O2"
_cell_formula_units_Z 14
_cell_length_a 11.445927
_cell_length_b 12.838587
_cell_length_c 7.692655
_cell_angle_alpha 93.725190
_cell_angle_beta 58.853354
_cell_angle_gamma 136.309892
_cell_volume 569.715617
_symmetry_space_group_name_H-M "P -1"
_symmetry_group_IT_number 2
_symmetry_cell_setting 'triclinic'
loop_
_space_group_symop_operation_xyz
x,y,z
-x,-y,-z
loop_
_atom_site_type_symbol
_atom_site_label
_atom_site_fract_x
_atom_site_fract_y
_atom_site_fract_z
Si Si1 0.460102 0.599731 0.520679
Si Si2 0.750392 0.985928 0.041634
Si Si3 0.709377 0.328658 0.790894
Si Si4 0.342846 0.477060 0.237100
Si Si5 0.133885 0.153798 0.547005
Si Si6 0.378574 0.815273 0.527248
Si Si7 0.075555 0.669531 0.064422
O O1 0.500000 0.500000 0.500000
O O2 0.495117 0.624602 0.288081
O O3 0.620376 0.738421 0.568412
O O4 0.198752 0.477299 0.737884
O O5 0.570700 0.849391 0.009527
O O6 0.611490 0.889651 0.320808
O O7 0.984875 0.071597 0.829485
O O8 0.812030 0.145817 0.994966
O O9 0.765108 0.486937 0.764725
O O10 0.742036 0.286813 0.576373
O O11 0.167534 0.660806 0.155335
O O12 0.167713 0.288640 0.445461
O O13 0.500000 0.500000 0.000000
O O14 0.000000 0.000000 0.500000
O O15 0.500000 0.000000 0.500000
O O16 0.187132 0.686306 0.808756
#
# Coordination Sequence:
#
# PCOD9040043 Si02
#       7
#     2   2   2   2   2   2   2
#     4  10  23  47  76 109 155 200 265 324 392 469
#     4   9  19  42  72 115 150 202 261 314 384 472
#     4  10  23  42  75 121 159 201 266 321 398 473
#     4  11  24  49  71 114 160 206 263 325 397 474
#     4  11  23  49  84 108 150 215 264 331 398 466
#     4   8  20  39  71 115 159 207 258 315 393 462
#     4  11  19  45  78 113 161 205 252 330 393 468
#
# _framework density 24.573663
#
# number of rings (size 3 to 8) (size 9 to 14) (size 15 to 20)
#    0.857    1.143    2.857    1.286    0.000    0.571 
#   15.429    5.000    0.000    1.714    0.000    0.000 
#    0.000    0.000    0.000    0.000    0.000    0.000 
#
# Total GULP energy -78053.838678 kJ/mol
# GULP energy per Si atom -5575.274191 kJ/mol
# Density = 2.451773 g / cm^3
# Si number density = 24.573663 Si / 1000 Ang^3
#
#
#
# Elastic Constant Matrix: (Units=GPa)
#
#
# Indices 1 2 3 4 5 6 
#
# 1 152.1083 62.9771 47.0467 8.8330 -6.2613 10.2095
# 2 62.9771 158.9224 48.5237 16.5969 -1.0192 -12.3769
# 3 47.0467 48.5237 180.7174 33.9649 -21.0013 20.3843
# 4 8.8330 16.5969 33.9649 24.3766 17.3424 -24.2253
# 5 -6.2613 -1.0192 -21.0013 17.3424 23.5471 12.0623
# 6 10.2095 -12.3769 20.3843 -24.2253 12.0623 26.3114
#
#
#
# Elastic Compliance Matrix: (Units=1/GPa)
#
#
# Indices 1 2 3 4 5 6 
#
# 1 0.008211 -0.002945 -0.001929 0.002422 -0.001325 -0.000240
# 2 -0.002945 0.008128 -0.000538 -0.004112 0.001698 0.000819
# 3 -0.001929 -0.000538 0.003522 0.006702 -0.005682 0.006542
# 4 0.002422 -0.004112 0.006702 -0.005383 0.022320 -0.023254
# 5 -0.001325 0.001698 -0.005682 0.022320 0.009446 0.021935
# 6 -0.000240 0.000819 0.006542 -0.023254 0.021935 0.001949
#
#
# Mechanical properties :
#
#
# Convention : Reuss Voigt Hill
#
# Bulk Modulus (GPa) = 110.65159 89.87145 100.26152
# Shear Modulus (GPa) = 125.91306 37.06039 81.48673
#
# Velocity S-wave (km/s) = 7.16591 3.88768 5.76474
# Velocity P-wave (km/s) = 10.65802 7.53683 9.23031
#
# Compressibility (1/GPa) = 0.00903738
#
# Stress axis : x y z
#
# Youngs Moduli (GPa) = 121.78600 123.03630 283.91682
#
# Poissons Ratio (x) = 0.36234 0.54765
# Poissons Ratio (y) = 0.35866 0.15271
# Poissons Ratio (z) = 0.23492 0.06618
#
# Static dielectric constant tensor:
#      x y z
#    x 1.998650 -0.055100 0.028660 
#    y -0.055100 2.043300 -0.084420 
#    z 0.028660 -0.084420 2.055470 
# 
# From -- ./inp_files/335997.got.cif
#   From: 2010.05.17/outbox.cif.g08.bks.cpg/sg2_168_cif.got.tgz:335997.got - 2010.06.03 11:33:40.
