data_PCOD9040060
_publ_section_title
;
Structure prediction by ZEFSAII (Michael W. Deem and Ramdas Pophale) SiO2 
 PCOD9040060
Probable space group: P -1
;
_chemical_formula_sum "Si O2"
_cell_formula_units_Z 16
_cell_length_a 15.209333
_cell_length_b 12.228844
_cell_length_c 18.079208
_cell_angle_alpha 148.110874
_cell_angle_beta 27.067656
_cell_angle_gamma 130.138290
_cell_volume 716.226518
_symmetry_space_group_name_H-M "P -1"
_symmetry_group_IT_number 2
_symmetry_cell_setting 'triclinic'
loop_
_space_group_symop_operation_xyz
x,y,z
-x,-y,-z
loop_
_atom_site_type_symbol
_atom_site_label
_atom_site_fract_x
_atom_site_fract_y
_atom_site_fract_z
Si Si1 0.351758 0.687094 0.604469
Si Si2 0.640180 0.748456 0.716803
Si Si3 0.048749 0.933791 0.831877
Si Si4 0.326494 0.569514 0.106221
Si Si5 0.783943 0.722486 0.319478
Si Si6 0.418459 0.889591 0.432464
Si Si7 0.186435 0.047400 0.422512
Si Si8 0.005342 0.482152 0.396985
O O1 0.439837 0.422615 0.359317
O O2 0.215931 0.857148 0.733458
O O3 0.564684 0.693792 0.480823
O O4 0.135267 0.795280 0.880614
O O5 0.761334 0.806183 0.592782
O O6 0.767116 0.603177 0.609805
O O7 0.500000 0.000000 0.000000
O O8 0.216882 0.855998 0.594218
O O9 0.912898 0.786563 0.843475
O O10 0.118675 0.603564 0.331354
O O11 0.346333 0.780436 0.171710
O O12 0.500000 0.500000 0.000000
O O13 0.388738 0.354188 0.880235
O O14 0.856324 0.811597 0.388747
O O15 0.685746 0.926940 0.449753
O O16 0.000000 0.500000 0.000000
O O17 0.500000 0.000000 0.500000
O O18 0.000000 0.000000 0.500000
O O19 0.000000 0.500000 0.500000
#
# Coordination Sequence:
#
# PCOD9040060 Si02
#       8
#     2   2   2   2   2   2   2   2
#     4  10  24  49  70 106 147 195 249 309 375 445
#     4  11  28  46  75 105 147 199 245 305 381 449
#     4  10  23  42  77 103 142 187 252 311 370 443
#     4  12  26  47  74 106 152 196 256 311 375 449
#     4  12  29  48  75 112 155 201 253 311 385 457
#     4  12  26  44  78 110 144 199 253 313 378 450
#     4  12  29  50  73 107 156 203 250 314 381 452
#     4  11  25  45  73 108 144 190 249 311 374 446
#
# _framework density 22.339300999999999
#
# number of rings (size 3 to 8) (size 9 to 14) (size 15 to 20)
#    0.000    0.750    3.750    1.500   14.000    0.500 
#    0.000    0.000    0.000    0.000    0.000    0.000 
#    0.000    0.000    0.000    0.000    0.000    0.000 
#
# Total GULP energy -89146.019376 kJ/mol
# GULP energy per Si atom -5571.626211 kJ/mol
# Density = 2.228846 g / cm^3
# Si number density = 22.339301 Si / 1000 Ang^3
#
#
#
# Elastic Constant Matrix: (Units=GPa)
#
#
# Indices 1 2 3 4 5 6 
#
# 1 143.5235 26.4198 35.0549 9.7049 22.8677 4.6749
# 2 26.4198 60.2025 7.8733 1.7835 7.9868 3.4076
# 3 35.0549 7.8733 105.6110 14.8478 23.8259 6.1287
# 4 9.7049 1.7835 14.8478 34.2808 3.5503 2.4419
# 5 22.8677 7.9868 23.8259 3.5503 36.4927 2.7198
# 6 4.6749 3.4076 6.1287 2.4419 2.7198 40.1787
#
#
#
# Elastic Compliance Matrix: (Units=1/GPa)
#
#
# Indices 1 2 3 4 5 6 
#
# 1 0.008574 -0.003037 -0.001654 -0.001178 -0.003500 -0.000179
# 2 -0.003037 0.018262 0.000173 0.000133 -0.002139 -0.001085
# 3 -0.001654 0.000173 0.012078 -0.004037 -0.006421 -0.000985
# 4 -0.001178 0.000133 -0.004037 0.031290 0.000389 -0.001187
# 5 -0.003500 -0.002139 -0.006421 0.000389 0.034277 -0.000776
# 6 -0.000179 -0.001085 -0.000985 -0.001187 -0.000776 0.025276
#
#
# Mechanical properties :
#
#
# Convention : Reuss Voigt Hill
#
# Bulk Modulus (GPa) = 33.46826 49.78146 41.62486
# Shear Modulus (GPa) = 33.61323 38.18970 35.90147
#
# Velocity S-wave (km/s) = 3.88321 4.13913 4.01321
# Velocity P-wave (km/s) = 5.92622 6.72130 6.33624
#
# Compressibility (1/GPa) = 0.02987906
#
# Stress axis : x y z
#
# Youngs Moduli (GPa) = 116.63687 54.75876 82.79502
#
# Poissons Ratio (x) = 0.16629 0.13692
# Poissons Ratio (y) = 0.35421 -0.01436
# Poissons Ratio (z) = 0.19289 -0.00949
#
# Static dielectric constant tensor:
#      x y z
#    x 1.883280 0.245690 0.256320 
#    y 0.245690 2.393190 0.542320 
#    z 0.256320 0.542320 2.532550 
# 
# From -- ./inp_files/573643.got.cif
#   From: 2010.05.17/outbox.cif.g08.bks.cpg/sg2_287_cif.got.tgz:573643.got - 2010.06.03 11:33:40.
