data_PCOD9040509
_publ_section_title
;
Structure prediction by ZEFSAII (Michael W. Deem and Ramdas Pophale) SiO2 
 PCOD9040509
Probable space group: P -1
;
_chemical_formula_sum "Si O2"
_cell_formula_units_Z 14
_cell_length_a 5.127968
_cell_length_b 19.904891
_cell_length_c 7.996636
_cell_angle_alpha 116.922329
_cell_angle_beta 62.314735
_cell_angle_gamma 114.821582
_cell_volume 621.363823
_symmetry_space_group_name_H-M "P -1"
_symmetry_group_IT_number 2
_symmetry_cell_setting 'triclinic'
loop_
_space_group_symop_operation_xyz
x,y,z
-x,-y,-z
loop_
_atom_site_type_symbol
_atom_site_label
_atom_site_fract_x
_atom_site_fract_y
_atom_site_fract_z
Si Si1 0.175658 0.171379 0.995372
Si Si2 0.278410 0.052765 0.578908
Si Si3 0.460338 0.655635 0.263257
Si Si4 0.193639 0.575144 0.926668
Si Si5 0.110369 0.765251 0.168250
Si Si6 0.243944 0.482745 0.286786
Si Si7 0.760412 0.193012 0.451750
O O1 0.985016 0.175476 0.224385
O O2 0.193109 0.088407 0.819496
O O3 0.528401 0.222414 0.965588
O O4 0.010154 0.201634 0.924599
O O5 0.449535 0.124437 0.487331
O O6 0.500000 0.000000 0.500000
O O7 0.000000 0.000000 0.500000
O O8 0.392301 0.568083 0.258600
O O9 0.310916 0.722047 0.458990
O O10 0.319270 0.640633 0.101906
O O11 0.498280 0.552149 0.749926
O O12 0.968855 0.578683 0.846714
O O13 0.821111 0.690863 0.200871
O O14 0.000000 0.500000 0.000000
O O15 0.117363 0.806290 0.393437
O O16 0.000000 0.500000 0.500000
#
# Coordination Sequence:
#
# PCOD9040509 Si02
#       7
#     2   2   2   2   2   2   2
#     4  11  26  46  74 107 142 189 242 290 360 422
#     4  11  24  46  73 103 150 188 230 295 355 423
#     4  11  24  45  72  96 142 188 230 301 356 414
#     4  10  23  43  67  90 133 183 222 279 364 409
#     4  11  24  46  67 105 149 181 236 302 352 414
#     4  11  25  45  66 103 136 178 242 290 349 433
#     4  11  27  47  74 110 146 184 251 291 350 433
#
# _framework density 22.531081
#
# number of rings (size 3 to 8) (size 9 to 14) (size 15 to 20)
#    0.000    1.143    2.857    3.857    8.000    2.286 
#    2.571    0.000    0.000    0.000    0.000    0.000 
#    0.000    0.000    0.000    0.000    0.000    0.000 
#
# Total GULP energy -78092.359140 kJ/mol
# GULP energy per Si atom -5578.025653 kJ/mol
# Density = 2.247980 g / cm^3
# Si number density = 22.531081 Si / 1000 Ang^3
#
#
#
# Elastic Constant Matrix: (Units=GPa)
#
#
# Indices 1 2 3 4 5 6 
#
# 1 155.9984 55.8837 47.3859 3.5065 -1.7691 31.6360
# 2 55.8837 68.9710 51.9314 10.0576 -0.2965 30.3148
# 3 47.3859 51.9314 183.0704 -10.7121 -30.0289 29.2217
# 4 3.5065 10.0576 -10.7121 37.4857 -3.8422 2.1929
# 5 -1.7691 -0.2965 -30.0289 -3.8422 32.9213 10.2560
# 6 31.6360 30.3148 29.2217 2.1929 10.2560 44.9060
#
#
#
# Elastic Compliance Matrix: (Units=1/GPa)
#
#
# Indices 1 2 3 4 5 6 
#
# 1 0.009263 -0.006778 0.000291 0.001357 0.001666 -0.002586
# 2 -0.006778 0.030813 -0.006479 -0.009262 -0.003811 -0.010487
# 3 0.000291 -0.006479 0.010472 0.006268 0.012015 -0.005695
# 4 0.001357 -0.009262 0.006268 0.032038 0.010286 -0.002696
# 5 0.001666 -0.003811 0.012015 0.010286 0.048174 -0.017924
# 6 -0.002586 -0.010487 -0.005695 -0.002696 -0.017924 0.039101
#
#
# Mechanical properties :
#
#
# Convention : Reuss Voigt Hill
#
# Bulk Modulus (GPa) = 40.62818 79.82686 60.22752
# Shear Modulus (GPa) = 24.50977 39.91853 32.21415
#
# Velocity S-wave (km/s) = 3.30179 4.21373 3.78533
# Velocity P-wave (km/s) = 5.71025 7.69290 6.77450
#
# Compressibility (1/GPa) = 0.02461346
#
# Stress axis : x y z
#
# Youngs Moduli (GPa) = 107.95573 32.45362 95.49483
#
# Poissons Ratio (x) = 0.21999 -0.02774
# Poissons Ratio (y) = 0.73177 0.61874
# Poissons Ratio (z) = -0.03136 0.21028
#
# Static dielectric constant tensor:
#      x y z
#    x 1.892130 -0.066700 -0.063340 
#    y -0.066700 1.916850 0.201450 
#    z -0.063340 0.201450 1.925440 
# 
# From -- ./inp_files/141573.got.cif
#   From: 2010.05.17/outbox.cif.g08.bks.cpg/sg2_71_cif.got.tgz:141573.got - 2010.06.03 11:33:40.
