data_PCOD9040108
_publ_section_title
;
Structure prediction by ZEFSAII (Michael W. Deem and Ramdas Pophale) SiO2 
 PCOD9040108
Probable space group: P -1
;
_chemical_formula_sum "Si O2"
_cell_formula_units_Z 16
_cell_length_a 8.299544
_cell_length_b 16.855094
_cell_length_c 5.177737
_cell_angle_alpha 111.223319
_cell_angle_beta 86.967380
_cell_angle_gamma 89.517101
_cell_volume 673.944679
_symmetry_space_group_name_H-M "P -1"
_symmetry_group_IT_number 2
_symmetry_cell_setting 'triclinic'
loop_
_space_group_symop_operation_xyz
x,y,z
-x,-y,-z
loop_
_atom_site_type_symbol
_atom_site_label
_atom_site_fract_x
_atom_site_fract_y
_atom_site_fract_z
Si Si1 0.512247 0.648734 0.016747
Si Si2 0.401621 0.793988 0.813014
Si Si3 0.220132 0.669759 0.384617
Si Si4 0.757082 0.568192 0.583471
Si Si5 0.269560 0.257712 0.519008
Si Si6 0.086740 0.588290 0.816172
Si Si7 0.834281 0.070685 0.808767
Si Si8 0.035569 0.109057 0.337650
O O1 0.393626 0.626867 0.234582
O O2 0.659432 0.702623 0.179788
O O3 0.413411 0.714793 0.919393
O O4 0.589796 0.572426 0.756105
O O5 0.276529 0.763479 0.567695
O O6 0.579289 0.796236 0.680742
O O7 0.330343 0.877684 0.053207
O O8 0.136984 0.632702 0.598459
O O9 0.108980 0.649795 0.127263
O O10 0.765650 0.660196 0.558329
O O11 0.793004 0.494403 0.286373
O O12 0.905020 0.558733 0.762015
O O13 0.120078 0.197557 0.481720
O O14 0.901382 0.091232 0.544638
O O15 0.834576 0.969275 0.726839
O O16 0.963614 0.101821 0.048055
#
# Coordination Sequence:
#
# PCOD9040108 Si02
#       8
#     2   2   2   2   2   2   2   2
#     4  10  23  43  62  97 130 172 223 262 317 386
#     4  10  23  43  64  98 132 172 218 263 316 388
#     4  11  24  43  65  96 125 171 221 265 322 381
#     4  10  26  43  62  97 130 169 217 275 321 388
#     4  10  24  41  66  94 134 172 215 264 327 382
#     4  11  26  43  67  93 129 169 222 269 329 377
#     4  10  24  43  69  98 133 164 215 267 311 389
#     4  10  24  44  67 102 129 168 212 263 325 379
#
# _framework density 23.740822000000001
#
# number of rings (size 3 to 8) (size 9 to 14) (size 15 to 20)
#    0.000    1.750    1.250    0.000   12.250    2.500 
#    0.000    0.625    0.000    0.000    0.000    0.000 
#    0.000    0.000    0.000    0.000    0.000    0.000 
#
# Total GULP energy -89528.139704 kJ/mol
# GULP energy per Si atom -5595.508732 kJ/mol
# Density = 2.368679 g / cm^3
# Si number density = 23.740822 Si / 1000 Ang^3
#
#
#
# Elastic Constant Matrix: (Units=GPa)
#
#
# Indices 1 2 3 4 5 6 
#
# 1 32.0315 11.0155 15.5115 10.7490 -4.6261 -9.6647
# 2 11.0155 43.7317 32.1631 1.1459 -16.8755 -18.0356
# 3 15.5115 32.1631 119.0308 3.4357 -5.6280 -13.9585
# 4 10.7490 1.1459 3.4357 37.5296 -14.3248 -10.4176
# 5 -4.6261 -16.8755 -5.6280 -14.3248 54.9235 13.5016
# 6 -9.6647 -18.0356 -13.9585 -10.4176 13.5016 31.9522
#
#
#
# Elastic Compliance Matrix: (Units=1/GPa)
#
#
# Indices 1 2 3 4 5 6 
#
# 1 0.039423 -0.007060 -0.002521 -0.010721 -0.003041 0.004627
# 2 -0.007060 0.040784 -0.007991 0.009759 0.009602 0.016519
# 3 -0.002521 -0.007991 0.010822 -0.000696 -0.001730 -0.000041
# 4 -0.010721 0.009759 -0.000696 0.035601 0.008898 0.009809
# 5 -0.003041 0.009602 -0.001730 0.008898 0.023893 -0.003451
# 6 0.004627 0.016519 -0.000041 0.009809 -0.003451 0.046659
#
#
# Mechanical properties :
#
#
# Convention : Reuss Voigt Hill
#
# Bulk Modulus (GPa) = 17.89377 34.68603 26.28990
# Shear Modulus (GPa) = 19.92392 33.95464 26.93928
#
# Velocity S-wave (km/s) = 2.90008 3.78593 3.37222
# Velocity P-wave (km/s) = 4.33214 5.80974 5.12448
#
# Compressibility (1/GPa) = 0.05588536
#
# Stress axis : x y z
#
# Youngs Moduli (GPa) = 25.36604 24.51930 92.40093
#
# Poissons Ratio (x) = 0.17310 0.23298
# Poissons Ratio (y) = 0.17908 0.73835
# Poissons Ratio (z) = 0.06396 0.19593
#
# Static dielectric constant tensor:
#      x y z
#    x 1.938590 -0.049430 -0.009790 
#    y -0.049430 1.901870 -0.013960 
#    z -0.009790 -0.013960 1.904090 
# 
# From -- ./inp_files/45720.got.cif
#   From: 2010.05.17/outbox.cif.g08.bks.cpg/sg2_23_cif.got.tgz:45720.got - 2010.06.03 11:33:40.
