data_PCOD9040035
_publ_section_title
;
Structure prediction by ZEFSAII (Michael W. Deem and Ramdas Pophale) SiO2 
 PCOD9040035
Probable space group: P -1
;
_chemical_formula_sum "Si O2"
_cell_formula_units_Z 14
_cell_length_a 11.560288
_cell_length_b 11.327397
_cell_length_c 11.135606
_cell_angle_alpha 98.192462
_cell_angle_beta 106.438803
_cell_angle_gamma 145.705951
_cell_volume 565.588029
_symmetry_space_group_name_H-M "P -1"
_symmetry_group_IT_number 2
_symmetry_cell_setting 'triclinic'
loop_
_space_group_symop_operation_xyz
x,y,z
-x,-y,-z
loop_
_atom_site_type_symbol
_atom_site_label
_atom_site_fract_x
_atom_site_fract_y
_atom_site_fract_z
Si Si1 0.444291 0.759292 0.741670
Si Si2 0.830855 0.849761 0.614771
Si Si3 0.902672 0.661390 0.631032
Si Si4 0.523282 0.716369 0.316436
Si Si5 0.827521 0.325834 0.181834
Si Si6 0.418610 0.886329 0.323361
Si Si7 0.979432 0.858464 0.046048
O O1 0.301379 0.541177 0.573776
O O2 0.210522 0.582298 0.749326
O O3 0.502718 0.934968 0.713879
O O4 0.758701 0.989994 0.904872
O O5 0.500000 0.500000 0.500000
O O6 0.030614 0.909755 0.686783
O O7 0.783147 0.877323 0.480789
O O8 0.948233 0.044538 0.780471
O O9 0.713246 0.493448 0.673034
O O10 0.076042 0.695174 0.706690
O O11 0.573941 0.902233 0.336747
O O12 0.337077 0.485453 0.123266
O O13 0.065764 0.549523 0.178911
O O14 0.500000 0.000000 0.000000
O O15 0.500000 0.000000 0.500000
O O16 0.000000 0.000000 0.000000
#
# Coordination Sequence:
#
# PCOD9040035 Si02
#       7
#     2   2   2   2   2   2   2
#     4  12  22  39  67  95 124 170 216 257 326 382
#     4  10  17  33  55  88 123 160 216 263 308 377
#     4  10  18  35  57  88 123 161 208 261 309 374
#     4  10  19  34  54  93 124 158 215 262 315 374
#     4  11  25  39  59  97 133 164 215 267 320 384
#     4  11  22  41  66  93 132 173 210 264 324 388
#     4  12  20  32  62  94 123 165 216 266 314 381
#
# _framework density 24.752997000000001
#
# number of rings (size 3 to 8) (size 9 to 14) (size 15 to 20)
#    0.000    1.143    8.571    2.143    0.000    2.286 
#    0.000    0.000    0.000    1.714    3.714    1.000 
#    0.000    0.000    0.000    0.000    0.000    0.000 
#
# Total GULP energy -78323.989515 kJ/mol
# GULP energy per Si atom -5594.570680 kJ/mol
# Density = 2.469666 g / cm^3
# Si number density = 24.752997 Si / 1000 Ang^3
#
#
#
# Elastic Constant Matrix: (Units=GPa)
#
#
# Indices 1 2 3 4 5 6 
#
# 1 154.2941 17.3048 33.5675 1.0707 11.5639 -23.9621
# 2 17.3048 67.4121 -5.3600 -0.8805 5.4477 -2.5051
# 3 33.5675 -5.3600 106.1152 9.6338 -11.9384 12.0269
# 4 1.0707 -0.8805 9.6338 27.4653 -8.3036 4.5833
# 5 11.5639 5.4477 -11.9384 -8.3036 47.8859 -1.9375
# 6 -23.9621 -2.5051 12.0269 4.5833 -1.9375 30.0322
#
#
#
# Elastic Compliance Matrix: (Units=1/GPa)
#
#
# Indices 1 2 3 4 5 6 
#
# 1 0.009266 -0.002167 -0.004263 -0.001309 -0.002919 0.008931
# 2 -0.002167 0.015543 0.001493 -0.000039 -0.000923 -0.001084
# 3 -0.004263 0.001493 0.012254 -0.001805 0.003290 -0.007696
# 4 -0.001309 -0.000039 -0.001805 0.040085 0.006578 -0.006018
# 5 -0.002919 -0.000923 0.003290 0.006578 0.023524 -0.003210
# 6 0.008931 -0.001084 -0.007696 -0.006018 -0.003210 0.044126
#
#
# Mechanical properties :
#
#
# Convention : Reuss Voigt Hill
#
# Bulk Modulus (GPa) = 36.77779 46.53845 41.65812
# Shear Modulus (GPa) = 30.53710 39.89729 35.21720
#
# Velocity S-wave (km/s) = 3.51618 4.01910 3.77602
# Velocity P-wave (km/s) = 5.60133 6.35449 5.98976
#
# Compressibility (1/GPa) = 0.02719032
#
# Stress axis : x y z
#
# Youngs Moduli (GPa) = 107.91661 64.33793 81.60720
#
# Poissons Ratio (x) = 0.13941 0.34786
# Poissons Ratio (y) = 0.23385 -0.12185
# Poissons Ratio (z) = 0.46001 -0.09606
#
# Static dielectric constant tensor:
#      x y z
#    x 2.124020 0.074220 -0.016660 
#    y 0.074220 1.987890 0.022660 
#    z -0.016660 0.022660 1.978480 
# 
# From -- ./inp_files/428398.got.cif
#   From: 2010.05.17/outbox.cif.g08.bks.cpg/sg2_215_cif.got.tgz:428398.got - 2010.06.03 11:33:40.
