data_PCOD9040829
_publ_section_title
;
Structure prediction by ZEFSAII (Michael W. Deem and Ramdas Pophale) SiO2 
 PCOD9040829
Probable space group: P -1
;
_chemical_formula_sum "Si O2"
_cell_formula_units_Z 12
_cell_length_a 8.781639
_cell_length_b 9.015808
_cell_length_c 15.628596
_cell_angle_alpha 130.530046
_cell_angle_beta 145.520575
_cell_angle_gamma 67.866468
_cell_volume 494.771600
_symmetry_space_group_name_H-M "P -1"
_symmetry_group_IT_number 2
_symmetry_cell_setting 'triclinic'
loop_
_space_group_symop_operation_xyz
x,y,z
-x,-y,-z
loop_
_atom_site_type_symbol
_atom_site_label
_atom_site_fract_x
_atom_site_fract_y
_atom_site_fract_z
Si Si1 0.488955 0.882830 0.038597
Si Si2 0.290120 0.087181 0.379620
Si Si3 0.966845 0.326420 0.990937
Si Si4 0.008221 0.719673 0.544985
Si Si5 0.114922 0.220811 0.187237
Si Si6 0.479506 0.453210 0.874287
O O1 0.167914 0.780150 0.891358
O O2 0.594704 0.695805 0.989905
O O3 0.700194 0.079631 0.264826
O O4 0.500000 0.000000 0.000000
O O5 0.160462 0.195672 0.431069
O O6 0.351959 0.228799 0.372818
O O7 0.500000 0.000000 0.500000
O O8 0.063206 0.879739 0.152235
O O9 0.660769 0.310315 0.883078
O O10 0.176506 0.371786 0.187897
O O11 0.000000 0.500000 0.000000
O O12 0.829833 0.657557 0.352101
O O13 0.000000 0.500000 0.500000
O O14 0.000000 0.000000 0.000000
O O15 0.500000 0.500000 0.000000
#
# Coordination Sequence:
#
# PCOD9040829 Si02
#       6
#     2   2   2   2   2   2
#     4  12  23  44  75 105 144 195 242 303 370 434
#     4  11  22  44  72 104 148 189 237 302 368 440
#     4  11  24  44  72 101 143 198 242 298 369 434
#     4  12  25  43  78 107 146 195 249 297 370 443
#     4  10  23  43  69 101 145 189 241 296 366 436
#     4  12  25  45  71 110 149 184 247 308 367 437
#
# _framework density 24.253613999999999
#
# number of rings (size 3 to 8) (size 9 to 14) (size 15 to 20)
#    0.000    0.667    6.667    1.000    2.333    0.667 
#    0.000    2.500    0.000    0.000    0.000    0.000 
#    0.000    0.000    0.000    0.000    0.000    0.000 
#
# Total GULP energy -66851.534273 kJ/mol
# GULP energy per Si atom -5570.961189 kJ/mol
# Density = 2.419841 g / cm^3
# Si number density = 24.253614 Si / 1000 Ang^3
#
#
#
# Elastic Constant Matrix: (Units=GPa)
#
#
# Indices 1 2 3 4 5 6 
#
# 1 78.6070 20.7276 26.8933 -12.0826 -33.8963 -6.0946
# 2 20.7276 133.3959 39.6643 -20.4830 -17.0084 7.7336
# 3 26.8933 39.6643 162.2582 -15.0369 -32.0922 12.1356
# 4 -12.0826 -20.4830 -15.0369 54.5023 7.2679 -27.2819
# 5 -33.8963 -17.0084 -32.0922 7.2679 29.8039 -4.8913
# 6 -6.0946 7.7336 12.1356 -27.2819 -4.8913 59.2722
#
#
#
# Elastic Compliance Matrix: (Units=1/GPa)
#
#
# Indices 1 2 3 4 5 6 
#
# 1 0.028500 -0.000165 0.002086 0.006409 0.034367 0.008311
# 2 -0.000165 0.008662 -0.001337 0.002808 0.002738 0.000645
# 3 0.002086 -0.001337 0.008262 0.000832 0.010292 -0.000070
# 4 0.006409 0.002808 0.000832 0.026794 0.005370 0.012898
# 5 0.034367 0.002738 0.010292 0.005370 0.085716 0.010615
# 6 0.008311 0.000645 -0.000070 0.012898 0.010615 0.024469
#
#
# Mechanical properties :
#
#
# Convention : Reuss Voigt Hill
#
# Bulk Modulus (GPa) = 21.46184 60.98127 41.22156
# Shear Modulus (GPa) = 25.41106 47.84740 36.62923
#
# Velocity S-wave (km/s) = 3.24037 4.44643 3.89042
# Velocity P-wave (km/s) = 4.78206 7.18044 6.10028
#
# Compressibility (1/GPa) = 0.04659432
#
# Stress axis : x y z
#
# Youngs Moduli (GPa) = 35.08735 115.44155 121.03747
#
# Poissons Ratio (x) = 0.01900 -0.25250
# Poissons Ratio (y) = 0.00577 0.16180
# Poissons Ratio (z) = -0.07320 0.15432
#
# Static dielectric constant tensor:
#      x y z
#    x 2.012560 0.034190 0.033220 
#    y 0.034190 2.194180 -0.000880 
#    z 0.033220 -0.000880 2.026850 
# 
# From -- ./inp_files/145108.got.cif
#   From: 2010.05.17/outbox.cif.g08.bks.cpg/sg2_73_cif.got.tgz:145108.got - 2010.06.03 11:33:40.
