data_PCOD9040078
_publ_section_title
;
Structure prediction by ZEFSAII (Michael W. Deem and Ramdas Pophale) SiO2 
 PCOD9040078
Probable space group: P -1
;
_chemical_formula_sum "Si O2"
_cell_formula_units_Z 14
_cell_length_a 8.316456
_cell_length_b 7.228338
_cell_length_c 18.273968
_cell_angle_alpha 142.594128
_cell_angle_beta 113.410017
_cell_angle_gamma 56.310383
_cell_volume 553.192928
_symmetry_space_group_name_H-M "P -1"
_symmetry_group_IT_number 2
_symmetry_cell_setting 'triclinic'
loop_
_space_group_symop_operation_xyz
x,y,z
-x,-y,-z
loop_
_atom_site_type_symbol
_atom_site_label
_atom_site_fract_x
_atom_site_fract_y
_atom_site_fract_z
Si Si1 0.889640 0.778435 0.310669
Si Si2 0.300020 0.258588 0.202072
Si Si3 0.476713 0.825901 0.547727
Si Si4 0.344254 0.691408 0.209533
Si Si5 0.959772 0.886317 0.116876
Si Si6 0.320860 0.738236 0.688361
Si Si7 0.735278 0.286152 0.067321
O O1 0.814774 0.570615 0.175258
O O2 0.108212 0.533201 0.292422
O O3 0.746901 0.910574 0.395609
O O4 0.845516 0.100748 0.352851
O O5 0.313577 0.460209 0.194609
O O6 0.499205 0.158425 0.249543
O O7 0.280804 0.921433 0.069980
O O8 0.500000 0.500000 0.500000
O O9 0.562112 0.655408 0.432015
O O10 0.597340 0.025225 0.659003
O O11 0.523157 0.445492 0.115298
O O12 0.152377 0.874052 0.184270
O O13 0.783242 0.131587 0.213050
O O14 0.889772 0.016750 0.064681
O O15 0.000000 0.500000 0.000000
#
# Coordination Sequence:
#
# PCOD9040078 Si02
#       7
#     2   2   2   2   2   2   2
#     4  10  23  43  61  91 130 166 208 265 309 368
#     4  12  22  38  67  95 124 166 211 255 320 373
#     4   9  23  45  62  88 130 164 214 263 304 369
#     4  11  22  40  66  92 126 169 204 260 314 364
#     4  12  22  39  67  97 127 162 207 260 316 374
#     4  11  23  41  64  90 128 167 213 257 307 372
#     4  11  23  40  62  98 132 157 209 264 311 378
#
# _framework density 25.307628000000001
#
# number of rings (size 3 to 8) (size 9 to 14) (size 15 to 20)
#    0.000    1.143    4.286    1.714    0.000    5.714 
#    0.000    0.000    0.000    0.000    0.000    0.000 
#    0.000    0.000    0.000    0.000    0.000    0.000 
#
# Total GULP energy -78357.039688 kJ/mol
# GULP energy per Si atom -5596.931406 kJ/mol
# Density = 2.525003 g / cm^3
# Si number density = 25.307628 Si / 1000 Ang^3
#
#
#
# Elastic Constant Matrix: (Units=GPa)
#
#
# Indices 1 2 3 4 5 6 
#
# 1 88.2017 18.3190 42.1797 13.3584 -17.8383 -26.9659
# 2 18.3190 109.2571 13.6846 12.1601 -2.3120 -18.4556
# 3 42.1797 13.6846 144.1550 15.4755 -23.5512 -8.9092
# 4 13.3584 12.1601 15.4755 34.7157 -4.6650 -1.5409
# 5 -17.8383 -2.3120 -23.5512 -4.6650 35.8745 5.7892
# 6 -26.9659 -18.4556 -8.9092 -1.5409 5.7892 51.8665
#
#
#
# Elastic Compliance Matrix: (Units=1/GPa)
#
#
# Indices 1 2 3 4 5 6 
#
# 1 0.016743 -0.000645 -0.003242 -0.003846 0.004476 0.007305
# 2 -0.000645 0.010182 -0.000381 -0.003119 -0.000840 0.003224
# 3 -0.003242 -0.000381 0.008736 -0.002016 0.003969 -0.000824
# 4 -0.003846 -0.003119 -0.002016 0.032320 0.001190 -0.002628
# 5 0.004476 -0.000840 0.003969 0.001190 0.032958 -0.000933
# 6 0.007305 0.003224 -0.000824 -0.002628 -0.000933 0.024110
#
#
# Mechanical properties :
#
#
# Convention : Reuss Voigt Hill
#
# Bulk Modulus (GPa) = 36.86597 54.44225 45.65411
# Shear Modulus (GPa) = 35.05671 42.32003 38.68837
#
# Velocity S-wave (km/s) = 3.72590 4.09372 3.91413
# Velocity P-wave (km/s) = 5.75400 6.62598 6.20533
#
# Compressibility (1/GPa) = 0.02712528
#
# Stress axis : x y z
#
# Youngs Moduli (GPa) = 59.72625 98.20870 114.47129
#
# Poissons Ratio (x) = 0.06330 0.37114
# Poissons Ratio (y) = 0.03850 0.04365
# Poissons Ratio (z) = 0.19364 0.03745
#
# Static dielectric constant tensor:
#      x y z
#    x 2.056030 0.068340 0.015390 
#    y 0.068340 1.979370 0.042960 
#    z 0.015390 0.042960 2.112330 
# 
# From -- ./inp_files/178609.got.cif
#   From: 2010.05.17/outbox.cif.g08.bks.cpg/sg2_90_cif.got.tgz:178609.got - 2010.06.03 11:33:40.
