data_PCOD9040603
_publ_section_title
;
Structure prediction by ZEFSAII (Michael W. Deem and Ramdas Pophale) SiO2 
 PCOD9040603
Probable space group: P -1
;
_chemical_formula_sum "Si O2"
_cell_formula_units_Z 16
_cell_length_a 12.131925
_cell_length_b 7.859169
_cell_length_c 14.172558
_cell_angle_alpha 97.602305
_cell_angle_beta 30.492179
_cell_angle_gamma 94.189986
_cell_volume 677.400263
_symmetry_space_group_name_H-M "P -1"
_symmetry_group_IT_number 2
_symmetry_cell_setting 'triclinic'
loop_
_space_group_symop_operation_xyz
x,y,z
-x,-y,-z
loop_
_atom_site_type_symbol
_atom_site_label
_atom_site_fract_x
_atom_site_fract_y
_atom_site_fract_z
Si Si1 0.698230 0.839811 0.469087
Si Si2 0.521715 0.622239 0.209848
Si Si3 0.753512 0.582394 0.853267
Si Si4 0.055905 0.851400 0.736270
Si Si5 0.481038 0.343418 0.573403
Si Si6 0.548242 0.832125 0.887605
Si Si7 0.645362 0.995788 0.135512
Si Si8 0.849316 0.627761 0.518712
O O1 0.670543 0.781661 0.378468
O O2 0.781162 0.691335 0.468915
O O3 0.863809 0.985823 0.365034
O O4 0.461038 0.912244 0.688102
O O5 0.601875 0.606873 0.257450
O O6 0.301134 0.528115 0.361495
O O7 0.509960 0.825866 0.208986
O O8 0.684093 0.534862 0.006171
O O9 0.913489 0.734770 0.767878
O O10 0.900376 0.439634 0.677509
O O11 0.444644 0.325501 0.054500
O O12 0.276638 0.746566 0.597978
O O13 0.894250 0.920319 0.944203
O O14 0.500000 0.500000 0.500000
O O15 0.390845 0.874091 0.916986
O O16 0.774759 0.778149 0.659230
O O17 0.500000 0.000000 0.000000
#
# Coordination Sequence:
#
# PCOD9040603 Si02
#       8
#     2   2   2   2   2   2   2   2
#     4  11  23  43  66  96 137 172 226 276 332 392
#     4  11  22  42  69  91 139 175 215 282 331 388
#     4  11  23  46  66 100 136 178 226 273 337 399
#     4  11  22  40  70  92 135 174 222 274 332 392
#     4  12  23  44  67  97 136 179 221 278 341 396
#     4  11  22  44  70 100 136 176 225 277 332 400
#     4  10  23  43  67  99 132 176 220 278 333 394
#     4  11  24  43  68  99 138 179 222 275 336 397
#
# _framework density 23.619712
#
# number of rings (size 3 to 8) (size 9 to 14) (size 15 to 20)
#    0.000    1.000    6.250    0.750    0.000    3.000 
#    2.250   11.250    0.000    0.000    0.000    0.000 
#    0.000    0.000    0.000    0.000    0.000    0.000 
#
# Total GULP energy -89398.866725 kJ/mol
# GULP energy per Si atom -5587.429170 kJ/mol
# Density = 2.356595 g / cm^3
# Si number density = 23.619712 Si / 1000 Ang^3
#
#
#
# Elastic Constant Matrix: (Units=GPa)
#
#
# Indices 1 2 3 4 5 6 
#
# 1 99.7847 37.2965 38.5024 -2.2074 29.6145 1.1778
# 2 37.2965 71.7307 42.1714 3.4291 1.8899 -15.3193
# 3 38.5024 42.1714 142.6928 10.4606 20.1774 2.2711
# 4 -2.2074 3.4291 10.4606 41.3068 4.5138 7.4744
# 5 29.6145 1.8899 20.1774 4.5138 39.5045 7.0777
# 6 1.1778 -15.3193 2.2711 7.4744 7.0777 40.9188
#
#
#
# Elastic Compliance Matrix: (Units=1/GPa)
#
#
# Indices 1 2 3 4 5 6 
#
# 1 0.017380 -0.009118 -0.000476 0.003590 -0.012328 -0.002411
# 2 -0.009118 0.023766 -0.005484 -0.003469 0.007313 0.008833
# 3 -0.000476 -0.005484 0.009404 -0.001237 -0.003740 -0.001688
# 4 0.003590 -0.003469 -0.001237 0.026423 -0.003930 -0.005480
# 5 -0.012328 0.007313 -0.003740 -0.003930 0.036991 -0.002380
# 6 -0.002411 0.008833 -0.001688 -0.005480 -0.002380 0.029321
#
#
# Mechanical properties :
#
#
# Convention : Reuss Voigt Hill
#
# Bulk Modulus (GPa) = 49.03801 61.12766 55.08284
# Shear Modulus (GPa) = 27.74087 37.42854 32.58470
#
# Velocity S-wave (km/s) = 3.43079 3.98506 3.71827
# Velocity P-wave (km/s) = 6.04155 6.86370 6.46570
#
# Compressibility (1/GPa) = 0.02039234
#
# Stress axis : x y z
#
# Youngs Moduli (GPa) = 57.53702 42.07742 106.34161
#
# Poissons Ratio (x) = 0.38368 0.05066
# Poissons Ratio (y) = 0.52465 0.58315
# Poissons Ratio (z) = 0.02741 0.23074
#
# Static dielectric constant tensor:
#      x y z
#    x 1.887920 0.006940 0.006900 
#    y 0.006940 1.972470 -0.003420 
#    z 0.006900 -0.003420 1.908650 
# 
# From -- ./inp_files/445340.got.cif
#   From: 2010.05.17/outbox.cif.g08.bks.cpg/sg2_223_cif.got.tgz:445340.got - 2010.06.03 11:33:40.
