data_PCOD9040608
_publ_section_title
;
Structure prediction by ZEFSAII (Michael W. Deem and Ramdas Pophale) SiO2 
 PCOD9040608
Probable space group: P -1
;
_chemical_formula_sum "Si O2"
_cell_formula_units_Z 14
_cell_length_a 14.714674
_cell_length_b 5.259959
_cell_length_c 20.295735
_cell_angle_alpha 105.376086
_cell_angle_beta 25.349787
_cell_angle_gamma 118.421774
_cell_volume 531.694706
_symmetry_space_group_name_H-M "P -1"
_symmetry_group_IT_number 2
_symmetry_cell_setting 'triclinic'
loop_
_space_group_symop_operation_xyz
x,y,z
-x,-y,-z
loop_
_atom_site_type_symbol
_atom_site_label
_atom_site_fract_x
_atom_site_fract_y
_atom_site_fract_z
Si Si1 0.060511 0.125106 0.176617
Si Si2 0.603338 0.151837 0.514232
Si Si3 0.317363 0.860077 0.941524
Si Si4 0.171811 0.191272 0.527781
Si Si5 0.566755 0.801066 0.896956
Si Si6 0.748117 0.332263 0.607775
Si Si7 0.054279 0.816568 0.898338
O O1 0.849343 0.130912 0.358055
O O2 0.998522 0.136178 0.140381
O O3 0.343075 0.431908 0.032023
O O4 0.103505 0.842599 0.128174
O O5 0.694566 0.521074 0.486161
O O6 0.500000 0.000000 0.500000
O O7 0.354072 0.945554 0.710373
O O8 0.516444 0.850096 0.857520
O O9 0.490979 0.186387 0.809385
O O10 0.151448 0.560687 0.981916
O O11 0.212837 0.408944 0.452080
O O12 0.276287 0.976608 0.428759
O O13 0.863804 0.940736 0.722367
O O14 0.500000 0.000000 0.000000
O O15 0.000000 0.500000 0.500000
O O16 0.000000 0.000000 0.000000
#
# Coordination Sequence:
#
# PCOD9040608 Si02
#       7
#     2   2   2   2   2   2   2
#     4  10  23  43  67  99 139 181 233 296 364 426
#     4  10  23  48  69 101 146 191 246 301 360 435
#     4  11  25  41  70 100 138 186 234 301 360 431
#     4  12  26  47  73 109 146 195 242 302 366 438
#     4  11  23  42  68  99 140 179 234 290 363 432
#     4  12  26  45  74 110 151 188 240 300 376 436
#     4  10  23  44  68  97 135 184 243 296 350 424
#
# _framework density 26.330902999999999
#
# number of rings (size 3 to 8) (size 9 to 14) (size 15 to 20)
#    0.000    1.143    2.857    2.143    6.000    2.857 
#    5.143    0.000    0.000    0.000    0.000    0.000 
#    0.000    0.000    0.000    0.000    0.000    0.000 
#
# Total GULP energy -78493.030214 kJ/mol
# GULP energy per Si atom -5606.645015 kJ/mol
# Density = 2.627097 g / cm^3
# Si number density = 26.330903 Si / 1000 Ang^3
#
#
#
# Elastic Constant Matrix: (Units=GPa)
#
#
# Indices 1 2 3 4 5 6 
#
# 1 96.3371 48.6157 39.5867 -8.4511 -2.3178 8.2838
# 2 48.6157 163.7897 67.1988 11.7624 -6.4311 42.2556
# 3 39.5867 67.1988 208.1597 3.8081 -3.2784 16.5240
# 4 -8.4511 11.7624 3.8081 51.8379 3.7467 -0.7291
# 5 -2.3178 -6.4311 -3.2784 3.7467 48.3508 -3.4916
# 6 8.2838 42.2556 16.5240 -0.7291 -3.4916 40.3366
#
#
#
# Elastic Compliance Matrix: (Units=1/GPa)
#
#
# Indices 1 2 3 4 5 6 
#
# 1 0.013132 -0.004144 -0.001400 0.003223 -0.000103 0.002267
# 2 -0.004144 0.010886 -0.001881 -0.003193 0.000663 -0.009783
# 3 -0.001400 -0.001881 0.005688 -0.000226 0.000081 -0.000069
# 4 0.003223 -0.003193 -0.000226 0.020721 -0.001674 0.003005
# 5 -0.000103 0.000663 0.000081 -0.001674 0.020979 0.001079
# 6 0.002267 -0.009783 -0.000069 0.003005 0.001079 0.034750
#
#
# Mechanical properties :
#
#
# Convention : Reuss Voigt Hill
#
# Bulk Modulus (GPa) = 67.30805 86.56544 76.93675
# Shear Modulus (GPa) = 39.69564 48.96406 44.32985
#
# Velocity S-wave (km/s) = 3.88695 4.31695 4.10758
# Velocity P-wave (km/s) = 6.76479 7.60233 7.19576
#
# Compressibility (1/GPa) = 0.01485706
#
# Stress axis : x y z
#
# Youngs Moduli (GPa) = 76.14955 91.85953 175.79622
#
# Poissons Ratio (x) = 0.38064 0.24616
# Poissons Ratio (y) = 0.31554 0.33065
# Poissons Ratio (z) = 0.10663 0.17277
#
# Static dielectric constant tensor:
#      x y z
#    x 2.187200 -0.027760 0.039660 
#    y -0.027760 2.077450 0.003060 
#    z 0.039660 0.003060 2.021620 
# 
# From -- ./inp_files/27807.got.cif
#   From: 2010.05.17/outbox.cif.g08.bks.cpg/sg2_14_cif.got.tgz:27807.got - 2010.06.03 11:33:40.
