data_PCOD9040215
_publ_section_title
;
Structure prediction by ZEFSAII (Michael W. Deem and Ramdas Pophale) SiO2 
 PCOD9040215
Probable space group: P -1
;
_chemical_formula_sum "Si O2"
_cell_formula_units_Z 16
_cell_length_a 16.891147
_cell_length_b 6.438444
_cell_length_c 8.322399
_cell_angle_alpha 50.386115
_cell_angle_beta 104.388612
_cell_angle_gamma 105.512697
_cell_volume 668.123063
_symmetry_space_group_name_H-M "P -1"
_symmetry_group_IT_number 2
_symmetry_cell_setting 'triclinic'
loop_
_space_group_symop_operation_xyz
x,y,z
-x,-y,-z
loop_
_atom_site_type_symbol
_atom_site_label
_atom_site_fract_x
_atom_site_fract_y
_atom_site_fract_z
Si Si1 0.775817 0.529239 0.022031
Si Si2 0.022988 0.198388 0.763182
Si Si3 0.934220 0.702418 0.824635
Si Si4 0.713009 0.060951 0.731130
Si Si5 0.678871 0.038930 0.355082
Si Si6 0.350345 0.529580 0.303394
Si Si7 0.127214 0.479855 0.444861
Si Si8 0.467848 0.715772 0.012876
O O1 0.868340 0.643225 0.964635
O O2 0.725247 0.469706 0.859150
O O3 0.734709 0.778588 0.951736
O O4 0.760583 0.243208 0.246502
O O5 0.114760 0.313301 0.688561
O O6 0.961298 0.412932 0.656768
O O7 0.984483 0.001292 0.698571
O O8 0.000000 0.000000 0.000000
O O9 0.878685 0.674133 0.650535
O O10 0.000000 0.500000 0.000000
O O11 0.678385 0.018567 0.556176
O O12 0.647456 0.189752 0.739525
O O13 0.796958 0.277758 0.647241
O O14 0.604758 0.174866 0.178320
O O15 0.670054 0.721843 0.460007
O O16 0.430034 0.523164 0.236270
O O17 0.500000 0.500000 0.000000
O O18 0.500000 0.000000 0.000000
#
# Coordination Sequence:
#
# PCOD9040215 Si02
#       8
#     2   2   2   2   2   2   2   2
#     4  10  23  43  64  97 143 181 239 298 362 421
#     4  11  24  41  58  89 126 171 236 292 367 426
#     4  12  23  40  63  92 132 182 236 298 367 436
#     4  11  23  42  72  97 138 184 241 297 359 428
#     4  10  26  44  72 107 139 188 238 288 354 438
#     4  10  24  46  72 106 140 188 240 286 356 430
#     4  11  24  40  62  89 126 180 224 298 358 418
#     4  11  28  50  80 114 158 195 233 296 366 440
#
# _framework density 23.947685
#
# number of rings (size 3 to 8) (size 9 to 14) (size 15 to 20)
#    0.000    1.250    3.750    0.375    8.750    3.000 
#    0.000    0.000    0.000    0.000    0.000    0.000 
#    0.000    0.000    0.000    0.000    0.000    0.000 
#
# Total GULP energy -89091.276378 kJ/mol
# GULP energy per Si atom -5568.204774 kJ/mol
# Density = 2.389318 g / cm^3
# Si number density = 23.947685 Si / 1000 Ang^3
#
#
#
# Elastic Constant Matrix: (Units=GPa)
#
#
# Indices 1 2 3 4 5 6 
#
# 1 60.1799 16.3099 19.7978 -7.5560 -22.0779 -14.0679
# 2 16.3099 87.5136 19.7682 -12.9840 -12.1668 -2.3591
# 3 19.7978 19.7682 99.5433 -14.6495 -20.7535 -8.8566
# 4 -7.5560 -12.9840 -14.6495 38.1460 3.1572 1.0185
# 5 -22.0779 -12.1668 -20.7535 3.1572 40.4484 0.1444
# 6 -14.0679 -2.3591 -8.8566 1.0185 0.1444 44.5063
#
#
#
# Elastic Compliance Matrix: (Units=1/GPa)
#
#
# Indices 1 2 3 4 5 6 
#
# 1 0.023714 -0.002036 -0.000878 0.002512 0.011659 0.007118
# 2 -0.002036 0.012839 -0.001302 0.003324 0.001824 -0.000304
# 3 -0.000878 -0.001302 0.012257 0.003612 0.005129 0.001993
# 4 0.002512 0.003324 0.003612 0.029042 0.001954 0.001018
# 5 0.011659 0.001824 0.005129 0.001954 0.034098 0.004647
# 6 0.007118 -0.000304 0.001993 0.001018 0.004647 0.025061
#
#
# Mechanical properties :
#
#
# Convention : Reuss Voigt Hill
#
# Bulk Modulus (GPa) = 24.76603 39.88761 32.32682
# Shear Modulus (GPa) = 31.46555 37.37754 34.42155
#
# Velocity S-wave (km/s) = 3.62875 3.95498 3.79537
# Velocity P-wave (km/s) = 5.28406 6.12765 5.72142
#
# Compressibility (1/GPa) = 0.04037790
#
# Stress axis : x y z
#
# Youngs Moduli (GPa) = 42.16870 77.88810 81.58292
#
# Poissons Ratio (x) = 0.15855 0.07166
# Poissons Ratio (y) = 0.08584 0.10625
# Poissons Ratio (z) = 0.03704 0.10144
#
# Static dielectric constant tensor:
#      x y z
#    x 1.860210 0.035230 -0.073340 
#    y 0.035230 2.042160 -0.018320 
#    z -0.073340 -0.018320 2.104790 
# 
# From -- ./inp_files/323219.got.cif
#   From: 2010.05.17/outbox.cif.g08.bks.cpg/sg2_162_cif.got.tgz:323219.got - 2010.06.03 11:33:40.
