data_PCOD9040302
_publ_section_title
;
Structure prediction by ZEFSAII (Michael W. Deem and Ramdas Pophale) SiO2 
 PCOD9040302
Probable space group: P -1
;
_chemical_formula_sum "Si O2"
_cell_formula_units_Z 16
_cell_length_a 14.361810
_cell_length_b 9.561623
_cell_length_c 11.627228
_cell_angle_alpha 99.798902
_cell_angle_beta 86.610650
_cell_angle_gamma 30.125980
_cell_volume 717.689884
_symmetry_space_group_name_H-M "P -1"
_symmetry_group_IT_number 2
_symmetry_cell_setting 'triclinic'
loop_
_space_group_symop_operation_xyz
x,y,z
-x,-y,-z
loop_
_atom_site_type_symbol
_atom_site_label
_atom_site_fract_x
_atom_site_fract_y
_atom_site_fract_z
Si Si1 0.453157 0.468502 0.390672
Si Si2 0.615879 0.766623 0.561706
Si Si3 0.179408 0.524573 0.179071
Si Si4 0.883886 0.306550 0.044978
Si Si5 0.976241 0.862236 0.482533
Si Si6 0.475903 0.390232 0.136031
Si Si7 0.594307 0.016035 0.805433
Si Si8 0.802230 0.987925 0.858138
O O1 0.500000 0.500000 0.500000
O O2 0.439225 0.323198 0.416171
O O3 0.572486 0.302437 0.239362
O O4 0.252584 0.829368 0.416883
O O5 0.861271 0.425393 0.483561
O O6 0.500000 0.000000 0.500000
O O7 0.583590 0.913970 0.692008
O O8 0.027637 0.739598 0.331382
O O9 0.345467 0.424699 0.170587
O O10 0.308143 0.206183 0.129012
O O11 0.081132 0.677463 0.082800
O O12 0.638734 0.616743 0.113428
O O13 0.979845 0.271125 0.136586
O O14 0.000000 0.000000 0.000000
O O15 0.000000 0.000000 0.500000
O O16 0.306168 0.726996 0.145436
O O17 0.655125 0.141614 0.996370
O O18 0.757885 0.920359 0.763209
#
# Coordination Sequence:
#
# PCOD9040302 Si02
#       8
#     2   2   2   2   2   2   2   2
#     4  11  24  41  68  97 127 178 222 265 325 399
#     4  10  23  43  65  96 127 169 218 275 333 385
#     4  11  21  42  66  87 133 171 210 274 333 384
#     4  12  24  40  67  96 125 176 226 263 326 398
#     4   9  19  40  63  90 121 172 215 257 326 386
#     4  11  21  44  63  93 138 165 219 274 323 389
#     4  11  24  45  64  92 138 172 209 277 341 374
#     4  11  25  40  65 100 128 174 218 272 326 387
#
# _framework density 22.293752999999999
#
# number of rings (size 3 to 8) (size 9 to 14) (size 15 to 20)
#    0.000    1.250    6.250    1.125    3.500    3.500 
#    4.500    0.625    0.000    0.000    0.000    0.000 
#    0.000    0.000    0.000    0.000    0.000    0.000 
#
# Total GULP energy -89170.259995 kJ/mol
# GULP energy per Si atom -5573.141250 kJ/mol
# Density = 2.224301 g / cm^3
# Si number density = 22.293753 Si / 1000 Ang^3
#
#
#
# Elastic Constant Matrix: (Units=GPa)
#
#
# Indices 1 2 3 4 5 6 
#
# 1 85.9261 35.6120 18.2899 -6.1168 25.7152 6.4163
# 2 35.6120 175.7803 35.1454 -10.3152 8.3247 17.5758
# 3 18.2899 35.1454 64.4090 -16.4580 17.6798 1.0364
# 4 -6.1168 -10.3152 -16.4580 37.2460 -2.0340 2.1124
# 5 25.7152 8.3247 17.6798 -2.0340 33.3498 -0.1754
# 6 6.4163 17.5758 1.0364 2.1124 -0.1754 30.5786
#
#
#
# Elastic Compliance Matrix: (Units=1/GPa)
#
#
# Indices 1 2 3 4 5 6 
#
# 1 0.016557 -0.002559 0.000550 0.001706 -0.012327 -0.002210
# 2 -0.002559 0.007203 -0.003658 0.000271 0.002113 -0.003486
# 3 0.000550 -0.003658 0.022498 0.008389 -0.010923 0.000583
# 4 0.001706 0.000271 0.008389 0.030862 -0.003963 -0.002953
# 5 -0.012327 0.002113 -0.010923 -0.003963 0.044524 0.002271
# 6 -0.002210 -0.003486 0.000583 -0.002953 0.002271 0.035367
#
#
# Mechanical properties :
#
#
# Convention : Reuss Voigt Hill
#
# Bulk Modulus (GPa) = 28.63427 56.02333 42.32880
# Shear Modulus (GPa) = 27.77955 36.03942 31.90949
#
# Velocity S-wave (km/s) = 3.53380 4.02502 3.78738
# Velocity P-wave (km/s) = 5.43344 6.83997 6.17687
#
# Compressibility (1/GPa) = 0.03492319
#
# Stress axis : x y z
#
# Youngs Moduli (GPa) = 60.39664 138.82543 44.44748
#
# Poissons Ratio (x) = 0.35532 -0.02445
# Poissons Ratio (y) = 0.15458 0.16261
# Poissons Ratio (z) = -0.03322 0.50788
#
# Static dielectric constant tensor:
#      x y z
#    x 1.599000 0.240510 0.012200 
#    y 0.240510 1.578390 -0.013330 
#    z 0.012200 -0.013330 1.918690 
# 
# From -- ./inp_files/447658.got.cif
#   From: 2010.05.17/outbox.cif.g08.bks.cpg/sg2_224_cif.got.tgz:447658.got - 2010.06.03 11:33:40.
