data_PCOD9040614
_publ_section_title
;
Structure prediction by ZEFSAII (Michael W. Deem and Ramdas Pophale) SiO2 
 PCOD9040614
Probable space group: P -1
;
_chemical_formula_sum "Si O2"
_cell_formula_units_Z 16
_cell_length_a 15.621706
_cell_length_b 12.954421
_cell_length_c 7.363260
_cell_angle_alpha 117.185709
_cell_angle_beta 41.227757
_cell_angle_gamma 137.023501
_cell_volume 654.847115
_symmetry_space_group_name_H-M "P -1"
_symmetry_group_IT_number 2
_symmetry_cell_setting 'triclinic'
loop_
_space_group_symop_operation_xyz
x,y,z
-x,-y,-z
loop_
_atom_site_type_symbol
_atom_site_label
_atom_site_fract_x
_atom_site_fract_y
_atom_site_fract_z
Si Si1 0.811230 0.419117 0.009989
Si Si2 0.142183 0.746638 0.669206
Si Si3 0.993298 0.157737 0.777090
Si Si4 0.507663 0.824317 0.468532
Si Si5 0.482246 0.077152 0.840359
Si Si6 0.296849 0.403987 0.780391
Si Si7 0.142294 0.823282 0.349694
Si Si8 0.838124 0.883165 0.032238
O O1 0.829808 0.295486 0.835690
O O2 0.008833 0.576717 0.826943
O O3 0.675915 0.344000 0.331585
O O4 0.732695 0.474964 0.051838
O O5 0.150637 0.842876 0.896449
O O6 0.313198 0.787834 0.351937
O O7 0.081030 0.784349 0.623092
O O8 0.918804 0.986063 0.802302
O O9 0.980886 0.191422 0.616224
O O10 0.170344 0.290933 0.717444
O O11 0.550758 0.852474 0.210618
O O12 0.668379 0.858525 0.335910
O O13 0.482890 0.942855 0.665372
O O14 0.333132 0.995291 0.161805
O O15 0.500000 0.500000 0.500000
O O16 0.236500 0.289029 0.953236
O O17 0.000000 0.000000 0.000000
#
# Coordination Sequence:
#
# PCOD9040614 Si02
#       8
#     2   2   2   2   2   2   2   2
#     4  10  22  35  54  84 121 151 183 238 284 347
#     4  11  21  36  57  89 120 151 185 232 300 350
#     4  10  21  38  61  88 113 148 191 241 287 339
#     4  10  17  33  56  84 116 146 188 238 282 340
#     4  10  19  32  55  85 116 145 188 238 286 335
#     4  10  20  34  57  87 111 154 199 226 279 344
#     4  11  22  38  59  89 119 148 187 240 298 340
#     4  10  18  33  57  85 113 148 195 236 279 335
#
# _framework density 24.433185999999999
#
# number of rings (size 3 to 8) (size 9 to 14) (size 15 to 20)
#    0.000    1.750    3.750    2.250    0.000    4.500 
#    0.000    0.000    0.000   15.000    3.250    0.000 
#    0.000    0.000    0.000    0.000    0.000    0.000 
#
# Total GULP energy -89186.277466 kJ/mol
# GULP energy per Si atom -5574.142342 kJ/mol
# Density = 2.437758 g / cm^3
# Si number density = 24.433186 Si / 1000 Ang^3
#
#
#
# Elastic Constant Matrix: (Units=GPa)
#
#
# Indices 1 2 3 4 5 6 
#
# 1 128.8205 35.7027 45.3090 -12.5845 -12.7249 -14.0347
# 2 35.7027 107.4911 54.9534 -25.4885 -0.3963 -31.4936
# 3 45.3090 54.9534 105.9200 -39.6148 -9.6328 3.9554
# 4 -12.5845 -25.4885 -39.6148 49.1580 -2.6276 -6.7825
# 5 -12.7249 -0.3963 -9.6328 -2.6276 48.3948 -8.9598
# 6 -14.0347 -31.4936 3.9554 -6.7825 -8.9598 26.6877
#
#
#
# Elastic Compliance Matrix: (Units=1/GPa)
#
#
# Indices 1 2 3 4 5 6 
#
# 1 0.010805 0.003563 -0.005878 0.001838 0.004135 0.012613
# 2 0.003563 0.033857 -0.015099 0.013684 0.008267 0.050318
# 3 -0.005878 -0.015099 0.022674 0.005675 -0.001145 -0.023212
# 4 0.001838 0.013684 0.005675 0.036923 0.009042 0.028692
# 5 0.004135 0.008267 -0.001145 0.009042 0.026387 0.023257
# 6 0.012613 0.050318 -0.023212 0.028692 0.023257 0.122023
#
#
# Mechanical properties :
#
#
# Convention : Reuss Voigt Hill
#
# Bulk Modulus (GPa) = 30.76227 68.24021 49.50124
# Shear Modulus (GPa) = 16.75976 38.59919 27.67948
#
# Velocity S-wave (km/s) = 2.62189 3.97896 3.36946
# Velocity P-wave (km/s) = 4.66727 7.00710 5.95327
#
# Compressibility (1/GPa) = 0.03250736
#
# Stress axis : x y z
#
# Youngs Moduli (GPa) = 92.55058 29.53637 44.10288
#
# Poissons Ratio (x) = -0.10523 0.25924
# Poissons Ratio (y) = -0.32973 0.66590
# Poissons Ratio (z) = 0.54401 0.44597
#
# Static dielectric constant tensor:
#      x y z
#    x 2.088560 0.041120 -0.063870 
#    y 0.041120 1.998090 -0.034560 
#    z -0.063870 -0.034560 1.961910 
# 
# From -- ./inp_files/303206.got.cif
#   From: 2010.05.17/outbox.cif.g08.bks.cpg/sg2_152_cif.got.tgz:303206.got - 2010.06.03 11:33:40.
