data_PCOD9040657
_publ_section_title
;
Structure prediction by ZEFSAII (Michael W. Deem and Ramdas Pophale) SiO2 
 PCOD9040657
Probable space group: P -1
;
_chemical_formula_sum "Si O2"
_cell_formula_units_Z 15
_cell_length_a 10.088990
_cell_length_b 9.852066
_cell_length_c 6.217993
_cell_angle_alpha 83.669405
_cell_angle_beta 106.187857
_cell_angle_gamma 98.857860
_cell_volume 584.990738
_symmetry_space_group_name_H-M "P -1"
_symmetry_group_IT_number 2
_symmetry_cell_setting 'triclinic'
loop_
_space_group_symop_operation_xyz
x,y,z
-x,-y,-z
loop_
_atom_site_type_symbol
_atom_site_label
_atom_site_fract_x
_atom_site_fract_y
_atom_site_fract_z
Si Si1 0.923499 0.321052 0.288371
Si Si2 0.310788 0.633273 0.530973
Si Si3 0.560003 0.653646 0.933304
Si Si4 0.692141 0.857684 0.285958
Si Si5 0.009726 0.105684 0.682403
Si Si6 0.500000 0.000000 0.000000
Si Si7 0.772112 0.137387 0.873227
Si Si8 0.770670 0.639125 0.694218
O O1 0.805073 0.399747 0.326342
O O2 0.979122 0.246924 0.534655
O O3 0.068230 0.386355 0.235283
O O4 0.846910 0.213974 0.101958
O O5 0.454622 0.691007 0.697952
O O6 0.269432 0.741430 0.321126
O O7 0.317901 0.489966 0.439312
O O8 0.710668 0.649425 0.901304
O O9 0.500000 0.500000 0.000000
O O10 0.570327 0.766623 0.106776
O O11 0.739476 0.773698 0.523315
O O12 0.828427 0.881503 0.193697
O O13 0.617603 0.991549 0.256815
O O14 0.891728 0.070186 0.811089
O O15 0.000000 0.000000 0.500000
O O16 0.632502 0.042221 0.891193
#
# Coordination Sequence:
#
# PCOD9040657 Si02
#       8
#     2   2   2   2   2   1   2   2
#     4  10  23  43  68 103 135 180 230 283 356 404
#     4  11  24  42  70 101 142 180 229 287 344 413
#     4  12  25  41  68  99 139 186 229 278 346 413
#     4  11  25  45  68 103 140 181 237 282 347 417
#     4  10  23  45  72  99 137 185 237 292 339 412
#     4  12  26  42  70  98 138 184 228 282 348 406
#     4  11  25  45  70 103 142 180 232 293 346 415
#     4  11  24  43  70 101 137 184 228 285 342 416
#
# _framework density 25.641431000000001
#
# number of rings (size 3 to 8) (size 9 to 14) (size 15 to 20)
#    0.000    1.067    1.333    4.000    3.733    5.867 
#    0.000   10.000    0.000    0.000    0.000    0.000 
#    0.000    0.000    0.000    0.000    0.000    0.000 
#
# Total GULP energy -83738.894666 kJ/mol
# GULP energy per Si atom -5582.592978 kJ/mol
# Density = 2.558307 g / cm^3
# Si number density = 25.641431 Si / 1000 Ang^3
#
#
#
# Elastic Constant Matrix: (Units=GPa)
#
#
# Indices 1 2 3 4 5 6 
#
# 1 176.4871 22.1195 48.8636 -11.0741 -14.1376 14.8928
# 2 22.1195 44.2290 18.0308 3.1918 -1.0838 9.4577
# 3 48.8636 18.0308 70.4119 -9.7349 2.9142 4.9688
# 4 -11.0741 3.1918 -9.7349 53.3517 0.5695 0.0782
# 5 -14.1376 -1.0838 2.9142 0.5695 51.8135 -0.8609
# 6 14.8928 9.4577 4.9688 0.0782 -0.8609 37.2173
#
#
#
# Elastic Compliance Matrix: (Units=1/GPa)
#
#
# Indices 1 2 3 4 5 6 
#
# 1 0.007547 -0.001428 -0.004719 0.000770 0.002254 -0.001977
# 2 -0.001428 0.027186 -0.006017 -0.003018 0.000459 -0.005517
# 3 -0.004719 -0.006017 0.019479 0.002961 -0.002529 0.000752
# 4 0.000770 -0.003018 0.002961 0.019627 -0.000235 0.000017
# 5 0.002254 0.000459 -0.002529 -0.000235 0.020066 -0.000216
# 6 -0.001977 -0.005517 0.000752 0.000017 -0.000216 0.028957
#
#
# Mechanical properties :
#
#
# Convention : Reuss Voigt Hill
#
# Bulk Modulus (GPa) = 33.46466 52.12842 42.79654
# Shear Modulus (GPa) = 31.81648 41.95077 36.88363
#
# Velocity S-wave (km/s) = 3.52635 4.04920 3.79679
# Velocity P-wave (km/s) = 5.44606 6.49887 5.99562
#
# Compressibility (1/GPa) = 0.02988227
#
# Stress axis : x y z
#
# Youngs Moduli (GPa) = 132.49630 36.78412 51.33753
#
# Poissons Ratio (x) = 0.05254 0.24227
# Poissons Ratio (y) = 0.18925 0.30891
# Poissons Ratio (z) = 0.62528 0.22134
#
# Static dielectric constant tensor:
#      x y z
#    x 1.986870 0.102300 -0.000600 
#    y 0.102300 1.874610 -0.017660 
#    z -0.000600 -0.017660 2.029410 
# 
# From -- ./inp_files/27324.got.cif
#   From: 2010.05.17/outbox.cif.g08.bks.cpg/sg2_14_cif.got.tgz:27324.got - 2010.06.03 11:33:40.
