data_PCOD9040693
_publ_section_title
;
Structure prediction by ZEFSAII (Michael W. Deem and Ramdas Pophale) SiO2 
 PCOD9040693
Probable space group: P -1
;
_chemical_formula_sum "Si O2"
_cell_formula_units_Z 14
_cell_length_a 16.379351
_cell_length_b 13.461975
_cell_length_c 5.142276
_cell_angle_alpha 100.801785
_cell_angle_beta 87.126967
_cell_angle_gamma 145.840316
_cell_volume 613.957760
_symmetry_space_group_name_H-M "P -1"
_symmetry_group_IT_number 2
_symmetry_cell_setting 'triclinic'
loop_
_space_group_symop_operation_xyz
x,y,z
-x,-y,-z
loop_
_atom_site_type_symbol
_atom_site_label
_atom_site_fract_x
_atom_site_fract_y
_atom_site_fract_z
Si Si1 0.147868 0.100478 0.415125
Si Si2 0.749903 0.410350 0.043903
Si Si3 0.089082 0.810335 0.287101
Si Si4 0.425632 0.732475 0.519231
Si Si5 0.659879 0.706198 0.998553
Si Si6 0.669065 0.928407 0.233399
Si Si7 0.331153 0.905858 0.070315
O O1 0.250287 0.203567 0.702909
O O2 0.102868 0.940435 0.259473
O O3 0.243391 0.242569 0.226076
O O4 0.000000 0.000000 0.500000
O O5 0.659815 0.381928 0.259089
O O6 0.921683 0.605868 0.168101
O O7 0.692293 0.373505 0.744543
O O8 0.717238 0.258395 0.025485
O O9 0.195460 0.836357 0.153270
O O10 0.162522 0.890680 0.603481
O O11 0.552611 0.789543 0.417360
O O12 0.528733 0.934501 0.684676
O O13 0.645263 0.810706 0.988742
O O14 0.500000 0.500000 0.000000
O O15 0.625676 0.991033 0.148995
#
# Coordination Sequence:
#
# PCOD9040693 Si02
#       7
#     2   2   2   2   2   2   2
#     4  11  24  45  70  96 135 169 208 278 341 383
#     4  12  26  38  65  97 130 172 221 267 307 382
#     4  10  25  42  64  96 130 171 218 258 326 392
#     4  11  25  41  62  94 132 170 218 270 319 364
#     4  11  24  44  71  99 126 170 225 268 324 402
#     4  10  23  43  68  90 132 176 208 265 329 385
#     4  11  22  44  65  88 135 176 216 258 324 379
#
# _framework density 22.802869999999999
#
# number of rings (size 3 to 8) (size 9 to 14) (size 15 to 20)
#    0.000    1.143    2.857    2.143    6.000    2.857 
#    0.000    0.000    0.000    0.000    0.000    0.000 
#    0.000    0.000    0.000    0.000    0.000    0.000 
#
# Total GULP energy -78144.792805 kJ/mol
# GULP energy per Si atom -5581.770915 kJ/mol
# Density = 2.275097 g / cm^3
# Si number density = 22.802870 Si / 1000 Ang^3
#
#
#
# Elastic Constant Matrix: (Units=GPa)
#
#
# Indices 1 2 3 4 5 6 
#
# 1 72.9314 48.3966 31.7629 13.0920 -8.3573 25.4484
# 2 48.3966 97.9849 73.9841 5.1535 -0.5061 39.2647
# 3 31.7629 73.9841 123.8075 0.7213 10.0367 18.5526
# 4 13.0920 5.1535 0.7213 36.6735 16.1308 4.4983
# 5 -8.3573 -0.5061 10.0367 16.1308 33.2793 -2.5553
# 6 25.4484 39.2647 18.5526 4.4983 -2.5553 36.5021
#
#
#
# Elastic Compliance Matrix: (Units=1/GPa)
#
#
# Indices 1 2 3 4 5 6 
#
# 1 0.025765 -0.008589 -0.001613 -0.012851 0.012638 -0.005436
# 2 -0.008589 0.036571 -0.015923 0.001009 0.000767 -0.025329
# 3 -0.001613 -0.015923 0.017344 0.004774 -0.007553 0.008321
# 4 -0.012851 0.001009 0.004774 0.043119 -0.025680 -0.001664
# 5 0.012638 0.000767 -0.007553 -0.025680 0.048015 0.000728
# 6 -0.005436 -0.025329 0.008321 -0.001664 0.000728 0.054459
#
#
# Mechanical properties :
#
#
# Convention : Reuss Voigt Hill
#
# Bulk Modulus (GPa) = 36.45499 67.00122 51.72811
# Shear Modulus (GPa) = 17.44189 30.66299 24.05244
#
# Velocity S-wave (km/s) = 2.76868 3.67099 3.25129
# Velocity P-wave (km/s) = 5.12274 6.88584 6.06866
#
# Compressibility (1/GPa) = 0.02743108
#
# Stress axis : x y z
#
# Youngs Moduli (GPa) = 38.81199 27.34374 57.65758
#
# Poissons Ratio (x) = 0.23485 0.09299
# Poissons Ratio (y) = 0.33334 0.91810
# Poissons Ratio (z) = 0.06259 0.43540
#
# Static dielectric constant tensor:
#      x y z
#    x 1.896800 -0.002570 -0.009750 
#    y -0.002570 1.869200 -0.070320 
#    z -0.009750 -0.070320 1.909850 
# 
# From -- ./inp_files/110898.got.cif
#   From: 2010.05.17/outbox.cif.g08.bks.cpg/sg2_56_cif.got.tgz:110898.got - 2010.06.03 11:33:40.
