data_PCOD9040121
_publ_section_title
;
Structure prediction by ZEFSAII (Michael W. Deem and Ramdas Pophale) SiO2 
 PCOD9040121
Probable space group: P -1
;
_chemical_formula_sum "Si O2"
_cell_formula_units_Z 16
_cell_length_a 8.761837
_cell_length_b 20.878909
_cell_length_c 20.570622
_cell_angle_alpha 161.484897
_cell_angle_beta 38.555198
_cell_angle_gamma 147.031984
_cell_volume 648.285883
_symmetry_space_group_name_H-M "P -1"
_symmetry_group_IT_number 2
_symmetry_cell_setting 'triclinic'
loop_
_space_group_symop_operation_xyz
x,y,z
-x,-y,-z
loop_
_atom_site_type_symbol
_atom_site_label
_atom_site_fract_x
_atom_site_fract_y
_atom_site_fract_z
Si Si1 0.689500 0.871307 0.451411
Si Si2 0.954584 0.541350 0.267820
Si Si3 0.860747 0.727361 0.137567
Si Si4 0.512677 0.891842 0.666879
Si Si5 0.107391 0.025421 0.885603
Si Si6 0.325431 0.046573 0.688050
Si Si7 0.232745 0.759499 0.835195
Si Si8 0.352995 0.497256 0.436559
O O1 0.499696 0.790865 0.501497
O O2 0.615056 0.051430 0.614279
O O3 0.685180 0.690347 0.226449
O O4 0.000000 0.000000 0.500000
O O5 0.933124 0.378295 0.178529
O O6 0.644627 0.506615 0.331889
O O7 0.157735 0.802244 0.471961
O O8 0.059130 0.461479 0.094037
O O9 0.166633 0.959015 0.270691
O O10 0.694743 0.773554 0.179976
O O11 0.337004 0.673314 0.560375
O O12 0.385646 0.065829 0.869688
O O13 0.882278 0.768274 0.735951
O O14 0.174098 0.030892 0.791796
O O15 0.967121 0.186882 0.092751
O O16 0.347055 0.611396 0.617090
O O17 0.500000 0.000000 0.000000
#
# Coordination Sequence:
#
# PCOD9040121 Si02
#       8
#     2   2   2   2   2   2   2   2
#     4   9  22  44  71  91 123 166 211 262 327 370
#     4  12  23  37  64 100 128 162 217 262 311 372
#     4  11  22  43  68  92 125 167 211 265 320 371
#     4  10  23  43  63  92 129 170 213 260 314 377
#     4  11  23  40  63  93 131 172 210 257 316 375
#     4  11  21  41  69  96 126 162 210 267 313 379
#     4  12  22  37  61  91 132 170 213 257 310 369
#     4  12  23  39  62  91 134 174 207 257 312 374
#
# _framework density 24.68047
#
# number of rings (size 3 to 8) (size 9 to 14) (size 15 to 20)
#    0.000    1.000    5.000    2.625    0.000    1.000 
#    2.250    0.625    0.000    0.000    0.000    0.000 
#    0.000    0.000    0.000    0.000    0.000    0.000 
#
# Total GULP energy -89622.781698 kJ/mol
# GULP energy per Si atom -5601.423856 kJ/mol
# Density = 2.462430 g / cm^3
# Si number density = 24.680470 Si / 1000 Ang^3
#
#
#
# Elastic Constant Matrix: (Units=GPa)
#
#
# Indices 1 2 3 4 5 6 
#
# 1 115.4949 29.8102 32.3260 -19.1160 -26.6152 6.5264
# 2 29.8102 70.1378 31.9253 -13.6929 3.2137 -4.7051
# 3 32.3260 31.9253 111.5884 -34.1387 -9.3063 1.1028
# 4 -19.1160 -13.6929 -34.1387 42.8839 4.9186 -3.0453
# 5 -26.6152 3.2137 -9.3063 4.9186 38.6303 -9.4988
# 6 6.5264 -4.7051 1.1028 -3.0453 -9.4988 40.0867
#
#
#
# Elastic Compliance Matrix: (Units=1/GPa)
#
#
# Indices 1 2 3 4 5 6 
#
# 1 0.012505 -0.004907 -0.000780 0.002390 0.008430 -0.000411
# 2 -0.004907 0.018835 -0.004027 0.001401 -0.005631 0.001893
# 3 -0.000780 -0.004027 0.013140 0.008631 0.001966 0.000414
# 4 0.002390 0.001401 0.008631 0.031837 0.000039 0.001966
# 5 0.008430 -0.005631 0.001966 0.000039 0.034106 0.005997
# 6 -0.000411 0.001893 0.000414 0.001966 0.005997 0.026794
#
#
# Mechanical properties :
#
#
# Convention : Reuss Voigt Hill
#
# Bulk Modulus (GPa) = 39.91780 53.92714 46.92247
# Shear Modulus (GPa) = 30.30390 37.86417 34.08404
#
# Velocity S-wave (km/s) = 3.50787 3.92110 3.72023
# Velocity P-wave (km/s) = 5.71103 6.51135 6.12427
#
# Compressibility (1/GPa) = 0.02505148
#
# Stress axis : x y z
#
# Youngs Moduli (GPa) = 79.96887 53.09382 76.10441
#
# Poissons Ratio (x) = 0.26053 0.05939
# Poissons Ratio (y) = 0.39240 0.30645
# Poissons Ratio (z) = 0.06240 0.21379
#
# Static dielectric constant tensor:
#      x y z
#    x 1.974680 0.000800 -0.009630 
#    y 0.000800 1.942470 -0.023660 
#    z -0.009630 -0.023660 1.951250 
# 
# From -- ./inp_files/448345.got.cif
#   From: 2010.05.17/outbox.cif.g08.bks.cpg/sg2_225_cif.got.tgz:448345.got - 2010.06.03 11:33:40.
