data_PCOD9040036
_publ_section_title
;
Structure prediction by ZEFSAII (Michael W. Deem and Ramdas Pophale) SiO2 
 PCOD9040036
Probable space group: P -1
;
_chemical_formula_sum "Si O2"
_cell_formula_units_Z 13
_cell_length_a 17.905713
_cell_length_b 12.913858
_cell_length_c 12.121741
_cell_angle_alpha 47.786434
_cell_angle_beta 27.246554
_cell_angle_gamma 27.077832
_cell_volume 478.165730
_symmetry_space_group_name_H-M "P -1"
_symmetry_group_IT_number 2
_symmetry_cell_setting 'triclinic'
loop_
_space_group_symop_operation_xyz
x,y,z
-x,-y,-z
loop_
_atom_site_type_symbol
_atom_site_label
_atom_site_fract_x
_atom_site_fract_y
_atom_site_fract_z
Si Si1 0.646757 0.821826 0.760083
Si Si2 0.483440 0.937169 0.449337
Si Si3 0.610346 0.530869 0.584145
Si Si4 0.309889 0.931935 0.330426
Si Si5 0.166090 0.690386 0.901706
Si Si6 0.142646 0.977638 0.155883
Si Si7 0.500000 0.500000 0.000000
O O1 0.442459 0.009401 0.783185
O O2 0.000000 0.500000 0.500000
O O3 0.685313 0.943172 0.683384
O O4 0.443718 0.883184 0.071886
O O5 0.500000 0.000000 0.500000
O O6 0.674865 0.649116 0.406235
O O7 0.107942 0.172376 0.759510
O O8 0.338490 0.689654 0.737643
O O9 0.913386 0.210062 0.382816
O O10 0.491681 0.575866 0.827398
O O11 0.557972 0.627295 0.258864
O O12 0.954464 0.121986 0.656976
O O13 0.982189 0.863473 0.906781
O O14 0.507323 0.665549 0.921992
#
# Coordination Sequence:
#
# PCOD9040036 Si02
#       7
#     2   2   2   2   2   2   1
#     4  11  23  44  68  99 144 186 232 281 347 425
#     4  12  26  44  70 106 145 188 228 288 359 417
#     4  11  25  47  74 103 138 189 236 289 349 419
#     4  10  23  42  75 103 131 188 247 281 341 425
#     4  11  22  48  76 101 136 189 242 284 348 418
#     4  11  24  45  74 104 139 178 241 298 351 410
#     4  12  26  42  70 112 144 170 230 308 358 400
#
# _framework density 27.187225999999999
#
# number of rings (size 3 to 8) (size 9 to 14) (size 15 to 20)
#    0.000    0.923    3.077    4.615    2.154    3.692 
#    2.769    1.538    0.000    0.000    0.000    0.000 
#    0.000    0.000    0.000    0.000    0.000    0.000 
#
# Total GULP energy -72794.333928 kJ/mol
# GULP energy per Si atom -5599.564148 kJ/mol
# Density = 2.712535 g / cm^3
# Si number density = 27.187226 Si / 1000 Ang^3
#
#
#
# Elastic Constant Matrix: (Units=GPa)
#
#
# Indices 1 2 3 4 5 6 
#
# 1 117.1885 57.1973 29.3736 0.9110 27.5819 -10.4091
# 2 57.1973 235.0243 49.1088 19.4601 29.2076 6.9289
# 3 29.3736 49.1088 129.4741 1.8545 32.8490 -5.0625
# 4 0.9110 19.4601 1.8545 57.4142 -4.9523 14.2603
# 5 27.5819 29.2076 32.8490 -4.9523 62.5371 -4.9230
# 6 -10.4091 6.9289 -5.0625 14.2603 -4.9230 48.3622
#
#
#
# Elastic Compliance Matrix: (Units=1/GPa)
#
#
# Indices 1 2 3 4 5 6 
#
# 1 0.010697 -0.002098 -0.000726 -0.000278 -0.003199 0.002283
# 2 -0.002098 0.005330 -0.001285 -0.001579 -0.001092 -0.000995
# 3 -0.000726 -0.001285 0.009425 -0.000381 -0.004004 0.000719
# 4 -0.000278 -0.001579 -0.000381 0.019499 0.002179 -0.005401
# 5 -0.003199 -0.001092 -0.004004 0.002179 0.020224 0.000465
# 6 0.002283 -0.000995 0.000719 -0.005401 0.000465 0.023027
#
#
# Mechanical properties :
#
#
# Convention : Reuss Voigt Hill
#
# Bulk Modulus (GPa) = 58.02577 83.67182 70.84880
# Shear Modulus (GPa) = 48.94074 56.72983 52.83529
#
# Velocity S-wave (km/s) = 4.24741 4.57293 4.41317
# Velocity P-wave (km/s) = 6.74116 7.66323 7.21694
#
# Compressibility (1/GPa) = 0.01723372
#
# Stress axis : x y z
#
# Youngs Moduli (GPa) = 93.48125 187.62377 106.10072
#
# Poissons Ratio (x) = 0.39371 0.07704
# Poissons Ratio (y) = 0.19616 0.13631
# Poissons Ratio (z) = 0.06788 0.24104
#
# Static dielectric constant tensor:
#      x y z
#    x 2.177880 0.098950 -0.050970 
#    y 0.098950 2.253270 0.036500 
#    z -0.050970 0.036500 2.245120 
# 
# From -- ./inp_files/464344.got.cif
#   From: 2010.05.17/outbox.cif.g08.bks.cpg/sg2_233_cif.got.tgz:464344.got - 2010.06.03 11:33:40.
