data_PCOD9040221
_publ_section_title
;
Structure prediction by ZEFSAII (Michael W. Deem and Ramdas Pophale) SiO2 
 PCOD9040221
Probable space group: P -1
;
_chemical_formula_sum "Si O2"
_cell_formula_units_Z 16
_cell_length_a 16.313309
_cell_length_b 14.112910
_cell_length_c 22.613857
_cell_angle_alpha 157.516436
_cell_angle_beta 159.256060
_cell_angle_gamma 33.644096
_cell_volume 685.745180
_symmetry_space_group_name_H-M "P -1"
_symmetry_group_IT_number 2
_symmetry_cell_setting 'triclinic'
loop_
_space_group_symop_operation_xyz
x,y,z
-x,-y,-z
loop_
_atom_site_type_symbol
_atom_site_label
_atom_site_fract_x
_atom_site_fract_y
_atom_site_fract_z
Si Si1 0.106777 0.407131 0.848203
Si Si2 0.717460 0.931170 0.318566
Si Si3 0.951372 0.842155 0.936538
Si Si4 0.067771 0.749516 0.541255
Si Si5 0.208226 0.654767 0.186711
Si Si6 0.126933 0.013433 0.848698
Si Si7 0.455552 0.521357 0.603004
Si Si8 0.171117 0.749844 0.836485
O O1 0.112123 0.644463 0.945243
O O2 0.246192 0.212465 0.800896
O O3 0.837998 0.230842 0.568765
O O4 0.192676 0.516926 0.033494
O O5 0.876862 0.831433 0.417396
O O6 0.440948 0.850959 0.098676
O O7 0.685781 0.668247 0.650130
O O8 0.971241 0.046410 0.118988
O O9 0.000000 0.000000 0.000000
O O10 0.266096 0.659492 0.585005
O O11 0.935477 0.517461 0.359531
O O12 0.174660 0.971480 0.787850
O O13 0.445269 0.642340 0.374514
O O14 0.132061 0.922837 0.284007
O O15 0.000000 0.500000 0.000000
O O16 0.160625 0.779488 0.776185
O O17 0.324505 0.260680 0.145981
#
# Coordination Sequence:
#
# PCOD9040221 Si02
#       8
#     2   2   2   2   2   2   2   2
#     4  11  23  45  68 101 138 171 236 281 328 406
#     4  11  25  41  71 101 134 179 225 281 335 397
#     4  12  24  46  69  99 139 175 225 281 343 404
#     4  12  25  47  64 101 142 177 224 277 342 405
#     4  10  23  43  65 100 131 175 223 282 333 390
#     4  11  25  43  68  99 134 177 232 277 330 405
#     4  11  24  43  72  96 133 183 226 277 338 395
#     4  12  26  43  69  99 139 181 219 280 344 402
#
# _framework density 23.332281999999999
#
# number of rings (size 3 to 8) (size 9 to 14) (size 15 to 20)
#    0.000    0.750    3.750    3.375    8.750    1.000 
#    0.000    1.250    0.000    0.000    0.000    0.000 
#    0.000    0.000    0.000    0.000    0.000    0.000 
#
# Total GULP energy -89532.303042 kJ/mol
# GULP energy per Si atom -5595.768940 kJ/mol
# Density = 2.327918 g / cm^3
# Si number density = 23.332282 Si / 1000 Ang^3
#
#
#
# Elastic Constant Matrix: (Units=GPa)
#
#
# Indices 1 2 3 4 5 6 
#
# 1 55.8286 14.0673 -8.0660 0.4679 -14.3774 20.1311
# 2 14.0673 115.4799 7.7362 -6.5734 10.9354 28.9153
# 3 -8.0660 7.7362 31.6584 10.2877 0.2997 6.5653
# 4 0.4679 -6.5734 10.2877 25.1301 6.4568 1.8448
# 5 -14.3774 10.9354 0.2997 6.4568 40.9810 3.1582
# 6 20.1311 28.9153 6.5653 1.8448 3.1582 36.6001
#
#
#
# Elastic Compliance Matrix: (Units=1/GPa)
#
#
# Indices 1 2 3 4 5 6 
#
# 1 0.031386 -0.001964 0.015496 -0.009739 0.014440 -0.019246
# 2 -0.001964 0.011796 -0.003845 0.006333 -0.004228 -0.007504
# 3 0.015496 -0.003845 0.046346 -0.022002 0.010639 -0.013608
# 4 -0.009739 0.006333 -0.022002 0.053945 -0.013658 0.002759
# 5 0.014440 -0.004228 0.010639 -0.013658 0.033340 -0.008699
# 6 -0.019246 -0.007504 -0.013608 0.002759 -0.008699 0.046889
#
#
# Mechanical properties :
#
#
# Convention : Reuss Voigt Hill
#
# Bulk Modulus (GPa) = 9.18257 25.60464 17.39361
# Shear Modulus (GPa) = 20.77893 33.15752 26.96823
#
# Velocity S-wave (km/s) = 2.98747 3.77384 3.40344
# Velocity P-wave (km/s) = 3.98046 5.47603 4.78701
#
# Compressibility (1/GPa) = 0.10890194
#
# Stress axis : x y z
#
# Youngs Moduli (GPa) = 31.86149 84.77359 21.57687
#
# Poissons Ratio (x) = 0.16650 -0.33435
# Poissons Ratio (y) = 0.06258 0.08296
# Poissons Ratio (z) = -0.49372 0.32595
#
# Static dielectric constant tensor:
#      x y z
#    x 1.903710 0.027640 -0.001030 
#    y 0.027640 1.921940 0.016790 
#    z -0.001030 0.016790 1.855360 
# 
# From -- ./inp_files/226665.got.cif
#   From: 2010.05.17/outbox.cif.g08.bks.cpg/sg2_114_cif.got.tgz:226665.got - 2010.06.03 11:33:40.
