data_PCOD9040501
_publ_section_title
;
Structure prediction by ZEFSAII (Michael W. Deem and Ramdas Pophale) SiO2 
 PCOD9040501
Probable space group: P -1
;
_chemical_formula_sum "Si O2"
_cell_formula_units_Z 15
_cell_length_a 6.845626
_cell_length_b 18.667304
_cell_length_c 9.314580
_cell_angle_alpha 38.772226
_cell_angle_beta 50.552005
_cell_angle_gamma 70.147153
_cell_volume 544.921560
_symmetry_space_group_name_H-M "P -1"
_symmetry_group_IT_number 2
_symmetry_cell_setting 'triclinic'
loop_
_space_group_symop_operation_xyz
x,y,z
-x,-y,-z
loop_
_atom_site_type_symbol
_atom_site_label
_atom_site_fract_x
_atom_site_fract_y
_atom_site_fract_z
Si Si1 0.705925 0.338519 0.725608
Si Si2 0.657256 0.580605 0.020236
Si Si3 0.895591 0.949607 0.365841
Si Si4 0.500000 0.000000 0.000000
Si Si5 0.910724 0.247075 0.295059
Si Si6 0.277501 0.353009 0.418857
Si Si7 0.425359 0.195478 0.811671
Si Si8 0.313459 0.850680 0.732459
O O1 0.560098 0.413089 0.770732
O O2 0.565396 0.295934 0.705468
O O3 0.023594 0.400307 0.465663
O O4 0.684780 0.219281 0.011932
O O5 0.544848 0.452338 0.196632
O O6 0.688351 0.670289 0.728506
O O7 0.937397 0.625604 0.902207
O O8 0.625865 0.911437 0.457379
O O9 0.184989 0.985678 0.099218
O O10 0.898469 0.832974 0.641368
O O11 0.843160 0.054325 0.322039
O O12 0.610138 0.937327 0.905437
O O13 0.639279 0.175270 0.621157
O O14 0.836194 0.244956 0.169461
O O15 0.244924 0.246356 0.713974
#
# Coordination Sequence:
#
# PCOD9040501 Si02
#       8
#     2   2   2   1   2   2   2   2
#     4  12  25  46  70 108 139 185 237 299 347 443
#     4  11  25  48  74 102 142 184 241 298 360 418
#     4  10  23  43  67 106 138 195 239 296 351 435
#     4  10  24  44  70 102 152 182 234 298 354 426
#     4  11  23  46  69 102 143 187 237 297 351 427
#     4  11  26  50  71 103 142 186 236 302 357 426
#     4  11  26  45  70 104 143 184 233 290 357 426
#     4  11  24  41  75 100 146 189 245 286 368 417
#
# _framework density 27.526900999999999
#
# number of rings (size 3 to 8) (size 9 to 14) (size 15 to 20)
#    0.000    1.067    2.667    2.400    3.733    5.333 
#    2.400    4.667    0.000    0.000    0.000    0.000 
#    0.000    0.000    0.000    0.000    0.000    0.000 
#
# Total GULP energy -83719.641890 kJ/mol
# GULP energy per Si atom -5581.309459 kJ/mol
# Density = 2.746425 g / cm^3
# Si number density = 27.526901 Si / 1000 Ang^3
#
#
#
# Elastic Constant Matrix: (Units=GPa)
#
#
# Indices 1 2 3 4 5 6 
#
# 1 169.4158 54.7141 43.8043 20.6066 -23.3119 5.3722
# 2 54.7141 86.9058 16.0375 15.3304 -15.4434 17.8843
# 3 43.8043 16.0375 86.2999 13.8546 -20.2104 2.8626
# 4 20.6066 15.3304 13.8546 30.6188 8.8161 -11.8468
# 5 -23.3119 -15.4434 -20.2104 8.8161 49.8175 11.1081
# 6 5.3722 17.8843 2.8626 -11.8468 11.1081 61.3521
#
#
#
# Elastic Compliance Matrix: (Units=1/GPa)
#
#
# Indices 1 2 3 4 5 6 
#
# 1 0.008580 -0.003516 -0.002308 -0.004189 0.002944 -0.000961
# 2 -0.003516 0.020602 0.003994 -0.017664 0.012046 -0.011476
# 3 -0.002308 0.003994 0.016989 -0.013744 0.010906 -0.006383
# 4 -0.004189 -0.017664 -0.013744 0.069129 -0.030840 0.025090
# 5 0.002944 0.012046 0.010906 -0.030840 0.038920 -0.017280
# 6 -0.000961 -0.011476 -0.006383 0.025090 -0.017280 0.028000
#
#
# Mechanical properties :
#
#
# Convention : Reuss Voigt Hill
#
# Bulk Modulus (GPa) = 23.52356 63.52591 43.52473
# Shear Modulus (GPa) = 24.99373 43.56207 34.27790
#
# Velocity S-wave (km/s) = 3.01653 3.98241 3.53264
# Velocity P-wave (km/s) = 4.54938 6.65387 5.69960
#
# Compressibility (1/GPa) = 0.04251057
#
# Stress axis : x y z
#
# Youngs Moduli (GPa) = 116.54990 48.53984 58.86227
#
# Poissons Ratio (x) = 0.17067 0.13584
# Poissons Ratio (y) = 0.40979 -0.23508
# Poissons Ratio (z) = 0.26897 -0.19386
#
# Static dielectric constant tensor:
#      x y z
#    x 2.196790 -0.036530 -0.022000 
#    y -0.036530 2.267350 -0.220010 
#    z -0.022000 -0.220010 2.508500 
# 
# From -- ./inp_files/138470.got.cif
#   From: 2010.05.17/outbox.cif.g08.bks.cpg/sg2_70_cif.got.tgz:138470.got - 2010.06.03 11:33:40.
