data_PCOD9040499
_publ_section_title
;
Structure prediction by ZEFSAII (Michael W. Deem and Ramdas Pophale) SiO2 
 PCOD9040499
Probable space group: P -1
;
_chemical_formula_sum "Si O2"
_cell_formula_units_Z 14
_cell_length_a 13.776294
_cell_length_b 11.571112
_cell_length_c 5.210664
_cell_angle_alpha 59.516946
_cell_angle_beta 59.857787
_cell_angle_gamma 57.287042
_cell_volume 571.724204
_symmetry_space_group_name_H-M "P -1"
_symmetry_group_IT_number 2
_symmetry_cell_setting 'triclinic'
loop_
_space_group_symop_operation_xyz
x,y,z
-x,-y,-z
loop_
_atom_site_type_symbol
_atom_site_label
_atom_site_fract_x
_atom_site_fract_y
_atom_site_fract_z
Si Si1 0.356396 0.543292 0.602289
Si Si2 0.922311 0.911676 0.934504
Si Si3 0.600866 0.852854 0.629950
Si Si4 0.400648 0.429680 0.169552
Si Si5 0.139319 0.781476 0.416852
Si Si6 0.025558 0.356510 0.457864
Si Si7 0.239688 0.194725 0.027826
O O1 0.500000 0.500000 0.500000
O O2 0.348648 0.434003 0.517630
O O3 0.276939 0.698410 0.416813
O O4 0.308867 0.523480 0.967166
O O5 0.054011 0.849424 0.698214
O O6 0.883223 0.077663 0.888083
O O7 0.828508 0.913331 0.830056
O O8 0.922725 0.790505 0.272429
O O9 0.545874 0.728902 0.843181
O O10 0.700270 0.798781 0.332018
O O11 0.500000 0.000000 0.500000
O O12 0.661158 0.859529 0.815182
O O13 0.500000 0.500000 0.000000
O O14 0.088749 0.665338 0.498321
O O15 0.870819 0.664506 0.871355
O O16 0.000000 0.500000 0.500000
#
# Coordination Sequence:
#
# PCOD9040499 Si02
#       7
#     2   2   2   2   2   2   2
#     4  10  23  43  67 105 140 184 237 299 366 434
#     4  10  23  47  69 108 146 192 251 309 368 451
#     4  12  26  45  74 103 147 194 246 303 377 444
#     4  10  24  44  67  98 140 181 241 293 353 438
#     4  10  24  42  75 105 144 199 247 311 376 435
#     4  11  25  44  74 108 154 194 250 309 378 444
#     4  11  25  46  69 107 147 191 246 304 368 453
#
# _framework density 24.48733
#
# number of rings (size 3 to 8) (size 9 to 14) (size 15 to 20)
#    0.000    1.429    1.429    1.714    4.000    9.143 
#    0.000    0.000    0.000    0.000    0.000    0.000 
#    0.000    0.000    0.000    0.000    0.000    0.000 
#
# Total GULP energy -78172.025941 kJ/mol
# GULP energy per Si atom -5583.716139 kJ/mol
# Density = 2.443160 g / cm^3
# Si number density = 24.487330 Si / 1000 Ang^3
#
#
#
# Elastic Constant Matrix: (Units=GPa)
#
#
# Indices 1 2 3 4 5 6 
#
# 1 131.4065 50.8773 37.0961 -10.0051 13.0571 1.3219
# 2 50.8773 74.2880 16.5341 -17.8836 -4.6316 8.3986
# 3 37.0961 16.5341 92.6976 0.7194 18.3835 11.8361
# 4 -10.0051 -17.8836 0.7194 50.9051 6.5344 7.7993
# 5 13.0571 -4.6316 18.3835 6.5344 44.7870 1.8783
# 6 1.3219 8.3986 11.8361 7.7993 1.8783 35.5388
#
#
#
# Elastic Compliance Matrix: (Units=1/GPa)
#
#
# Indices 1 2 3 4 5 6 
#
# 1 0.011819 -0.008037 -0.003032 -0.000482 -0.003077 0.002738
# 2 -0.008037 0.021645 -0.000735 0.006447 0.004203 -0.006208
# 3 -0.003032 -0.000735 0.013559 0.000162 -0.004613 -0.004021
# 4 -0.000482 0.006447 0.000162 0.023112 -0.002359 -0.006507
# 5 -0.003077 0.004203 -0.004613 -0.002359 0.025905 -0.000194
# 6 0.002738 -0.006208 -0.004021 -0.006507 -0.000194 0.032281
#
#
# Mechanical properties :
#
#
# Convention : Reuss Voigt Hill
#
# Bulk Modulus (GPa) = 42.70846 56.37858 49.54352
# Shear Modulus (GPa) = 31.30181 39.17181 35.23681
#
# Velocity S-wave (km/s) = 3.57919 4.00393 3.79751
# Velocity P-wave (km/s) = 5.87875 6.66700 6.28524
#
# Compressibility (1/GPa) = 0.02341457
#
# Stress axis : x y z
#
# Youngs Moduli (GPa) = 84.60836 46.20004 73.75055
#
# Poissons Ratio (x) = 0.37132 0.22361
# Poissons Ratio (y) = 0.68001 0.05423
# Poissons Ratio (z) = 0.25653 0.03397
#
# Static dielectric constant tensor:
#      x y z
#    x 1.952100 -0.041000 0.032230 
#    y -0.041000 1.932250 0.119580 
#    z 0.032230 0.119580 2.029180 
# 
# From -- ./inp_files/94292.got.cif
#   From: 2010.05.17/outbox.cif.g08.bks.cpg/sg2_48_cif.got.tgz:94292.got - 2010.06.03 11:33:40.
