data_PCOD9040929
_publ_section_title
;
Structure prediction by ZEFSAII (Michael W. Deem and Ramdas Pophale) SiO2 
 PCOD9040929
Probable space group: P -1
;
_chemical_formula_sum "Si O2"
_cell_formula_units_Z 16
_cell_length_a 10.858600
_cell_length_b 12.069400
_cell_length_c 12.012760
_cell_angle_alpha 48.075403
_cell_angle_beta 140.081342
_cell_angle_gamma 125.726965
_cell_volume 743.188051
_symmetry_space_group_name_H-M "P -1"
_symmetry_group_IT_number 2
_symmetry_cell_setting 'triclinic'
loop_
_space_group_symop_operation_xyz
x,y,z
-x,-y,-z
loop_
_atom_site_type_symbol
_atom_site_label
_atom_site_fract_x
_atom_site_fract_y
_atom_site_fract_z
Si Si1 0.255969 0.853884 0.573514
Si Si2 0.600397 0.398052 0.049354
Si Si3 0.955483 0.640261 0.081942
Si Si4 0.287465 0.212531 0.369979
Si Si5 0.902714 0.837775 0.501192
Si Si6 0.983136 0.323903 0.646019
Si Si7 0.643818 0.418870 0.578851
Si Si8 0.686781 0.691310 0.273813
O O1 0.415801 0.766525 0.796621
O O2 0.069196 0.799578 0.559792
O O3 0.203097 0.774788 0.472017
O O4 0.290837 0.033766 0.477144
O O5 0.815219 0.485466 0.117436
O O6 0.500000 0.500000 0.000000
O O7 0.510634 0.370085 0.883366
O O8 0.003748 0.704748 0.195594
O O9 0.173011 0.629024 0.196348
O O10 0.825447 0.726989 0.852481
O O11 0.164659 0.241878 0.376657
O O12 0.503891 0.294707 0.494023
O O13 0.714733 0.820276 0.300833
O O14 0.000000 0.000000 0.500000
O O15 0.166855 0.267129 0.753536
O O16 0.000000 0.500000 0.500000
O O17 0.500000 0.500000 0.500000
O O18 0.739287 0.547748 0.473908
#
# Coordination Sequence:
#
# PCOD9040929 Si02
#       8
#     2   2   2   2   2   2   2   2
#     4  10  23  43  69  98 137 185 230 297 347 406
#     4  12  23  41  72 106 134 179 244 287 343 418
#     4  12  25  42  72 103 138 185 232 288 352 412
#     4  11  25  45  64 101 150 179 228 288 357 418
#     4   9  20  43  65  91 137 183 227 284 340 407
#     4  11  19  40  71  93 130 177 237 283 338 403
#     4  12  25  42  67 101 144 182 227 284 350 418
#     4  11  20  38  69 100 130 177 235 287 331 416
#
# _framework density 21.528872
#
# number of rings (size 3 to 8) (size 9 to 14) (size 15 to 20)
#    0.000    1.000    6.250    0.750    0.000    2.000 
#    6.750    3.750    0.000    0.000    0.000    0.000 
#    0.000    0.000    0.000    0.000    0.000    0.000 
#
# Total GULP energy -89135.898013 kJ/mol
# GULP energy per Si atom -5570.993626 kJ/mol
# Density = 2.147987 g / cm^3
# Si number density = 21.528872 Si / 1000 Ang^3
#
#
#
# Elastic Constant Matrix: (Units=GPa)
#
#
# Indices 1 2 3 4 5 6 
#
# 1 75.1316 23.6486 21.3804 2.6234 -6.0793 -7.6767
# 2 23.6486 154.2185 70.4444 13.1457 -1.2991 -4.4972
# 3 21.3804 70.4444 125.4125 6.4823 1.3677 -7.4945
# 4 2.6234 13.1457 6.4823 36.9949 -3.5077 -7.3097
# 5 -6.0793 -1.2991 1.3677 -3.5077 27.0708 11.1135
# 6 -7.6767 -4.4972 -7.4945 -7.3097 11.1135 31.4483
#
#
#
# Elastic Compliance Matrix: (Units=1/GPa)
#
#
# Indices 1 2 3 4 5 6 
#
# 1 0.014633 -0.001472 -0.001584 0.000433 0.002439 0.002223
# 2 -0.001472 0.009078 -0.004781 -0.002424 0.000405 -0.000907
# 3 -0.001584 -0.004781 0.011085 0.000133 -0.002089 0.002340
# 4 0.000433 -0.002424 0.000133 0.029167 0.001235 0.006134
# 5 0.002439 0.000405 -0.002089 0.001235 0.043970 -0.015096
# 6 0.002223 -0.000907 0.002340 0.006134 -0.015096 0.039529
#
#
# Mechanical properties :
#
#
# Convention : Reuss Voigt Hill
#
# Bulk Modulus (GPa) = 52.29704 65.07883 58.68793
# Shear Modulus (GPa) = 29.49645 35.05540 32.27593
#
# Velocity S-wave (km/s) = 3.70549 4.03959 3.87614
# Velocity P-wave (km/s) = 6.53084 7.21471 6.88127
#
# Compressibility (1/GPa) = 0.01912154
#
# Stress axis : x y z
#
# Youngs Moduli (GPa) = 68.33664 110.16054 90.21053
#
# Poissons Ratio (x) = 0.16215 0.14290
# Poissons Ratio (y) = 0.10059 0.43133
# Poissons Ratio (z) = 0.10825 0.52671
#
# Static dielectric constant tensor:
#      x y z
#    x 1.876980 -0.029350 0.038600 
#    y -0.029350 1.814160 0.047300 
#    z 0.038600 0.047300 1.856770 
# 
# From -- ./inp_files/425344.got.cif
#   From: 2010.05.17/outbox.cif.g08.bks.cpg/sg2_213_cif.got.tgz:425344.got - 2010.06.03 11:33:40.
