data_PCOD9040606
_publ_section_title
;
Structure prediction by ZEFSAII (Michael W. Deem and Ramdas Pophale) SiO2 
 PCOD9040606
Probable space group: P -1
;
_chemical_formula_sum "Si O2"
_cell_formula_units_Z 14
_cell_length_a 10.938911
_cell_length_b 9.446327
_cell_length_c 17.855681
_cell_angle_alpha 44.698971
_cell_angle_beta 147.705473
_cell_angle_gamma 114.472832
_cell_volume 601.858581
_symmetry_space_group_name_H-M "P -1"
_symmetry_group_IT_number 2
_symmetry_cell_setting 'triclinic'
loop_
_space_group_symop_operation_xyz
x,y,z
-x,-y,-z
loop_
_atom_site_type_symbol
_atom_site_label
_atom_site_fract_x
_atom_site_fract_y
_atom_site_fract_z
Si Si1 0.906920 0.320088 0.272940
Si Si2 0.064934 0.758861 0.409245
Si Si3 0.347452 0.483392 0.233133
Si Si4 0.797418 0.286864 0.768188
Si Si5 0.762119 0.915006 0.340016
Si Si6 0.216756 0.249056 0.879669
Si Si7 0.952712 0.751421 0.794257
O O1 0.727693 0.543222 0.146877
O O2 0.181899 0.200686 0.506496
O O3 0.947976 0.365965 0.191672
O O4 0.812681 0.131504 0.294049
O O5 0.359933 0.570123 0.612338
O O6 0.964174 0.751816 0.442581
O O7 0.866072 0.760973 0.243562
O O8 0.074989 0.997599 0.320341
O O9 0.236912 0.627099 0.197150
O O10 0.303305 0.264181 0.308335
O O11 0.170391 0.612542 0.021583
O O12 0.500000 0.500000 0.500000
O O13 0.978837 0.300366 0.792264
O O14 0.000000 0.000000 0.000000
O O15 0.471578 0.011201 0.123343
#
# Coordination Sequence:
#
# PCOD9040606 Si02
#       7
#     2   2   2   2   2   2   2
#     4  10  23  45  67  99 137 184 248 300 362 436
#     4  11  24  43  67 101 142 180 240 304 362 444
#     4  11  23  43  69 102 137 193 237 300 367 439
#     4  12  27  47  75 113 153 192 244 310 374 444
#     4  10  25  44  68 100 135 192 240 305 362 448
#     4  12  24  42  72  98 145 186 239 303 371 436
#     4  10  23  43  67  99 138 186 240 299 367 434
#
# _framework density 23.261281
#
# number of rings (size 3 to 8) (size 9 to 14) (size 15 to 20)
#    0.000    1.143    2.857    2.143    2.000    7.429 
#    0.000    0.000    0.000    0.000    0.000    0.000 
#    0.000    0.000    0.000    0.000    0.000    0.000 
#
# Total GULP energy -78023.197991 kJ/mol
# GULP energy per Si atom -5573.085571 kJ/mol
# Density = 2.320834 g / cm^3
# Si number density = 23.261281 Si / 1000 Ang^3
#
#
#
# Elastic Constant Matrix: (Units=GPa)
#
#
# Indices 1 2 3 4 5 6 
#
# 1 90.3438 34.5588 46.1638 9.3198 -12.1153 -20.6963
# 2 34.5588 84.2118 44.0671 -1.5895 -6.8059 -29.6705
# 3 46.1638 44.0671 138.1689 12.9479 -6.5423 -14.7806
# 4 9.3198 -1.5895 12.9479 36.5529 -7.7235 -9.7319
# 5 -12.1153 -6.8059 -6.5423 -7.7235 37.0741 8.2902
# 6 -20.6963 -29.6705 -14.7806 -9.7319 8.2902 40.2617
#
#
#
# Elastic Compliance Matrix: (Units=1/GPa)
#
#
# Indices 1 2 3 4 5 6 
#
# 1 0.015332 -0.003012 -0.003538 -0.001271 0.002790 0.003481
# 2 -0.003012 0.020472 -0.004724 0.006986 0.000397 0.013411
# 3 -0.003538 -0.004724 0.009982 -0.003579 -0.000470 -0.002404
# 4 -0.001271 0.006986 -0.003579 0.032979 0.004835 0.010157
# 5 0.002790 0.000397 -0.000470 0.004835 0.029638 -0.003380
# 6 0.003481 0.013411 -0.002404 0.010157 -0.003380 0.038779
#
#
# Mechanical properties :
#
#
# Convention : Reuss Voigt Hill
#
# Bulk Modulus (GPa) = 43.03542 62.47822 52.75682
# Shear Modulus (GPa) = 28.17278 35.30670 31.73974
#
# Velocity S-wave (km/s) = 3.48393 3.90016 3.69791
# Velocity P-wave (km/s) = 5.89277 6.87018 6.40016
#
# Compressibility (1/GPa) = 0.02323667
#
# Stress axis : x y z
#
# Youngs Moduli (GPa) = 65.22450 48.84688 100.17719
#
# Poissons Ratio (x) = 0.14715 0.35445
# Poissons Ratio (y) = 0.19649 0.47324
# Poissons Ratio (z) = 0.23078 0.23076
#
# Static dielectric constant tensor:
#      x y z
#    x 1.803830 0.059400 0.011200 
#    y 0.059400 1.981270 -0.058820 
#    z 0.011200 -0.058820 1.967950 
# 
# From -- ./inp_files/442152.got.cif
#   From: 2010.05.17/outbox.cif.g08.bks.cpg/sg2_222_cif.got.tgz:442152.got - 2010.06.03 11:33:40.
