data_PCOD9040962
_publ_section_title
;
Structure prediction by ZEFSAII (Michael W. Deem and Ramdas Pophale) SiO2 
 PCOD9040962
Probable space group: P -1
;
_chemical_formula_sum "Si O2"
_cell_formula_units_Z 14
_cell_length_a 11.663384
_cell_length_b 7.862558
_cell_length_c 6.962181
_cell_angle_alpha 97.522634
_cell_angle_beta 99.152855
_cell_angle_gamma 98.884582
_cell_volume 614.804865
_symmetry_space_group_name_H-M "P -1"
_symmetry_group_IT_number 2
_symmetry_cell_setting 'triclinic'
loop_
_space_group_symop_operation_xyz
x,y,z
-x,-y,-z
loop_
_atom_site_type_symbol
_atom_site_label
_atom_site_fract_x
_atom_site_fract_y
_atom_site_fract_z
Si Si1 0.754942 0.546978 0.516805
Si Si2 0.104936 0.898554 0.943154
Si Si3 0.367538 0.967697 0.053412
Si Si4 0.069756 0.621248 0.199827
Si Si5 0.401603 0.348424 0.213769
Si Si6 0.653771 0.424253 0.087392
Si Si7 0.037447 0.196671 0.469923
O O1 0.833645 0.459144 0.671080
O O2 0.633670 0.557643 0.592918
O O3 0.741902 0.451651 0.294774
O O4 0.826640 0.743490 0.539103
O O5 0.043273 0.785388 0.733209
O O6 0.238648 0.982250 0.925474
O O7 0.125366 0.793105 0.123113
O O8 0.000000 0.000000 0.000000
O O9 0.381212 0.140758 0.214759
O O10 0.352267 0.758786 0.052415
O O11 0.500000 0.000000 0.000000
O O12 0.986054 0.678451 0.347038
O O13 0.000000 0.500000 0.000000
O O14 0.529863 0.409614 0.165513
O O15 0.323929 0.414002 0.029699
O O16 0.000000 0.000000 0.500000
#
# Coordination Sequence:
#
# PCOD9040962 Si02
#       7
#     2   2   2   2   2   2   2
#     4  12  25  42  70  99 141 181 232 294 357 422
#     4  12  24  45  72  99 141 183 234 292 352 426
#     4  10  23  43  70 100 137 181 232 286 349 420
#     4  12  27  43  67  99 137 184 233 296 362 416
#     4  10  23  44  72 101 136 187 234 285 358 422
#     4  10  23  45  70 103 140 182 234 293 348 430
#     4  12  27  43  64 101 136 183 236 288 352 424
#
# _framework density 22.771453000000001
#
# number of rings (size 3 to 8) (size 9 to 14) (size 15 to 20)
#    0.000    0.857    2.857    3.429    6.000    0.000 
#    0.000    0.000    0.000    9.429    0.000    0.000 
#    0.000    0.000    0.000    0.000    0.000    0.000 
#
# Total GULP energy -77982.089497 kJ/mol
# GULP energy per Si atom -5570.149250 kJ/mol
# Density = 2.271962 g / cm^3
# Si number density = 22.771453 Si / 1000 Ang^3
#
#
#
# Elastic Constant Matrix: (Units=GPa)
#
#
# Indices 1 2 3 4 5 6 
#
# 1 134.6696 19.3097 23.3443 0.6948 -16.7220 -0.5026
# 2 19.3097 106.7185 25.9030 -7.5348 -0.9674 -15.5097
# 3 23.3443 25.9030 108.3598 3.0321 0.8674 -10.1604
# 4 0.6948 -7.5348 3.0321 27.9996 -3.8699 -4.2004
# 5 -16.7220 -0.9674 0.8674 -3.8699 37.7953 5.4868
# 6 -0.5026 -15.5097 -10.1604 -4.2004 5.4868 30.9689
#
#
#
# Elastic Compliance Matrix: (Units=1/GPa)
#
#
# Indices 1 2 3 4 5 6 
#
# 1 0.008398 -0.001345 -0.001686 -0.000110 0.003971 -0.001809
# 2 -0.001345 0.011180 -0.001965 0.004002 -0.000666 0.005593
# 3 -0.001686 -0.001965 0.010345 -0.001451 -0.001539 0.002458
# 4 -0.000110 0.004002 -0.001451 0.038308 0.003113 0.006171
# 5 0.003971 -0.000666 -0.001539 0.003113 0.029358 -0.005553
# 6 -0.001809 0.005593 0.002458 0.006171 -0.005553 0.037690
#
#
# Mechanical properties :
#
#
# Convention : Reuss Voigt Hill
#
# Bulk Modulus (GPa) = 50.17335 54.09576 52.13455
# Shear Modulus (GPa) = 32.91339 38.09881 35.50610
#
# Velocity S-wave (km/s) = 3.80594 4.09479 3.95300
# Velocity P-wave (km/s) = 6.43388 6.79440 6.61660
#
# Compressibility (1/GPa) = 0.01993090
#
# Stress axis : x y z
#
# Youngs Moduli (GPa) = 119.08217 89.44396 96.66613
#
# Poissons Ratio (x) = 0.12030 0.16297
# Poissons Ratio (y) = 0.16016 0.18995
# Poissons Ratio (z) = 0.20076 0.17576
#
# Static dielectric constant tensor:
#      x y z
#    x 1.934500 0.009730 0.009030 
#    y 0.009730 1.923130 -0.029180 
#    z 0.009030 -0.029180 1.835900 
# 
# From -- ./inp_files/61026.got.cif
#   From: 2010.05.17/outbox.cif.g08.bks.cpg/sg2_31_cif.got.tgz:61026.got - 2010.06.03 11:33:40.
