data_PCOD9040605
_publ_section_title
;
Structure prediction by ZEFSAII (Michael W. Deem and Ramdas Pophale) SiO2 
 PCOD9040605
Probable space group: P -1
;
_chemical_formula_sum "Si O2"
_cell_formula_units_Z 10
_cell_length_a 7.061125
_cell_length_b 9.712392
_cell_length_c 12.854357
_cell_angle_alpha 145.342165
_cell_angle_beta 127.783646
_cell_angle_gamma 45.777694
_cell_volume 357.616752
_symmetry_space_group_name_H-M "P -1"
_symmetry_group_IT_number 2
_symmetry_cell_setting 'triclinic'
loop_
_space_group_symop_operation_xyz
x,y,z
-x,-y,-z
loop_
_atom_site_type_symbol
_atom_site_label
_atom_site_fract_x
_atom_site_fract_y
_atom_site_fract_z
Si Si1 0.516785 0.046867 0.155749
Si Si2 0.809490 0.903454 0.642392
Si Si3 0.361142 0.514743 0.132500
Si Si4 0.932683 0.378869 0.245759
Si Si5 0.690633 0.183732 0.494208
O O1 0.634703 0.209605 0.367833
O O2 0.203471 0.198490 0.169899
O O3 0.500000 0.000000 0.000000
O O4 0.697779 0.738321 0.064897
O O5 0.884865 0.683152 0.439743
O O6 0.527261 0.920090 0.601345
O O7 0.027095 0.762134 0.715759
O O8 0.787867 0.191028 0.782883
O O9 0.663003 0.401677 0.120829
O O10 0.366044 0.569626 0.292629
O O11 0.000000 0.000000 0.500000
#
# Coordination Sequence:
#
# PCOD9040605 Si02
#       5
#     2   2   2   2   2
#     4  11  26  44  67 102 140 181 227 279 345 407
#     4   9  20  41  72 102 130 176 231 279 340 403
#     4  11  23  42  73 102 130 179 231 285 340 398
#     4   9  19  41  68  99 136 173 224 285 338 401
#     4  10  23  43  67  99 138 177 221 279 340 404
#
# _framework density 27.962896000000001
#
# number of rings (size 3 to 8) (size 9 to 14) (size 15 to 20)
#    0.000    2.000    0.000    4.200    0.000    9.600 
#    0.000    8.000    0.000    1.200    0.000    0.000 
#    0.000    0.000    0.000    0.000    0.000    0.000 
#
# Total GULP energy -55980.360676 kJ/mol
# GULP energy per Si atom -5598.036068 kJ/mol
# Density = 2.789925 g / cm^3
# Si number density = 27.962896 Si / 1000 Ang^3
#
#
#
# Elastic Constant Matrix: (Units=GPa)
#
#
# Indices 1 2 3 4 5 6 
#
# 1 92.7042 26.9901 58.6957 13.5730 -11.6830 -19.5474
# 2 26.9901 136.5631 69.6568 38.6116 4.8780 3.6249
# 3 58.6957 69.6568 153.4087 11.0367 -16.1634 4.6191
# 4 13.5730 38.6116 11.0367 47.5595 3.6600 -9.1056
# 5 -11.6830 4.8780 -16.1634 3.6600 60.5980 2.3634
# 6 -19.5474 3.6249 4.6191 -9.1056 2.3634 46.5157
#
#
#
# Elastic Compliance Matrix: (Units=1/GPa)
#
#
# Indices 1 2 3 4 5 6 
#
# 1 0.016824 0.000449 -0.006545 -0.002380 0.001326 0.007152
# 2 0.000449 0.012811 -0.005425 -0.009529 -0.001736 -0.002048
# 3 -0.006545 -0.005425 0.011608 0.002826 0.002219 -0.003040
# 4 -0.002380 -0.009529 0.002826 0.029886 -0.000952 0.005360
# 5 0.001326 -0.001736 0.002219 -0.000952 0.017571 -0.000607
# 6 0.007152 -0.002048 -0.003040 0.005360 -0.000607 0.026045
#
#
# Mechanical properties :
#
#
# Convention : Reuss Voigt Hill
#
# Bulk Modulus (GPa) = 54.93981 77.04011 65.98996
# Shear Modulus (GPa) = 34.75750 46.09020 40.42385
#
# Velocity S-wave (km/s) = 3.52943 4.06428 3.80626
# Velocity P-wave (km/s) = 6.02488 7.04522 6.55494
#
# Compressibility (1/GPa) = 0.01820174
#
# Stress axis : x y z
#
# Youngs Moduli (GPa) = 59.43887 78.05542 86.14685
#
# Poissons Ratio (x) = -0.03507 0.56386
# Poissons Ratio (y) = -0.02670 0.46733
# Poissons Ratio (z) = 0.38905 0.42343
#
# Static dielectric constant tensor:
#      x y z
#    x 2.320670 0.105770 0.055080 
#    y 0.105770 2.154980 -0.016210 
#    z 0.055080 -0.016210 2.118840 
# 
# From -- ./inp_files/498657.got.cif
#   From: 2010.05.17/outbox.cif.g08.bks.cpg/sg2_250_cif.got.tgz:498657.got - 2010.06.03 11:33:40.
