data_PCOD9040117
_publ_section_title
;
Structure prediction by ZEFSAII (Michael W. Deem and Ramdas Pophale) SiO2 
 PCOD9040117
Probable space group: P -1
;
_chemical_formula_sum "Si O2"
_cell_formula_units_Z 14
_cell_length_a 9.899047
_cell_length_b 5.626726
_cell_length_c 21.866079
_cell_angle_alpha 100.472129
_cell_angle_beta 35.903814
_cell_angle_gamma 115.387724
_cell_volume 612.946861
_symmetry_space_group_name_H-M "P -1"
_symmetry_group_IT_number 2
_symmetry_cell_setting 'triclinic'
loop_
_space_group_symop_operation_xyz
x,y,z
-x,-y,-z
loop_
_atom_site_type_symbol
_atom_site_label
_atom_site_fract_x
_atom_site_fract_y
_atom_site_fract_z
Si Si1 0.124110 0.340500 0.908675
Si Si2 0.374578 0.749637 0.737387
Si Si3 0.324269 0.013098 0.156427
Si Si4 0.200342 0.644254 0.068902
Si Si5 0.449358 0.779732 0.219495
Si Si6 0.945959 0.202895 0.348403
Si Si7 0.519997 0.279570 0.438069
O O1 0.367890 0.561657 0.787766
O O2 0.265814 0.206222 0.888479
O O3 0.907748 0.190109 0.927470
O O4 0.000000 0.500000 0.000000
O O5 0.460123 0.673315 0.639412
O O6 0.059649 0.652699 0.844615
O O7 0.538044 0.061637 0.714888
O O8 0.277943 0.783289 0.112507
O O9 0.420069 0.946471 0.181102
O O10 0.059067 0.021976 0.266675
O O11 0.540878 0.303633 0.060070
O O12 0.197578 0.477286 0.293428
O O13 0.781708 0.274328 0.363508
O O14 0.734630 0.015759 0.467961
O O15 0.500000 0.500000 0.500000
#
# Coordination Sequence:
#
# PCOD9040117 Si02
#       7
#     2   2   2   2   2   2   2
#     4  10  23  43  63 102 143 180 225 272 333 416
#     4  10  24  42  68 103 133 184 228 276 343 409
#     4  11  23  46  66 103 140 182 230 287 333 409
#     4   9  22  43  67  97 144 177 231 279 330 415
#     4  12  24  41  71  99 144 181 222 284 346 404
#     4  11  25  43  70 102 134 179 235 285 339 413
#     4  11  25  48  75  96 137 182 232 293 348 399
#
# _framework density 22.840479999999999
#
# number of rings (size 3 to 8) (size 9 to 14) (size 15 to 20)
#    0.857    0.571    0.000    5.143    2.000    4.000 
#    2.571    7.857    0.000    0.000    0.000    0.000 
#    0.000    0.000    0.000    0.000    0.000    0.000 
#
# Total GULP energy -78150.525528 kJ/mol
# GULP energy per Si atom -5582.180395 kJ/mol
# Density = 2.278849 g / cm^3
# Si number density = 22.840480 Si / 1000 Ang^3
#
#
#
# Elastic Constant Matrix: (Units=GPa)
#
#
# Indices 1 2 3 4 5 6 
#
# 1 113.7593 33.8627 65.0393 26.7916 3.4788 9.4457
# 2 33.8627 55.7226 29.2258 0.9184 9.6627 22.4065
# 3 65.0393 29.2258 106.8869 5.0070 4.9150 4.7189
# 4 26.7916 0.9184 5.0070 41.6508 4.8439 -15.0555
# 5 3.4788 9.6627 4.9150 4.8439 40.6712 7.5115
# 6 9.4457 22.4065 4.7189 -15.0555 7.5115 40.2138
#
#
#
# Elastic Compliance Matrix: (Units=1/GPa)
#
#
# Indices 1 2 3 4 5 6 
#
# 1 0.019565 -0.004205 -0.009936 -0.014272 0.003536 -0.007090
# 2 -0.004205 0.029693 -0.004618 -0.002632 -0.002971 -0.015445
# 3 -0.009936 -0.004618 0.016165 0.006932 -0.001934 0.005967
# 4 -0.014272 -0.002632 0.006932 0.040793 -0.007675 0.020712
# 5 0.003536 -0.002971 -0.001934 -0.007675 0.027421 -0.006944
# 6 -0.007090 -0.015445 0.005967 0.020712 -0.006944 0.043489
#
#
# Mechanical properties :
#
#
# Convention : Reuss Voigt Hill
#
# Bulk Modulus (GPa) = 35.83734 59.18051 47.50893
# Shear Modulus (GPa) = 22.32673 34.38989 28.35831
#
# Velocity S-wave (km/s) = 3.12990 3.88449 3.52743
# Velocity P-wave (km/s) = 5.36526 6.78864 6.11848
#
# Compressibility (1/GPa) = 0.02790385
#
# Stress axis : x y z
#
# Youngs Moduli (GPa) = 51.11244 33.67814 61.86100
#
# Poissons Ratio (x) = 0.14162 0.61466
# Poissons Ratio (y) = 0.21493 0.28570
# Poissons Ratio (z) = 0.50786 0.15554
#
# Static dielectric constant tensor:
#      x y z
#    x 1.862310 -0.034600 -0.006220 
#    y -0.034600 1.906180 -0.041890 
#    z -0.006220 -0.041890 1.848260 
# 
# From -- ./inp_files/609090.got.cif
#   From: 2010.05.17/outbox.cif.g08.bks.cpg/sg2_305_cif.got.tgz:609090.got - 2010.06.03 11:33:40.
