data_PCOD9040525
_publ_section_title
;
Structure prediction by ZEFSAII (Michael W. Deem and Ramdas Pophale) SiO2 
 PCOD9040525
Probable space group: P -1
;
_chemical_formula_sum "Si O2"
_cell_formula_units_Z 12
_cell_length_a 11.699163
_cell_length_b 9.977380
_cell_length_c 7.667574
_cell_angle_alpha 50.272734
_cell_angle_beta 58.365172
_cell_angle_gamma 38.289237
_cell_volume 426.032975
_symmetry_space_group_name_H-M "P -1"
_symmetry_group_IT_number 2
_symmetry_cell_setting 'triclinic'
loop_
_space_group_symop_operation_xyz
x,y,z
-x,-y,-z
loop_
_atom_site_type_symbol
_atom_site_label
_atom_site_fract_x
_atom_site_fract_y
_atom_site_fract_z
Si Si1 0.379024 0.906989 0.565959
Si Si2 0.296978 0.668031 0.608898
Si Si3 0.065980 0.131336 0.879981
Si Si4 0.363975 0.268260 0.078766
Si Si5 0.774728 0.827443 0.010647
Si Si6 0.792463 0.474969 0.523507
O O1 0.266442 0.888559 0.528693
O O2 0.583139 0.643600 0.621275
O O3 0.273099 0.968638 0.777359
O O4 0.384701 0.108006 0.350018
O O5 0.500000 0.500000 0.500000
O O6 0.183315 0.685639 0.521889
O O7 0.309612 0.518419 0.886061
O O8 0.086344 0.151258 0.051434
O O9 0.930484 0.357184 0.673557
O O10 0.000000 0.000000 0.000000
O O11 0.562969 0.083654 0.974150
O O12 0.209192 0.296970 0.072697
O O13 0.796830 0.658198 0.278275
#
# Coordination Sequence:
#
# PCOD9040525 Si02
#       6
#     2   2   2   2   2   2
#     4  10  23  43  67  93 128 171 215 261 318 380
#     4   9  18  37  69  98 125 160 217 263 309 381
#     4  12  27  40  60  98 133 169 208 264 326 379
#     4   9  19  39  72  94 118 175 214 264 316 368
#     4   9  19  41  64  92 129 162 212 262 316 383
#     4   9  21  42  65  91 126 169 208 266 318 370
#
# _framework density 28.166834000000001
#
# number of rings (size 3 to 8) (size 9 to 14) (size 15 to 20)
#    0.000    2.333    0.000    3.500    7.000    4.000 
#    6.000    1.667    0.000    0.000    0.000    0.000 
#    0.000    0.000    0.000    0.000    0.000    0.000 
#
# Total GULP energy -67112.057090 kJ/mol
# GULP energy per Si atom -5592.671424 kJ/mol
# Density = 2.810272 g / cm^3
# Si number density = 28.166834 Si / 1000 Ang^3
#
#
#
# Elastic Constant Matrix: (Units=GPa)
#
#
# Indices 1 2 3 4 5 6 
#
# 1 178.4182 16.8542 11.5257 -10.5663 12.6582 23.6047
# 2 16.8542 85.9237 13.0726 5.7415 -5.9843 -2.4973
# 3 11.5257 13.0726 112.5148 -20.8268 -16.7630 7.3490
# 4 -10.5663 5.7415 -20.8268 36.1651 3.9922 -2.2952
# 5 12.6582 -5.9843 -16.7630 3.9922 59.3153 -7.6701
# 6 23.6047 -2.4973 7.3490 -2.2952 -7.6701 41.9718
#
#
#
# Elastic Compliance Matrix: (Units=1/GPa)
#
#
# Indices 1 2 3 4 5 6 
#
# 1 0.006603 -0.001689 -0.000168 0.002095 -0.002297 -0.004090
# 2 -0.001689 0.012671 -0.001866 -0.003625 0.001631 0.002130
# 3 -0.000168 -0.001866 0.010661 0.006060 0.002306 -0.001131
# 4 0.002095 -0.003625 0.006060 0.032424 -0.001404 -0.000938
# 5 -0.002297 0.001631 0.002306 -0.001404 0.018822 0.004348
# 6 -0.004090 0.002130 -0.001131 -0.000938 0.004348 0.027194
#
#
# Mechanical properties :
#
#
# Convention : Reuss Voigt Hill
#
# Bulk Modulus (GPa) = 44.46328 51.08465 47.77396
# Shear Modulus (GPa) = 40.54602 49.85071 45.19836
#
# Velocity S-wave (km/s) = 3.79818 4.21151 4.01017
# Velocity P-wave (km/s) = 5.92072 6.46722 6.19999
#
# Compressibility (1/GPa) = 0.02249047
#
# Stress axis : x y z
#
# Youngs Moduli (GPa) = 151.44072 78.91986 93.80005
#
# Poissons Ratio (x) = 0.13326 0.01571
# Poissons Ratio (y) = 0.25572 0.17506
# Poissons Ratio (z) = 0.02537 0.14729
#
# Static dielectric constant tensor:
#      x y z
#    x 2.444620 -0.021550 0.240300 
#    y -0.021550 2.292350 -0.031440 
#    z 0.240300 -0.031440 2.369580 
# 
# From -- ./inp_files/175984.got.cif
#   From: 2010.05.17/outbox.cif.g08.bks.cpg/sg2_88_cif.got.tgz:175984.got - 2010.06.03 11:33:40.
