data_PCOD9040624
_publ_section_title
;
Structure prediction by ZEFSAII (Michael W. Deem and Ramdas Pophale) SiO2 
 PCOD9040624
Probable space group: P -1
;
_chemical_formula_sum "Si O2"
_cell_formula_units_Z 16
_cell_length_a 18.647908
_cell_length_b 12.052317
_cell_length_c 14.455381
_cell_angle_alpha 150.464809
_cell_angle_beta 30.727317
_cell_angle_gamma 152.736226
_cell_volume 678.078520
_symmetry_space_group_name_H-M "P -1"
_symmetry_group_IT_number 2
_symmetry_cell_setting 'triclinic'
loop_
_space_group_symop_operation_xyz
x,y,z
-x,-y,-z
loop_
_atom_site_type_symbol
_atom_site_label
_atom_site_fract_x
_atom_site_fract_y
_atom_site_fract_z
Si Si1 0.829885 0.203522 0.950717
Si Si2 0.530275 0.499114 0.356615
Si Si3 0.262827 0.725216 0.094985
Si Si4 0.689422 0.220926 0.560464
Si Si5 0.843711 0.800139 0.771130
Si Si6 0.340630 0.702773 0.632591
Si Si7 0.203783 0.896946 0.468721
Si Si8 0.105806 0.769827 0.825511
O O1 0.787855 0.191290 0.881571
O O2 0.848335 0.969878 0.801275
O O3 0.684935 0.193409 0.165863
O O4 0.000000 0.500000 0.000000
O O5 0.500000 0.500000 0.500000
O O6 0.380658 0.482526 0.453122
O O7 0.693434 0.806854 0.384605
O O8 0.585674 0.307180 0.120361
O O9 0.289940 0.907970 0.284793
O O10 0.095691 0.432196 0.098009
O O11 0.695868 0.483259 0.708242
O O12 0.775354 0.284471 0.612638
O O13 0.802690 0.168551 0.329221
O O14 0.500071 0.957517 0.588686
O O15 0.015112 0.808174 0.592870
O O16 0.840279 0.965695 0.982642
O O17 0.177108 0.617117 0.692352
#
# Coordination Sequence:
#
# PCOD9040624 Si02
#       8
#     2   2   2   2   2   2   2   2
#     4  11  21  42  70 100 136 175 227 273 331 412
#     4  11  23  44  69  96 140 178 214 279 344 390
#     4  12  23  43  73 101 134 176 229 271 337 406
#     4  11  25  45  64  99 142 171 233 276 335 400
#     4  11  23  41  69  99 133 180 219 282 337 389
#     4  10  23  43  68 100 139 173 219 289 332 399
#     4  11  25  43  67 101 135 177 227 281 326 404
#     4  11  23  42  72  97 131 180 225 276 333 401
#
# _framework density 23.596088000000002
#
# number of rings (size 3 to 8) (size 9 to 14) (size 15 to 20)
#    0.000    1.000    6.250    0.750    0.000    5.500 
#    2.250    2.500    0.000    0.000    0.000    0.000 
#    0.000    0.000    0.000    0.000    0.000    0.000 
#
# Total GULP energy -89572.809965 kJ/mol
# GULP energy per Si atom -5598.300623 kJ/mol
# Density = 2.354238 g / cm^3
# Si number density = 23.596088 Si / 1000 Ang^3
#
#
#
# Elastic Constant Matrix: (Units=GPa)
#
#
# Indices 1 2 3 4 5 6 
#
# 1 93.9622 7.2329 47.4899 -4.3588 -2.9766 -19.9200
# 2 7.2329 93.9247 38.2891 -4.0906 -1.2193 -15.6865
# 3 47.4899 38.2891 132.6639 -6.2962 2.1809 -9.2847
# 4 -4.3588 -4.0906 -6.2962 45.9863 -6.2489 0.8685
# 5 -2.9766 -1.2193 2.1809 -6.2489 48.0335 -5.3757
# 6 -19.9200 -15.6865 -9.2847 0.8685 -5.3757 35.5688
#
#
#
# Elastic Compliance Matrix: (Units=1/GPa)
#
#
# Indices 1 2 3 4 5 6 
#
# 1 0.015197 0.002608 -0.005584 0.001067 0.002355 0.008534
# 2 0.002608 0.013339 -0.004315 0.000930 0.001536 0.006426
# 3 -0.005584 -0.004315 0.010651 0.000434 -0.001155 -0.002435
# 4 0.001067 0.000930 0.000434 0.022390 0.003100 0.001043
# 5 0.002355 0.001536 -0.001155 0.003100 0.022013 0.004946
# 6 0.008534 0.006426 -0.002435 0.001043 0.004946 0.035814
#
#
# Mechanical properties :
#
#
# Convention : Reuss Voigt Hill
#
# Bulk Modulus (GPa) = 40.63987 56.28607 48.46297
# Shear Modulus (GPa) = 35.16479 41.08698 38.12589
#
# Velocity S-wave (km/s) = 3.86460 4.17737 4.02403
# Velocity P-wave (km/s) = 6.09705 6.86826 6.49412
#
# Compressibility (1/GPa) = 0.02460638
#
# Stress axis : x y z
#
# Youngs Moduli (GPa) = 65.80176 74.96997 93.88622
#
# Poissons Ratio (x) = -0.19554 0.52424
# Poissons Ratio (y) = -0.17163 0.40510
# Poissons Ratio (z) = 0.36742 0.32348
#
# Static dielectric constant tensor:
#      x y z
#    x 1.907740 -0.015190 0.000450 
#    y -0.015190 1.937420 0.014560 
#    z 0.000450 0.014560 1.875790 
# 
# From -- ./inp_files/541006.got.cif
#   From: 2010.05.17/outbox.cif.g08.bks.cpg/sg2_271_cif.got.tgz:541006.got - 2010.06.03 11:33:40.
