data_PCOD9040917
_publ_section_title
;
Structure prediction by ZEFSAII (Michael W. Deem and Ramdas Pophale) SiO2 
 PCOD9040917
Probable space group: P -1
;
_chemical_formula_sum "Si O2"
_cell_formula_units_Z 16
_cell_length_a 20.947164
_cell_length_b 8.715265
_cell_length_c 8.619918
_cell_angle_alpha 53.655744
_cell_angle_beta 117.741339
_cell_angle_gamma 75.712485
_cell_volume 762.935438
_symmetry_space_group_name_H-M "P -1"
_symmetry_group_IT_number 2
_symmetry_cell_setting 'triclinic'
loop_
_space_group_symop_operation_xyz
x,y,z
-x,-y,-z
loop_
_atom_site_type_symbol
_atom_site_label
_atom_site_fract_x
_atom_site_fract_y
_atom_site_fract_z
Si Si1 0.277509 0.666523 0.229007
Si Si2 0.516663 0.519711 0.331511
Si Si3 0.590528 0.943436 0.227263
Si Si4 0.092924 0.303653 0.096294
Si Si5 0.085399 0.722854 0.656472
Si Si6 0.747279 0.265527 0.203412
Si Si7 0.048414 0.206315 0.787165
Si Si8 0.480987 0.233011 0.253196
O O1 0.371074 0.587945 0.477801
O O2 0.306164 0.386315 0.444448
O O3 0.284085 0.707224 0.029310
O O4 0.163495 0.941993 0.001487
O O5 0.500000 0.500000 0.500000
O O6 0.523093 0.329928 0.339153
O O7 0.412391 0.848097 0.981732
O O8 0.541658 0.090690 0.248469
O O9 0.500000 0.000000 0.000000
O O10 0.189118 0.029488 0.468263
O O11 0.110176 0.473868 0.924023
O O12 0.061651 0.210145 0.983598
O O13 0.000000 0.500000 0.000000
O O14 0.182518 0.677878 0.764830
O O15 0.031356 0.785890 0.390560
O O16 0.000000 0.000000 0.500000
O O17 0.644918 0.497306 0.054973
O O18 0.000000 0.500000 0.500000
O O19 0.500000 0.000000 0.500000
#
# Coordination Sequence:
#
# PCOD9040917 Si02
#       8
#     2   2   2   2   2   2   2   2
#     4  11  22  45  69  96 136 182 223 280 344 405
#     4  11  23  44  68 100 136 182 230 284 341 402
#     4  10  23  43  69  97 138 179 229 285 339 412
#     4  11  24  44  71  99 136 177 229 284 341 407
#     4  11  22  45  70  98 137 180 222 282 345 402
#     4  12  24  42  70  99 139 175 227 278 341 402
#     4  10  23  44  70  96 137 175 225 280 338 413
#     4  12  24  44  66  99 140 178 229 283 339 411
#
# _framework density 20.971630999999999
#
# number of rings (size 3 to 8) (size 9 to 14) (size 15 to 20)
#    0.000    1.000    5.000    1.875    3.500    3.500 
#    0.000    0.000    0.000    0.000    0.000    0.000 
#    0.000    0.000    0.000    0.000    0.000    0.000 
#
# Total GULP energy -89321.276218 kJ/mol
# GULP energy per Si atom -5582.579764 kJ/mol
# Density = 2.092390 g / cm^3
# Si number density = 20.971631 Si / 1000 Ang^3
#
#
#
# Elastic Constant Matrix: (Units=GPa)
#
#
# Indices 1 2 3 4 5 6 
#
# 1 77.1774 33.3768 37.9331 -7.9264 -1.0274 7.1855
# 2 33.3768 148.6648 49.1412 -4.6657 0.1995 4.4660
# 3 37.9331 49.1412 150.8995 -33.3722 -16.0599 3.2476
# 4 -7.9264 -4.6657 -33.3722 45.3087 -0.5712 8.3180
# 5 -1.0274 0.1995 -16.0599 -0.5712 47.0341 2.3930
# 6 7.1855 4.4660 3.2476 8.3180 2.3930 40.1868
#
#
#
# Elastic Compliance Matrix: (Units=1/GPa)
#
#
# Indices 1 2 3 4 5 6 
#
# 1 0.015794 -0.002452 -0.003016 0.000727 -0.000542 -0.002426
# 2 -0.002452 0.008028 -0.002410 -0.001405 -0.000932 0.000087
# 3 -0.003016 -0.002410 0.010147 0.007053 0.003580 -0.001686
# 4 0.000727 -0.001405 0.007053 0.028504 0.003113 -0.006629
# 5 -0.000542 -0.000932 0.003580 0.003113 0.022620 -0.002080
# 6 -0.002426 0.000087 -0.001686 -0.006629 -0.002080 0.026940
#
#
# Mechanical properties :
#
#
# Convention : Reuss Voigt Hill
#
# Bulk Modulus (GPa) = 54.90859 68.62710 61.76784
# Shear Modulus (GPa) = 37.35251 43.59196 40.47224
#
# Velocity S-wave (km/s) = 4.22488 4.56413 4.39778
# Velocity P-wave (km/s) = 7.07380 7.78266 7.43668
#
# Compressibility (1/GPa) = 0.01821209
#
# Stress axis : x y z
#
# Youngs Moduli (GPa) = 63.31693 124.56097 98.55199
#
# Poissons Ratio (x) = 0.30547 0.29725
# Poissons Ratio (y) = 0.15528 0.23748
# Poissons Ratio (z) = 0.19098 0.30016
#
# Static dielectric constant tensor:
#      x y z
#    x 1.746590 0.051940 0.009470 
#    y 0.051940 1.732570 0.029240 
#    z 0.009470 0.029240 1.738400 
# 
# From -- ./inp_files/343326.got.cif
#   From: 2010.05.17/outbox.cif.g08.bks.cpg/sg2_172_cif.got.tgz:343326.got - 2010.06.03 11:33:40.
