data_PCOD9040469
_publ_section_title
;
Structure prediction by ZEFSAII (Michael W. Deem and Ramdas Pophale) SiO2 
 PCOD9040469
Probable space group: P -1
;
_chemical_formula_sum "Si O2"
_cell_formula_units_Z 16
_cell_length_a 8.092095
_cell_length_b 16.591482
_cell_length_c 11.442085
_cell_angle_alpha 34.235543
_cell_angle_beta 133.999889
_cell_angle_gamma 133.463735
_cell_volume 596.707365
_symmetry_space_group_name_H-M "P -1"
_symmetry_group_IT_number 2
_symmetry_cell_setting 'triclinic'
loop_
_space_group_symop_operation_xyz
x,y,z
-x,-y,-z
loop_
_atom_site_type_symbol
_atom_site_label
_atom_site_fract_x
_atom_site_fract_y
_atom_site_fract_z
Si Si1 0.390478 0.760961 0.973580
Si Si2 0.108533 0.170934 0.892347
Si Si3 0.649601 0.781360 0.594648
Si Si4 0.448786 0.159939 0.779377
Si Si5 0.750289 0.020548 0.525180
Si Si6 0.847600 0.243865 0.484702
Si Si7 0.078107 0.631894 0.288393
Si Si8 0.901085 0.544164 0.053045
O O1 0.622936 0.772560 0.995641
O O2 0.536854 0.813813 0.102726
O O3 0.271728 0.880618 0.716500
O O4 0.171197 0.613296 0.054939
O O5 0.065280 0.280388 0.637325
O O6 0.953339 0.210737 0.871755
O O7 0.000000 0.000000 0.000000
O O8 0.693878 0.848765 0.405500
O O9 0.385128 0.781705 0.514227
O O10 0.714821 0.625064 0.813347
O O11 0.800503 0.879103 0.658462
O O12 0.640987 0.320607 0.652776
O O13 0.500000 0.000000 0.000000
O O14 0.909098 0.113295 0.594869
O O15 0.500000 0.000000 0.500000
O O16 0.829525 0.366178 0.234915
O O17 0.000000 0.500000 0.500000
O O18 0.928730 0.583134 0.157057
#
# Coordination Sequence:
#
# PCOD9040469 Si02
#       8
#     2   2   2   2   2   2   2   2
#     4  11  26  44  66 106 142 181 229 292 359 414
#     4  12  24  43  74 100 138 187 240 286 351 417
#     4  11  22  44  74 102 136 191 237 289 349 420
#     4  11  21  44  72 102 145 175 241 297 349 414
#     4  10  23  43  67 101 140 176 233 290 347 418
#     4  11  24  45  70 103 141 185 237 287 349 426
#     4  11  23  45  71 102 141 187 241 290 345 430
#     4  11  26  44  69 105 144 186 232 290 358 418
#
# _framework density 26.813815000000002
#
# number of rings (size 3 to 8) (size 9 to 14) (size 15 to 20)
#    0.000    1.000    3.750    2.625    5.250    2.500 
#    0.000    0.000    0.000    0.000    0.000    0.000 
#    0.000    0.000    0.000    0.000    0.000    0.000 
#
# Total GULP energy -89192.387067 kJ/mol
# GULP energy per Si atom -5574.524192 kJ/mol
# Density = 2.675279 g / cm^3
# Si number density = 26.813815 Si / 1000 Ang^3
#
#
#
# Elastic Constant Matrix: (Units=GPa)
#
#
# Indices 1 2 3 4 5 6 
#
# 1 74.2526 13.0708 16.3564 0.8000 -16.8038 4.1919
# 2 13.0708 66.2354 15.0671 10.1551 -1.1146 -19.1202
# 3 16.3564 15.0671 138.8632 18.5581 -18.5870 -5.6706
# 4 0.8000 10.1551 18.5581 45.3106 -1.0295 -8.4337
# 5 -16.8038 -1.1146 -18.5870 -1.0295 33.4458 -4.0081
# 6 4.1919 -19.1202 -5.6706 -8.4337 -4.0081 42.5337
#
#
#
# Elastic Compliance Matrix: (Units=1/GPa)
#
#
# Indices 1 2 3 4 5 6 
#
# 1 0.016055 -0.003705 -0.000690 0.000520 0.007270 -0.002552
# 2 -0.003705 0.018744 -0.001098 -0.002196 -0.000942 0.008121
# 3 -0.000690 -0.001098 0.008390 -0.002988 0.004248 0.000501
# 4 0.000520 -0.002196 -0.002988 0.024397 -0.000318 0.003371
# 5 0.007270 -0.000942 0.004248 -0.000318 0.036204 0.002775
# 6 -0.002552 0.008121 0.000501 0.003371 0.002775 0.028409
#
#
# Mechanical properties :
#
#
# Convention : Reuss Voigt Hill
#
# Bulk Modulus (GPa) = 31.05369 40.92665 35.99017
# Shear Modulus (GPa) = 32.48441 39.91516 36.19979
#
# Velocity S-wave (km/s) = 3.48441 3.86243 3.67828
# Velocity P-wave (km/s) = 5.27205 5.93191 5.61169
#
# Compressibility (1/GPa) = 0.03220229
#
# Stress axis : x y z
#
# Youngs Moduli (GPa) = 62.28426 53.35139 119.18828
#
# Poissons Ratio (x) = 0.19769 0.08220
# Poissons Ratio (y) = 0.23079 0.13091
# Poissons Ratio (z) = 0.04295 0.05860
#
# Static dielectric constant tensor:
#      x y z
#    x 3.175540 0.285470 -0.247040 
#    y 0.285470 2.439250 -0.111200 
#    z -0.247040 -0.111200 2.095820 
# 
# From -- ./inp_files/402731.got.cif
#   From: 2010.05.17/outbox.cif.g08.bks.cpg/sg2_202_cif.got.tgz:402731.got - 2010.06.03 11:33:40.
