data_PCOD9040263
_publ_section_title
;
Structure prediction by ZEFSAII (Michael W. Deem and Ramdas Pophale) SiO2 
 PCOD9040263
Probable space group: P -1
;
_chemical_formula_sum "Si O2"
_cell_formula_units_Z 16
_cell_length_a 8.774412
_cell_length_b 14.530897
_cell_length_c 20.685946
_cell_angle_alpha 158.523010
_cell_angle_beta 127.144195
_cell_angle_gamma 63.975661
_cell_volume 697.857882
_symmetry_space_group_name_H-M "P -1"
_symmetry_group_IT_number 2
_symmetry_cell_setting 'triclinic'
loop_
_space_group_symop_operation_xyz
x,y,z
-x,-y,-z
loop_
_atom_site_type_symbol
_atom_site_label
_atom_site_fract_x
_atom_site_fract_y
_atom_site_fract_z
Si Si1 0.196630 0.612969 0.074161
Si Si2 0.322832 0.481628 0.766912
Si Si3 0.215206 0.784749 0.043740
Si Si4 0.431590 0.391879 0.530887
Si Si5 0.969469 0.083015 0.618503
Si Si6 0.434323 0.792418 0.420755
Si Si7 0.129542 0.153487 0.072018
Si Si8 0.277245 0.752637 0.799639
O O1 0.174313 0.721335 0.067478
O O2 0.389678 0.887107 0.329590
O O3 0.000000 0.500000 0.000000
O O4 0.185866 0.314605 0.854496
O O5 0.516114 0.412338 0.748556
O O6 0.279828 0.644145 0.802326
O O7 0.130012 0.182446 0.534231
O O8 0.342094 0.643108 0.944431
O O9 0.332690 0.115873 0.283572
O O10 0.990996 0.683698 0.885303
O O11 0.526161 0.311450 0.567154
O O12 0.632523 0.641371 0.715001
O O13 0.264371 0.507387 0.588527
O O14 0.789268 0.198115 0.638779
O O15 0.000000 0.000000 0.500000
O O16 0.130139 0.914343 0.867770
O O17 0.000000 0.000000 0.000000
O O18 0.500000 0.000000 0.000000
#
# Coordination Sequence:
#
# PCOD9040263 Si02
#       8
#     2   2   2   2   2   2   2   2
#     4  11  23  42  64  96 132 169 214 266 314 388
#     4  11  21  40  64  93 128 168 216 262 320 385
#     4  11  23  41  65  97 130 166 216 263 317 390
#     4   9  22  41  64  91 128 166 210 260 320 381
#     4  12  24  41  67  93 131 169 217 267 322 383
#     4  10  23  43  65  91 130 173 212 263 324 381
#     4  11  21  40  69  91 127 163 212 268 321 370
#     4   9  20  41  63  89 124 169 208 265 320 374
#
# _framework density 22.927305
#
# number of rings (size 3 to 8) (size 9 to 14) (size 15 to 20)
#    0.000    1.500    3.750    1.125    0.000    1.500 
#    0.000    1.250    2.750    0.000    0.000    0.000 
#    0.000    0.000    0.000    0.000    0.000    0.000 
#
# Total GULP energy -89268.351966 kJ/mol
# GULP energy per Si atom -5579.271998 kJ/mol
# Density = 2.287512 g / cm^3
# Si number density = 22.927305 Si / 1000 Ang^3
#
#
#
# Elastic Constant Matrix: (Units=GPa)
#
#
# Indices 1 2 3 4 5 6 
#
# 1 127.9824 22.9238 53.8486 -5.9153 -10.3583 1.9799
# 2 22.9238 34.6846 -5.2576 11.8390 2.5264 6.2607
# 3 53.8486 -5.2576 143.1930 4.5683 -8.4202 -1.8955
# 4 -5.9153 11.8390 4.5683 33.9570 10.7259 3.4306
# 5 -10.3583 2.5264 -8.4202 10.7259 37.2686 11.0833
# 6 1.9799 6.2607 -1.8955 3.4306 11.0833 35.9012
#
#
#
# Elastic Compliance Matrix: (Units=1/GPa)
#
#
# Indices 1 2 3 4 5 6 
#
# 1 0.012425 -0.011288 -0.005222 0.006427 0.001180 0.000029
# 2 -0.011288 0.044467 0.006531 -0.018513 0.002361 -0.005747
# 3 -0.005222 0.006531 0.009446 -0.004983 0.001803 -0.000433
# 4 0.006427 -0.018513 -0.004983 0.040782 -0.010394 0.001923
# 5 0.001180 0.002361 0.001803 -0.010394 0.033272 -0.009660
# 6 0.000029 -0.005747 -0.000433 0.001923 -0.009660 0.031630
#
#
# Mechanical properties :
#
#
# Convention : Reuss Voigt Hill
#
# Bulk Modulus (GPa) = 21.56144 49.87662 35.71903
# Shear Modulus (GPa) = 24.10326 37.04838 30.57582
#
# Velocity S-wave (km/s) = 3.24588 4.02419 3.65581
# Velocity P-wave (km/s) = 4.84482 6.58739 5.78213
#
# Compressibility (1/GPa) = 0.04637909
#
# Stress axis : x y z
#
# Youngs Moduli (GPa) = 80.48372 22.48882 105.85943
#
# Poissons Ratio (x) = 0.25386 0.55282
# Poissons Ratio (y) = 0.90853 -0.69138
# Poissons Ratio (z) = 0.42030 -0.14688
#
# Static dielectric constant tensor:
#      x y z
#    x 1.902920 0.005090 -0.041300 
#    y 0.005090 1.895130 0.006040 
#    z -0.041300 0.006040 1.934260 
# 
# From -- ./inp_files/590560.got.cif
#   From: 2010.05.17/outbox.cif.g08.bks.cpg/sg2_296_cif.got.tgz:590560.got - 2010.06.03 11:33:40.
