data_PCOD9040202
_publ_section_title
;
Structure prediction by ZEFSAII (Michael W. Deem and Ramdas Pophale) SiO2 
 PCOD9040202
Probable space group: P -1
;
_chemical_formula_sum "Si O2"
_cell_formula_units_Z 14
_cell_length_a 5.049609
_cell_length_b 5.428884
_cell_length_c 22.448855
_cell_angle_alpha 103.487498
_cell_angle_beta 64.656325
_cell_angle_gamma 94.429975
_cell_volume 540.660491
_symmetry_space_group_name_H-M "P -1"
_symmetry_group_IT_number 2
_symmetry_cell_setting 'triclinic'
loop_
_space_group_symop_operation_xyz
x,y,z
-x,-y,-z
loop_
_atom_site_type_symbol
_atom_site_label
_atom_site_fract_x
_atom_site_fract_y
_atom_site_fract_z
Si Si1 0.396964 0.924631 0.597505
Si Si2 0.870347 0.802556 0.456323
Si Si3 0.264758 0.327039 0.889846
Si Si4 0.203760 0.224044 0.014764
Si Si5 0.484515 0.639221 0.789006
Si Si6 0.378691 0.507429 0.362887
Si Si7 0.138983 0.117158 0.141952
O O1 0.552699 0.789469 0.516764
O O2 0.432416 0.707760 0.631819
O O3 0.113496 0.053376 0.600603
O O4 0.519843 0.199624 0.623566
O O5 0.049584 0.539682 0.421924
O O6 0.000000 0.000000 0.500000
O O7 0.496905 0.420313 0.825237
O O8 0.029995 0.551050 0.938641
O O9 0.394970 0.276428 0.940823
O O10 0.059740 0.120020 0.868127
O O11 0.322701 0.170511 0.066439
O O12 0.000000 0.000000 0.000000
O O13 0.629227 0.570772 0.709213
O O14 0.649012 0.864431 0.820659
O O15 0.136929 0.683398 0.812218
#
# Coordination Sequence:
#
# PCOD9040202 Si02
#       7
#     2   2   2   2   2   2   2
#     4  10  23  43  70 101 138 182 240 300 366 434
#     4   9  21  43  71 103 137 179 236 304 364 430
#     4   9  19  40  67  95 134 180 228 298 364 427
#     4   8  16  37  67  98 128 172 232 294 360 426
#     4  11  26  43  64  98 140 189 239 294 360 442
#     4  11  25  43  66 101 141 193 240 298 366 442
#     4  10  23  43  64  96 135 179 240 296 359 434
#
# _framework density 25.894254
#
# number of rings (size 3 to 8) (size 9 to 14) (size 15 to 20)
#    0.000    2.286    0.000    0.429    4.000   10.286 
#    0.000   24.286    0.000    0.000    0.000    0.000 
#    0.000    0.000    0.000    0.000    0.000    0.000 
#
# Total GULP energy -78117.092935 kJ/mol
# GULP energy per Si atom -5579.792353 kJ/mol
# Density = 2.583532 g / cm^3
# Si number density = 25.894254 Si / 1000 Ang^3
#
#
#
# Elastic Constant Matrix: (Units=GPa)
#
#
# Indices 1 2 3 4 5 6 
#
# 1 117.8971 23.0626 29.7578 3.2592 25.5487 -7.9473
# 2 23.0626 116.7264 38.1121 6.8876 20.1303 -12.2072
# 3 29.7578 38.1121 167.2117 0.8658 35.4241 -7.0230
# 4 3.2592 6.8876 0.8658 23.7706 1.3755 8.2328
# 5 25.5487 20.1303 35.4241 1.3755 28.2427 -10.7344
# 6 -7.9473 -12.2072 -7.0230 8.2328 -10.7344 34.0092
#
#
#
# Elastic Compliance Matrix: (Units=1/GPa)
#
#
# Indices 1 2 3 4 5 6 
#
# 1 0.010607 -0.000535 0.000282 -0.000532 -0.009774 -0.000611
# 2 -0.000535 0.010294 -0.001268 -0.003652 -0.003968 0.002940
# 3 0.000282 -0.001268 0.008423 0.001507 -0.010925 -0.002463
# 4 -0.000532 -0.003652 0.001507 0.048783 -0.006929 -0.015120
# 5 -0.009774 -0.003968 -0.010925 -0.006929 0.067597 0.017049
# 6 -0.000611 0.002940 -0.002463 -0.015120 0.017049 0.038849
#
#
# Mechanical properties :
#
#
# Convention : Reuss Voigt Hill
#
# Bulk Modulus (GPa) = 38.04943 64.85558 51.45250
# Shear Modulus (GPa) = 25.46414 37.93136 31.69775
#
# Velocity S-wave (km/s) = 3.13931 3.83150 3.50254
# Velocity P-wave (km/s) = 5.27886 6.68390 6.02250
#
# Compressibility (1/GPa) = 0.02628160
#
# Stress axis : x y z
#
# Youngs Moduli (GPa) = 94.27739 97.14486 118.72942
#
# Poissons Ratio (x) = 0.05194 -0.03347
# Poissons Ratio (y) = 0.05041 0.15057
# Poissons Ratio (z) = -0.02658 0.12320
#
# Static dielectric constant tensor:
#      x y z
#    x 2.203310 -0.030310 -0.061470 
#    y -0.030310 2.217660 -0.078280 
#    z -0.061470 -0.078280 2.031710 
# 
# From -- ./inp_files/603358.got.cif
#   From: 2010.05.17/outbox.cif.g08.bks.cpg/sg2_302_cif.got.tgz:603358.got - 2010.06.03 11:33:40.
