data_PCOD9040878
_publ_section_title
;
Structure prediction by ZEFSAII (Michael W. Deem and Ramdas Pophale) SiO2 
 PCOD9040878
Probable space group: P -1
;
_chemical_formula_sum "Si O2"
_cell_formula_units_Z 16
_cell_length_a 9.698014
_cell_length_b 17.296622
_cell_length_c 7.312521
_cell_angle_alpha 36.008637
_cell_angle_beta 92.912709
_cell_angle_gamma 93.010084
_cell_volume 720.073147
_symmetry_space_group_name_H-M "P -1"
_symmetry_group_IT_number 2
_symmetry_cell_setting 'triclinic'
loop_
_space_group_symop_operation_xyz
x,y,z
-x,-y,-z
loop_
_atom_site_type_symbol
_atom_site_label
_atom_site_fract_x
_atom_site_fract_y
_atom_site_fract_z
Si Si1 0.628508 0.093363 0.791885
Si Si2 0.151002 0.327506 0.543592
Si Si3 0.122540 0.079323 0.756164
Si Si4 0.534622 0.208869 0.217575
Si Si5 0.899843 0.470134 0.378495
Si Si6 0.793732 0.752683 0.877896
Si Si7 0.369885 0.702230 0.299645
Si Si8 0.577361 0.498838 0.812135
O O1 0.619543 0.114775 0.534636
O O2 0.618773 0.232668 0.625751
O O3 0.500000 0.000000 0.000000
O O4 0.756157 0.022929 0.023173
O O5 0.157747 0.206661 0.637726
O O6 0.272873 0.432101 0.308815
O O7 0.004859 0.400973 0.379503
O O8 0.172158 0.269071 0.863226
O O9 0.116258 0.138444 0.436905
O O10 0.000000 0.000000 0.000000
O O11 0.367811 0.208887 0.226118
O O12 0.584035 0.189802 0.051269
O O13 0.581710 0.355111 0.003219
O O14 0.778812 0.364428 0.614744
O O15 0.000000 0.500000 0.500000
O O16 0.826889 0.608733 0.067637
O O17 0.482344 0.590099 0.507175
O O18 0.500000 0.500000 0.000000
#
# Coordination Sequence:
#
# PCOD9040878 Si02
#       8
#     2   2   2   2   2   2   2   2
#     4  12  27  44  65 100 133 177 241 278 317 401
#     4  11  25  45  70 100 137 177 219 278 346 402
#     4  12  28  47  67  94 134 185 235 274 327 396
#     4  12  23  41  73 102 137 175 219 280 349 400
#     4  10  23  43  69 106 137 167 223 277 344 422
#     4  11  23  44  71  98 138 175 216 284 342 401
#     4  12  24  42  70 101 137 178 222 279 344 403
#     4  12  22  41  72 106 136 171 216 281 350 410
#
# _framework density 22.219963
#
# number of rings (size 3 to 8) (size 9 to 14) (size 15 to 20)
#    0.000    0.500    5.000    4.125    0.000    5.500 
#    0.000    0.000    0.000    0.000    0.000    0.000 
#    0.000    0.000    0.000    0.000    0.000    0.000 
#
# Total GULP energy -89441.857488 kJ/mol
# GULP energy per Si atom -5590.116093 kJ/mol
# Density = 2.216939 g / cm^3
# Si number density = 22.219963 Si / 1000 Ang^3
#
#
#
# Elastic Constant Matrix: (Units=GPa)
#
#
# Indices 1 2 3 4 5 6 
#
# 1 94.5607 -9.6936 10.2771 -5.9797 -22.5367 -6.4003
# 2 -9.6936 39.9534 -0.1528 10.1100 1.5043 -0.5963
# 3 10.2771 -0.1528 84.3064 31.1893 -4.1909 -8.8261
# 4 -5.9797 10.1100 31.1893 43.8794 -4.5641 -2.9694
# 5 -22.5367 1.5043 -4.1909 -4.5641 38.6233 -5.4445
# 6 -6.4003 -0.5963 -8.8261 -2.9694 -5.4445 28.1593
#
#
#
# Elastic Compliance Matrix: (Units=1/GPa)
#
#
# Indices 1 2 3 4 5 6 
#
# 1 0.013719 0.001964 -0.002345 0.004313 0.008830 0.004587
# 2 0.001964 0.027606 0.002903 -0.008134 -0.000434 0.000999
# 3 -0.002345 0.002903 0.017347 -0.013155 -0.000667 0.003449
# 4 0.004313 -0.008134 -0.013155 0.035308 0.005794 0.001528
# 5 0.008830 -0.000434 -0.000667 0.005794 0.032908 0.008762
# 6 0.004587 0.000999 0.003449 0.001528 0.008762 0.039512
#
#
# Mechanical properties :
#
#
# Convention : Reuss Voigt Hill
#
# Bulk Modulus (GPa) = 15.69465 24.40911 20.05188
# Shear Modulus (GPa) = 27.38281 36.69171 32.03726
#
# Velocity S-wave (km/s) = 3.51430 4.06802 3.80125
# Velocity P-wave (km/s) = 4.85239 5.75101 5.32070
#
# Compressibility (1/GPa) = 0.06371599
#
# Stress axis : x y z
#
# Youngs Moduli (GPa) = 72.89050 36.22360 57.64620
#
# Poissons Ratio (x) = -0.07115 0.13520
# Poissons Ratio (y) = -0.14317 -0.16733
# Poissons Ratio (z) = 0.17095 -0.10515
#
# Static dielectric constant tensor:
#      x y z
#    x 1.794000 -0.022580 0.012790 
#    y -0.022580 1.842670 0.073000 
#    z 0.012790 0.073000 1.995310 
# 
# From -- ./inp_files/222851.got.cif
#   From: 2010.05.17/outbox.cif.g08.bks.cpg/sg2_112_cif.got.tgz:222851.got - 2010.06.03 11:33:40.
