data_PCOD9040328
_publ_section_title
;
Structure prediction by ZEFSAII (Michael W. Deem and Ramdas Pophale) SiO2 
 PCOD9040328
Probable space group: P -1
;
_chemical_formula_sum "Si O2"
_cell_formula_units_Z 14
_cell_length_a 6.892897
_cell_length_b 21.308232
_cell_length_c 12.264643
_cell_angle_alpha 29.202069
_cell_angle_beta 122.038783
_cell_angle_gamma 131.019758
_cell_volume 658.680731
_symmetry_space_group_name_H-M "P -1"
_symmetry_group_IT_number 2
_symmetry_cell_setting 'triclinic'
loop_
_space_group_symop_operation_xyz
x,y,z
-x,-y,-z
loop_
_atom_site_type_symbol
_atom_site_label
_atom_site_fract_x
_atom_site_fract_y
_atom_site_fract_z
Si Si1 0.195721 0.153667 0.055418
Si Si2 0.967630 0.183706 0.490450
Si Si3 0.214718 0.165786 0.797168
Si Si4 0.788984 0.255987 0.783334
Si Si5 0.015902 0.483632 0.699724
Si Si6 0.426721 0.442384 0.185263
Si Si7 0.286590 0.647235 0.966907
O O1 0.421691 0.254289 0.051938
O O2 0.156677 0.989383 0.295316
O O3 0.281207 0.219125 0.859831
O O4 0.923535 0.153738 0.996518
O O5 0.796271 0.249459 0.284511
O O6 0.067904 0.225783 0.581850
O O7 0.244050 0.270576 0.381843
O O8 0.477663 0.180415 0.798022
O O9 0.000000 0.000000 0.000000
O O10 0.938063 0.359958 0.567682
O O11 0.858815 0.363847 0.743890
O O12 0.309775 0.510516 0.743894
O O13 0.891111 0.425652 0.868636
O O14 0.500000 0.500000 0.000000
O O15 0.279689 0.520344 0.081411
#
# Coordination Sequence:
#
# PCOD9040328 Si02
#       7
#     2   2   2   2   2   2   2
#     4  11  25  45  71  99 138 185 232 278 343 414
#     4  11  25  45  66 102 142 176 226 288 347 403
#     4  10  23  43  65  98 140 174 225 282 344 403
#     4  11  23  43  70 102 137 177 232 288 338 400
#     4  11  24  41  70 102 136 178 233 287 335 409
#     4  12  25  45  66 102 137 178 229 286 348 406
#     4  12  25  46  72  99 138 186 232 278 346 410
#
# _framework density 21.254608000000001
#
# number of rings (size 3 to 8) (size 9 to 14) (size 15 to 20)
#    0.000    0.857    5.714    0.857    2.000    2.857 
#    5.143    1.429    0.000    0.000    0.000    0.000 
#    0.000    0.000    0.000    0.000    0.000    0.000 
#
# Total GULP energy -78119.649881 kJ/mol
# GULP energy per Si atom -5579.974991 kJ/mol
# Density = 2.120623 g / cm^3
# Si number density = 21.254608 Si / 1000 Ang^3
#
#
#
# Elastic Constant Matrix: (Units=GPa)
#
#
# Indices 1 2 3 4 5 6 
#
# 1 96.8487 23.3290 45.1474 4.6003 12.7192 6.0541
# 2 23.3290 78.3844 27.4706 14.8466 11.9482 15.9418
# 3 45.1474 27.4706 126.2288 21.2185 10.9525 -5.5573
# 4 4.6003 14.8466 21.2185 35.3710 1.3606 -0.7488
# 5 12.7192 11.9482 10.9525 1.3606 31.0282 10.2922
# 6 6.0541 15.9418 -5.5573 -0.7488 10.2922 32.3035
#
#
#
# Elastic Compliance Matrix: (Units=1/GPa)
#
#
# Indices 1 2 3 4 5 6 
#
# 1 0.013233 -0.002063 -0.004421 0.001874 -0.002716 -0.001314
# 2 -0.002063 0.017155 -0.002204 -0.005697 -0.002106 -0.007920
# 3 -0.004421 -0.002204 0.011261 -0.005058 -0.002607 0.004567
# 4 0.001874 -0.005697 -0.005058 0.033455 0.001073 0.002024
# 5 -0.002716 -0.002106 -0.002607 0.001073 0.038748 -0.011221
# 6 -0.001314 -0.007920 0.004567 0.002024 -0.011221 0.039519
#
#
# Mechanical properties :
#
#
# Convention : Reuss Voigt Hill
#
# Bulk Modulus (GPa) = 41.19874 54.81732 48.00803
# Shear Modulus (GPa) = 27.95853 33.44152 30.70002
#
# Velocity S-wave (km/s) = 3.63079 3.97089 3.80464
# Velocity P-wave (km/s) = 6.08296 6.84622 6.47584
#
# Compressibility (1/GPa) = 0.02427259
#
# Stress axis : x y z
#
# Youngs Moduli (GPa) = 75.56814 58.29358 88.80585
#
# Poissons Ratio (x) = 0.12024 0.39263
# Poissons Ratio (y) = 0.15587 0.19572
# Poissons Ratio (z) = 0.33410 0.12847
#
# Static dielectric constant tensor:
#      x y z
#    x 1.830330 0.048330 -0.008030 
#    y 0.048330 1.821040 0.021860 
#    z -0.008030 0.021860 1.820650 
# 
# From -- ./inp_files/68614.got.cif
#   From: 2010.05.17/outbox.cif.g08.bks.cpg/sg2_35_cif.got.tgz:68614.got - 2010.06.03 11:33:40.
