data_PCOD9040065
_publ_section_title
;
Structure prediction by ZEFSAII (Michael W. Deem and Ramdas Pophale) SiO2 
 PCOD9040065
Probable space group: P -1
;
_chemical_formula_sum "Si O2"
_cell_formula_units_Z 13
_cell_length_a 9.083260
_cell_length_b 11.815370
_cell_length_c 7.642104
_cell_angle_alpha 139.974787
_cell_angle_beta 77.739168
_cell_angle_gamma 115.790567
_cell_volume 464.477782
_symmetry_space_group_name_H-M "P -1"
_symmetry_group_IT_number 2
_symmetry_cell_setting 'triclinic'
loop_
_space_group_symop_operation_xyz
x,y,z
-x,-y,-z
loop_
_atom_site_type_symbol
_atom_site_label
_atom_site_fract_x
_atom_site_fract_y
_atom_site_fract_z
Si Si1 0.847274 0.072000 0.256898
Si Si2 0.533901 0.724112 0.747720
Si Si3 0.727361 0.401293 0.787657
Si Si4 0.000000 0.000000 0.500000
Si Si5 0.372401 0.171781 0.552364
Si Si6 0.958933 0.669861 0.791976
Si Si7 0.755879 0.255681 0.943064
O O1 0.771016 0.228983 0.496253
O O2 0.691084 0.873959 0.998470
O O3 0.013453 0.825752 0.809319
O O4 0.932156 0.040526 0.372090
O O5 0.500000 0.500000 0.500000
O O6 0.575193 0.801354 0.631911
O O7 0.361197 0.723089 0.855063
O O8 0.533158 0.326781 0.792212
O O9 0.785450 0.559472 0.805467
O O10 0.808562 0.426155 0.989790
O O11 0.193298 0.168140 0.609193
O O12 0.348143 0.957419 0.361722
O O13 0.000000 0.500000 0.500000
O O14 0.084216 0.762387 0.035372
#
# Coordination Sequence:
#
# PCOD9040065 Si02
#       7
#     2   2   2   1   2   2   2
#     4  11  23  50  75 114 159 200 257 316 393 453
#     4  12  27  48  77 113 159 207 256 317 385 461
#     4  11  23  46  86 113 144 199 265 318 375 465
#     4  12  28  46  78 114 154 204 248 332 394 444
#     4  12  25  49  77 110 151 204 257 313 389 450
#     4  10  23  42  77 117 148 195 257 319 377 462
#     4  12  22  48  81 112 149 202 262 313 380 460
#
# _framework density 27.988423000000001
#
# number of rings (size 3 to 8) (size 9 to 14) (size 15 to 20)
#    0.000    0.615    4.615    4.154    0.000    4.308 
#    8.308    1.538    0.000    0.000    0.000    0.000 
#    0.000    0.000    0.000    0.000    0.000    0.000 
#
# Total GULP energy -72719.628152 kJ/mol
# GULP energy per Si atom -5593.817550 kJ/mol
# Density = 2.792472 g / cm^3
# Si number density = 27.988423 Si / 1000 Ang^3
#
#
#
# Elastic Constant Matrix: (Units=GPa)
#
#
# Indices 1 2 3 4 5 6 
#
# 1 163.6040 68.3517 0.2850 1.1440 16.3517 11.9447
# 2 68.3517 260.4820 36.3048 -3.0466 5.4467 1.8962
# 3 0.2850 36.3048 64.9649 12.3118 -9.1971 -14.2450
# 4 1.1440 -3.0466 12.3118 43.4281 -8.9091 -0.9124
# 5 16.3517 5.4467 -9.1971 -8.9091 50.2919 -8.4797
# 6 11.9447 1.8962 -14.2450 -0.9124 -8.4797 67.7448
#
#
#
# Elastic Compliance Matrix: (Units=1/GPa)
#
#
# Indices 1 2 3 4 5 6 
#
# 1 0.007282 -0.001942 0.000585 -0.001032 -0.002474 -0.001430
# 2 -0.001942 0.004796 -0.003038 0.001175 -0.000312 -0.000454
# 3 0.000585 -0.003038 0.019509 -0.004930 0.003586 0.004467
# 4 -0.001032 0.001175 -0.004930 0.025307 0.003777 -0.000074
# 5 -0.002474 -0.000312 0.003586 0.003777 0.022738 0.004096
# 6 -0.001430 -0.000454 0.004467 -0.000074 0.004096 0.016477
#
#
# Mechanical properties :
#
#
# Convention : Reuss Voigt Hill
#
# Bulk Modulus (GPa) = 43.86577 77.65936 60.76256
# Shear Modulus (GPa) = 44.44547 57.90026 51.17287
#
# Velocity S-wave (km/s) = 3.98929 4.55325 4.28057
# Velocity P-wave (km/s) = 6.07668 7.44648 6.79618
#
# Compressibility (1/GPa) = 0.02279682
#
# Stress axis : x y z
#
# Youngs Moduli (GPa) = 137.33208 208.52240 51.25721
#
# Poissons Ratio (x) = 0.40499 -0.02999
# Poissons Ratio (y) = 0.26673 0.15571
# Poissons Ratio (z) = -0.08035 0.63346
#
# Static dielectric constant tensor:
#      x y z
#    x 2.210480 0.003860 0.054840 
#    y 0.003860 2.090550 0.038840 
#    z 0.054840 0.038840 2.069120 
# 
# From -- ./inp_files/183555.got.cif
#   From: 2010.05.17/outbox.cif.g08.bks.cpg/sg2_92_cif.got.tgz:183555.got - 2010.06.03 11:33:40.
