data_PCOD9040546
_publ_section_title
;
Structure prediction by ZEFSAII (Michael W. Deem and Ramdas Pophale) SiO2 
 PCOD9040546
Probable space group: P -1
;
_chemical_formula_sum "Si O2"
_cell_formula_units_Z 16
_cell_length_a 8.111336
_cell_length_b 26.843062
_cell_length_c 5.812356
_cell_angle_alpha 67.535687
_cell_angle_beta 84.638947
_cell_angle_gamma 37.782430
_cell_volume 666.129937
_symmetry_space_group_name_H-M "P -1"
_symmetry_group_IT_number 2
_symmetry_cell_setting 'triclinic'
loop_
_space_group_symop_operation_xyz
x,y,z
-x,-y,-z
loop_
_atom_site_type_symbol
_atom_site_label
_atom_site_fract_x
_atom_site_fract_y
_atom_site_fract_z
Si Si1 0.063062 0.648935 0.910070
Si Si2 0.126260 0.830342 0.681451
Si Si3 0.892591 0.785249 0.978992
Si Si4 0.616720 0.829953 0.338460
Si Si5 0.407319 0.782113 0.229188
Si Si6 0.089300 0.434414 0.411226
Si Si7 0.674014 0.527733 0.924885
Si Si8 0.269213 0.969913 0.510099
O O1 0.120875 0.570105 0.062053
O O2 0.031442 0.690350 0.075867
O O3 0.780519 0.744694 0.639905
O O4 0.346354 0.596066 0.836288
O O5 0.252384 0.804686 0.451749
O O6 0.068695 0.783256 0.824469
O O7 0.283127 0.807814 0.940605
O O8 0.841346 0.943468 0.538303
O O9 0.564331 0.878291 0.768012
O O10 0.861427 0.798958 0.231192
O O11 0.456766 0.831652 0.186180
O O12 0.388807 0.930883 0.304589
O O13 0.704018 0.669744 0.376240
O O14 0.000000 0.500000 0.500000
O O15 0.799425 0.490355 0.231469
O O16 0.272338 0.425180 0.235075
O O17 0.000000 0.000000 0.500000
#
# Coordination Sequence:
#
# PCOD9040546 Si02
#       8
#     2   2   2   2   2   2   2   2
#     4  10  23  44  67  97 141 192 242 296 365 427
#     4  12  29  48  78 108 150 192 243 303 363 434
#     4  11  27  43  73 104 148 188 245 302 363 432
#     4  11  25  43  73 105 144 193 243 300 359 444
#     4  12  28  48  76 107 150 194 244 298 369 432
#     4  11  26  40  69 102 141 187 243 302 358 429
#     4  10  23  43  67  95 141 188 244 296 364 428
#     4  11  24  48  74 105 145 191 242 295 369 434
#
# _framework density 24.019338999999999
#
# number of rings (size 3 to 8) (size 9 to 14) (size 15 to 20)
#    0.000    1.000    2.500    1.875   15.750    1.500 
#    0.000    2.500    0.000    0.000    0.000    0.000 
#    0.000    0.000    0.000    0.000    0.000    0.000 
#
# Total GULP energy -89317.364680 kJ/mol
# GULP energy per Si atom -5582.335293 kJ/mol
# Density = 2.396467 g / cm^3
# Si number density = 24.019339 Si / 1000 Ang^3
#
#
#
# Elastic Constant Matrix: (Units=GPa)
#
#
# Indices 1 2 3 4 5 6 
#
# 1 62.4818 4.4046 13.8528 5.9494 -1.5091 6.0425
# 2 4.4046 108.3115 21.7009 21.3495 11.8457 26.7018
# 3 13.8528 21.7009 57.5149 13.3218 5.0183 -6.1701
# 4 5.9494 21.3495 13.3218 36.3927 -5.5931 -4.1889
# 5 -1.5091 11.8457 5.0183 -5.5931 34.2919 1.2288
# 6 6.0425 26.7018 -6.1701 -4.1889 1.2288 37.8927
#
#
#
# Elastic Compliance Matrix: (Units=1/GPa)
#
#
# Indices 1 2 3 4 5 6 
#
# 1 0.017798 0.002169 -0.005074 -0.002883 0.000505 -0.005528
# 2 0.002169 0.016255 -0.005164 -0.010486 -0.005987 -0.013606
# 3 -0.005074 -0.005164 0.022525 -0.003900 -0.002650 0.007771
# 4 -0.002883 -0.010486 -0.003900 0.038334 0.009920 0.011130
# 5 0.000505 -0.005987 -0.002650 0.009920 0.033124 0.003729
# 6 -0.005528 -0.013606 0.007771 0.011130 0.003729 0.039234
#
#
# Mechanical properties :
#
#
# Convention : Reuss Voigt Hill
#
# Bulk Modulus (GPa) = 24.72824 34.24723 29.48774
# Shear Modulus (GPa) = 25.39489 34.27212 29.83350
#
# Velocity S-wave (km/s) = 3.25509 3.78147 3.52811
# Velocity P-wave (km/s) = 4.94419 5.77539 5.37588
#
# Compressibility (1/GPa) = 0.04043960
#
# Stress axis : x y z
#
# Youngs Moduli (GPa) = 56.18591 61.51912 44.39415
#
# Poissons Ratio (x) = -0.13342 0.22527
# Poissons Ratio (y) = -0.12185 0.22925
# Poissons Ratio (z) = 0.28510 0.31768
#
# Static dielectric constant tensor:
#      x y z
#    x 1.975110 0.044660 0.031130 
#    y 0.044660 2.048560 0.101640 
#    z 0.031130 0.101640 2.064020 
# 
# From -- ./inp_files/37412.got.cif
#   From: 2010.05.17/outbox.cif.g08.bks.cpg/sg2_19_cif.got.tgz:37412.got - 2010.06.03 11:33:40.
