data_PCOD9040167
_publ_section_title
;
Structure prediction by ZEFSAII (Michael W. Deem and Ramdas Pophale) SiO2 
 PCOD9040167
Probable space group: P -1
;
_chemical_formula_sum "Si O2"
_cell_formula_units_Z 14
_cell_length_a 14.142260
_cell_length_b 14.850468
_cell_length_c 8.001379
_cell_angle_alpha 92.137968
_cell_angle_beta 103.818450
_cell_angle_gamma 152.766595
_cell_volume 617.727378
_symmetry_space_group_name_H-M "P -1"
_symmetry_group_IT_number 2
_symmetry_cell_setting 'triclinic'
loop_
_space_group_symop_operation_xyz
x,y,z
-x,-y,-z
loop_
_atom_site_type_symbol
_atom_site_label
_atom_site_fract_x
_atom_site_fract_y
_atom_site_fract_z
Si Si1 0.183259 0.284092 0.511553
Si Si2 0.874965 0.253572 0.691224
Si Si3 0.590224 0.240631 0.071647
Si Si4 0.066743 0.754530 0.663137
Si Si5 0.009940 0.964629 0.251756
Si Si6 0.336490 0.742330 0.536029
Si Si7 0.336233 0.204174 0.105054
O O1 0.201977 0.206424 0.417163
O O2 0.445121 0.556239 0.685724
O O3 0.018266 0.216000 0.335559
O O4 0.050017 0.148374 0.623837
O O5 0.926370 0.251595 0.534194
O O6 0.759653 0.253444 0.604176
O O7 0.156531 0.512049 0.907726
O O8 0.645030 0.000995 0.661418
O O9 0.695482 0.275162 0.278284
O O10 0.463700 0.223015 0.091741
O O11 0.356680 0.989530 0.866690
O O12 0.843119 0.495009 0.609721
O O13 0.110414 0.999652 0.132669
O O14 0.765934 0.815884 0.082245
#
# Coordination Sequence:
#
# PCOD9040167 Si02
#       7
#     2   2   2   2   2   2   2
#     4  11  21  40  60  86 121 159 202 248 301 351
#     4  10  23  43  64  89 122 160 201 250 309 365
#     4  11  22  38  64  93 123 158 204 250 301 359
#     4  11  22  38  64  93 123 158 204 250 301 359
#     4  10  24  38  60  88 120 158 204 250 298 352
#     4  10  23  43  64  89 122 160 201 250 309 365
#     4  11  21  40  60  86 121 159 202 248 301 351
#
# _framework density 22.663717999999999
#
# number of rings (size 3 to 8) (size 9 to 14) (size 15 to 20)
#    0.000    1.429    4.286    2.571    2.000    3.429 
#    0.000    2.857    0.000    0.000    0.000    0.000 
#    0.000    0.000    0.000    0.000    0.000    0.000 
#
# Total GULP energy -78178.027226 kJ/mol
# GULP energy per Si atom -5584.144802 kJ/mol
# Density = 2.261213 g / cm^3
# Si number density = 22.663718 Si / 1000 Ang^3
#
#
#
# Elastic Constant Matrix: (Units=GPa)
#
#
# Indices 1 2 3 4 5 6 
#
# 1 71.7386 31.3718 -5.9009 -1.5768 11.0599 -4.0325
# 2 31.3718 80.4270 31.4233 11.8578 36.8481 77.7532
# 3 -5.9009 31.4233 93.9920 35.9644 7.1125 -21.9514
# 4 -1.5768 11.8578 35.9644 18.2967 24.6633 52.1022
# 5 11.0599 36.8481 7.1125 24.6633 -8.6100 -68.4855
# 6 -4.0325 77.7532 -21.9514 52.1022 -68.4855 -130.3795
#
#
#
# Elastic Compliance Matrix: (Units=1/GPa)
#
#
# Indices 1 2 3 4 5 6 
#
# 1 0.019739 -0.007808 0.002665 0.007515 -0.011718 0.003443
# 2 -0.007808 0.015938 0.001125 -0.018670 0.003474 0.000271
# 3 0.002665 0.001125 0.016531 -0.013457 -0.013712 -0.000370
# 4 0.007515 -0.018670 -0.013457 0.056602 0.008419 0.009096
# 5 -0.011718 0.003474 -0.013712 0.008419 0.052869 -0.019663
# 6 0.003443 0.000271 -0.000370 0.009096 -0.019663 0.006411
#
#
# Mechanical properties :
#
#
# Convention : Reuss Voigt Hill
#
# Bulk Modulus (GPa) = 22.63884 39.99401 31.31643
# Shear Modulus (GPa) = 26.19869 -11.52102 7.33884
#
# Velocity S-wave (km/s) = 3.40365 -2.25710 1.80144
# Velocity P-wave (km/s) = 5.04551 3.30036 4.26319
#
# Compressibility (1/GPa) = 0.04417188
#
# Stress axis : x y z
#
# Youngs Moduli (GPa) = 50.66228 62.74208 60.49394
#
# Poissons Ratio (x) = 0.48990 -0.16121
# Poissons Ratio (y) = 0.39558 -0.06808
# Poissons Ratio (z) = -0.13501 -0.07061
#
# Static dielectric constant tensor:
#      x y z
#    x 1.864400 0.020800 0.024130 
#    y 0.020800 1.874680 0.030180 
#    z 0.024130 0.030180 1.877220 
# 
# From -- ./inp_files/315311.got.cif
#   From: 2010.05.17/outbox.cif.g08.bks.cpg/sg2_158_cif.got.tgz:315311.got - 2010.06.03 11:33:40.
