data_PCOD9040767
_publ_section_title
;
Structure prediction by ZEFSAII (Michael W. Deem and Ramdas Pophale) SiO2 
 PCOD9040767
Probable space group: P -1
;
_chemical_formula_sum "Si O2"
_cell_formula_units_Z 14
_cell_length_a 8.792715
_cell_length_b 16.140142
_cell_length_c 19.798414
_cell_angle_alpha 17.645417
_cell_angle_beta 131.582665
_cell_angle_gamma 131.927685
_cell_volume 629.110726
_symmetry_space_group_name_H-M "P -1"
_symmetry_group_IT_number 2
_symmetry_cell_setting 'triclinic'
loop_
_space_group_symop_operation_xyz
x,y,z
-x,-y,-z
loop_
_atom_site_type_symbol
_atom_site_label
_atom_site_fract_x
_atom_site_fract_y
_atom_site_fract_z
Si Si1 0.767331 0.864812 0.047375
Si Si2 0.680307 0.329146 0.346020
Si Si3 0.937299 0.419074 0.968046
Si Si4 0.626190 0.866326 0.296186
Si Si5 0.274303 0.073977 0.865769
Si Si6 0.631902 0.740283 0.810473
Si Si7 0.094421 0.439651 0.293937
O O1 0.711376 0.607107 0.181552
O O2 0.760760 0.769748 0.197669
O O3 0.610230 0.086785 0.816477
O O4 0.000000 0.000000 0.000000
O O5 0.476373 0.296776 0.265444
O O6 0.880649 0.324511 0.359550
O O7 0.641080 0.053978 0.593788
O O8 0.905037 0.623354 0.737593
O O9 0.742841 0.178787 0.099569
O O10 0.000000 0.500000 0.000000
O O11 0.135579 0.301291 0.091540
O O12 0.712619 0.779122 0.316874
O O13 0.714137 0.676758 0.524544
O O14 0.500000 0.000000 0.000000
O O15 0.129704 0.774209 0.052504
O O16 0.500000 0.500000 0.000000
#
# Coordination Sequence:
#
# PCOD9040767 Si02
#       7
#     2   2   2   2   2   2   2
#     4  11  22  43  71 103 140 179 234 290 333 417
#     4  11  23  42  70 104 136 183 237 274 355 410
#     4  11  23  42  69  99 136 177 234 285 341 410
#     4  10  23  43  68  98 140 180 230 281 348 405
#     4   9  21  41  67  93 140 179 224 277 342 402
#     4  11  23  44  71  98 138 184 223 292 348 409
#     4  11  21  42  71  98 138 185 225 281 350 413
#
# _framework density 22.253634999999999
#
# number of rings (size 3 to 8) (size 9 to 14) (size 15 to 20)
#    0.000    1.429    4.286    0.857    0.000    2.857 
#    0.000   12.143    0.000    0.000    0.000    0.000 
#    0.000    0.000    0.000    0.000    0.000    0.000 
#
# Total GULP energy -78150.046416 kJ/mol
# GULP energy per Si atom -5582.146173 kJ/mol
# Density = 2.220298 g / cm^3
# Si number density = 22.253635 Si / 1000 Ang^3
#
#
#
# Elastic Constant Matrix: (Units=GPa)
#
#
# Indices 1 2 3 4 5 6 
#
# 1 80.5241 40.0445 34.8631 10.7965 0.0092 7.9377
# 2 40.0445 119.3312 37.9330 17.0190 3.2891 -5.7328
# 3 34.8631 37.9330 109.2557 19.3812 -6.0225 -6.2804
# 4 10.7965 17.0190 19.3812 45.6314 2.5955 -7.7748
# 5 0.0092 3.2891 -6.0225 2.5955 18.1325 7.4012
# 6 7.9377 -5.7328 -6.2804 -7.7748 7.4012 54.5968
#
#
#
# Elastic Compliance Matrix: (Units=1/GPa)
#
#
# Indices 1 2 3 4 5 6 
#
# 1 0.016803 -0.004473 -0.003694 -0.001446 0.001301 -0.003720
# 2 -0.004473 0.010975 -0.002169 -0.001634 -0.003191 0.001753
# 3 -0.003694 -0.002169 0.012011 -0.003591 0.004676 0.000546
# 4 -0.001446 -0.001634 -0.003591 0.025442 -0.006207 0.004090
# 5 0.001301 -0.003191 0.004676 -0.006207 0.061952 -0.009268
# 6 -0.003720 0.001753 0.000546 0.004090 -0.009268 0.020943
#
#
# Mechanical properties :
#
#
# Convention : Reuss Voigt Hill
#
# Bulk Modulus (GPa) = 52.30724 59.42136 55.86430
# Shear Modulus (GPa) = 28.54376 36.75683 32.65030
#
# Velocity S-wave (km/s) = 3.58530 4.06855 3.83455
# Velocity P-wave (km/s) = 6.37928 6.98789 6.69051
#
# Compressibility (1/GPa) = 0.01911781
#
# Stress axis : x y z
#
# Youngs Moduli (GPa) = 59.51405 91.11205 83.25769
#
# Poissons Ratio (x) = 0.40750 0.30759
# Poissons Ratio (y) = 0.26618 0.18056
# Poissons Ratio (z) = 0.21987 0.19760
#
# Static dielectric constant tensor:
#      x y z
#    x 1.859030 -0.078630 -0.079820 
#    y -0.078630 1.900650 0.083170 
#    z -0.079820 0.083170 1.932730 
# 
# From -- ./inp_files/335767.got.cif
#   From: 2010.05.17/outbox.cif.g08.bks.cpg/sg2_168_cif.got.tgz:335767.got - 2010.06.03 11:33:40.
