data_PCOD9040038
_publ_section_title
;
Structure prediction by ZEFSAII (Michael W. Deem and Ramdas Pophale) SiO2 
 PCOD9040038
Probable space group: P -1
;
_chemical_formula_sum "Si O2"
_cell_formula_units_Z 16
_cell_length_a 5.310541
_cell_length_b 15.148196
_cell_length_c 9.029931
_cell_angle_alpha 71.686586
_cell_angle_beta 83.529382
_cell_angle_gamma 95.007760
_cell_volume 679.407711
_symmetry_space_group_name_H-M "P -1"
_symmetry_group_IT_number 2
_symmetry_cell_setting 'triclinic'
loop_
_space_group_symop_operation_xyz
x,y,z
-x,-y,-z
loop_
_atom_site_type_symbol
_atom_site_label
_atom_site_fract_x
_atom_site_fract_y
_atom_site_fract_z
Si Si1 0.381087 0.734844 0.192476
Si Si2 0.935552 0.012481 0.166700
Si Si3 0.685062 0.428818 0.201108
Si Si4 0.954705 0.259955 0.348659
Si Si5 0.123226 0.203491 0.671824
Si Si6 0.291448 0.196925 0.147526
Si Si7 0.394249 0.909099 0.641788
Si Si8 0.775731 0.459847 0.830218
O O1 0.606845 0.765441 0.280148
O O2 0.294919 0.624427 0.235398
O O3 0.123307 0.779776 0.220648
O O4 0.511017 0.766972 0.010445
O O5 0.911268 0.909025 0.293512
O O6 0.681386 0.054367 0.211434
O O7 0.140456 0.098295 0.158624
O O8 0.000000 0.000000 0.000000
O O9 0.411008 0.461968 0.232549
O O10 0.748194 0.331783 0.317106
O O11 0.923824 0.502037 0.205940
O O12 0.710107 0.426356 0.021567
O O13 0.095657 0.262874 0.494058
O O14 0.117406 0.273219 0.177368
O O15 0.834138 0.151158 0.397231
O O16 0.420148 0.166884 0.303813
O O17 0.500000 0.000000 0.500000
#
# Coordination Sequence:
#
# PCOD9040038 Si02
#       8
#     2   2   2   2   2   2   2   2
#     4  12  27  46  71 104 141 183 232 295 350 407
#     4  11  23  42  63 101 136 185 238 279 345 404
#     4  10  23  42  75 104 135 180 226 294 341 422
#     4  11  27  44  68 106 140 183 237 280 360 412
#     4  12  28  45  69 102 147 189 228 288 350 423
#     4  11  25  41  72  98 140 184 240 295 334 415
#     4  11  24  41  69  98 141 182 232 296 339 407
#     4  10  23  44  71 107 136 172 236 290 349 404
#
# _framework density 23.549925000000002
#
# number of rings (size 3 to 8) (size 9 to 14) (size 15 to 20)
#    0.000    1.000    1.250    3.750   15.750    3.000 
#    0.000    3.750    0.000    0.000    0.000    0.000 
#    0.000    0.000    0.000    0.000    0.000    0.000 
#
# Total GULP energy -89422.260909 kJ/mol
# GULP energy per Si atom -5588.891307 kJ/mol
# Density = 2.349632 g / cm^3
# Si number density = 23.549925 Si / 1000 Ang^3
#
#
#
# Elastic Constant Matrix: (Units=GPa)
#
#
# Indices 1 2 3 4 5 6 
#
# 1 99.8544 31.4164 10.7449 5.3920 6.9997 -2.7446
# 2 31.4164 109.7991 12.4177 -10.2921 3.1817 2.3111
# 3 10.7449 12.4177 60.8598 -12.7191 9.6718 5.5104
# 4 5.3920 -10.2921 -12.7191 21.4015 -6.1286 4.1277
# 5 6.9997 3.1817 9.6718 -6.1286 28.1346 -8.3362
# 6 -2.7446 2.3111 5.5104 4.1277 -8.3362 36.3373
#
#
#
# Elastic Compliance Matrix: (Units=1/GPa)
#
#
# Indices 1 2 3 4 5 6 
#
# 1 0.012177 -0.003856 -0.002682 -0.007667 -0.002809 0.001798
# 2 -0.003856 0.010857 -0.000131 0.006631 0.000765 -0.001540
# 3 -0.002682 -0.000131 0.021024 0.012684 -0.005591 -0.006106
# 4 -0.007667 0.006631 0.012684 0.063307 0.008144 -0.008247
# 5 -0.002809 0.000765 -0.005591 0.008144 0.042651 0.009447
# 6 0.001798 -0.001540 -0.006106 -0.008247 0.009447 0.031784
#
#
# Mechanical properties :
#
#
# Convention : Reuss Voigt Hill
#
# Bulk Modulus (GPa) = 32.55162 42.18571 37.36866
# Shear Modulus (GPa) = 24.34547 31.57029 27.95788
#
# Velocity S-wave (km/s) = 3.21874 3.66535 3.44928
# Velocity P-wave (km/s) = 5.25985 5.98876 5.63610
#
# Compressibility (1/GPa) = 0.03072044
#
# Stress axis : x y z
#
# Youngs Moduli (GPa) = 82.12432 92.10283 47.56566
#
# Poissons Ratio (x) = 0.35514 0.12756
# Poissons Ratio (y) = 0.31666 0.00622
# Poissons Ratio (z) = 0.22025 0.01205
#
# Static dielectric constant tensor:
#      x y z
#    x 2.762980 0.540240 0.407980 
#    y 0.540240 2.196910 0.279710 
#    z 0.407980 0.279710 2.122530 
# 
# From -- ./inp_files/134983.got.cif
#   From: 2010.05.17/outbox.cif.g08.bks.cpg/sg2_68_cif.got.tgz:134983.got - 2010.06.03 11:33:40.
