data_PCOD9040267
_publ_section_title
;
Structure prediction by ZEFSAII (Michael W. Deem and Ramdas Pophale) SiO2 
 PCOD9040267
Probable space group: P -1
;
_chemical_formula_sum "Si O2"
_cell_formula_units_Z 13
_cell_length_a 14.761377
_cell_length_b 8.214602
_cell_length_c 8.213939
_cell_angle_alpha 143.065853
_cell_angle_beta 97.355630
_cell_angle_gamma 89.065873
_cell_volume 587.357682
_symmetry_space_group_name_H-M "P -1"
_symmetry_group_IT_number 2
_symmetry_cell_setting 'triclinic'
loop_
_space_group_symop_operation_xyz
x,y,z
-x,-y,-z
loop_
_atom_site_type_symbol
_atom_site_label
_atom_site_fract_x
_atom_site_fract_y
_atom_site_fract_z
Si Si1 0.000000 0.000000 0.000000
Si Si2 0.535769 0.378283 0.157344
Si Si3 0.976665 0.294430 0.682181
Si Si4 0.418898 0.803832 0.614829
Si Si5 0.110684 0.515301 0.595400
Si Si6 0.731347 0.544558 0.187042
Si Si7 0.768119 0.175276 0.593036
O O1 0.920561 0.186789 0.194494
O O2 0.079425 0.274031 0.266216
O O3 0.472646 0.610882 0.362144
O O4 0.573146 0.296039 0.277303
O O5 0.622876 0.478206 0.144687
O O6 0.472732 0.110163 0.861481
O O7 0.867464 0.263118 0.604247
O O8 0.047446 0.402090 0.645217
O O9 0.000000 0.000000 0.500000
O O10 0.000000 0.500000 0.000000
O O11 0.314957 0.793054 0.521910
O O12 0.213528 0.522211 0.691296
O O13 0.759412 0.861518 0.399648
O O14 0.759448 0.360311 0.898261
#
# Coordination Sequence:
#
# PCOD9040267 Si02
#       7
#     1   2   2   2   2   2   2
#     4  10  24  38  60  88 124 166 212 270 308 380
#     4  10  23  44  65  91 129 178 198 275 323 385
#     4  12  22  41  65  89 128 175 207 261 324 383
#     4  10  23  43  65  92 131 164 224 251 328 395
#     4  11  22  42  61  91 129 167 215 262 324 385
#     4  12  24  40  68  95 131 164 215 270 329 378
#     4  12  24  40  66 102 123 171 218 270 316 393
#
# _framework density 22.133019999999998
#
# number of rings (size 3 to 8) (size 9 to 14) (size 15 to 20)
#    0.000    0.923    3.077    3.692    0.000    6.154 
#    0.000    6.154    0.000    0.000    0.000    0.000 
#    0.000    0.000    0.000    0.000    0.000    0.000 
#
# Total GULP energy -72482.384571 kJ/mol
# GULP energy per Si atom -5575.568044 kJ/mol
# Density = 2.208264 g / cm^3
# Si number density = 22.133020 Si / 1000 Ang^3
#
#
#
# Elastic Constant Matrix: (Units=GPa)
#
#
# Indices 1 2 3 4 5 6 
#
# 1 156.7731 22.2192 51.6035 7.6603 17.1587 -10.2744
# 2 22.2192 19.4976 45.3709 -6.7933 -7.2107 1.3299
# 3 51.6035 45.3709 188.6228 51.4344 -20.4624 -21.2823
# 4 7.6603 -6.7933 51.4344 -3.6961 -15.7122 14.5703
# 5 17.1587 -7.2107 -20.4624 -15.7122 38.9392 -6.1256
# 6 -10.2744 1.3299 -21.2823 14.5703 -6.1256 54.5011
#
#
#
# Elastic Compliance Matrix: (Units=1/GPa)
#
#
# Indices 1 2 3 4 5 6 
#
# 1 0.008104 -0.003638 -0.002697 0.002830 -0.004632 -0.000714
# 2 -0.003638 0.040781 0.000712 -0.033053 -0.002686 0.007132
# 3 -0.002697 0.000712 0.003741 0.010285 0.007279 -0.000997
# 4 0.002830 -0.033053 0.010285 -0.010233 -0.004906 0.007541
# 5 -0.004632 -0.002686 0.007279 -0.004906 0.030130 0.006733
# 6 -0.000714 0.007132 -0.000997 0.007541 0.006733 0.016391
#
#
# Mechanical properties :
#
#
# Convention : Reuss Voigt Hill
#
# Bulk Modulus (GPa) = 24.16596 67.03117 45.59856
# Shear Modulus (GPa) = 43.87806 34.32884 39.10345
#
# Velocity S-wave (km/s) = 4.45732 3.94258 4.20783
# Velocity P-wave (km/s) = 6.11821 7.14679 6.65241
#
# Compressibility (1/GPa) = 0.04138053
#
# Stress axis : x y z
#
# Youngs Moduli (GPa) = 123.39874 24.52119 267.32476
#
# Poissons Ratio (x) = 0.08920 0.72092
# Poissons Ratio (y) = 0.44890 -0.19035
# Poissons Ratio (z) = 0.33278 -0.01746
#
# Static dielectric constant tensor:
#      x y z
#    x 1.775280 -0.040200 0.016260 
#    y -0.040200 1.882630 -0.045500 
#    z 0.016260 -0.045500 1.771760 
# 
# From -- ./inp_files/140030.got.cif
#   From: 2010.05.17/outbox.cif.g08.bks.cpg/sg2_71_cif.got.tgz:140030.got - 2010.06.03 11:33:40.
