data_PCOD9040004
_publ_section_title
;
Structure prediction by ZEFSAII (Michael W. Deem and Ramdas Pophale) SiO2 
 PCOD9040004
Probable space group: P -1
;
_chemical_formula_sum "Si O2"
_cell_formula_units_Z 16
_cell_length_a 5.088555
_cell_length_b 8.562131
_cell_length_c 19.536788
_cell_angle_alpha 112.402388
_cell_angle_beta 123.138828
_cell_angle_gamma 94.795559
_cell_volume 610.304793
_symmetry_space_group_name_H-M "P -1"
_symmetry_group_IT_number 2
_symmetry_cell_setting 'triclinic'
loop_
_space_group_symop_operation_xyz
x,y,z
-x,-y,-z
loop_
_atom_site_type_symbol
_atom_site_label
_atom_site_fract_x
_atom_site_fract_y
_atom_site_fract_z
Si Si1 0.381500 0.168895 0.516481
Si Si2 0.497046 0.426992 0.768076
Si Si3 0.598368 0.926719 0.351806
Si Si4 0.757526 0.353852 0.312910
Si Si5 0.835082 0.982182 0.897490
Si Si6 0.587927 0.742826 0.611429
Si Si7 0.606730 0.804216 0.088425
Si Si8 0.231316 0.500135 0.874628
O O1 0.466276 0.209751 0.614821
O O2 0.515645 0.294900 0.490012
O O3 0.500000 0.000000 0.500000
O O4 0.973405 0.082485 0.437603
O O5 0.407620 0.212286 0.731610
O O6 0.212532 0.459039 0.687339
O O7 0.492185 0.528150 0.855120
O O8 0.872946 0.505005 0.803915
O O9 0.366096 0.044952 0.336374
O O10 0.663551 0.358728 0.380217
O O11 0.071049 0.293505 0.338394
O O12 0.442121 0.205761 0.202079
O O13 0.637088 0.120864 0.892688
O O14 0.139876 0.038562 0.896333
O O15 0.000000 0.000000 0.000000
O O16 0.814574 0.700765 0.139543
O O17 0.375123 0.646815 0.978294
#
# Coordination Sequence:
#
# PCOD9040004 Si02
#       8
#     2   2   2   2   2   2   2   2
#     4   9  20  42  73 102 132 167 224 270 319 399
#     4  12  27  43  66  97 140 173 214 278 343 387
#     4  10  23  42  74 100 131 176 221 265 336 392
#     4  12  26  42  64 101 137 174 225 275 337 387
#     4  12  25  41  67  90 135 182 227 267 334 400
#     4  11  23  43  69  97 135 172 221 279 315 400
#     4  11  24  42  66  94 121 176 235 271 335 386
#     4  11  25  43  65  94 134 167 222 293 325 392
#
# _framework density 26.21641
#
# number of rings (size 3 to 8) (size 9 to 14) (size 15 to 20)
#    0.000    1.000    1.250    4.875    8.750    2.000 
#    0.000    1.250    0.000    0.000    0.000    0.000 
#    0.000    0.000    0.000    0.000    0.000    0.000 
#
# Total GULP energy -89576.213893 kJ/mol
# GULP energy per Si atom -5598.513368 kJ/mol
# Density = 2.615674 g / cm^3
# Si number density = 26.216410 Si / 1000 Ang^3
#
#
#
# Elastic Constant Matrix: (Units=GPa)
#
#
# Indices 1 2 3 4 5 6 
#
# 1 134.4746 26.9205 33.5897 -14.2235 6.2835 -23.7709
# 2 26.9205 78.6976 32.9409 -26.3200 9.0288 -22.3148
# 3 33.5897 32.9409 73.7063 -12.0675 3.3709 -17.5425
# 4 -14.2235 -26.3200 -12.0675 43.6750 -1.5404 4.3843
# 5 6.2835 9.0288 3.3709 -1.5404 45.2028 -15.2007
# 6 -23.7709 -22.3148 -17.5425 4.3843 -15.2007 39.5802
#
#
#
# Elastic Compliance Matrix: (Units=1/GPa)
#
#
# Indices 1 2 3 4 5 6 
#
# 1 0.009054 -0.000301 -0.002793 0.001608 0.000413 0.004011
# 2 -0.000301 0.020801 -0.005659 0.010081 -0.000785 0.007620
# 3 -0.002793 -0.005659 0.018257 0.000401 0.001424 0.003726
# 4 0.001608 0.010081 0.000401 0.029246 -0.000074 0.003559
# 5 0.000413 -0.000785 0.001424 -0.000074 0.025564 0.010263
# 6 0.004011 0.007620 0.003726 0.003559 0.010263 0.037169
#
#
# Mechanical properties :
#
#
# Convention : Reuss Voigt Hill
#
# Bulk Modulus (GPa) = 32.67312 52.64232 42.65772
# Shear Modulus (GPa) = 29.79771 38.58676 34.19223
#
# Velocity S-wave (km/s) = 3.37502 3.84064 3.61533
# Velocity P-wave (km/s) = 5.26095 6.30800 5.80811
#
# Compressibility (1/GPa) = 0.03060619
#
# Stress axis : x y z
#
# Youngs Moduli (GPa) = 110.45017 48.07479 54.77447
#
# Poissons Ratio (x) = 0.01445 0.15297
# Poissons Ratio (y) = 0.03319 0.30999
# Poissons Ratio (z) = 0.30847 0.27207
#
# Static dielectric constant tensor:
#      x y z
#    x 2.050070 0.037960 -0.070850 
#    y 0.037960 2.065340 -0.017910 
#    z -0.070850 -0.017910 2.125120 
# 
# From -- ./inp_files/582450.got.cif
#   From: 2010.05.17/outbox.cif.g08.bks.cpg/sg2_292_cif.got.tgz:582450.got - 2010.06.03 11:33:40.
