data_PCOD9040201
_publ_section_title
;
Structure prediction by ZEFSAII (Michael W. Deem and Ramdas Pophale) SiO2 
 PCOD9040201
Probable space group: P -1
;
_chemical_formula_sum "Si O2"
_cell_formula_units_Z 16
_cell_length_a 9.365942
_cell_length_b 13.788597
_cell_length_c 19.439953
_cell_angle_alpha 25.255099
_cell_angle_beta 55.125540
_cell_angle_gamma 45.654999
_cell_volume 750.852202
_symmetry_space_group_name_H-M "P -1"
_symmetry_group_IT_number 2
_symmetry_cell_setting 'triclinic'
loop_
_space_group_symop_operation_xyz
x,y,z
-x,-y,-z
loop_
_atom_site_type_symbol
_atom_site_label
_atom_site_fract_x
_atom_site_fract_y
_atom_site_fract_z
Si Si1 0.478489 0.998766 0.424313
Si Si2 0.291886 0.555867 0.054606
Si Si3 0.217453 0.880795 0.484725
Si Si4 0.573318 0.869767 0.988209
Si Si5 0.797472 0.021907 0.076513
Si Si6 0.979648 0.555068 0.889846
Si Si7 0.773045 0.683033 0.422002
Si Si8 0.467870 0.596697 0.370364
O O1 0.333439 0.304395 0.248939
O O2 0.363216 0.851205 0.526550
O O3 0.500000 0.000000 0.500000
O O4 0.657530 0.886330 0.388157
O O5 0.125500 0.592450 0.021710
O O6 0.500000 0.500000 0.000000
O O7 0.232455 0.786578 0.975733
O O8 0.173872 0.128551 0.287314
O O9 0.315764 0.597827 0.602014
O O10 0.000000 0.000000 0.500000
O O11 0.612955 0.093754 0.802861
O O12 0.388470 0.874845 0.993684
O O13 0.500000 0.000000 0.000000
O O14 0.786235 0.588044 0.109635
O O15 0.783596 0.796337 0.270695
O O16 0.000000 0.000000 0.000000
O O17 0.000000 0.500000 0.000000
O O18 0.675694 0.498486 0.561614
O O19 0.000000 0.500000 0.500000
O O20 0.500000 0.500000 0.500000
#
# Coordination Sequence:
#
# PCOD9040201 Si02
#       8
#     2   2   2   2   2   2   2   2
#     4  10  24  43  68  98 132 176 224 277 340 408
#     4  11  23  43  70  97 140 178 226 284 346 409
#     4  10  23  43  64  96 135 169 220 277 335 405
#     4  12  26  44  70 103 139 180 237 285 344 421
#     4  12  27  46  70 100 142 185 230 292 351 411
#     4  11  24  42  69 102 132 177 230 278 342 411
#     4  11  26  45  68 103 138 176 235 283 345 420
#     4  11  23  44  71  95 137 183 223 281 348 404
#
# _framework density 21.309121000000001
#
# number of rings (size 3 to 8) (size 9 to 14) (size 15 to 20)
#    0.000    1.000    2.500    3.000    7.000    5.000 
#    0.000    0.000    0.000    0.000    0.000    0.000 
#    0.000    0.000    0.000    0.000    0.000    0.000 
#
# Total GULP energy -89129.885216 kJ/mol
# GULP energy per Si atom -5570.617826 kJ/mol
# Density = 2.126062 g / cm^3
# Si number density = 21.309121 Si / 1000 Ang^3
#
#
#
# Elastic Constant Matrix: (Units=GPa)
#
#
# Indices 1 2 3 4 5 6 
#
# 1 156.1777 53.2037 11.8969 10.1496 10.2133 8.5256
# 2 53.2037 109.3849 -3.9017 19.3613 2.5750 -5.1084
# 3 11.8969 -3.9017 45.9592 2.8145 -2.5256 6.5813
# 4 10.1496 19.3613 2.8145 37.8984 5.5784 4.0169
# 5 10.2133 2.5750 -2.5256 5.5784 32.7108 5.7986
# 6 8.5256 -5.1084 6.5813 4.0169 5.7986 43.3456
#
#
#
# Elastic Compliance Matrix: (Units=1/GPa)
#
#
# Indices 1 2 3 4 5 6 
#
# 1 0.008210 -0.004207 -0.002430 0.000622 -0.002261 -0.001497
# 2 -0.004207 0.012372 0.002217 -0.005765 0.001079 0.002339
# 3 -0.002430 0.002217 0.023338 -0.002384 0.003330 -0.003029
# 4 0.000622 -0.005765 -0.002384 0.030301 -0.004626 -0.002629
# 5 -0.002261 0.001079 0.003330 -0.004626 0.032931 -0.003910
# 6 -0.001497 0.002339 -0.003029 -0.002629 -0.003910 0.024867
#
#
# Mechanical properties :
#
#
# Convention : Reuss Voigt Hill
#
# Bulk Modulus (GPa) = 28.50708 48.21328 38.36018
# Shear Modulus (GPa) = 32.77522 39.47917 36.12720
#
# Velocity S-wave (km/s) = 3.92610 4.30896 4.12197
# Velocity P-wave (km/s) = 5.82745 6.88701 6.37927
#
# Compressibility (1/GPa) = 0.03507901
#
# Stress axis : x y z
#
# Youngs Moduli (GPa) = 121.79715 80.83058 42.84772
#
# Poissons Ratio (x) = 0.34005 0.10414
# Poissons Ratio (y) = 0.51240 -0.09498
# Poissons Ratio (z) = 0.29602 -0.17918
#
# Static dielectric constant tensor:
#      x y z
#    x 1.755790 0.057140 -0.150810 
#    y 0.057140 1.746620 -0.159690 
#    z -0.150810 -0.159690 2.501580 
# 
# From -- ./inp_files/559533.got.cif
#   From: 2010.05.17/outbox.cif.g08.bks.cpg/sg2_280_cif.got.tgz:559533.got - 2010.06.03 11:33:40.
