data_PCOD9040095
_publ_section_title
;
Structure prediction by ZEFSAII (Michael W. Deem and Ramdas Pophale) SiO2 
 PCOD9040095
Probable space group: P -1
;
_chemical_formula_sum "Si O2"
_cell_formula_units_Z 12
_cell_length_a 14.041699
_cell_length_b 6.927374
_cell_length_c 11.410493
_cell_angle_alpha 80.113640
_cell_angle_beta 133.526144
_cell_angle_gamma 67.605368
_cell_volume 567.024794
_symmetry_space_group_name_H-M "P -1"
_symmetry_group_IT_number 2
_symmetry_cell_setting 'triclinic'
loop_
_space_group_symop_operation_xyz
x,y,z
-x,-y,-z
loop_
_atom_site_type_symbol
_atom_site_label
_atom_site_fract_x
_atom_site_fract_y
_atom_site_fract_z
Si Si1 0.450671 0.266360 0.643762
Si Si2 0.243468 0.212796 0.196156
Si Si3 0.212603 0.866440 0.368588
Si Si4 0.468480 0.809678 0.022044
Si Si5 0.201686 0.839326 0.639910
Si Si6 0.911530 0.387351 0.782572
O O1 0.395907 0.544825 0.531284
O O2 0.561410 0.170459 0.866417
O O3 0.243769 0.394201 0.467727
O O4 0.561023 0.018276 0.673119
O O5 0.193320 0.460190 0.198626
O O6 0.217058 0.062223 0.281923
O O7 0.092584 0.325634 0.955992
O O8 0.195823 0.902122 0.490580
O O9 0.058291 0.873228 0.190866
O O10 0.655282 0.491173 0.192338
O O11 0.301735 0.899075 0.796193
O O12 0.500000 0.000000 0.000000
O O13 0.000000 0.000000 0.500000
#
# Coordination Sequence:
#
# PCOD9040095 Si02
#       6
#     2   2   2   2   2   2
#     4   9  21  37  58  84 116 149 192 241 291 350
#     4  11  19  38  58  82 119 149 188 242 296 347
#     4   9  21  37  58  84 116 149 192 241 291 350
#     4  10  23  43  62  91 122 159 206 252 296 360
#     4  10  23  43  62  91 122 159 206 252 296 360
#     4   9  22  35  53  87 117 146 195 239 283 358
#
# _framework density 21.163094000000001
#
# number of rings (size 3 to 8) (size 9 to 14) (size 15 to 20)
#    1.000    1.333    0.000    1.500    4.667    0.667 
#    6.000    0.000    0.000    0.000    0.000    0.000 
#    0.000    0.000    0.000    0.000    0.000    0.000 
#
# Total GULP energy -66835.915450 kJ/mol
# GULP energy per Si atom -5569.659621 kJ/mol
# Density = 2.111493 g / cm^3
# Si number density = 21.163094 Si / 1000 Ang^3
#
#
#
# Elastic Constant Matrix: (Units=GPa)
#
#
# Indices 1 2 3 4 5 6 
#
# 1 33.0650 24.0534 25.3081 1.3342 8.9388 -6.4946
# 2 24.0534 81.6202 34.8245 19.5816 -5.0027 3.2791
# 3 25.3081 34.8245 116.7977 28.7516 7.7292 -4.2127
# 4 1.3342 19.5816 28.7516 41.1541 -8.2182 2.5373
# 5 8.9388 -5.0027 7.7292 -8.2182 23.1492 -1.8007
# 6 -6.4946 3.2791 -4.2127 2.5373 -1.8007 28.0728
#
#
#
# Elastic Compliance Matrix: (Units=1/GPa)
#
#
# Indices 1 2 3 4 5 6 
#
# 1 0.054548 -0.016311 -0.006780 0.006168 -0.019223 0.011717
# 2 -0.016311 0.019925 -0.001799 -0.005611 0.008801 -0.005299
# 3 -0.006780 -0.001799 0.013269 -0.009349 -0.005432 0.001129
# 4 0.006168 -0.005611 -0.009349 0.035828 0.012108 -0.001782
# 5 -0.019223 0.008801 -0.005432 0.012108 0.058352 -0.003642
# 6 0.011717 -0.005299 0.001129 -0.001782 -0.003642 0.039048
#
#
# Mechanical properties :
#
#
# Convention : Reuss Voigt Hill
#
# Bulk Modulus (GPa) = 26.34246 44.42830 35.38538
# Shear Modulus (GPa) = 17.64276 28.29500 22.96888
#
# Velocity S-wave (km/s) = 2.89044 3.66046 3.29800
# Velocity P-wave (km/s) = 4.85942 6.23732 5.59098
#
# Compressibility (1/GPa) = 0.03796152
#
# Stress axis : x y z
#
# Youngs Moduli (GPa) = 18.33251 50.18918 75.36506
#
# Poissons Ratio (x) = 0.81865 0.51097
# Poissons Ratio (y) = 0.29903 0.13556
# Poissons Ratio (z) = 0.12429 0.09028
#
# Static dielectric constant tensor:
#      x y z
#    x 1.713950 -0.014300 0.009990 
#    y -0.014300 1.786770 0.019980 
#    z 0.009990 0.019980 1.830990 
# 
# From -- ./inp_files/268732.got.cif
#   From: 2010.05.17/outbox.cif.g08.bks.cpg/sg2_135_cif.got.tgz:268732.got - 2010.06.03 11:33:40.
