data_PCOD9040597
_publ_section_title
;
Structure prediction by ZEFSAII (Michael W. Deem and Ramdas Pophale) SiO2 
 PCOD9040597
Probable space group: P -1
;
_chemical_formula_sum "Si O2"
_cell_formula_units_Z 14
_cell_length_a 16.222658
_cell_length_b 5.544868
_cell_length_c 26.532200
_cell_angle_alpha 58.176096
_cell_angle_beta 19.105558
_cell_angle_gamma 67.375435
_cell_volume 605.867725
_symmetry_space_group_name_H-M "P -1"
_symmetry_group_IT_number 2
_symmetry_cell_setting 'triclinic'
loop_
_space_group_symop_operation_xyz
x,y,z
-x,-y,-z
loop_
_atom_site_type_symbol
_atom_site_label
_atom_site_fract_x
_atom_site_fract_y
_atom_site_fract_z
Si Si1 0.183459 0.074209 0.271953
Si Si2 0.519562 0.835515 0.437528
Si Si3 0.729159 0.881721 0.134467
Si Si4 0.548446 0.841410 0.656405
Si Si5 0.974657 0.130460 0.216314
Si Si6 0.638595 0.235275 0.060719
Si Si7 0.719363 0.256923 0.895983
O O1 0.320051 0.055710 0.248805
O O2 0.231453 0.433919 0.196490
O O3 0.390750 0.034763 0.114022
O O4 0.862787 0.876280 0.474483
O O5 0.500000 0.500000 0.500000
O O6 0.268147 0.857105 0.610687
O O7 0.482561 0.922736 0.392874
O O8 0.818412 0.054889 0.261799
O O9 0.622043 0.511921 0.226275
O O10 0.535627 0.028369 0.258455
O O11 0.761218 0.038844 0.043819
O O12 0.000000 0.000000 0.000000
O O13 0.067963 0.894086 0.218296
O O14 0.258602 0.429609 0.010272
O O15 0.770761 0.332366 0.918023
#
# Coordination Sequence:
#
# PCOD9040597 Si02
#       7
#     2   2   2   2   2   2   2
#     4   9  22  44  70 107 140 182 227 306 350 424
#     4  11  26  41  67 105 140 175 238 302 368 416
#     4  12  30  48  73 100 144 197 243 293 346 422
#     4  12  28  48  72 105 145 184 245 293 354 423
#     4  11  22  38  74  98 135 187 227 295 367 425
#     4  10  23  43  67  98 140 186 237 284 353 416
#     4   9  21  42  68 106 143 172 237 285 369 419
#
# _framework density 23.107353
#
# number of rings (size 3 to 8) (size 9 to 14) (size 15 to 20)
#    0.857    0.571    0.000    3.857   12.000    2.857 
#    0.000    0.000    0.000    0.000    0.000    0.000 
#    0.000    0.000    0.000    0.000    0.000    0.000 
#
# Total GULP energy -78058.280392 kJ/mol
# GULP energy per Si atom -5575.591457 kJ/mol
# Density = 2.305476 g / cm^3
# Si number density = 23.107353 Si / 1000 Ang^3
#
#
#
# Elastic Constant Matrix: (Units=GPa)
#
#
# Indices 1 2 3 4 5 6 
#
# 1 98.7310 6.8637 15.9238 -2.7361 -26.2061 -19.9814
# 2 6.8637 112.7019 28.2981 20.4945 -5.7874 -13.9303
# 3 15.9238 28.2981 68.5083 10.6659 -31.0489 7.3708
# 4 -2.7361 20.4945 10.6659 44.8083 -1.1782 -2.9135
# 5 -26.2061 -5.7874 -31.0489 -1.1782 38.0602 3.3958
# 6 -19.9814 -13.9303 7.3708 -2.9135 3.3958 38.2505
#
#
#
# Elastic Compliance Matrix: (Units=1/GPa)
#
#
# Indices 1 2 3 4 5 6 
#
# 1 0.013903 0.000243 -0.000291 0.001477 0.008818 0.006737
# 2 0.000243 0.011737 -0.006989 -0.003423 -0.004379 0.005876
# 3 -0.000291 -0.006989 0.030467 -0.004149 0.024450 -0.011055
# 4 0.001477 -0.003423 -0.004149 0.025058 -0.002331 0.002440
# 5 0.008818 -0.004379 0.024450 -0.002331 0.052134 -0.006506
# 6 0.006737 0.005876 -0.011055 0.002440 -0.006506 0.034696
#
#
# Mechanical properties :
#
#
# Convention : Reuss Voigt Hill
#
# Bulk Modulus (GPa) = 23.78940 42.45692 33.12316
# Shear Modulus (GPa) = 25.49982 39.48085 32.49033
#
# Velocity S-wave (km/s) = 3.32556 4.13799 3.75382
# Velocity P-wave (km/s) = 5.00632 6.42217 5.75793
#
# Compressibility (1/GPa) = 0.04203554
#
# Stress axis : x y z
#
# Youngs Moduli (GPa) = 71.92517 85.20215 32.82187
#
# Poissons Ratio (x) = -0.02072 0.00954
# Poissons Ratio (y) = -0.01749 0.22938
# Poissons Ratio (z) = 0.02090 0.59545
#
# Static dielectric constant tensor:
#      x y z
#    x 1.945270 0.136450 -0.014500 
#    y 0.136450 1.962200 0.028580 
#    z -0.014500 0.028580 1.870120 
# 
# From -- ./inp_files/623777.got.cif
#   From: 2010.05.17/outbox.cif.g08.bks.cpg/sg2_312_cif.got.tgz:623777.got - 2010.06.03 11:33:40.
