data_PCOD9040271
_publ_section_title
;
Structure prediction by ZEFSAII (Michael W. Deem and Ramdas Pophale) SiO2 
 PCOD9040271
Probable space group: P -1
;
_chemical_formula_sum "Si O2"
_cell_formula_units_Z 12
_cell_length_a 9.538639
_cell_length_b 6.945919
_cell_length_c 11.182346
_cell_angle_alpha 57.378509
_cell_angle_beta 73.478856
_cell_angle_gamma 54.820227
_cell_volume 509.661814
_symmetry_space_group_name_H-M "P -1"
_symmetry_group_IT_number 2
_symmetry_cell_setting 'triclinic'
loop_
_space_group_symop_operation_xyz
x,y,z
-x,-y,-z
loop_
_atom_site_type_symbol
_atom_site_label
_atom_site_fract_x
_atom_site_fract_y
_atom_site_fract_z
Si Si1 0.832796 0.825163 0.858462
Si Si2 0.756359 0.555033 0.780568
Si Si3 0.530142 0.408050 0.741594
Si Si4 0.914561 0.717365 0.341302
Si Si5 0.347531 0.954102 0.519491
Si Si6 0.194858 0.406972 0.830143
O O1 0.775801 0.620815 0.889004
O O2 0.025853 0.695441 0.806157
O O3 0.695008 0.128495 0.756152
O O4 0.828329 0.796453 0.012008
O O5 0.600538 0.522518 0.789322
O O6 0.928358 0.306101 0.764534
O O7 0.746136 0.817883 0.633829
O O8 0.442043 0.638647 0.585000
O O9 0.378104 0.363960 0.829104
O O10 0.816156 0.648160 0.288721
O O11 0.000000 0.500000 0.500000
O O12 0.778692 0.977528 0.359973
O O13 0.500000 0.000000 0.500000
#
# Coordination Sequence:
#
# PCOD9040271 Si02
#       6
#     2   2   2   2   2   2
#     4  10  23  45  61  92 135 159 213 259 310 374
#     4   9  21  42  62  91 131 165 201 266 309 367
#     4  11  23  38  67  96 122 171 211 252 315 376
#     4   9  19  42  65  86 130 165 204 262 316 360
#     4   9  20  38  59  93 125 161 203 257 312 361
#     4  10  23  43  65  93 125 170 208 264 307 371
#
# _framework density 23.545027000000001
#
# number of rings (size 3 to 8) (size 9 to 14) (size 15 to 20)
#    0.000    2.333    0.000    0.500    7.000    1.333 
#    9.000    5.000    0.000    0.000    0.000    0.000 
#    0.000    0.000    0.000    0.000    0.000    0.000 
#
# Total GULP energy -66895.638203 kJ/mol
# GULP energy per Si atom -5574.636517 kJ/mol
# Density = 2.349144 g / cm^3
# Si number density = 23.545027 Si / 1000 Ang^3
#
#
#
# Elastic Constant Matrix: (Units=GPa)
#
#
# Indices 1 2 3 4 5 6 
#
# 1 115.2661 28.6037 9.3505 3.7038 5.7575 0.2686
# 2 28.6037 128.6709 37.9354 -9.2282 10.9074 -24.9408
# 3 9.3505 37.9354 55.4168 13.6526 10.2122 2.9995
# 4 3.7038 -9.2282 13.6526 24.3238 7.3457 18.2487
# 5 5.7575 10.9074 10.2122 7.3457 20.7702 -2.9254
# 6 0.2686 -24.9408 2.9995 18.2487 -2.9254 34.7945
#
#
#
# Elastic Compliance Matrix: (Units=1/GPa)
#
#
# Indices 1 2 3 4 5 6 
#
# 1 0.009366 -0.002597 0.000886 -0.001515 -0.001319 -0.001327
# 2 -0.002597 0.013435 -0.010386 0.007391 -0.002939 0.006422
# 3 0.000886 -0.010386 0.030594 -0.021224 -0.002207 0.000857
# 4 -0.001515 0.007391 -0.021224 0.106461 -0.037987 -0.051890
# 5 -0.001319 -0.002939 -0.002207 -0.037987 0.067916 0.023727
# 6 -0.001327 0.006422 0.000857 -0.051890 0.023727 0.062490
#
#
# Mechanical properties :
#
#
# Convention : Reuss Voigt Hill
#
# Bulk Modulus (GPa) = 34.24583 50.12591 42.18587
# Shear Modulus (GPa) = 15.42302 30.87529 23.14916
#
# Velocity S-wave (km/s) = 2.56216 3.62516 3.13898
# Velocity P-wave (km/s) = 4.83004 6.23361 5.57616
#
# Compressibility (1/GPa) = 0.02920064
#
# Stress axis : x y z
#
# Youngs Moduli (GPa) = 106.77056 74.43153 32.68582
#
# Poissons Ratio (x) = 0.19331 -0.02895
# Poissons Ratio (y) = 0.27730 0.33947
# Poissons Ratio (z) = -0.09456 0.77303
#
# Static dielectric constant tensor:
#      x y z
#    x 1.881620 0.008880 0.033190 
#    y 0.008880 1.935890 -0.022930 
#    z 0.033190 -0.022930 1.978030 
# 
# From -- ./inp_files/138254.got.cif
#   From: 2010.05.17/outbox.cif.g08.bks.cpg/sg2_70_cif.got.tgz:138254.got - 2010.06.03 11:33:40.
