data_PCOD9040691
_publ_section_title
;
Structure prediction by ZEFSAII (Michael W. Deem and Ramdas Pophale) SiO2 
 PCOD9040691
Probable space group: P -1
;
_chemical_formula_sum "Si O2"
_cell_formula_units_Z 14
_cell_length_a 13.434009
_cell_length_b 9.446400
_cell_length_c 8.359856
_cell_angle_alpha 96.615472
_cell_angle_beta 131.972512
_cell_angle_gamma 51.837422
_cell_volume 533.500519
_symmetry_space_group_name_H-M "P -1"
_symmetry_group_IT_number 2
_symmetry_cell_setting 'triclinic'
loop_
_space_group_symop_operation_xyz
x,y,z
-x,-y,-z
loop_
_atom_site_type_symbol
_atom_site_label
_atom_site_fract_x
_atom_site_fract_y
_atom_site_fract_z
Si Si1 0.200647 0.502639 0.339359
Si Si2 0.495262 0.242149 0.361629
Si Si3 0.269130 0.344946 0.708888
Si Si4 0.536421 0.444183 0.842939
Si Si5 0.316884 0.000197 0.782485
Si Si6 0.092306 0.085119 0.096600
Si Si7 0.931837 0.230821 0.279180
O O1 0.299907 0.363560 0.267546
O O2 0.177831 0.408273 0.443278
O O3 0.365418 0.481144 0.588867
O O4 0.007298 0.744218 0.125496
O O5 0.475356 0.408017 0.268281
O O6 0.566133 0.086783 0.273565
O O7 0.674134 0.105759 0.662387
O O8 0.237173 0.221318 0.748948
O O9 0.179384 0.550735 0.728861
O O10 0.507669 0.176134 0.933868
O O11 0.500000 0.500000 0.000000
O O12 0.771525 0.233365 0.072753
O O13 0.129891 0.043334 0.567163
O O14 0.016930 0.211843 0.198452
O O15 0.000000 0.000000 0.000000
#
# Coordination Sequence:
#
# PCOD9040691 Si02
#       7
#     2   2   2   2   2   2   2
#     4  12  23  40  64  94 131 163 205 257 320 373
#     4  11  22  41  62  92 128 168 206 254 318 368
#     4  11  23  43  65  94 127 165 212 264 309 369
#     4  12  21  39  64  91 127 161 202 258 316 371
#     4  10  23  43  68  90 123 170 216 257 311 367
#     4  11  22  38  64  90 124 173 204 250 316 383
#     4  11  22  41  65  90 126 167 210 258 314 372
#
# _framework density 26.241775000000001
#
# number of rings (size 3 to 8) (size 9 to 14) (size 15 to 20)
#    0.000    0.857    5.714    1.714    0.000    1.714 
#    0.000   10.000    0.000    0.000    0.000    0.000 
#    0.000    0.000    0.000    0.000    0.000    0.000 
#
# Total GULP energy -78296.286147 kJ/mol
# GULP energy per Si atom -5592.591868 kJ/mol
# Density = 2.618205 g / cm^3
# Si number density = 26.241775 Si / 1000 Ang^3
#
#
#
# Elastic Constant Matrix: (Units=GPa)
#
#
# Indices 1 2 3 4 5 6 
#
# 1 32.3756 15.6298 35.9867 -6.7451 -5.3665 -3.7286
# 2 15.6298 71.5135 2.9572 -7.1613 -15.2840 -12.5526
# 3 35.9867 2.9572 199.7102 -34.3514 -7.4728 6.8112
# 4 -6.7451 -7.1613 -34.3514 37.7726 3.7668 4.3389
# 5 -5.3665 -15.2840 -7.4728 3.7668 50.6328 4.0218
# 6 -3.7286 -12.5526 6.8112 4.3389 4.0218 27.8107
#
#
#
# Elastic Compliance Matrix: (Units=1/GPa)
#
#
# Indices 1 2 3 4 5 6 
#
# 1 0.044573 -0.008685 -0.008339 -0.001830 0.000667 0.004287
# 2 -0.008685 0.017898 0.001661 0.002305 0.004115 0.005552
# 3 -0.008339 0.001661 0.007671 0.006124 0.000555 -0.003283
# 4 -0.001830 0.002305 0.006124 0.032872 -0.000583 -0.005749
# 5 0.000667 0.004115 0.000555 -0.000583 0.021282 -0.001176
# 6 0.004287 0.005552 -0.003283 -0.005749 -0.001176 0.040909
#
#
# Mechanical properties :
#
#
# Convention : Reuss Voigt Hill
#
# Bulk Modulus (GPa) = 25.37075 45.86075 35.61575
# Shear Modulus (GPa) = 23.91547 39.84494 31.88020
#
# Velocity S-wave (km/s) = 3.02213 3.90086 3.48927
# Velocity P-wave (km/s) = 4.67619 6.14843 5.46214
#
# Compressibility (1/GPa) = 0.03941547
#
# Stress axis : x y z
#
# Youngs Moduli (GPa) = 22.43531 55.87323 130.35329
#
# Poissons Ratio (x) = 0.48526 1.08704
# Poissons Ratio (y) = 0.19485 -0.21652
# Poissons Ratio (z) = 0.18709 -0.09280
#
# Static dielectric constant tensor:
#      x y z
#    x 2.080590 0.023720 0.038530 
#    y 0.023720 2.141750 0.035430 
#    z 0.038530 0.035430 2.101650 
# 
# From -- ./inp_files/313733.got.cif
#   From: 2010.05.17/outbox.cif.g08.bks.cpg/sg2_157_cif.got.tgz:313733.got - 2010.06.03 11:33:40.
