data_PCOD9040660
_publ_section_title
;
Structure prediction by ZEFSAII (Michael W. Deem and Ramdas Pophale) SiO2 
 PCOD9040660
Probable space group: P -1
;
_chemical_formula_sum "Si O2"
_cell_formula_units_Z 14
_cell_length_a 7.869158
_cell_length_b 14.130056
_cell_length_c 14.547354
_cell_angle_alpha 28.353781
_cell_angle_beta 106.229258
_cell_angle_gamma 123.164926
_cell_volume 553.914720
_symmetry_space_group_name_H-M "P -1"
_symmetry_group_IT_number 2
_symmetry_cell_setting 'triclinic'
loop_
_space_group_symop_operation_xyz
x,y,z
-x,-y,-z
loop_
_atom_site_type_symbol
_atom_site_label
_atom_site_fract_x
_atom_site_fract_y
_atom_site_fract_z
Si Si1 0.279373 0.851057 0.283050
Si Si2 0.114699 0.709996 0.591968
Si Si3 0.221934 0.758263 0.157816
Si Si4 0.797164 0.744473 0.058365
Si Si5 0.855844 0.830573 0.776300
Si Si6 0.602848 0.876668 0.422848
Si Si7 0.760572 0.354364 0.145046
O O1 0.189825 0.755115 0.457177
O O2 0.183816 0.667899 0.335605
O O3 0.535518 0.940458 0.263794
O O4 0.248878 0.064405 0.075591
O O5 0.189055 0.617260 0.763470
O O6 0.841346 0.453740 0.747800
O O7 0.183902 0.971298 0.423329
O O8 0.039142 0.807503 0.070195
O O9 0.500000 0.000000 0.000000
O O10 0.578259 0.437482 0.314934
O O11 0.821928 0.797628 0.908203
O O12 0.701694 0.540524 0.955185
O O13 0.129709 0.997993 0.649982
O O14 0.599030 0.052849 0.347114
O O15 0.000000 0.500000 0.000000
#
# Coordination Sequence:
#
# PCOD9040660 Si02
#       7
#     2   2   2   2   2   2   2
#     4  11  25  44  68 101 139 178 229 282 339 407
#     4  11  24  45  69  99 141 179 230 281 343 404
#     4  12  25  45  73  97 139 182 227 286 343 403
#     4  11  24  45  68 103 141 174 233 279 341 413
#     4  10  23  43  68 103 137 180 228 278 339 411
#     4  11  24  42  72  98 141 180 227 280 346 398
#     4  10  23  43  71 101 141 177 228 283 338 406
#
# _framework density 25.274647000000002
#
# number of rings (size 3 to 8) (size 9 to 14) (size 15 to 20)
#    0.000    1.143    2.857    1.714    4.000    5.714 
#    0.000    5.000    0.000    0.000    0.000    0.000 
#    0.000    0.000    0.000    0.000    0.000    0.000 
#
# Total GULP energy -78066.718493 kJ/mol
# GULP energy per Si atom -5576.194178 kJ/mol
# Density = 2.521712 g / cm^3
# Si number density = 25.274647 Si / 1000 Ang^3
#
#
#
# Elastic Constant Matrix: (Units=GPa)
#
#
# Indices 1 2 3 4 5 6 
#
# 1 79.8447 0.7019 11.6207 10.0184 2.0630 6.5379
# 2 0.7019 128.9617 20.9735 -7.5033 -3.5280 10.4958
# 3 11.6207 20.9735 98.8924 -1.3834 -9.2260 4.5238
# 4 10.0184 -7.5033 -1.3834 26.4498 -4.4915 7.7666
# 5 2.0630 -3.5280 -9.2260 -4.4915 56.2843 -4.2768
# 6 6.5379 10.4958 4.5238 7.7666 -4.2768 31.3577
#
#
#
# Elastic Compliance Matrix: (Units=1/GPa)
#
#
# Indices 1 2 3 4 5 6 
#
# 1 0.013559 0.000003 -0.001715 -0.004998 -0.001292 -0.001519
# 2 0.000003 0.008492 -0.001571 0.003377 0.000285 -0.003414
# 3 -0.001715 -0.001571 0.010867 0.001300 0.001791 -0.000762
# 4 -0.004998 0.003377 0.001300 0.044474 0.003334 -0.010836
# 5 -0.001292 0.000285 0.001791 0.003334 0.018515 0.001615
# 6 -0.001519 -0.003414 -0.000762 -0.010836 0.001615 0.036363
#
#
# Mechanical properties :
#
#
# Convention : Reuss Voigt Hill
#
# Bulk Modulus (GPa) = 37.95018 41.58788 39.76903
# Shear Modulus (GPa) = 33.87065 41.11189 37.49127
#
# Velocity S-wave (km/s) = 3.66471 4.03750 3.85561
# Velocity P-wave (km/s) = 5.74061 6.18266 5.96573
#
# Compressibility (1/GPa) = 0.02635034
#
# Stress axis : x y z
#
# Youngs Moduli (GPa) = 73.75320 117.76004 92.02224
#
# Poissons Ratio (x) = -0.00030 0.15780
# Poissons Ratio (y) = -0.00019 0.14460
# Poissons Ratio (z) = 0.12647 0.18504
#
# Static dielectric constant tensor:
#      x y z
#    x 2.150540 0.031380 -0.117430 
#    y 0.031380 1.959350 -0.104070 
#    z -0.117430 -0.104070 2.181720 
# 
# From -- ./inp_files/505107.got.cif
#   From: 2010.05.17/outbox.cif.g08.bks.cpg/sg2_253_cif.got.tgz:505107.got - 2010.06.03 11:33:40.
