data_PCOD9040187
_publ_section_title
;
Structure prediction by ZEFSAII (Michael W. Deem and Ramdas Pophale) SiO2 
 PCOD9040187
Probable space group: P -1
;
_chemical_formula_sum "Si O2"
_cell_formula_units_Z 16
_cell_length_a 17.077174
_cell_length_b 10.851515
_cell_length_c 14.333083
_cell_angle_alpha 148.967580
_cell_angle_beta 147.099516
_cell_angle_gamma 54.096929
_cell_volume 654.479730
_symmetry_space_group_name_H-M "P -1"
_symmetry_group_IT_number 2
_symmetry_cell_setting 'triclinic'
loop_
_space_group_symop_operation_xyz
x,y,z
-x,-y,-z
loop_
_atom_site_type_symbol
_atom_site_label
_atom_site_fract_x
_atom_site_fract_y
_atom_site_fract_z
Si Si1 0.821440 0.554620 0.610526
Si Si2 0.906415 0.923830 0.691025
Si Si3 0.125606 0.769414 0.698621
Si Si4 0.608676 0.712596 0.398426
Si Si5 0.167878 0.172966 0.835613
Si Si6 0.604027 0.130742 0.809512
Si Si7 0.659606 0.054913 0.249049
Si Si8 0.280615 0.791949 0.385054
O O1 0.905752 0.479886 0.561318
O O2 0.645768 0.520381 0.379191
O O3 0.796700 0.344188 0.531490
O O4 0.935453 0.861049 0.954401
O O5 0.854423 0.108161 0.695910
O O6 0.749776 0.775377 0.504133
O O7 0.966889 0.745401 0.577131
O O8 0.179068 0.020531 0.841950
O O9 0.265702 0.809165 0.938852
O O10 0.643136 0.976283 0.665667
O O11 0.436995 0.639603 0.127751
O O12 0.295477 0.173862 0.887910
O O13 0.200401 0.470316 0.087051
O O14 0.000000 0.000000 0.500000
O O15 0.426048 0.925564 0.541856
O O16 0.640909 0.095398 0.363866
O O17 0.500000 0.000000 0.000000
#
# Coordination Sequence:
#
# PCOD9040187 Si02
#       8
#     2   2   2   2   2   2   2   2
#     4  11  23  40  67  93 128 167 206 267 324 369
#     4  11  23  42  66  93 126 168 218 261 315 382
#     4  11  23  39  65  96 127 162 217 260 316 385
#     4  10  23  44  65  89 129 166 216 268 313 373
#     4  11  24  41  63  99 135 166 212 264 316 393
#     4  10  23  43  64  94 125 168 217 265 312 385
#     4  11  25  41  64 100 132 165 216 263 315 392
#     4  11  23  41  68  92 130 177 206 260 334 372
#
# _framework density 24.446899999999999
#
# number of rings (size 3 to 8) (size 9 to 14) (size 15 to 20)
#    0.000    1.250    1.250    4.875    1.750    3.500 
#    0.000    0.000    0.000    0.000    0.000    0.000 
#    0.000    0.000    0.000    0.000    0.000    0.000 
#
# Total GULP energy -89569.986821 kJ/mol
# GULP energy per Si atom -5598.124176 kJ/mol
# Density = 2.439126 g / cm^3
# Si number density = 24.446900 Si / 1000 Ang^3
#
#
#
# Elastic Constant Matrix: (Units=GPa)
#
#
# Indices 1 2 3 4 5 6 
#
# 1 116.6230 18.4439 18.0745 2.6156 -13.7642 -23.8426
# 2 18.4439 137.9672 36.3671 -9.1075 -6.7236 -14.1509
# 3 18.0745 36.3671 77.4567 -20.3330 -11.8055 -2.7385
# 4 2.6156 -9.1075 -20.3330 31.3450 -3.0894 0.3109
# 5 -13.7642 -6.7236 -11.8055 -3.0894 31.5079 -7.0174
# 6 -23.8426 -14.1509 -2.7385 0.3109 -7.0174 49.4947
#
#
#
# Elastic Compliance Matrix: (Units=1/GPa)
#
#
# Indices 1 2 3 4 5 6 
#
# 1 0.010701 -0.000218 -0.001884 -0.001740 0.005024 0.005711
# 2 -0.000218 0.008537 -0.003707 0.000156 0.000854 0.002251
# 3 -0.001884 -0.003707 0.019368 0.012319 0.006851 -0.000002
# 4 -0.001740 0.000156 0.012319 0.040873 0.008070 0.000776
# 5 0.005024 0.000854 0.006851 0.008070 0.039383 0.008576
# 6 0.005711 0.002251 -0.000002 0.000776 0.008576 0.024810
#
#
# Mechanical properties :
#
#
# Convention : Reuss Voigt Hill
#
# Bulk Modulus (GPa) = 37.05190 53.09090 45.07140
# Shear Modulus (GPa) = 30.43487 39.74693 35.09090
#
# Velocity S-wave (km/s) = 3.53220 4.03655 3.79277
# Velocity P-wave (km/s) = 5.64129 6.59462 6.13650
#
# Compressibility (1/GPa) = 0.02698917
#
# Stress axis : x y z
#
# Youngs Moduli (GPa) = 93.45243 117.13589 51.63060
#
# Poissons Ratio (x) = 0.02556 0.09725
# Poissons Ratio (y) = 0.02039 0.19137
# Poissons Ratio (z) = 0.17603 0.43418
#
# Static dielectric constant tensor:
#      x y z
#    x 1.915520 0.065130 0.039680 
#    y 0.065130 2.000540 -0.006160 
#    z 0.039680 -0.006160 1.914270 
# 
# From -- ./inp_files/273393.got.cif
#   From: 2010.05.17/outbox.cif.g08.bks.cpg/sg2_137_cif.got.tgz:273393.got - 2010.06.03 11:33:40.
