data_PCOD9040981
_publ_section_title
;
Structure prediction by ZEFSAII (Michael W. Deem and Ramdas Pophale) SiO2 
 PCOD9040981
Probable space group: P -1
;
_chemical_formula_sum "Si O2"
_cell_formula_units_Z 10
_cell_length_a 11.836544
_cell_length_b 7.134594
_cell_length_c 5.606650
_cell_angle_alpha 106.548794
_cell_angle_beta 120.101924
_cell_angle_gamma 91.446127
_cell_volume 384.502251
_symmetry_space_group_name_H-M "P -1"
_symmetry_group_IT_number 2
_symmetry_cell_setting 'triclinic'
loop_
_space_group_symop_operation_xyz
x,y,z
-x,-y,-z
loop_
_atom_site_type_symbol
_atom_site_label
_atom_site_fract_x
_atom_site_fract_y
_atom_site_fract_z
Si Si1 0.943129 0.632598 0.295314
Si Si2 0.491889 0.762455 0.877945
Si Si3 0.198380 0.572048 0.324210
Si Si4 0.871898 0.875211 0.693510
Si Si5 0.590874 0.838000 0.510845
O O1 0.075731 0.683436 0.289193
O O2 0.000000 0.500000 0.500000
O O3 0.897922 0.822321 0.429090
O O4 0.818820 0.482052 0.991577
O O5 0.339180 0.670854 0.616577
O O6 0.576971 0.732683 0.718660
O O7 0.542233 0.709511 0.174507
O O8 0.500000 0.000000 0.000000
O O9 0.162863 0.347746 0.311533
O O10 0.739589 0.952434 0.645928
O O11 0.000000 0.000000 0.000000
O O12 0.500000 0.000000 0.500000
#
# Coordination Sequence:
#
# PCOD9040981 Si02
#       5
#     2   2   2   2   2
#     4   9  22  42  68 100 137 179 236 290 356 418
#     4  10  24  43  73  97 142 185 238 284 358 421
#     4  10  23  43  70 101 138 188 233 294 354 425
#     4  11  26  43  71 101 141 184 241 295 351 422
#     4  10  25  45  69 103 140 189 235 292 353 421
#
# _framework density 26.007649000000001
#
# number of rings (size 3 to 8) (size 9 to 14) (size 15 to 20)
#    0.000    2.000    0.000    0.000   14.000   10.400 
#    0.000    0.000    0.000    0.000    0.000    0.000 
#    0.000    0.000    0.000    0.000    0.000    0.000 
#
# Total GULP energy -55898.953120 kJ/mol
# GULP energy per Si atom -5589.895312 kJ/mol
# Density = 2.594845 g / cm^3
# Si number density = 26.007649 Si / 1000 Ang^3
#
#
#
# Elastic Constant Matrix: (Units=GPa)
#
#
# Indices 1 2 3 4 5 6 
#
# 1 196.2471 19.7071 106.4846 15.3472 13.2167 -15.7149
# 2 19.7071 45.9275 23.2104 9.5377 3.7688 -0.0513
# 3 106.4846 23.2104 259.0247 12.6479 17.8196 20.7217
# 4 15.3472 9.5377 12.6479 52.6562 14.6703 2.4283
# 5 13.2167 3.7688 17.8196 14.6703 65.5865 -1.3662
# 6 -15.7149 -0.0513 20.7217 2.4283 -1.3662 37.5595
#
#
#
# Elastic Compliance Matrix: (Units=1/GPa)
#
#
# Indices 1 2 3 4 5 6 
#
# 1 0.007545 -0.001259 -0.003318 -0.001370 -0.000134 0.005069
# 2 -0.001259 0.023816 -0.001492 -0.003648 0.000118 0.000569
# 3 -0.003318 -0.001492 0.005781 0.000338 -0.000988 -0.004638
# 4 -0.001370 -0.003648 0.000338 0.021308 -0.004420 -0.002303
# 5 -0.000134 0.000118 -0.000988 -0.004420 0.016553 0.001377
# 6 0.005069 0.000569 -0.004638 -0.002303 0.001377 0.031504
#
#
# Mechanical properties :
#
#
# Convention : Reuss Voigt Hill
#
# Bulk Modulus (GPa) = 39.99507 88.88928 64.44217
# Shear Modulus (GPa) = 39.37644 54.61359 46.99502
#
# Velocity S-wave (km/s) = 3.89528 4.58744 4.25546
# Velocity P-wave (km/s) = 5.97014 7.89379 6.99837
#
# Compressibility (1/GPa) = 0.02500308
#
# Stress axis : x y z
#
# Youngs Moduli (GPa) = 132.54428 41.98823 172.98339
#
# Poissons Ratio (x) = 0.05287 0.57398
# Poissons Ratio (y) = 0.16690 0.25809
# Poissons Ratio (z) = 0.43980 0.06265
#
# Static dielectric constant tensor:
#      x y z
#    x 2.176380 0.030990 -0.141200 
#    y 0.030990 1.755690 -0.082370 
#    z -0.141200 -0.082370 2.090280 
# 
# From -- ./inp_files/15886.got.cif
#   From: 2010.05.17/outbox.cif.g08.bks.cpg/sg2_8_cif.got.tgz:15886.got - 2010.06.03 11:33:40.
