data_PCOD9040140
_publ_section_title
;
Structure prediction by ZEFSAII (Michael W. Deem and Ramdas Pophale) SiO2 
 PCOD9040140
Probable space group: P -1
;
_chemical_formula_sum "Si O2"
_cell_formula_units_Z 16
_cell_length_a 6.975345
_cell_length_b 5.890114
_cell_length_c 27.521564
_cell_angle_alpha 100.385969
_cell_angle_beta 135.329785
_cell_angle_gamma 89.032484
_cell_volume 771.715000
_symmetry_space_group_name_H-M "P -1"
_symmetry_group_IT_number 2
_symmetry_cell_setting 'triclinic'
loop_
_space_group_symop_operation_xyz
x,y,z
-x,-y,-z
loop_
_atom_site_type_symbol
_atom_site_label
_atom_site_fract_x
_atom_site_fract_y
_atom_site_fract_z
Si Si1 0.566628 0.993444 0.454823
Si Si2 0.008625 0.980376 0.686900
Si Si3 0.143207 0.913001 0.069023
Si Si4 0.813712 0.598552 0.072690
Si Si5 0.354845 0.383603 0.161915
Si Si6 0.868942 0.659400 0.445762
Si Si7 0.781629 0.524918 0.315806
Si Si8 0.684819 0.719188 0.160209
O O1 0.616432 0.749244 0.431040
O O2 0.321915 0.074810 0.382701
O O3 0.500000 0.000000 0.500000
O O4 0.868854 0.143804 0.510983
O O5 0.089396 0.215717 0.674427
O O6 0.131603 0.088040 0.764814
O O7 0.107388 0.724450 0.686039
O O8 0.380716 0.768118 0.090944
O O9 0.907191 0.797877 0.057982
O O10 0.323340 0.110361 0.141367
O O11 0.000000 0.000000 0.000000
O O12 0.833562 0.674313 0.135465
O O13 0.048882 0.438449 0.100015
O O14 0.500000 0.500000 0.000000
O O15 0.472256 0.483764 0.237626
O O16 0.583601 0.497542 0.168446
O O17 0.785045 0.544988 0.374796
O O18 0.000000 0.500000 0.500000
#
# Coordination Sequence:
#
# PCOD9040140 Si02
#       8
#     2   2   2   2   2   2   2   2
#     4  11  24  45  69 102 141 182 234 281 348 407
#     4  11  24  45  74 101 138 191 227 290 345 417
#     4  11  22  41  67  93 131 176 219 280 344 401
#     4  11  24  41  65 100 130 174 230 283 337 417
#     4  10  23  43  64  93 134 177 217 285 342 404
#     4  11  26  43  70 105 139 187 231 291 342 416
#     4  11  24  46  73 100 144 182 235 284 352 409
#     4  10  23  43  63  96 135 172 229 277 347 403
#
# _framework density 20.733042999999999
#
# number of rings (size 3 to 8) (size 9 to 14) (size 15 to 20)
#    0.000    1.250    2.500    2.250    5.250    6.000 
#    2.250    0.000    0.000    0.000    0.000    0.000 
#    0.000    0.000    0.000    0.000    0.000    0.000 
#
# Total GULP energy -89073.478912 kJ/mol
# GULP energy per Si atom -5567.092432 kJ/mol
# Density = 2.068585 g / cm^3
# Si number density = 20.733043 Si / 1000 Ang^3
#
#
#
# Elastic Constant Matrix: (Units=GPa)
#
#
# Indices 1 2 3 4 5 6 
#
# 1 112.7480 31.7051 29.9795 -0.8512 -15.9547 -6.4696
# 2 31.7051 68.7389 9.2953 -1.3773 -6.3310 -5.9498
# 3 29.9795 9.2953 113.5581 -8.0277 -5.6216 -6.5729
# 4 -0.8512 -1.3773 -8.0277 30.4063 3.0523 -4.3225
# 5 -15.9547 -6.3310 -5.6216 3.0523 38.1329 1.8699
# 6 -6.4696 -5.9498 -6.5729 -4.3225 1.8699 15.6889
#
#
#
# Elastic Compliance Matrix: (Units=1/GPa)
#
#
# Indices 1 2 3 4 5 6 
#
# 1 0.011359 -0.004474 -0.002424 -0.000699 0.003643 0.001345
# 2 -0.004474 0.017105 0.000199 0.001351 0.000643 0.005021
# 3 -0.002424 0.000199 0.009888 0.003129 0.000026 0.004077
# 4 -0.000699 0.001351 0.003129 0.035730 -0.003043 0.011742
# 5 0.003643 0.000643 0.000026 -0.003043 0.028222 -0.002445
# 6 0.001345 0.005021 0.004077 0.011742 -0.002445 0.071433
#
#
# Mechanical properties :
#
#
# Convention : Reuss Voigt Hill
#
# Bulk Modulus (GPa) = 40.07144 48.55608 44.31376
# Shear Modulus (GPa) = 25.58153 31.78330 28.68242
#
# Velocity S-wave (km/s) = 3.51644 3.91957 3.72346
# Velocity P-wave (km/s) = 5.98802 6.62983 6.31708
#
# Compressibility (1/GPa) = 0.02495543
#
# Stress axis : x y z
#
# Youngs Moduli (GPa) = 88.03430 58.46160 101.13082
#
# Poissons Ratio (x) = 0.26153 0.24513
# Poissons Ratio (y) = 0.39383 -0.02011
# Poissons Ratio (z) = 0.21338 -0.01163
#
# Static dielectric constant tensor:
#      x y z
#    x 1.752000 -0.048240 0.013860 
#    y -0.048240 1.877630 0.015500 
#    z 0.013860 0.015500 1.745460 
# 
# From -- ./inp_files/13271.got.cif
#   From: 2010.05.17/outbox.cif.g08.bks.cpg/sg2_7_cif.got.tgz:13271.got - 2010.06.03 11:33:40.
