data_PCOD9040275
_publ_section_title
;
Structure prediction by ZEFSAII (Michael W. Deem and Ramdas Pophale) SiO2 
 PCOD9040275
Probable space group: P -1
;
_chemical_formula_sum "Si O2"
_cell_formula_units_Z 14
_cell_length_a 14.004442
_cell_length_b 6.880424
_cell_length_c 18.301869
_cell_angle_alpha 102.260806
_cell_angle_beta 33.032113
_cell_angle_gamma 126.112108
_cell_volume 596.864213
_symmetry_space_group_name_H-M "P -1"
_symmetry_group_IT_number 2
_symmetry_cell_setting 'triclinic'
loop_
_space_group_symop_operation_xyz
x,y,z
-x,-y,-z
loop_
_atom_site_type_symbol
_atom_site_label
_atom_site_fract_x
_atom_site_fract_y
_atom_site_fract_z
Si Si1 0.399025 0.195760 0.449509
Si Si2 0.656633 0.479411 0.071231
Si Si3 0.437954 0.326983 0.719384
Si Si4 0.096533 0.627751 0.864301
Si Si5 0.820085 0.823287 0.850960
Si Si6 0.853894 0.379794 0.507944
Si Si7 0.746944 0.096003 0.814237
O O1 0.474219 0.477405 0.393080
O O2 0.682400 0.338525 0.305891
O O3 0.325014 0.974894 0.414640
O O4 0.109190 0.960690 0.659458
O O5 0.778397 0.745158 0.956773
O O6 0.835045 0.435580 0.964892
O O7 0.659278 0.591100 0.155668
O O8 0.369026 0.154064 0.194576
O O9 0.682104 0.430053 0.613583
O O10 0.240570 0.970838 0.799692
O O11 0.000000 0.500000 0.000000
O O12 0.875221 0.079022 0.795337
O O13 0.500000 0.500000 0.000000
O O14 0.000000 0.500000 0.500000
O O15 0.060656 0.579380 0.323646
O O16 0.500000 0.000000 0.000000
#
# Coordination Sequence:
#
# PCOD9040275 Si02
#       7
#     2   2   2   2   2   2   2
#     4  11  23  45  67  95 141 175 220 285 331 395
#     4  11  24  42  69  96 134 185 222 273 341 398
#     4  11  24  43  68 100 138 175 226 281 333 397
#     4  11  25  44  71 102 135 175 231 281 329 394
#     4  10  23  43  65  93 135 177 216 274 338 402
#     4  11  24  36  66 101 130 174 223 277 342 395
#     4  11  24  42  64  98 138 172 223 281 334 400
#
# _framework density 23.455922999999999
#
# number of rings (size 3 to 8) (size 9 to 14) (size 15 to 20)
#    0.000    1.143    2.857    3.000    8.000    1.714 
#    0.000    0.714    0.000    0.000    0.000    0.000 
#    0.000    0.000    0.000    0.000    0.000    0.000 
#
# Total GULP energy -78105.744107 kJ/mol
# GULP energy per Si atom -5578.981722 kJ/mol
# Density = 2.340254 g / cm^3
# Si number density = 23.455923 Si / 1000 Ang^3
#
#
#
# Elastic Constant Matrix: (Units=GPa)
#
#
# Indices 1 2 3 4 5 6 
#
# 1 54.5260 -4.0806 13.9098 -14.5862 -4.7250 -10.5266
# 2 -4.0806 80.6047 20.1106 -24.5305 5.9538 -16.7949
# 3 13.9098 20.1106 117.1270 1.8156 -6.8479 -21.5458
# 4 -14.5862 -24.5305 1.8156 41.4654 -19.3293 6.3820
# 5 -4.7250 5.9538 -6.8479 -19.3293 33.7795 -2.1895
# 6 -10.5266 -16.7949 -21.5458 6.3820 -2.1895 17.5602
#
#
#
# Elastic Compliance Matrix: (Units=1/GPa)
#
#
# Indices 1 2 3 4 5 6 
#
# 1 0.031420 0.012299 -0.000939 0.022409 0.016373 0.023343
# 2 0.012299 0.023061 -0.001009 0.019157 0.009869 0.022460
# 3 -0.000939 -0.001009 0.011503 -0.002768 0.001689 0.013803
# 4 0.022409 0.019157 -0.002768 0.056765 0.032442 0.011775
# 5 0.016373 0.009869 0.001689 0.032442 0.050084 0.015781
# 6 0.023343 0.022460 0.013803 0.011775 0.015781 0.107045
#
#
# Mechanical properties :
#
#
# Convention : Reuss Voigt Hill
#
# Bulk Modulus (GPa) = 11.53578 34.68193 23.10886
# Shear Modulus (GPa) = 17.35682 33.38220 25.36951
#
# Velocity S-wave (km/s) = 2.72320 3.77661 3.29231
# Velocity P-wave (km/s) = 3.84922 5.81680 4.93212
#
# Compressibility (1/GPa) = 0.08668681
#
# Stress axis : x y z
#
# Youngs Moduli (GPa) = 31.82696 43.36248 86.93236
#
# Poissons Ratio (x) = -0.53332 0.08166
# Poissons Ratio (y) = -0.39144 0.08769
# Poissons Ratio (z) = 0.02989 0.04374
#
# Static dielectric constant tensor:
#      x y z
#    x 1.853410 0.013330 -0.090370 
#    y 0.013330 1.873220 0.001630 
#    z -0.090370 0.001630 2.013800 
# 
# From -- ./inp_files/332088.got.cif
#   From: 2010.05.17/outbox.cif.g08.bks.cpg/sg2_167_cif.got.tgz:332088.got - 2010.06.03 11:33:40.
