data_PCOD9040329
_publ_section_title
;
Structure prediction by ZEFSAII (Michael W. Deem and Ramdas Pophale) SiO2 
 PCOD9040329
Probable space group: P -1
;
_chemical_formula_sum "Si O2"
_cell_formula_units_Z 14
_cell_length_a 13.744187
_cell_length_b 9.318466
_cell_length_c 5.244327
_cell_angle_alpha 93.118195
_cell_angle_beta 112.690023
_cell_angle_gamma 76.661265
_cell_volume 602.517345
_symmetry_space_group_name_H-M "P -1"
_symmetry_group_IT_number 2
_symmetry_cell_setting 'triclinic'
loop_
_space_group_symop_operation_xyz
x,y,z
-x,-y,-z
loop_
_atom_site_type_symbol
_atom_site_label
_atom_site_fract_x
_atom_site_fract_y
_atom_site_fract_z
Si Si1 0.448218 0.089430 0.209093
Si Si2 0.018926 0.134031 0.865113
Si Si3 0.885515 0.683979 0.626895
Si Si4 0.766373 0.942382 0.213155
Si Si5 0.111369 0.633942 0.543020
Si Si6 0.437088 0.652397 0.567177
Si Si7 0.307744 0.722003 0.928769
O O1 0.481977 0.244137 0.270255
O O2 0.500000 0.000000 0.500000
O O3 0.319168 0.107117 0.066247
O O4 0.500000 0.000000 0.000000
O O5 0.906890 0.228073 0.653483
O O6 0.790357 0.817893 0.443931
O O7 0.071779 0.256163 0.068513
O O8 0.000000 0.000000 0.000000
O O9 0.887679 0.938951 0.242838
O O10 0.857105 0.524782 0.576391
O O11 0.992632 0.657749 0.552120
O O12 0.714456 0.115138 0.206286
O O13 0.200147 0.659185 0.834535
O O14 0.500000 0.500000 0.500000
O O15 0.378898 0.626888 0.769517
O O16 0.359698 0.725322 0.260060
#
# Coordination Sequence:
#
# PCOD9040329 Si02
#       7
#     2   2   2   2   2   2   2
#     4  12  25  47  73 102 142 185 239 302 350 423
#     4  11  23  40  70 103 143 179 235 290 349 438
#     4  10  23  43  65  98 145 176 239 285 356 430
#     4  11  25  41  70 102 134 187 237 284 365 410
#     4  10  24  42  65 101 140 187 226 294 356 427
#     4  12  28  49  71 105 144 185 241 301 363 426
#     4  12  26  46  74 104 139 187 238 295 360 429
#
# _framework density 23.235845000000001
#
# number of rings (size 3 to 8) (size 9 to 14) (size 15 to 20)
#    0.000    0.857    2.857    2.571   10.000    3.429 
#    0.000    0.000    0.000    0.000    0.000    0.000 
#    0.000    0.000    0.000    0.000    0.000    0.000 
#
# Total GULP energy -78236.817982 kJ/mol
# GULP energy per Si atom -5588.344142 kJ/mol
# Density = 2.318296 g / cm^3
# Si number density = 23.235845 Si / 1000 Ang^3
#
#
#
# Elastic Constant Matrix: (Units=GPa)
#
#
# Indices 1 2 3 4 5 6 
#
# 1 41.6669 15.3072 20.1072 -3.6955 3.7055 8.7195
# 2 15.3072 109.6474 14.7547 22.6175 9.5350 4.6703
# 3 20.1072 14.7547 99.6790 16.1990 14.0427 4.6791
# 4 -3.6955 22.6175 16.1990 35.5908 3.7746 2.7691
# 5 3.7055 9.5350 14.0427 3.7746 41.4645 12.1909
# 6 8.7195 4.6703 4.6791 2.7691 12.1909 30.9112
#
#
#
# Elastic Compliance Matrix: (Units=1/GPa)
#
#
# Indices 1 2 3 4 5 6 
#
# 1 0.032196 -0.005539 -0.007341 0.010638 0.002592 -0.009109
# 2 -0.005539 0.011597 0.000984 -0.008264 -0.002116 0.001236
# 3 -0.007341 0.000984 0.012967 -0.007037 -0.003953 0.002149
# 4 0.010638 -0.008264 -0.007037 0.037882 0.001226 -0.004564
# 5 0.002592 -0.002116 -0.003953 0.001226 0.028931 -0.011333
# 6 -0.009109 0.001236 0.002149 -0.004564 -0.011333 0.039287
#
#
# Mechanical properties :
#
#
# Convention : Reuss Voigt Hill
#
# Bulk Modulus (GPa) = 30.33198 39.03683 34.68441
# Shear Modulus (GPa) = 25.29829 34.98158 30.13993
#
# Velocity S-wave (km/s) = 3.30322 3.88429 3.60548
# Velocity P-wave (km/s) = 5.25648 6.07895 5.68262
#
# Compressibility (1/GPa) = 0.03296851
#
# Stress axis : x y z
#
# Youngs Moduli (GPa) = 31.05929 86.22858 77.11823
#
# Poissons Ratio (x) = 0.47759 0.56614
# Poissons Ratio (y) = 0.17203 -0.07587
# Poissons Ratio (z) = 0.22801 -0.08483
#
# Static dielectric constant tensor:
#      x y z
#    x 1.939410 -0.014420 -0.029850 
#    y -0.014420 1.868830 -0.017250 
#    z -0.029850 -0.017250 1.931310 
# 
# From -- ./inp_files/107025.got.cif
#   From: 2010.05.17/outbox.cif.g08.bks.cpg/sg2_54_cif.got.tgz:107025.got - 2010.06.03 11:33:40.
