data_PCOD9040435
_publ_section_title
;
Structure prediction by ZEFSAII (Michael W. Deem and Ramdas Pophale) SiO2 
 PCOD9040435
Probable space group: P -1
;
_chemical_formula_sum "Si O2"
_cell_formula_units_Z 14
_cell_length_a 10.875661
_cell_length_b 24.457666
_cell_length_c 5.952581
_cell_angle_alpha 60.756829
_cell_angle_beta 43.009175
_cell_angle_gamma 33.349273
_cell_volume 561.259912
_symmetry_space_group_name_H-M "P -1"
_symmetry_group_IT_number 2
_symmetry_cell_setting 'triclinic'
loop_
_space_group_symop_operation_xyz
x,y,z
-x,-y,-z
loop_
_atom_site_type_symbol
_atom_site_label
_atom_site_fract_x
_atom_site_fract_y
_atom_site_fract_z
Si Si1 0.121352 0.533161 0.689829
Si Si2 0.897910 0.214483 0.478664
Si Si3 0.623524 0.676570 0.734153
Si Si4 0.648953 0.121037 0.226930
Si Si5 0.416556 0.996827 0.366531
Si Si6 0.320708 0.664820 0.863718
Si Si7 0.116772 0.274399 0.308086
O O1 0.482579 0.431330 0.378250
O O2 0.956984 0.593353 0.549403
O O3 0.001179 0.624921 0.815184
O O4 0.000000 0.500000 0.000000
O O5 0.874836 0.227475 0.218531
O O6 0.067470 0.229985 0.299332
O O7 0.564312 0.299830 0.851542
O O8 0.061299 0.111154 0.586991
O O9 0.462906 0.787473 0.666972
O O10 0.574245 0.636147 0.703479
O O11 0.501696 0.098117 0.557241
O O12 0.464524 0.182242 0.114745
O O13 0.000000 0.000000 0.000000
O O14 0.500000 0.000000 0.500000
O O15 0.500000 0.000000 0.000000
O O16 0.110319 0.683849 0.269780
#
# Coordination Sequence:
#
# PCOD9040435 Si02
#       7
#     2   2   2   2   2   2   2
#     4  11  22  44  66  98 133 177 223 289 356 411
#     4  11  22  42  69  96 136 180 229 284 343 424
#     4  10  23  43  66  99 138 172 232 287 347 418
#     4  11  22  44  70 100 138 180 228 292 358 417
#     4  12  26  47  73 104 144 192 241 290 358 429
#     4  11  23  44  68  94 132 184 226 285 349 419
#     4  10  24  43  66  96 134 173 233 279 345 432
#
# _framework density 24.943878999999999
#
# number of rings (size 3 to 8) (size 9 to 14) (size 15 to 20)
#    0.000    1.143    4.286    1.714    2.000    0.571 
#   12.857    1.429    0.000    0.000    0.000    0.000 
#    0.000    0.000    0.000    0.000    0.000    0.000 
#
# Total GULP energy -78063.673823 kJ/mol
# GULP energy per Si atom -5575.976702 kJ/mol
# Density = 2.488711 g / cm^3
# Si number density = 24.943879 Si / 1000 Ang^3
#
#
#
# Elastic Constant Matrix: (Units=GPa)
#
#
# Indices 1 2 3 4 5 6 
#
# 1 62.9822 23.5804 7.1810 -1.0410 -12.1870 11.3056
# 2 23.5804 150.9400 21.8461 -6.3280 -7.6026 12.9235
# 3 7.1810 21.8461 64.7403 0.1773 12.3452 9.5940
# 4 -1.0410 -6.3280 0.1773 38.9532 -1.1812 -19.0503
# 5 -12.1870 -7.6026 12.3452 -1.1812 22.6092 -7.3122
# 6 11.3056 12.9235 9.5940 -19.0503 -7.3122 46.3381
#
#
#
# Elastic Compliance Matrix: (Units=1/GPa)
#
#
# Indices 1 2 3 4 5 6 
#
# 1 0.019427 -0.001845 -0.003345 -0.000385 0.011027 -0.001951
# 2 -0.001845 0.007560 -0.002966 0.001288 0.003233 -0.000005
# 3 -0.003345 -0.002966 0.021169 -0.004800 -0.017002 -0.007396
# 4 -0.000385 0.001288 -0.004800 0.034189 0.009921 0.016350
# 5 0.011027 0.003233 -0.017002 0.009921 0.065712 0.014376
# 6 -0.001951 -0.000005 -0.007396 0.016350 0.014376 0.032579
#
#
# Mechanical properties :
#
#
# Convention : Reuss Voigt Hill
#
# Bulk Modulus (GPa) = 31.40122 42.65308 37.02715
# Shear Modulus (GPa) = 24.08912 36.65044 30.36978
#
# Velocity S-wave (km/s) = 3.11100 3.83732 3.49309
# Velocity P-wave (km/s) = 5.05178 6.06384 5.58080
#
# Compressibility (1/GPa) = 0.03184590
#
# Stress axis : x y z
#
# Youngs Moduli (GPa) = 51.47479 132.27891 47.23792
#
# Poissons Ratio (x) = 0.24399 0.15801
# Poissons Ratio (y) = 0.09495 0.14010
# Poissons Ratio (z) = 0.17218 0.39230
#
# Static dielectric constant tensor:
#      x y z
#    x 2.021040 -0.048250 -0.005700 
#    y -0.048250 2.125360 0.110010 
#    z -0.005700 0.110010 2.127980 
# 
# From -- ./inp_files/45526.got.cif
#   From: 2010.05.17/outbox.cif.g08.bks.cpg/sg2_23_cif.got.tgz:45526.got - 2010.06.03 11:33:40.
