data_PCOD9040411
_publ_section_title
;
Structure prediction by ZEFSAII (Michael W. Deem and Ramdas Pophale) SiO2 
 PCOD9040411
Probable space group: P -1
;
_chemical_formula_sum "Si O2"
_cell_formula_units_Z 16
_cell_length_a 17.151073
_cell_length_b 7.263634
_cell_length_c 6.939430
_cell_angle_alpha 86.930492
_cell_angle_beta 103.206473
_cell_angle_gamma 53.505975
_cell_volume 656.498354
_symmetry_space_group_name_H-M "P -1"
_symmetry_group_IT_number 2
_symmetry_cell_setting 'triclinic'
loop_
_space_group_symop_operation_xyz
x,y,z
-x,-y,-z
loop_
_atom_site_type_symbol
_atom_site_label
_atom_site_fract_x
_atom_site_fract_y
_atom_site_fract_z
Si Si1 0.216092 0.973666 0.811790
Si Si2 0.423465 0.479743 0.077332
Si Si3 0.501517 0.218838 0.527246
Si Si4 0.871980 0.255952 0.355155
Si Si5 0.362027 0.301483 0.766991
Si Si6 0.710915 0.922007 0.520471
Si Si7 0.121747 0.283576 0.089745
Si Si8 0.954002 0.972070 0.788060
O O1 0.129050 0.945553 0.731369
O O2 0.247689 0.990274 0.614229
O O3 0.313434 0.734444 0.976766
O O4 0.173936 0.194345 0.914316
O O5 0.458194 0.399364 0.317498
O O6 0.500000 0.500000 0.000000
O O7 0.417381 0.278763 0.997500
O O8 0.423222 0.347504 0.652838
O O9 0.500000 0.000000 0.500000
O O10 0.621550 0.099169 0.612827
O O11 0.756268 0.484401 0.273204
O O12 0.953296 0.249292 0.274070
O O13 0.903984 0.184691 0.597627
O O14 0.348722 0.127603 0.660570
O O15 0.806487 0.712024 0.715809
O O16 0.124194 0.070610 0.184783
O O17 0.000000 0.500000 0.000000
O O18 0.000000 0.000000 0.000000
#
# Coordination Sequence:
#
# PCOD9040411 Si02
#       8
#     2   2   2   2   2   2   2   2
#     4  11  24  45  68 101 137 181 231 290 343 414
#     4  11  24  44  74 106 138 185 236 280 347 420
#     4  10  24  45  70 106 144 184 226 278 354 424
#     4  10  23  43  66  96 132 176 227 289 343 407
#     4  10  26  42  71 101 141 185 226 279 353 417
#     4  11  25  46  66  99 146 180 229 290 349 418
#     4  12  29  44  69 100 134 185 238 290 355 412
#     4  11  23  42  67  93 133 173 232 286 345 407
#
# _framework density 24.371728000000001
#
# number of rings (size 3 to 8) (size 9 to 14) (size 15 to 20)
#    0.000    1.250    3.750    0.000    7.000    5.000 
#    2.250    0.000    0.000    0.000    0.000    0.000 
#    0.000    0.000    0.000    0.000    0.000    0.000 
#
# Total GULP energy -89333.354556 kJ/mol
# GULP energy per Si atom -5583.334660 kJ/mol
# Density = 2.431626 g / cm^3
# Si number density = 24.371728 Si / 1000 Ang^3
#
#
#
# Elastic Constant Matrix: (Units=GPa)
#
#
# Indices 1 2 3 4 5 6 
#
# 1 82.0514 5.6292 16.8501 0.5154 -3.8280 -15.2537
# 2 5.6292 49.4025 -3.1062 -0.3574 9.7120 -7.9680
# 3 16.8501 -3.1062 86.9387 -7.3507 13.5467 -2.3973
# 4 0.5154 -0.3574 -7.3507 25.6248 -7.3471 6.2672
# 5 -3.8280 9.7120 13.5467 -7.3471 52.5341 6.7402
# 6 -15.2537 -7.9680 -2.3973 6.2672 6.7402 39.8637
#
#
#
# Elastic Compliance Matrix: (Units=1/GPa)
#
#
# Indices 1 2 3 4 5 6 
#
# 1 0.013869 -0.001171 -0.002929 -0.002070 0.001046 0.005045
# 2 -0.001171 0.022485 0.001896 -0.002095 -0.005724 0.005457
# 3 -0.002929 0.001896 0.012926 0.002727 -0.003542 0.000206
# 4 -0.002070 -0.002095 0.002727 0.044019 0.006860 -0.009127
# 5 0.001046 -0.005724 -0.003542 0.006860 0.022798 -0.005890
# 6 0.005045 0.005457 0.000206 -0.009127 -0.005890 0.030550
#
#
# Mechanical properties :
#
#
# Convention : Reuss Voigt Hill
#
# Bulk Modulus (GPa) = 22.28599 28.57099 25.42849
# Shear Modulus (GPa) = 30.11827 36.87250 33.49538
#
# Velocity S-wave (km/s) = 3.51919 3.89385 3.71125
# Velocity P-wave (km/s) = 5.06725 5.65372 5.36850
#
# Compressibility (1/GPa) = 0.04487123
#
# Stress axis : x y z
#
# Youngs Moduli (GPa) = 72.10333 44.47437 77.36415
#
# Poissons Ratio (x) = 0.05209 0.22657
# Poissons Ratio (y) = 0.08445 -0.14665
# Poissons Ratio (z) = 0.21117 -0.08431
#
# Static dielectric constant tensor:
#      x y z
#    x 1.957420 0.034740 0.030980 
#    y 0.034740 2.053030 0.060210 
#    z 0.030980 0.060210 1.946970 
# 
# From -- ./inp_files/90069.got.cif
#   From: 2010.05.17/outbox.cif.g08.bks.cpg/sg2_46_cif.got.tgz:90069.got - 2010.06.03 11:33:40.
