data_PCOD9040914
_publ_section_title
;
Structure prediction by ZEFSAII (Michael W. Deem and Ramdas Pophale) SiO2 
 PCOD9040914
Probable space group: P -1
;
_chemical_formula_sum "Si O2"
_cell_formula_units_Z 16
_cell_length_a 22.085380
_cell_length_b 6.196076
_cell_length_c 10.458867
_cell_angle_alpha 63.425682
_cell_angle_beta 31.115789
_cell_angle_gamma 72.300510
_cell_volume 651.746611
_symmetry_space_group_name_H-M "P -1"
_symmetry_group_IT_number 2
_symmetry_cell_setting 'triclinic'
loop_
_space_group_symop_operation_xyz
x,y,z
-x,-y,-z
loop_
_atom_site_type_symbol
_atom_site_label
_atom_site_fract_x
_atom_site_fract_y
_atom_site_fract_z
Si Si1 0.336034 0.930697 0.862760
Si Si2 0.304879 0.453003 0.673986
Si Si3 0.017952 0.884908 0.693013
Si Si4 0.841531 0.847567 0.434425
Si Si5 0.372952 0.334489 0.302054
Si Si6 0.925613 0.364973 0.004911
Si Si7 0.535565 0.113097 0.620189
Si Si8 0.912075 0.271374 0.668728
O O1 0.301070 0.192081 0.817223
O O2 0.402414 0.979184 0.865030
O O3 0.413196 0.861551 0.623048
O O4 0.222666 0.718084 0.121431
O O5 0.313001 0.430431 0.511375
O O6 0.426779 0.625619 0.451916
O O7 0.187939 0.570276 0.887795
O O8 0.038532 0.802029 0.535701
O O9 0.966474 0.634778 0.925069
O O10 0.137024 0.049274 0.488111
O O11 0.920208 0.059704 0.814275
O O12 0.718957 0.702649 0.639898
O O13 0.949461 0.697134 0.257320
O O14 0.870826 0.107683 0.237553
O O15 0.401332 0.071084 0.362788
O O16 0.500000 0.500000 0.000000
O O17 0.000000 0.500000 0.500000
#
# Coordination Sequence:
#
# PCOD9040914 Si02
#       8
#     2   2   2   2   2   2   2   2
#     4  10  23  43  69  97 132 169 228 278 331 396
#     4  11  23  42  73  98 128 177 226 279 340 386
#     4  11  25  41  65 100 133 175 216 269 344 394
#     4  11  26  42  68 102 134 178 224 278 337 393
#     4  11  27  45  64  99 140 178 222 271 331 405
#     4  11  24  41  70 101 132 171 230 280 329 402
#     4  10  23  43  69  98 126 175 225 280 326 387
#     4  11  25  42  64  99 136 175 214 273 334 399
#
# _framework density 24.549417999999999
#
# number of rings (size 3 to 8) (size 9 to 14) (size 15 to 20)
#    0.000    1.250    2.500    1.500    8.750    3.500 
#    0.000    0.000    0.000    0.000    0.000    0.000 
#    0.000    0.000    0.000    0.000    0.000    0.000 
#
# Total GULP energy -89365.931405 kJ/mol
# GULP energy per Si atom -5585.370713 kJ/mol
# Density = 2.449354 g / cm^3
# Si number density = 24.549418 Si / 1000 Ang^3
#
#
#
# Elastic Constant Matrix: (Units=GPa)
#
#
# Indices 1 2 3 4 5 6 
#
# 1 150.6192 45.2433 39.6063 -9.4562 -50.0612 24.5182
# 2 45.2433 94.6866 17.9239 -14.5126 -11.4542 6.7565
# 3 39.6063 17.9239 93.0754 -10.0795 -39.6707 16.6391
# 4 -9.4562 -14.5126 -10.0795 30.5333 6.5530 -12.4692
# 5 -50.0612 -11.4542 -39.6707 6.5530 47.1706 -20.0187
# 6 24.5182 6.7565 16.6391 -12.4692 -20.0187 39.0221
#
#
#
# Elastic Compliance Matrix: (Units=1/GPa)
#
#
# Indices 1 2 3 4 5 6 
#
# 1 0.011824 -0.004497 0.001018 -0.001258 0.011901 -0.001381
# 2 -0.004497 0.013416 -0.001610 0.005697 -0.003046 0.001447
# 3 0.001018 -0.001610 0.017192 0.002308 0.015181 0.000834
# 4 -0.001258 0.005697 0.002308 0.040644 0.001731 0.012695
# 5 0.011901 -0.003046 0.015181 0.001731 0.051331 0.013463
# 6 -0.001381 0.001447 0.000834 0.012695 0.013463 0.036851
#
#
# Mechanical properties :
#
#
# Convention : Reuss Voigt Hill
#
# Bulk Modulus (GPa) = 31.00409 60.43646 45.72027
# Shear Modulus (GPa) = 26.01616 39.05239 32.53427
#
# Velocity S-wave (km/s) = 3.25891 3.99277 3.64436
# Velocity P-wave (km/s) = 5.17854 6.77702 6.03097
#
# Compressibility (1/GPa) = 0.03225381
#
# Stress axis : x y z
#
# Youngs Moduli (GPa) = 84.57543 74.53726 58.16522
#
# Poissons Ratio (x) = 0.33519 -0.05920
# Poissons Ratio (y) = 0.38033 0.09365
# Poissons Ratio (z) = -0.08608 0.12001
#
# Static dielectric constant tensor:
#      x y z
#    x 2.033180 -0.007140 -0.002930 
#    y -0.007140 1.961830 -0.003220 
#    z -0.002930 -0.003220 2.033130 
# 
# From -- ./inp_files/473361.got.cif
#   From: 2010.05.17/outbox.cif.g08.bks.cpg/sg2_237_cif.got.tgz:473361.got - 2010.06.03 11:33:40.
