data_PCOD9040907
_publ_section_title
;
Structure prediction by ZEFSAII (Michael W. Deem and Ramdas Pophale) SiO2 
 PCOD9040907
Probable space group: P -1
;
_chemical_formula_sum "Si O2"
_cell_formula_units_Z 16
_cell_length_a 17.289359
_cell_length_b 9.048111
_cell_length_c 6.399768
_cell_angle_alpha 86.597318
_cell_angle_beta 122.526750
_cell_angle_gamma 118.707722
_cell_volume 713.067919
_symmetry_space_group_name_H-M "P -1"
_symmetry_group_IT_number 2
_symmetry_cell_setting 'triclinic'
loop_
_space_group_symop_operation_xyz
x,y,z
-x,-y,-z
loop_
_atom_site_type_symbol
_atom_site_label
_atom_site_fract_x
_atom_site_fract_y
_atom_site_fract_z
Si Si1 0.064862 0.686684 0.195665
Si Si2 0.089965 0.271285 0.704179
Si Si3 0.960876 0.066871 0.133858
Si Si4 0.283596 0.862079 0.707113
Si Si5 0.459497 0.540158 0.229266
Si Si6 0.612991 0.774411 0.080021
Si Si7 0.557932 0.141317 0.382414
Si Si8 0.299609 0.642544 0.088319
O O1 0.174158 0.718473 0.450566
O O2 0.997864 0.713301 0.281106
O O3 0.000000 0.500000 0.000000
O O4 0.095609 0.839881 0.059066
O O5 0.048895 0.214796 0.410235
O O6 0.197637 0.456487 0.893074
O O7 0.101927 0.111696 0.811764
O O8 0.000000 0.000000 0.000000
O O9 0.389173 0.913198 0.717425
O O10 0.286033 0.039589 0.729293
O O11 0.289246 0.788659 0.944748
O O12 0.500000 0.500000 0.500000
O O13 0.559732 0.651312 0.213078
O O14 0.404999 0.651082 0.153646
O O15 0.369689 0.348752 0.032793
O O16 0.524666 0.807834 0.836084
O O17 0.665302 0.309571 0.625369
O O18 0.500000 0.000000 0.500000
#
# Coordination Sequence:
#
# PCOD9040907 Si02
#       8
#     2   2   2   2   2   2   2   2
#     4  11  24  44  65  99 137 170 225 282 330 393
#     4  10  23  43  69  96 133 177 221 273 332 404
#     4   9  21  44  67  91 133 174 216 280 335 383
#     4  12  26  41  68  96 129 178 220 273 331 399
#     4  11  24  42  64  94 135 171 214 277 327 391
#     4  11  24  43  63  95 130 170 220 273 329 393
#     4  12  23  43  68  94 134 172 221 274 333 397
#     4  12  24  41  68  97 129 178 221 261 340 396
#
# _framework density 22.438254000000001
#
# number of rings (size 3 to 8) (size 9 to 14) (size 15 to 20)
#    0.000    1.000    3.750    2.625    0.000    8.000 
#    0.000    0.000    0.000    0.000    0.000    0.000 
#    0.000    0.000    0.000    0.000    0.000    0.000 
#
# Total GULP energy -89296.792027 kJ/mol
# GULP energy per Si atom -5581.049502 kJ/mol
# Density = 2.238718 g / cm^3
# Si number density = 22.438254 Si / 1000 Ang^3
#
#
#
# Elastic Constant Matrix: (Units=GPa)
#
#
# Indices 1 2 3 4 5 6 
#
# 1 46.6574 -0.3741 6.3277 8.3680 -3.0163 -3.9337
# 2 -0.3741 100.5272 31.6244 22.8100 -3.3473 -6.0349
# 3 6.3277 31.6244 114.9498 12.9430 -4.3020 8.7026
# 4 8.3680 22.8100 12.9430 54.6090 -8.6821 -3.0600
# 5 -3.0163 -3.3473 -4.3020 -8.6821 23.5631 6.3409
# 6 -3.9337 -6.0349 8.7026 -3.0600 6.3409 30.9726
#
#
#
# Elastic Compliance Matrix: (Units=1/GPa)
#
#
# Indices 1 2 3 4 5 6 
#
# 1 0.022576 0.001547 -0.001485 -0.003464 0.000729 0.003095
# 2 0.001547 0.012153 -0.003208 -0.004565 -0.001222 0.003265
# 3 -0.001485 -0.003208 0.010139 -0.000742 0.002050 -0.004155
# 4 -0.003464 -0.004565 -0.000742 0.022015 0.006985 -0.000376
# 5 0.000729 -0.001222 0.002050 0.006985 0.047958 -0.009849
# 6 0.003095 0.003265 -0.004155 -0.000376 -0.009849 0.036463
#
#
# Mechanical properties :
#
#
# Convention : Reuss Voigt Hill
#
# Bulk Modulus (GPa) = 25.92232 37.47672 31.69952
# Shear Modulus (GPa) = 29.33345 36.79936 33.06640
#
# Velocity S-wave (km/s) = 3.61958 4.05412 3.84300
# Velocity P-wave (km/s) = 5.38946 6.21715 5.81804
#
# Compressibility (1/GPa) = 0.03857680
#
# Stress axis : x y z
#
# Youngs Moduli (GPa) = 44.29467 82.28097 98.63269
#
# Poissons Ratio (x) = -0.12732 0.14651
# Poissons Ratio (y) = -0.06854 0.31639
# Poissons Ratio (z) = 0.06579 0.26394
#
# Static dielectric constant tensor:
#      x y z
#    x 2.302310 0.073220 -0.327590 
#    y 0.073220 1.828540 -0.013700 
#    z -0.327590 -0.013700 2.030860 
# 
# From -- ./inp_files/106777.got.cif
#   From: 2010.05.17/outbox.cif.g08.bks.cpg/sg2_54_cif.got.tgz:106777.got - 2010.06.03 11:33:40.
