data_PCOD9040705
_publ_section_title
;
Structure prediction by ZEFSAII (Michael W. Deem and Ramdas Pophale) SiO2 
 PCOD9040705
Probable space group: P -1
;
_chemical_formula_sum "Si O2"
_cell_formula_units_Z 16
_cell_length_a 13.536841
_cell_length_b 12.720721
_cell_length_c 12.245604
_cell_angle_alpha 109.439052
_cell_angle_beta 34.056509
_cell_angle_gamma 134.485275
_cell_volume 660.957673
_symmetry_space_group_name_H-M "P -1"
_symmetry_group_IT_number 2
_symmetry_cell_setting 'triclinic'
loop_
_space_group_symop_operation_xyz
x,y,z
-x,-y,-z
loop_
_atom_site_type_symbol
_atom_site_label
_atom_site_fract_x
_atom_site_fract_y
_atom_site_fract_z
Si Si1 0.284129 0.152521 0.596438
Si Si2 0.335562 0.888338 0.952020
Si Si3 0.282021 0.067878 0.226655
Si Si4 0.127722 0.502368 0.189221
Si Si5 0.237841 0.500983 0.561143
Si Si6 0.579797 0.460839 0.263215
Si Si7 0.074163 0.860602 0.991953
Si Si8 0.224136 0.888643 0.631613
O O1 0.520508 0.303604 0.527398
O O2 0.392840 0.273844 0.433047
O O3 0.970589 0.041537 0.883760
O O4 0.265424 0.012645 0.557297
O O5 0.338351 0.934895 0.840819
O O6 0.046112 0.664550 0.158789
O O7 0.261766 0.961803 0.116067
O O8 0.592873 0.945838 0.792578
O O9 0.540979 0.283246 0.018362
O O10 0.000000 0.000000 0.500000
O O11 0.903209 0.492142 0.399816
O O12 0.955583 0.306025 0.323226
O O13 0.185229 0.486592 0.007335
O O14 0.373458 0.448845 0.389160
O O15 0.781458 0.640500 0.218498
O O16 0.037146 0.845869 0.891183
O O17 0.500000 0.000000 0.500000
#
# Coordination Sequence:
#
# PCOD9040705 Si02
#       8
#     2   2   2   2   2   2   2   2
#     4  11  19  34  57  86 124 157 186 226 293 364
#     4  10  19  37  59  86 116 145 193 254 292 337
#     4  10  22  37  59  90 113 147 200 253 300 330
#     4  10  22  37  58  86 122 154 192 241 293 350
#     4  10  17  33  56  86 115 151 183 239 286 347
#     4  10  19  33  58  91 120 148 190 236 300 352
#     4  10  20  36  57  86 119 155 194 238 296 349
#     4  11  23  37  54  90 126 160 190 226 294 366
#
# _framework density 24.207298999999999
#
# number of rings (size 3 to 8) (size 9 to 14) (size 15 to 20)
#    0.000    1.750    3.750    1.875    0.000    2.500 
#    0.000    0.000    0.000    1.500    3.250    0.000 
#    0.000    0.000    0.000    0.000    0.000    0.000 
#
# Total GULP energy -89123.735565 kJ/mol
# GULP energy per Si atom -5570.233473 kJ/mol
# Density = 2.415220 g / cm^3
# Si number density = 24.207299 Si / 1000 Ang^3
#
#
#
# Elastic Constant Matrix: (Units=GPa)
#
#
# Indices 1 2 3 4 5 6 
#
# 1 48.7775 20.1301 4.8399 11.2052 -17.2599 -15.9529
# 2 20.1301 139.6898 37.1362 -0.2205 -16.9846 -45.2210
# 3 4.8399 37.1362 58.3836 14.5090 -40.3280 -20.9915
# 4 11.2052 -0.2205 14.5090 43.5156 -8.2912 -6.2984
# 5 -17.2599 -16.9846 -40.3280 -8.2912 33.5280 7.5077
# 6 -15.9529 -45.2210 -20.9915 -6.2984 7.5077 36.6142
#
#
#
# Elastic Compliance Matrix: (Units=1/GPa)
#
#
# Indices 1 2 3 4 5 6 
#
# 1 -0.024012 0.003165 -0.090215 0.010571 -0.109019 -0.034102
# 2 0.003165 0.012437 0.004402 0.002203 0.009822 0.017628
# 3 -0.090215 0.004402 -0.154687 0.024358 -0.207261 -0.075867
# 4 0.010571 0.002203 0.024358 0.021780 0.037350 0.017379
# 5 -0.109019 0.009822 -0.207261 0.037350 -0.239278 -0.098707
# 6 -0.034102 0.017628 -0.075867 0.017379 -0.098707 0.013959
#
#
# Mechanical properties :
#
#
# Convention : Reuss Voigt Hill
#
# Bulk Modulus (GPa) = -3.01607 41.22926 19.10660
# Shear Modulus (GPa) = -15.87176 35.04787 9.58806
#
# Velocity S-wave (km/s) = -2.56336 3.80915 1.99234
# Velocity P-wave (km/s) = 3.16382 6.03448 3.63354
#
# Compressibility (1/GPa) = -0.33155777
#
# Stress axis : x y z
#
# Youngs Moduli (GPa) = -41.64646 80.40776 -6.46466
#
# Poissons Ratio (x) = -0.25453 -0.58321
# Poissons Ratio (y) = 0.13183 0.02846
# Poissons Ratio (z) = -3.75715 -0.35396
#
# Static dielectric constant tensor:
#      x y z
#    x 1.992830 -0.019760 0.044080 
#    y -0.019760 2.016100 0.006560 
#    z 0.044080 0.006560 2.221810 
# 
# From -- ./inp_files/328864.got.cif
#   From: 2010.05.17/outbox.cif.g08.bks.cpg/sg2_165_cif.got.tgz:328864.got - 2010.06.03 11:33:40.
