data_PCOD9040363
_publ_section_title
;
Structure prediction by ZEFSAII (Michael W. Deem and Ramdas Pophale) SiO2 
 PCOD9040363
Probable space group: P -1
;
_chemical_formula_sum "Si O2"
_cell_formula_units_Z 14
_cell_length_a 15.343632
_cell_length_b 19.150970
_cell_length_c 8.536157
_cell_angle_alpha 146.431841
_cell_angle_beta 33.666052
_cell_angle_gamma 151.843749
_cell_volume 606.886624
_symmetry_space_group_name_H-M "P -1"
_symmetry_group_IT_number 2
_symmetry_cell_setting 'triclinic'
loop_
_space_group_symop_operation_xyz
x,y,z
-x,-y,-z
loop_
_atom_site_type_symbol
_atom_site_label
_atom_site_fract_x
_atom_site_fract_y
_atom_site_fract_z
Si Si1 0.129200 0.488125 0.661176
Si Si2 0.558064 0.689478 0.467565
Si Si3 0.336612 0.182021 0.801229
Si Si4 0.935883 0.136529 0.263549
Si Si5 0.993904 0.857833 0.172387
Si Si6 0.441929 0.617817 0.840022
Si Si7 0.982892 0.391336 0.183748
O O1 0.336801 0.526131 0.469094
O O2 0.173235 0.618305 0.713362
O O3 0.983765 0.305911 0.485672
O O4 0.000000 0.500000 0.000000
O O5 0.597976 0.773140 0.394381
O O6 0.759401 0.707085 0.214244
O O7 0.528209 0.732253 0.768722
O O8 0.253114 0.999299 0.609163
O O9 0.476312 0.292512 0.945662
O O10 0.135876 0.169421 0.092685
O O11 0.903809 0.073943 0.019124
O O12 0.000000 0.000000 0.500000
O O13 0.073672 0.778371 0.000944
O O14 0.500000 0.500000 0.500000
O O15 0.202476 0.501052 0.983300
O O16 0.000000 0.500000 0.500000
#
# Coordination Sequence:
#
# PCOD9040363 Si02
#       7
#     2   2   2   2   2   2   2
#     4  12  25  43  68 100 147 185 236 301 368 430
#     4  11  24  45  71 106 134 193 248 295 351 441
#     4  10  24  42  70 100 141 180 240 304 353 415
#     4  10  23  43  66 102 145 183 232 304 365 418
#     4  11  24  44  76 106 142 188 249 299 359 440
#     4  12  23  41  73 105 136 189 255 294 350 444
#     4  12  25  44  69 107 145 185 237 304 368 425
#
# _framework density 23.068557999999999
#
# number of rings (size 3 to 8) (size 9 to 14) (size 15 to 20)
#    0.000    0.857    4.286    2.571    0.000    4.000 
#    0.000    5.000    0.000    0.000    0.000    0.000 
#    0.000    0.000    0.000    0.000    0.000    0.000 
#
# Total GULP energy -78007.781331 kJ/mol
# GULP energy per Si atom -5571.984381 kJ/mol
# Density = 2.301605 g / cm^3
# Si number density = 23.068558 Si / 1000 Ang^3
#
#
#
# Elastic Constant Matrix: (Units=GPa)
#
#
# Indices 1 2 3 4 5 6 
#
# 1 116.9680 36.3355 15.8399 13.2826 10.3408 -18.4955
# 2 36.3355 84.8897 24.9439 0.0239 4.1410 -16.0436
# 3 15.8399 24.9439 75.4212 9.7672 8.0960 -12.8088
# 4 13.2826 0.0239 9.7672 45.4104 -9.0595 1.6887
# 5 10.3408 4.1410 8.0960 -9.0595 39.8760 -12.0939
# 6 -18.4955 -16.0436 -12.8088 1.6887 -12.0939 35.6764
#
#
#
# Elastic Compliance Matrix: (Units=1/GPa)
#
#
# Indices 1 2 3 4 5 6 
#
# 1 0.010933 -0.004034 0.000363 -0.003867 -0.002346 0.003372
# 2 -0.004034 0.015346 -0.004075 0.002299 0.001989 0.003912
# 3 0.000363 -0.004075 0.015948 -0.004229 -0.002866 0.003310
# 4 -0.003867 0.002299 -0.004229 0.025510 0.007019 -0.001317
# 5 -0.002346 0.001989 -0.002866 0.007019 0.030256 0.008574
# 6 0.003372 0.003912 0.003310 -0.001317 0.008574 0.035694
#
#
# Mechanical properties :
#
#
# Convention : Reuss Voigt Hill
#
# Bulk Modulus (GPa) = 37.40311 47.94639 42.67475
# Shear Modulus (GPa) = 31.62765 37.53653 34.58209
#
# Velocity S-wave (km/s) = 3.70676 4.03820 3.87602
# Velocity P-wave (km/s) = 5.87955 6.52473 6.21053
#
# Compressibility (1/GPa) = 0.02673574
#
# Stress axis : x y z
#
# Youngs Moduli (GPa) = 91.46672 65.16547 62.70479
#
# Poissons Ratio (x) = 0.26285 -0.02278
# Poissons Ratio (y) = 0.36893 0.25552
# Poissons Ratio (z) = -0.03322 0.26555
#
# Static dielectric constant tensor:
#      x y z
#    x 1.887180 -0.045310 -0.034620 
#    y -0.045310 1.884980 -0.056690 
#    z -0.034620 -0.056690 1.707760 
# 
# From -- ./inp_files/318133.got.cif
#   From: 2010.05.17/outbox.cif.g08.bks.cpg/sg2_160_cif.got.tgz:318133.got - 2010.06.03 11:33:40.
