data_PCOD9040169
_publ_section_title
;
Structure prediction by ZEFSAII (Michael W. Deem and Ramdas Pophale) SiO2 
 PCOD9040169
Probable space group: P -1
;
_chemical_formula_sum "Si O2"
_cell_formula_units_Z 14
_cell_length_a 10.313476
_cell_length_b 9.057302
_cell_length_c 8.694070
_cell_angle_alpha 126.974242
_cell_angle_beta 110.910183
_cell_angle_gamma 65.118202
_cell_volume 582.519928
_symmetry_space_group_name_H-M "P -1"
_symmetry_group_IT_number 2
_symmetry_cell_setting 'triclinic'
loop_
_space_group_symop_operation_xyz
x,y,z
-x,-y,-z
loop_
_atom_site_type_symbol
_atom_site_label
_atom_site_fract_x
_atom_site_fract_y
_atom_site_fract_z
Si Si1 0.772809 0.801328 0.128264
Si Si2 0.017699 0.787093 0.800303
Si Si3 0.515140 0.849078 0.277192
Si Si4 0.008863 0.795561 0.445260
Si Si5 0.215225 0.415888 0.296321
Si Si6 0.382815 0.892727 0.939590
Si Si7 0.341880 0.509332 0.696469
O O1 0.651558 0.861812 0.242758
O O2 0.914790 0.715192 0.232336
O O3 0.762021 0.989572 0.135676
O O4 0.739532 0.657676 0.899860
O O5 0.182550 0.639980 0.771566
O O6 0.964005 0.809070 0.613065
O O7 0.916767 0.673876 0.772353
O O8 0.000000 0.000000 0.000000
O O9 0.561364 0.633677 0.228983
O O10 0.500000 0.000000 0.500000
O O11 0.384275 0.896658 0.128433
O O12 0.163767 0.645366 0.413519
O O13 0.000000 0.000000 0.500000
O O14 0.321151 0.377124 0.461915
O O15 0.416087 0.670769 0.774252
O O16 0.500000 0.000000 0.000000
#
# Coordination Sequence:
#
# PCOD9040169 Si02
#       7
#     2   2   2   2   2   2   2
#     4  11  22  41  63  89 129 170 206 269 326 374
#     4  11  23  40  67 100 134 170 209 256 322 400
#     4  11  24  43  65  91 123 168 224 272 317 375
#     4  11  22  37  61  98 132 166 210 257 319 393
#     4  11  22  40  64  96 132 168 210 259 323 399
#     4  10  23  43  64  90 125 166 219 269 314 371
#     4  11  22  42  67  94 129 172 211 266 324 374
#
# _framework density 24.033512000000002
#
# number of rings (size 3 to 8) (size 9 to 14) (size 15 to 20)
#    0.000    1.143    0.000    8.571    0.000    2.286 
#    0.000   17.143    0.000    0.000    0.000    0.000 
#    0.000    0.000    0.000    0.000    0.000    0.000 
#
# Total GULP energy -78212.504805 kJ/mol
# GULP energy per Si atom -5586.607486 kJ/mol
# Density = 2.397881 g / cm^3
# Si number density = 24.033512 Si / 1000 Ang^3
#
#
#
# Elastic Constant Matrix: (Units=GPa)
#
#
# Indices 1 2 3 4 5 6 
#
# 1 58.2756 8.8554 29.3338 -5.1741 -3.2659 11.6345
# 2 8.8554 167.8160 48.4845 -9.8172 -0.1457 -0.7182
# 3 29.3338 48.4845 178.1964 -10.8459 -15.5654 -0.4975
# 4 -5.1741 -9.8172 -10.8459 48.8402 -1.0793 8.7602
# 5 -3.2659 -0.1457 -15.5654 -1.0793 39.3856 1.6659
# 6 11.6345 -0.7182 -0.4975 8.7602 1.6659 18.7834
#
#
#
# Elastic Compliance Matrix: (Units=1/GPa)
#
#
# Indices 1 2 3 4 5 6 
#
# 1 0.022608 -0.000021 -0.003362 0.004610 0.001364 -0.016364
# 2 -0.000021 0.006525 -0.001772 0.000930 -0.000646 -0.000161
# 3 -0.003362 -0.001772 0.006894 0.000562 0.002382 0.001724
# 4 0.004610 0.000930 0.000562 0.023843 0.001857 -0.014090
# 5 0.001364 -0.000646 0.002382 0.001857 0.026664 -0.004038
# 6 -0.016364 -0.000161 0.001724 -0.014090 -0.004038 0.070343
#
#
# Mechanical properties :
#
#
# Convention : Reuss Voigt Hill
#
# Bulk Modulus (GPa) = 38.88350 64.18171 51.53261
# Shear Modulus (GPa) = 28.44781 42.57614 35.51198
#
# Velocity S-wave (km/s) = 3.44419 4.21352 3.84813
# Velocity P-wave (km/s) = 5.65955 7.10174 6.42127
#
# Compressibility (1/GPa) = 0.02571785
#
# Stress axis : x y z
#
# Youngs Moduli (GPa) = 44.23201 153.25196 145.04374
#
# Poissons Ratio (x) = 0.00320 0.48762
# Poissons Ratio (y) = 0.00092 0.25704
# Poissons Ratio (z) = 0.14870 0.27159
#
# Static dielectric constant tensor:
#      x y z
#    x 2.006660 -0.046210 0.040600 
#    y -0.046210 1.950630 -0.006450 
#    z 0.040600 -0.006450 1.968640 
# 
# From -- ./inp_files/241572.got.cif
#   From: 2010.05.17/outbox.cif.g08.bks.cpg/sg2_121_cif.got.tgz:241572.got - 2010.06.03 11:33:40.
