data_PCOD9040739
_publ_section_title
;
Structure prediction by ZEFSAII (Michael W. Deem and Ramdas Pophale) SiO2 
 PCOD9040739
Probable space group: P -1
;
_chemical_formula_sum "Si O2"
_cell_formula_units_Z 16
_cell_length_a 20.682972
_cell_length_b 11.044058
_cell_length_c 11.647424
_cell_angle_alpha 115.841457
_cell_angle_beta 149.609008
_cell_angle_gamma 43.437145
_cell_volume 774.350154
_symmetry_space_group_name_H-M "P -1"
_symmetry_group_IT_number 2
_symmetry_cell_setting 'triclinic'
loop_
_space_group_symop_operation_xyz
x,y,z
-x,-y,-z
loop_
_atom_site_type_symbol
_atom_site_label
_atom_site_fract_x
_atom_site_fract_y
_atom_site_fract_z
Si Si1 0.193012 0.156975 0.309697
Si Si2 0.520067 0.262976 0.994934
Si Si3 0.766117 0.572570 0.916305
Si Si4 0.230724 0.673799 0.588560
Si Si5 0.483616 0.750380 0.745939
Si Si6 0.799490 0.022900 0.972426
Si Si7 0.554127 0.026602 0.753322
Si Si8 0.558689 0.520625 0.414631
O O1 0.324004 0.166292 0.452288
O O2 0.142486 0.087345 0.106722
O O3 0.336171 0.971463 0.546090
O O4 0.996586 0.371728 0.156781
O O5 0.312361 0.499085 0.731917
O O6 0.570494 0.094529 0.925264
O O7 0.514801 0.234346 0.109070
O O8 0.698664 0.597814 0.953499
O O9 0.685194 0.785914 0.851575
O O10 0.648762 0.556757 0.653923
O O11 0.317800 0.750030 0.784360
O O12 0.337184 0.550859 0.579593
O O13 0.995246 0.869518 0.287184
O O14 0.411724 0.656042 0.573132
O O15 0.634326 0.059790 0.792295
O O16 0.678345 0.258988 0.869462
#
# Coordination Sequence:
#
# PCOD9040739 Si02
#       8
#     2   2   2   2   2   2   2   2
#     4  11  25  42  66 100 130 169 216 265 330 383
#     4  10  23  47  63  92 138 172 215 262 312 384
#     4  11  24  41  65  98 131 172 214 259 331 387
#     4  10  23  43  68  97 128 169 216 272 320 376
#     4  10  24  44  65  93 134 173 212 270 313 383
#     4  12  23  40  70 101 127 163 214 274 335 373
#     4  11  25  42  65  95 136 172 210 268 315 391
#     4  11  21  42  66 100 134 159 214 277 327 377
#
# _framework density 20.662486000000001
#
# number of rings (size 3 to 8) (size 9 to 14) (size 15 to 20)
#    0.000    1.250    5.000    0.750    1.750    5.500 
#    2.250    1.250    0.000    0.000    0.000    0.000 
#    0.000    0.000    0.000    0.000    0.000    0.000 
#
# Total GULP energy -89460.511550 kJ/mol
# GULP energy per Si atom -5591.281972 kJ/mol
# Density = 2.061546 g / cm^3
# Si number density = 20.662486 Si / 1000 Ang^3
#
#
#
# Elastic Constant Matrix: (Units=GPa)
#
#
# Indices 1 2 3 4 5 6 
#
# 1 51.1625 8.5658 22.9253 -7.4561 -1.5301 -4.4027
# 2 8.5658 86.6556 27.7332 -0.0644 9.1208 -22.8859
# 3 22.9253 27.7332 98.4229 -26.9315 2.3754 -14.0480
# 4 -7.4561 -0.0644 -26.9315 36.0079 -11.9135 0.9672
# 5 -1.5301 9.1208 2.3754 -11.9135 20.8250 0.2059
# 6 -4.4027 -22.8859 -14.0480 0.9672 0.2059 16.5338
#
#
#
# Elastic Compliance Matrix: (Units=1/GPa)
#
#
# Indices 1 2 3 4 5 6 
#
# 1 0.022166 -0.001197 -0.004028 0.002987 0.004315 0.000595
# 2 -0.001197 0.021475 -0.003970 -0.008604 -0.014227 0.026714
# 3 -0.004028 -0.003970 0.016862 0.014068 0.007500 0.006842
# 4 0.002987 -0.008604 0.014068 0.049040 0.030462 -0.002409
# 5 0.004315 -0.014227 0.007500 0.030462 0.071285 -0.014841
# 6 0.000595 0.026714 0.006842 -0.002409 -0.014841 0.103757
#
#
# Mechanical properties :
#
#
# Convention : Reuss Voigt Hill
#
# Bulk Modulus (GPa) = 23.74505 39.40994 31.57749
# Shear Modulus (GPa) = 15.77216 26.47446 21.12331
#
# Velocity S-wave (km/s) = 2.76583 3.58338 3.20082
# Velocity P-wave (km/s) = 4.66010 6.01959 5.38294
#
# Compressibility (1/GPa) = 0.04211405
#
# Stress axis : x y z
#
# Youngs Moduli (GPa) = 45.11358 46.56535 59.30394
#
# Poissons Ratio (x) = 0.05573 0.23886
# Poissons Ratio (y) = 0.05399 0.23546
# Poissons Ratio (z) = 0.18170 0.18488
#
# Static dielectric constant tensor:
#      x y z
#    x 1.742140 0.001780 0.003680 
#    y 0.001780 1.733980 0.012740 
#    z 0.003680 0.012740 1.737000 
# 
# From -- ./inp_files/471059.got.cif
#   From: 2010.05.17/outbox.cif.g08.bks.cpg/sg2_236_cif.got.tgz:471059.got - 2010.06.03 11:33:40.
