data_PCOD9040621
_publ_section_title
;
Structure prediction by ZEFSAII (Michael W. Deem and Ramdas Pophale) SiO2 
 PCOD9040621
Probable space group: P -1
;
_chemical_formula_sum "Si O2"
_cell_formula_units_Z 16
_cell_length_a 5.574070
_cell_length_b 17.014385
_cell_length_c 16.814155
_cell_angle_alpha 31.933188
_cell_angle_beta 126.753493
_cell_angle_gamma 117.367533
_cell_volume 671.419749
_symmetry_space_group_name_H-M "P -1"
_symmetry_group_IT_number 2
_symmetry_cell_setting 'triclinic'
loop_
_space_group_symop_operation_xyz
x,y,z
-x,-y,-z
loop_
_atom_site_type_symbol
_atom_site_label
_atom_site_fract_x
_atom_site_fract_y
_atom_site_fract_z
Si Si1 0.313688 0.901905 0.213911
Si Si2 0.427627 0.985495 0.405728
Si Si3 0.704169 0.863317 0.118727
Si Si4 0.654406 0.349385 0.697795
Si Si5 0.813641 0.566860 0.013880
Si Si6 0.287960 0.362111 0.896978
Si Si7 0.254198 0.926071 0.759241
Si Si8 0.650315 0.645721 0.740640
O O1 0.373717 0.773805 0.270492
O O2 0.015385 0.854169 0.236615
O O3 0.579584 0.935620 0.293378
O O4 0.234079 0.065071 0.015891
O O5 0.490288 0.808643 0.551440
O O6 0.500000 0.000000 0.500000
O O7 0.662945 0.061582 0.329676
O O8 0.071675 0.047001 0.286303
O O9 0.542851 0.714982 0.215868
O O10 0.500000 0.000000 0.000000
O O11 0.500000 0.500000 0.500000
O O12 0.993336 0.361173 0.784314
O O13 0.814498 0.649115 0.857933
O O14 0.500000 0.500000 0.000000
O O15 0.812786 0.663052 0.010308
O O16 0.070764 0.427921 0.192929
O O17 0.416524 0.522450 0.790152
O O18 0.564239 0.234540 0.043835
#
# Coordination Sequence:
#
# PCOD9040621 Si02
#       8
#     2   2   2   2   2   2   2   2
#     4  10  23  43  68 100 136 195 251 295 375 440
#     4  12  30  49  76 114 157 193 252 320 383 446
#     4   9  19  40  68  92 135 177 237 302 355 434
#     4  11  26  42  70 104 151 189 248 320 378 450
#     4   9  21  40  73 100 142 189 249 298 373 446
#     4  11  25  43  72 108 143 200 255 301 384 455
#     4  12  29  46  79 109 151 201 253 312 379 459
#     4  10  24  44  73 104 150 195 247 310 376 452
#
# _framework density 23.830099000000001
#
# number of rings (size 3 to 8) (size 9 to 14) (size 15 to 20)
#    0.000    1.500    0.000    3.375   17.500    1.500 
#    0.000    0.000    0.000    0.000    0.000    0.000 
#    0.000    0.000    0.000    0.000    0.000    0.000 
#
# Total GULP energy -89231.053634 kJ/mol
# GULP energy per Si atom -5576.940852 kJ/mol
# Density = 2.377586 g / cm^3
# Si number density = 23.830099 Si / 1000 Ang^3
#
#
#
# Elastic Constant Matrix: (Units=GPa)
#
#
# Indices 1 2 3 4 5 6 
#
# 1 106.9219 8.4591 53.7827 -8.7728 20.7775 14.1753
# 2 8.4591 90.2361 45.6561 -4.0015 5.3265 2.7445
# 3 53.7827 45.6561 149.3424 -32.9847 17.2969 9.0632
# 4 -8.7728 -4.0015 -32.9847 39.7386 0.5070 -1.2388
# 5 20.7775 5.3265 17.2969 0.5070 36.7417 -3.3016
# 6 14.1753 2.7445 9.0632 -1.2388 -3.3016 37.7011
#
#
#
# Elastic Compliance Matrix: (Units=1/GPa)
#
#
# Indices 1 2 3 4 5 6 
#
# 1 0.013136 0.001426 -0.004333 -0.000618 -0.005996 -0.004547
# 2 0.001426 0.013467 -0.005143 -0.002606 -0.000337 -0.000395
# 3 -0.004333 -0.005143 0.012083 0.008563 -0.002688 -0.000855
# 4 -0.000618 -0.002606 0.008563 0.031893 -0.003827 -0.000924
# 5 -0.005996 -0.000337 -0.002688 -0.003827 0.032482 0.005644
# 6 -0.004547 -0.000395 -0.000855 -0.000924 0.005644 0.028932
#
#
# Mechanical properties :
#
#
# Convention : Reuss Voigt Hill
#
# Bulk Modulus (GPa) = 44.27543 62.47736 53.37640
# Shear Modulus (GPa) = 32.12903 38.74310 35.43607
#
# Velocity S-wave (km/s) = 3.67584 4.03650 3.86039
# Velocity P-wave (km/s) = 6.05274 6.92815 6.50519
#
# Compressibility (1/GPa) = 0.02258589
#
# Stress axis : x y z
#
# Youngs Moduli (GPa) = 76.12398 74.25606 82.76030
#
# Poissons Ratio (x) = -0.10586 0.35858
# Poissons Ratio (y) = -0.10852 0.42564
# Poissons Ratio (z) = 0.32983 0.38190
#
# Static dielectric constant tensor:
#      x y z
#    x 2.148410 -0.036540 -0.069360 
#    y -0.036540 1.980190 0.049810 
#    z -0.069360 0.049810 1.944370 
# 
# From -- ./inp_files/550541.got.cif
#   From: 2010.05.17/outbox.cif.g08.bks.cpg/sg2_276_cif.got.tgz:550541.got - 2010.06.03 11:33:40.
