data_PCOD9040181
_publ_section_title
;
Structure prediction by ZEFSAII (Michael W. Deem and Ramdas Pophale) SiO2 
 PCOD9040181
Probable space group: P -1
;
_chemical_formula_sum "Si O2"
_cell_formula_units_Z 12
_cell_length_a 10.679560
_cell_length_b 13.901038
_cell_length_c 10.484904
_cell_angle_alpha 43.861032
_cell_angle_beta 62.608264
_cell_angle_gamma 32.341529
_cell_volume 528.255305
_symmetry_space_group_name_H-M "P -1"
_symmetry_group_IT_number 2
_symmetry_cell_setting 'triclinic'
loop_
_space_group_symop_operation_xyz
x,y,z
-x,-y,-z
loop_
_atom_site_type_symbol
_atom_site_label
_atom_site_fract_x
_atom_site_fract_y
_atom_site_fract_z
Si Si1 0.668828 0.979886 0.246995
Si Si2 0.699686 0.753702 0.228869
Si Si3 0.169765 0.643903 0.493215
Si Si4 0.833526 0.275327 0.295580
Si Si5 0.105073 0.494016 0.082406
Si Si6 0.712199 0.224473 0.868482
O O1 0.704278 0.810101 0.314788
O O2 0.901456 0.830972 0.370854
O O3 0.401606 0.210224 0.223760
O O4 0.652542 0.111561 0.017834
O O5 0.650624 0.630067 0.371473
O O6 0.959920 0.566701 0.207396
O O7 0.500000 0.000000 0.000000
O O8 0.145693 0.665125 0.634841
O O9 0.267005 0.712931 0.333815
O O10 0.525416 0.507142 0.202222
O O11 0.920104 0.319259 0.109897
O O12 0.000000 0.000000 0.500000
O O13 0.000000 0.500000 0.000000
O O14 0.000000 0.000000 0.000000
#
# Coordination Sequence:
#
# PCOD9040181 Si02
#       6
#     2   2   2   2   2   2
#     4  10  23  43  64  92 127 165 210 262 317 366
#     4  12  23  39  68  91 125 172 206 256 321 371
#     4  11  23  42  63  94 126 161 213 259 311 385
#     4  11  24  40  65  94 125 168 208 263 320 369
#     4  11  22  44  61  91 131 161 213 262 305 380
#     4   9  21  43  64  89 124 162 212 261 307 376
#
# _framework density 22.716289
#
# number of rings (size 3 to 8) (size 9 to 14) (size 15 to 20)
#    0.000    1.333    3.333    2.000    4.667    0.667 
#    6.000    2.500    0.000    0.000    0.000    0.000 
#    0.000    0.000    0.000    0.000    0.000    0.000 
#
# Total GULP energy -67040.824910 kJ/mol
# GULP energy per Si atom -5586.735409 kJ/mol
# Density = 2.266459 g / cm^3
# Si number density = 22.716289 Si / 1000 Ang^3
#
#
#
# Elastic Constant Matrix: (Units=GPa)
#
#
# Indices 1 2 3 4 5 6 
#
# 1 58.4273 23.6496 23.9697 -20.1519 4.2789 -1.3415
# 2 23.6496 69.6335 24.6828 -8.9856 -6.0650 -5.9023
# 3 23.9697 24.6828 111.5879 -16.6748 -4.3026 -9.9638
# 4 -20.1519 -8.9856 -16.6748 46.2800 -5.3419 -1.6400
# 5 4.2789 -6.0650 -4.3026 -5.3419 46.2960 -7.7696
# 6 -1.3415 -5.9023 -9.9638 -1.6400 -7.7696 28.2787
#
#
#
# Elastic Compliance Matrix: (Units=1/GPa)
#
#
# Indices 1 2 3 4 5 6 
#
# 1 0.023659 -0.006422 -0.002741 0.007711 -0.002638 -0.001462
# 2 -0.006422 0.017943 -0.002058 0.000472 0.003426 0.003684
# 3 -0.002741 -0.002058 0.010834 0.002677 0.001963 0.003952
# 4 0.007711 0.000472 0.002677 0.026540 0.003307 0.003855
# 5 -0.002638 0.003426 0.001963 0.003307 0.024221 0.008128
# 6 -0.001462 0.003684 0.003952 0.003855 0.008128 0.039911
#
#
# Mechanical properties :
#
#
# Convention : Reuss Voigt Hill
#
# Bulk Modulus (GPa) = 33.34113 42.69476 38.01795
# Shear Modulus (GPa) = 28.48221 35.32735 31.90478
#
# Velocity S-wave (km/s) = 3.54478 3.94782 3.75172
# Velocity P-wave (km/s) = 5.60919 6.29412 5.96150
#
# Compressibility (1/GPa) = 0.02999298
#
# Stress axis : x y z
#
# Youngs Moduli (GPa) = 42.26790 55.73199 92.30001
#
# Poissons Ratio (x) = 0.35792 0.25304
# Poissons Ratio (y) = 0.27145 0.18994
# Poissons Ratio (z) = 0.11588 0.11469
#
# Static dielectric constant tensor:
#      x y z
#    x 1.854550 -0.050600 -0.013660 
#    y -0.050600 1.880340 -0.060850 
#    z -0.013660 -0.060850 1.944190 
# 
# From -- ./inp_files/160454.got.cif
#   From: 2010.05.17/outbox.cif.g08.bks.cpg/sg2_81_cif.got.tgz:160454.got - 2010.06.03 11:33:40.
