data_PCOD9040249
_publ_section_title
;
Structure prediction by ZEFSAII (Michael W. Deem and Ramdas Pophale) SiO2 
 PCOD9040249
Probable space group: P -1
;
_chemical_formula_sum "Si O2"
_cell_formula_units_Z 14
_cell_length_a 5.007206
_cell_length_b 15.879282
_cell_length_c 15.281537
_cell_angle_alpha 148.996823
_cell_angle_beta 118.901463
_cell_angle_gamma 55.730354
_cell_volume 517.202759
_symmetry_space_group_name_H-M "P -1"
_symmetry_group_IT_number 2
_symmetry_cell_setting 'triclinic'
loop_
_space_group_symop_operation_xyz
x,y,z
-x,-y,-z
loop_
_atom_site_type_symbol
_atom_site_label
_atom_site_fract_x
_atom_site_fract_y
_atom_site_fract_z
Si Si1 0.885553 0.277375 0.257985
Si Si2 0.725079 0.519673 0.214224
Si Si3 0.162635 0.032988 0.930406
Si Si4 0.385765 0.909943 0.480461
Si Si5 0.738523 0.993846 0.277988
Si Si6 0.435886 0.371516 0.522208
Si Si7 0.164489 0.383462 0.004475
O O1 0.565178 0.445356 0.354468
O O2 0.210709 0.319702 0.369809
O O3 0.903182 0.144284 0.220237
O O4 0.917620 0.176775 0.081192
O O5 0.494038 0.705206 0.307245
O O6 0.763278 0.558303 0.356547
O O7 0.533132 0.381702 0.055068
O O8 0.025011 0.470842 0.152840
O O9 0.227944 0.062942 0.867817
O O10 0.500000 0.000000 0.000000
O O11 0.500000 0.000000 0.500000
O O12 0.516043 0.953073 0.633416
O O13 0.000000 0.000000 0.500000
O O14 0.728390 0.197624 0.442060
O O15 0.904188 0.797719 0.167643
O O16 0.000000 0.500000 0.000000
#
# Coordination Sequence:
#
# PCOD9040249 Si02
#       7
#     2   2   2   2   2   2   2
#     4  10  23  44  68  93 149 179 245 289 358 421
#     4  11  25  44  70 101 139 182 241 286 367 428
#     4  11  23  42  67 101 136 184 234 291 353 424
#     4  11  24  46  71 102 140 181 234 299 359 430
#     4  11  25  42  71 102 138 184 240 292 364 425
#     4  10  23  43  65 104 131 195 232 298 354 429
#     4  12  26  46  72 103 142 186 240 303 362 428
#
# _framework density 27.068688999999999
#
# number of rings (size 3 to 8) (size 9 to 14) (size 15 to 20)
#    0.000    1.143    1.429    3.857    2.000    7.429 
#    0.000    0.000    0.000    0.000    0.000    0.000 
#    0.000    0.000    0.000    0.000    0.000    0.000 
#
# Total GULP energy -78033.254886 kJ/mol
# GULP energy per Si atom -5573.803920 kJ/mol
# Density = 2.700708 g / cm^3
# Si number density = 27.068689 Si / 1000 Ang^3
#
#
#
# Elastic Constant Matrix: (Units=GPa)
#
#
# Indices 1 2 3 4 5 6 
#
# 1 106.5405 33.7546 18.9128 -8.6274 -8.5124 20.0736
# 2 33.7546 192.5713 71.8718 13.8606 -8.5583 30.1025
# 3 18.9128 71.8718 106.6448 18.1857 -16.4800 8.4586
# 4 -8.6274 13.8606 18.1857 58.4867 -2.3180 -30.3526
# 5 -8.5124 -8.5583 -16.4800 -2.3180 23.4029 -10.1097
# 6 20.0736 30.1025 8.4586 -30.3526 -10.1097 45.2280
#
#
#
# Elastic Compliance Matrix: (Units=1/GPa)
#
#
# Indices 1 2 3 4 5 6 
#
# 1 0.010620 -0.001032 -0.000757 0.000427 0.001594 -0.003242
# 2 -0.001032 0.008923 -0.004840 -0.006100 -0.005391 -0.009875
# 3 -0.000757 -0.004840 0.014424 -0.002637 0.008255 0.000936
# 4 0.000427 -0.006100 -0.002637 0.036494 0.013445 0.031860
# 5 0.001594 -0.005391 0.008255 0.013445 0.058619 0.023463
# 6 -0.003242 -0.009875 0.000936 0.031860 0.023463 0.056572
#
#
# Mechanical properties :
#
#
# Convention : Reuss Voigt Hill
#
# Bulk Modulus (GPa) = 48.28882 72.75945 60.52413
# Shear Modulus (GPa) = 24.29363 44.17134 34.23249
#
# Velocity S-wave (km/s) = 2.99905 4.04397 3.56005
# Velocity P-wave (km/s) = 5.46539 6.98160 6.26950
#
# Compressibility (1/GPa) = 0.02070873
#
# Stress axis : x y z
#
# Youngs Moduli (GPa) = 94.15916 112.06473 69.32682
#
# Poissons Ratio (x) = 0.11566 0.05250
# Poissons Ratio (y) = 0.09718 0.33557
# Poissons Ratio (z) = 0.07131 0.54243
#
# Static dielectric constant tensor:
#      x y z
#    x 1.971460 -0.032660 -0.051690 
#    y -0.032660 2.164100 0.029850 
#    z -0.051690 0.029850 2.130850 
# 
# From -- ./inp_files/37132.got.cif
#   From: 2010.05.17/outbox.cif.g08.bks.cpg/sg2_19_cif.got.tgz:37132.got - 2010.06.03 11:33:40.
