data_PCOD9040207
_publ_section_title
;
Structure prediction by ZEFSAII (Michael W. Deem and Ramdas Pophale) SiO2 
 PCOD9040207
Probable space group: P -1
;
_chemical_formula_sum "Si O2"
_cell_formula_units_Z 14
_cell_length_a 6.945936
_cell_length_b 13.708610
_cell_length_c 11.034056
_cell_angle_alpha 140.986450
_cell_angle_beta 109.643062
_cell_angle_gamma 82.513370
_cell_volume 607.528561
_symmetry_space_group_name_H-M "P -1"
_symmetry_group_IT_number 2
_symmetry_cell_setting 'triclinic'
loop_
_space_group_symop_operation_xyz
x,y,z
-x,-y,-z
loop_
_atom_site_type_symbol
_atom_site_label
_atom_site_fract_x
_atom_site_fract_y
_atom_site_fract_z
Si Si1 0.550116 0.339375 0.997018
Si Si2 0.520428 0.025736 0.383628
Si Si3 0.896744 0.229032 0.517701
Si Si4 0.083848 0.010036 0.167508
Si Si5 0.888192 0.322595 0.205188
Si Si6 0.295310 0.573717 0.520212
Si Si7 0.209716 0.464168 0.960473
O O1 0.347289 0.407496 0.037769
O O2 0.492133 0.154990 0.836786
O O3 0.753915 0.420101 0.192617
O O4 0.634534 0.386503 0.925030
O O5 0.738813 0.136642 0.496284
O O6 0.327682 0.080270 0.325799
O O7 0.500000 0.000000 0.500000
O O8 0.778142 0.354365 0.549235
O O9 0.947549 0.101701 0.309033
O O10 0.117849 0.318577 0.709522
O O11 0.073064 0.823587 0.007217
O O12 0.000000 0.000000 0.000000
O O13 0.736381 0.290006 0.258438
O O14 0.114392 0.424748 0.379213
O O15 0.500000 0.500000 0.500000
O O16 0.000000 0.500000 0.000000
#
# Coordination Sequence:
#
# PCOD9040207 Si02
#       7
#     2   2   2   2   2   2   2
#     4  10  23  43  64  97 135 182 225 292 352 421
#     4  11  26  46  70 103 145 189 240 302 363 422
#     4  12  26  45  75 108 139 191 246 292 366 432
#     4  11  25  46  73 102 149 188 242 300 360 435
#     4  10  23  45  68  99 141 186 230 297 363 416
#     4  11  25  42  70 104 142 183 241 290 356 432
#     4  11  24  42  70  99 139 183 242 289 358 426
#
# _framework density 23.044184999999999
#
# number of rings (size 3 to 8) (size 9 to 14) (size 15 to 20)
#    0.000    1.143    2.857    1.714    4.000    8.571 
#    0.000    0.000    0.000    0.000    0.000    0.000 
#    0.000    0.000    0.000    0.000    0.000    0.000 
#
# Total GULP energy -78001.799287 kJ/mol
# GULP energy per Si atom -5571.557092 kJ/mol
# Density = 2.299173 g / cm^3
# Si number density = 23.044185 Si / 1000 Ang^3
#
#
#
# Elastic Constant Matrix: (Units=GPa)
#
#
# Indices 1 2 3 4 5 6 
#
# 1 144.9936 47.1351 38.2324 5.8723 -0.4718 -33.9318
# 2 47.1351 79.3457 8.1373 -8.2359 4.0607 -23.9274
# 3 38.2324 8.1373 89.9487 -4.9738 -10.8027 -6.2208
# 4 5.8723 -8.2359 -4.9738 32.8899 -1.7452 9.1214
# 5 -0.4718 4.0607 -10.8027 -1.7452 39.4244 -2.4728
# 6 -33.9318 -23.9274 -6.2208 9.1214 -2.4728 45.5517
#
#
#
# Elastic Compliance Matrix: (Units=1/GPa)
#
#
# Indices 1 2 3 4 5 6 
#
# 1 0.011373 -0.004957 -0.004305 -0.005719 -0.000384 0.006404
# 2 -0.004957 0.017335 0.000951 0.004013 -0.001113 0.004679
# 3 -0.004305 0.000951 0.013395 0.003613 0.003593 -0.001407
# 4 -0.005719 0.004013 0.003613 0.035465 0.001534 -0.008677
# 5 -0.000384 -0.001113 0.003593 0.001534 0.026575 0.000755
# 6 0.006404 0.004679 -0.001407 -0.008677 0.000755 0.030768
#
#
# Mechanical properties :
#
#
# Convention : Reuss Voigt Hill
#
# Bulk Modulus (GPa) = 39.24696 55.69975 47.47336
# Shear Modulus (GPa) = 31.24492 38.29208 34.76850
#
# Velocity S-wave (km/s) = 3.68621 4.08079 3.88851
# Velocity P-wave (km/s) = 5.93175 6.81375 6.38799
#
# Compressibility (1/GPa) = 0.02547968
#
# Stress axis : x y z
#
# Youngs Moduli (GPa) = 87.93096 57.68738 74.65338
#
# Poissons Ratio (x) = 0.28596 0.32138
# Poissons Ratio (y) = 0.43588 -0.07096
# Poissons Ratio (z) = 0.37854 -0.05484
#
# Static dielectric constant tensor:
#      x y z
#    x 1.849570 -0.003430 -0.041800 
#    y -0.003430 1.988830 -0.058090 
#    z -0.041800 -0.058090 2.028740 
# 
# From -- ./inp_files/40420.got.cif
#   From: 2010.05.17/outbox.cif.g08.bks.cpg/sg2_21_cif.got.tgz:40420.got - 2010.06.03 11:33:40.
