data_PCOD9040808
_publ_section_title
;
Structure prediction by ZEFSAII (Michael W. Deem and Ramdas Pophale) SiO2 
 PCOD9040808
Probable space group: P -1
;
_chemical_formula_sum "Si O2"
_cell_formula_units_Z 16
_cell_length_a 9.588390
_cell_length_b 17.499116
_cell_length_c 5.085103
_cell_angle_alpha 71.510489
_cell_angle_beta 73.188705
_cell_angle_gamma 47.254582
_cell_volume 590.881406
_symmetry_space_group_name_H-M "P -1"
_symmetry_group_IT_number 2
_symmetry_cell_setting 'triclinic'
loop_
_space_group_symop_operation_xyz
x,y,z
-x,-y,-z
loop_
_atom_site_type_symbol
_atom_site_label
_atom_site_fract_x
_atom_site_fract_y
_atom_site_fract_z
Si Si1 0.237441 0.730155 0.102384
Si Si2 0.248314 0.241511 0.378215
Si Si3 0.147025 0.101320 0.635975
Si Si4 0.635637 0.579495 0.358266
Si Si5 0.069947 0.384808 0.824457
Si Si6 0.709277 0.437527 0.077626
Si Si7 0.584506 0.221619 0.388564
Si Si8 0.171191 0.985218 0.266810
O O1 0.191769 0.676139 0.977337
O O2 0.240343 0.809608 0.842811
O O3 0.452008 0.650862 0.185381
O O4 0.076660 0.792409 0.342807
O O5 0.257923 0.145450 0.561221
O O6 0.143185 0.296511 0.102317
O O7 0.451298 0.212299 0.299461
O O8 0.134959 0.330161 0.567782
O O9 0.209398 0.043036 0.389260
O O10 0.161955 0.029604 0.937742
O O11 0.697973 0.465462 0.363960
O O12 0.530729 0.658743 0.577370
O O13 0.819259 0.571520 0.228155
O O14 0.840492 0.463364 0.867664
O O15 0.500000 0.500000 0.000000
O O16 0.659086 0.141313 0.675762
O O17 0.000000 0.000000 0.500000
#
# Coordination Sequence:
#
# PCOD9040808 Si02
#       8
#     2   2   2   2   2   2   2   2
#     4  11  22  43  70 101 143 183 236 294 351 413
#     4  11  25  45  73 103 141 188 233 286 357 414
#     4  12  26  44  72 104 142 184 236 292 350 412
#     4  10  23  43  69 100 143 187 233 291 353 416
#     4  11  22  46  71 103 143 190 229 287 352 421
#     4  10  23  44  69 107 141 181 241 284 355 419
#     4  11  25  43  69 101 142 187 235 293 350 422
#     4  12  26  43  72 105 139 185 237 289 354 413
#
# _framework density 27.078191
#
# number of rings (size 3 to 8) (size 9 to 14) (size 15 to 20)
#    0.000    1.000    3.750    2.250    1.750    1.500 
#    4.500    1.875    0.000    0.000    0.000    0.000 
#    0.000    0.000    0.000    0.000    0.000    0.000 
#
# Total GULP energy -89527.398686 kJ/mol
# GULP energy per Si atom -5595.462418 kJ/mol
# Density = 2.701656 g / cm^3
# Si number density = 27.078191 Si / 1000 Ang^3
#
#
#
# Elastic Constant Matrix: (Units=GPa)
#
#
# Indices 1 2 3 4 5 6 
#
# 1 154.3245 26.0243 24.9759 9.6344 -3.2630 22.1262
# 2 26.0243 89.7766 23.1121 -1.3546 7.9206 9.5702
# 3 24.9759 23.1121 92.4345 -1.6304 -3.5182 2.3542
# 4 9.6344 -1.3546 -1.6304 49.4895 -1.3642 4.2643
# 5 -3.2630 7.9206 -3.5182 -1.3642 35.6940 0.5966
# 6 22.1262 9.5702 2.3542 4.2643 0.5966 34.2577
#
#
#
# Elastic Compliance Matrix: (Units=1/GPa)
#
#
# Indices 1 2 3 4 5 6 
#
# 1 0.007696 -0.001458 -0.001592 -0.001194 0.000897 -0.004321
# 2 -0.001458 0.012856 -0.002868 0.000667 -0.003202 -0.002480
# 3 -0.001592 -0.002868 0.012017 0.000596 0.001683 0.000900
# 4 -0.001194 0.000667 0.000596 0.020670 0.000626 -0.002040
# 5 0.000897 -0.003202 0.001683 0.000626 0.029005 -0.000383
# 6 -0.004321 -0.002480 0.000900 -0.002040 -0.000383 0.032873
#
#
# Mechanical properties :
#
#
# Convention : Reuss Voigt Hill
#
# Bulk Modulus (GPa) = 48.22628 53.86222 51.04425
# Shear Modulus (GPa) = 37.35135 41.38313 39.36724
#
# Velocity S-wave (km/s) = 3.71804 3.91357 3.81706
# Velocity P-wave (km/s) = 6.02333 6.35263 6.19017
#
# Compressibility (1/GPa) = 0.02073558
#
# Stress axis : x y z
#
# Youngs Moduli (GPa) = 129.93184 77.78168 83.21331
#
# Poissons Ratio (x) = 0.11338 0.13247
# Poissons Ratio (y) = 0.18939 0.23863
# Poissons Ratio (z) = 0.20685 0.22305
#
# Static dielectric constant tensor:
#      x y z
#    x 2.102950 -0.020890 -0.009730 
#    y -0.020890 2.200850 -0.020740 
#    z -0.009730 -0.020740 2.138760 
# 
# From -- ./inp_files/47415.got.cif
#   From: 2010.05.17/outbox.cif.g08.bks.cpg/sg2_24_cif.got.tgz:47415.got - 2010.06.03 11:33:40.
