data_PCOD9040737
_publ_section_title
;
Structure prediction by ZEFSAII (Michael W. Deem and Ramdas Pophale) SiO2 
 PCOD9040737
Probable space group: P -1
;
_chemical_formula_sum "Si O2"
_cell_formula_units_Z 12
_cell_length_a 14.318844
_cell_length_b 5.041797
_cell_length_c 9.797368
_cell_angle_alpha 47.369590
_cell_angle_beta 63.525816
_cell_angle_gamma 69.063041
_cell_volume 464.163917
_symmetry_space_group_name_H-M "P -1"
_symmetry_group_IT_number 2
_symmetry_cell_setting 'triclinic'
loop_
_space_group_symop_operation_xyz
x,y,z
-x,-y,-z
loop_
_atom_site_type_symbol
_atom_site_label
_atom_site_fract_x
_atom_site_fract_y
_atom_site_fract_z
Si Si1 0.604014 0.714928 0.446454
Si Si2 0.052312 0.109142 0.788306
Si Si3 0.755016 0.309426 0.137197
Si Si4 0.798029 0.243785 0.529966
Si Si5 0.448579 0.259232 0.828523
Si Si6 0.834643 0.397590 0.750701
O O1 0.687278 0.364199 0.488552
O O2 0.519388 0.599271 0.648925
O O3 0.552083 0.854441 0.289804
O O4 0.684704 0.995236 0.338129
O O5 0.116293 0.461944 0.646983
O O6 0.952562 0.207841 0.724558
O O7 0.137260 0.768909 0.822435
O O8 0.000000 0.000000 0.000000
O O9 0.673260 0.650839 0.089837
O O10 0.785592 0.283280 0.966243
O O11 0.776374 0.285784 0.692332
O O12 0.836313 0.833065 0.609485
O O13 0.500000 0.000000 0.000000
#
# Coordination Sequence:
#
# PCOD9040737 Si02
#       6
#     2   2   2   2   2   2
#     4  10  25  43  68 104 135 184 231 294 351 414
#     4   9  21  44  65 104 138 190 227 287 344 414
#     4  10  23  43  68  96 144 179 232 292 350 412
#     4  11  24  44  71 102 146 178 241 282 345 417
#     4  11  24  45  70  98 137 181 240 289 359 413
#     4  11  24  43  71 106 139 191 229 284 345 420
#
# _framework density 25.852938999999999
#
# number of rings (size 3 to 8) (size 9 to 14) (size 15 to 20)
#    0.000    1.667    0.000    2.500    9.333    0.667 
#    3.000    3.333    0.000    0.000    0.000    0.000 
#    0.000    0.000    0.000    0.000    0.000    0.000 
#
# Total GULP energy -67123.534845 kJ/mol
# GULP energy per Si atom -5593.627904 kJ/mol
# Density = 2.579410 g / cm^3
# Si number density = 25.852939 Si / 1000 Ang^3
#
#
#
# Elastic Constant Matrix: (Units=GPa)
#
#
# Indices 1 2 3 4 5 6 
#
# 1 101.4690 57.8827 42.3142 6.1135 24.3795 -14.0981
# 2 57.8827 118.1442 39.6619 3.9486 17.6512 -20.4625
# 3 42.3142 39.6619 156.4759 16.0535 1.3720 -2.7334
# 4 6.1135 3.9486 16.0535 34.0452 -5.2836 2.3372
# 5 24.3795 17.6512 1.3720 -5.2836 56.6552 3.6390
# 6 -14.0981 -20.4625 -2.7334 2.3372 3.6390 49.5980
#
#
#
# Elastic Compliance Matrix: (Units=1/GPa)
#
#
# Indices 1 2 3 4 5 6 
#
# 1 0.015900 -0.005611 -0.002581 -0.001998 -0.005382 0.002551
# 2 -0.005611 0.012651 -0.001586 -0.000236 -0.001747 0.003676
# 3 -0.002581 -0.001586 0.007746 -0.002753 0.001219 -0.000921
# 4 -0.001998 -0.000236 -0.002753 0.031880 0.004141 -0.002623
# 5 -0.005382 -0.001747 0.001219 0.004141 0.021120 -0.003928
# 6 0.002551 0.003676 -0.000921 -0.002623 -0.003928 0.022765
#
#
# Mechanical properties :
#
#
# Convention : Reuss Voigt Hill
#
# Bulk Modulus (GPa) = 59.72742 72.86743 66.29743
# Shear Modulus (GPa) = 36.44387 43.80835 40.12611
#
# Velocity S-wave (km/s) = 3.75862 4.12092 3.94393
# Velocity P-wave (km/s) = 6.47991 7.13367 6.81463
#
# Compressibility (1/GPa) = 0.01674273
#
# Stress axis : x y z
#
# Youngs Moduli (GPa) = 62.89292 79.04443 129.09503
#
# Poissons Ratio (x) = 0.44351 0.33317
# Poissons Ratio (y) = 0.35288 0.20470
# Poissons Ratio (z) = 0.16231 0.12534
#
# Static dielectric constant tensor:
#      x y z
#    x 2.018260 -0.035450 0.020960 
#    y -0.035450 2.182860 -0.045570 
#    z 0.020960 -0.045570 2.050690 
# 
# From -- ./inp_files/98898.got.cif
#   From: 2010.05.17/outbox.cif.g08.bks.cpg/sg2_50_cif.got.tgz:98898.got - 2010.06.03 11:33:40.
