data_PCOD9040718
_publ_section_title
;
Structure prediction by ZEFSAII (Michael W. Deem and Ramdas Pophale) SiO2 
 PCOD9040718
Probable space group: P -1
;
_chemical_formula_sum "Si O2"
_cell_formula_units_Z 16
_cell_length_a 14.790480
_cell_length_b 10.633848
_cell_length_c 8.955940
_cell_angle_alpha 133.525833
_cell_angle_beta 127.412538
_cell_angle_gamma 43.516459
_cell_volume 686.547089
_symmetry_space_group_name_H-M "P -1"
_symmetry_group_IT_number 2
_symmetry_cell_setting 'triclinic'
loop_
_space_group_symop_operation_xyz
x,y,z
-x,-y,-z
loop_
_atom_site_type_symbol
_atom_site_label
_atom_site_fract_x
_atom_site_fract_y
_atom_site_fract_z
Si Si1 0.410365 0.280686 0.027804
Si Si2 0.572913 0.358311 0.601540
Si Si3 0.929265 0.079329 0.248357
Si Si4 0.214176 0.324517 0.634888
Si Si5 0.306976 0.138578 0.043916
Si Si6 0.816739 0.050181 0.393117
Si Si7 0.598988 0.785475 0.509946
Si Si8 0.023133 0.242423 0.209291
O O1 0.393112 0.496248 0.149619
O O2 0.342004 0.290883 0.124175
O O3 0.330049 0.217888 0.786329
O O4 0.564010 0.094435 0.036890
O O5 0.500000 0.500000 0.500000
O O6 0.700069 0.169916 0.494759
O O7 0.488432 0.289808 0.556645
O O8 0.054087 0.014386 0.430217
O O9 0.811725 0.167829 0.329199
O O10 0.943793 0.196936 0.219343
O O11 0.943789 0.887666 0.014308
O O12 0.293151 0.372704 0.629133
O O13 0.081904 0.518002 0.731284
O O14 0.156502 0.203422 0.394356
O O15 0.310543 0.181185 0.254459
O O16 0.188298 0.137527 0.838375
O O17 0.500000 0.000000 0.500000
#
# Coordination Sequence:
#
# PCOD9040718 Si02
#       8
#     2   2   2   2   2   2   2   2
#     4  11  22  40  64  95 133 180 218 266 332 400
#     4  12  24  42  67  99 142 174 218 281 332 398
#     4  10  23  43  68  95 126 176 230 277 330 398
#     4  11  24  42  65  97 134 174 223 274 339 397
#     4  11  21  39  64  93 137 178 215 267 332 403
#     4  11  23  41  68  96 130 178 224 272 338 400
#     4  12  26  43  66 102 139 181 220 271 341 409
#     4  10  23  44  67  92 132 174 221 289 331 382
#
# _framework density 23.305029999999999
#
# number of rings (size 3 to 8) (size 9 to 14) (size 15 to 20)
#    0.000    1.000    3.750    3.000    3.500    0.500 
#    2.250    0.000    0.000    8.250    0.000    0.000 
#    0.000    0.000    0.000    0.000    0.000    0.000 
#
# Total GULP energy -89237.153424 kJ/mol
# GULP energy per Si atom -5577.322089 kJ/mol
# Density = 2.325199 g / cm^3
# Si number density = 23.305030 Si / 1000 Ang^3
#
#
#
# Elastic Constant Matrix: (Units=GPa)
#
#
# Indices 1 2 3 4 5 6 
#
# 1 130.2262 18.5030 25.8993 12.1927 -3.3577 14.5626
# 2 18.5030 32.0040 35.9010 1.7138 6.6222 6.5621
# 3 25.8993 35.9010 152.2222 -9.3673 12.4059 -1.3410
# 4 12.1927 1.7138 -9.3673 23.9388 1.0393 4.3569
# 5 -3.3577 6.6222 12.4059 1.0393 35.9045 0.7468
# 6 14.5626 6.5621 -1.3410 4.3569 0.7468 28.6104
#
#
#
# Elastic Compliance Matrix: (Units=1/GPa)
#
#
# Indices 1 2 3 4 5 6 
#
# 1 0.009265 -0.003496 -0.001228 -0.004431 0.002133 -0.003352
# 2 -0.003496 0.048478 -0.010737 -0.004008 -0.005253 -0.009096
# 3 -0.001228 -0.010737 0.009769 0.004769 -0.001707 0.002864
# 4 -0.004431 -0.004008 0.004769 0.046967 -0.002606 -0.003686
# 5 0.002133 -0.005253 -0.001707 -0.002606 0.029692 -0.000339
# 6 -0.003352 -0.009096 0.002864 -0.003686 -0.000339 0.039449
#
#
# Mechanical properties :
#
#
# Convention : Reuss Voigt Hill
#
# Bulk Modulus (GPa) = 27.33012 52.78436 40.05724
# Shear Modulus (GPa) = 22.05177 33.30068 27.67622
#
# Velocity S-wave (km/s) = 3.07941 3.78419 3.44984
# Velocity P-wave (km/s) = 4.93926 6.46467 5.75275
#
# Compressibility (1/GPa) = 0.03658967
#
# Stress axis : x y z
#
# Youngs Moduli (GPa) = 107.93750 20.62772 102.36965
#
# Poissons Ratio (x) = 0.07211 0.12571
# Poissons Ratio (y) = 0.37731 1.09918
# Poissons Ratio (z) = 0.13254 0.22149
#
# Static dielectric constant tensor:
#      x y z
#    x 1.943270 0.048010 0.033340 
#    y 0.048010 1.907440 0.032130 
#    z 0.033340 0.032130 1.932400 
# 
# From -- ./inp_files/308617.got.cif
#   From: 2010.05.17/outbox.cif.g08.bks.cpg/sg2_155_cif.got.tgz:308617.got - 2010.06.03 11:33:40.
