data_PCOD9040434
_publ_section_title
;
Structure prediction by ZEFSAII (Michael W. Deem and Ramdas Pophale) SiO2 
 PCOD9040434
Probable space group: P -1
;
_chemical_formula_sum "Si O2"
_cell_formula_units_Z 15
_cell_length_a 6.776146
_cell_length_b 26.400648
_cell_length_c 8.036217
_cell_angle_alpha 146.646604
_cell_angle_beta 59.712685
_cell_angle_gamma 116.362463
_cell_volume 681.742626
_symmetry_space_group_name_H-M "P -1"
_symmetry_group_IT_number 2
_symmetry_cell_setting 'triclinic'
loop_
_space_group_symop_operation_xyz
x,y,z
-x,-y,-z
loop_
_atom_site_type_symbol
_atom_site_label
_atom_site_fract_x
_atom_site_fract_y
_atom_site_fract_z
Si Si1 0.749061 0.720189 0.452365
Si Si2 0.070474 0.371053 0.193223
Si Si3 0.058381 0.866886 0.909663
Si Si4 0.993374 0.837519 0.240324
Si Si5 0.285686 0.986066 0.674971
Si Si6 0.578346 0.882898 0.734492
Si Si7 0.500000 0.500000 0.500000
Si Si8 0.437806 0.573900 0.368038
O O1 0.635830 0.795894 0.589708
O O2 0.556331 0.668058 0.502373
O O3 0.929464 0.774747 0.642957
O O4 0.882225 0.653172 0.087771
O O5 0.288443 0.432077 0.328325
O O6 0.832450 0.417335 0.460268
O O7 0.041693 0.271380 0.020841
O O8 0.319539 0.872652 0.761020
O O9 0.065513 0.865845 0.103267
O O10 0.912831 0.949457 0.129661
O O11 0.751646 0.879448 0.499491
O O12 0.175132 0.882917 0.420062
O O13 0.500000 0.000000 0.500000
O O14 0.364880 0.027638 0.931278
O O15 0.541076 0.545896 0.422832
O O16 0.500000 0.500000 0.000000
#
# Coordination Sequence:
#
# PCOD9040434 Si02
#       8
#     2   2   2   2   2   2   1   2
#     4  10  24  45  68 102 141 183 227 293 351 411
#     4  11  26  48  71 104 143 178 239 291 353 433
#     4  11  23  42  66  99 138 185 230 287 344 409
#     4  11  23  44  68 100 133 185 234 285 350 415
#     4  11  23  42  66  96 143 183 229 289 344 409
#     4  10  23  43  66  99 137 180 235 283 345 413
#     4  12  26  48  72 106 132 186 236 280 364 428
#     4  12  26  48  74 104 143 183 230 296 359 422
#
# _framework density 22.00244
#
# number of rings (size 3 to 8) (size 9 to 14) (size 15 to 20)
#    0.000    1.067    2.667    2.800    1.867    4.267 
#    7.200    0.000    0.000    0.000    0.000    0.000 
#    0.000    0.000    0.000    0.000    0.000    0.000 
#
# Total GULP energy -83717.085584 kJ/mol
# GULP energy per Si atom -5581.139039 kJ/mol
# Density = 2.195236 g / cm^3
# Si number density = 22.002440 Si / 1000 Ang^3
#
#
#
# Elastic Constant Matrix: (Units=GPa)
#
#
# Indices 1 2 3 4 5 6 
#
# 1 66.8754 10.8516 47.6446 10.8982 12.7667 32.0685
# 2 10.8516 108.6241 31.0532 10.9528 2.4393 22.2401
# 3 47.6446 31.0532 111.8800 1.5893 11.0862 22.8981
# 4 10.8982 10.9528 1.5893 39.4485 12.8999 3.9012
# 5 12.7667 2.4393 11.0862 12.8999 31.1952 -2.8889
# 6 32.0685 22.2401 22.8981 3.9012 -2.8889 42.4817
#
#
#
# Elastic Compliance Matrix: (Units=1/GPa)
#
#
# Indices 1 2 3 4 5 6 
#
# 1 0.036978 0.005319 -0.010790 -0.004815 -0.012063 -0.025261
# 2 0.005319 0.011735 -0.003752 -0.003447 -0.001066 -0.007892
# 3 -0.010790 -0.003752 0.014302 0.003839 -0.001783 0.001926
# 4 -0.004815 -0.003447 0.003839 0.031501 -0.012183 -0.000351
# 5 -0.012063 -0.001066 -0.001783 -0.012183 0.044113 0.014744
# 6 -0.025261 -0.007892 0.001926 -0.000351 0.014744 0.046736
#
#
# Mechanical properties :
#
#
# Convention : Reuss Voigt Hill
#
# Bulk Modulus (GPa) = 22.43749 51.83092 37.13420
# Shear Modulus (GPa) = 22.86579 35.81375 29.33977
#
# Velocity S-wave (km/s) = 3.22722 4.03887 3.65564
# Velocity P-wave (km/s) = 4.90983 6.73484 5.89341
#
# Compressibility (1/GPa) = 0.04456827
#
# Stress axis : x y z
#
# Youngs Moduli (GPa) = 27.04337 85.21715 69.91895
#
# Poissons Ratio (x) = -0.45325 0.75440
# Poissons Ratio (y) = -0.14384 0.26236
# Poissons Ratio (z) = 0.29179 0.31976
#
# Static dielectric constant tensor:
#      x y z
#    x 1.779790 -0.020410 -0.026440 
#    y -0.020410 1.803640 0.031550 
#    z -0.026440 0.031550 1.827300 
# 
# From -- ./inp_files/143305.got.cif
#   From: 2010.05.17/outbox.cif.g08.bks.cpg/sg2_72_cif.got.tgz:143305.got - 2010.06.03 11:33:40.
