data_PCOD9040034
_publ_section_title
;
Structure prediction by ZEFSAII (Michael W. Deem and Ramdas Pophale) SiO2 
 PCOD9040034
Probable space group: P -1
;
_chemical_formula_sum "Si O2"
_cell_formula_units_Z 15
_cell_length_a 15.239758
_cell_length_b 9.107808
_cell_length_c 5.099129
_cell_angle_alpha 77.485547
_cell_angle_beta 73.882794
_cell_angle_gamma 99.672967
_cell_volume 643.845600
_symmetry_space_group_name_H-M "P -1"
_symmetry_group_IT_number 2
_symmetry_cell_setting 'triclinic'
loop_
_space_group_symop_operation_xyz
x,y,z
-x,-y,-z
loop_
_atom_site_type_symbol
_atom_site_label
_atom_site_fract_x
_atom_site_fract_y
_atom_site_fract_z
Si Si1 0.464762 0.253295 0.722733
Si Si2 0.500000 0.000000 0.000000
Si Si3 0.188972 0.876132 0.466609
Si Si4 0.034216 0.918595 0.251004
Si Si5 0.743386 0.335994 0.875518
Si Si6 0.585781 0.478472 0.118965
Si Si7 0.351096 0.969032 0.604583
Si Si8 0.939557 0.355313 0.947152
O O1 0.539705 0.348157 0.420922
O O2 0.393758 0.358500 0.805027
O O3 0.512788 0.192105 0.953805
O O4 0.405008 0.083886 0.740344
O O5 0.574901 0.034211 0.680799
O O6 0.144703 0.938800 0.225841
O O7 0.261897 0.006409 0.516576
O O8 0.105916 0.781162 0.755630
O O9 0.242902 0.747323 0.375126
O O10 0.008028 0.733069 0.273091
O O11 0.000000 0.000000 0.500000
O O12 0.000000 0.000000 0.000000
O O13 0.676597 0.452666 0.905091
O O14 0.692675 0.192011 0.155917
O O15 0.849888 0.399258 0.867865
O O16 0.500000 0.500000 0.000000
O O17 0.000000 0.500000 0.000000
#
# Coordination Sequence:
#
# PCOD9040034 Si02
#       8
#     2   1   2   2   2   2   2   2
#     4  11  25  40  65  96 138 182 248 290 367 424
#     4  12  22  40  66  94 132 188 234 292 346 434
#     4  10  23  42  75 102 141 184 237 298 368 440
#     4  11  22  45  74 108 145 185 233 301 376 437
#     4  10  23  43  67  99 140 180 244 295 367 439
#     4  11  25  43  63  98 142 187 232 309 364 418
#     4  11  23  40  67 101 131 184 244 293 353 440
#     4  10  23  46  74 106 141 190 244 300 376 453
#
# _framework density 23.297509999999999
#
# number of rings (size 3 to 8) (size 9 to 14) (size 15 to 20)
#    0.000    1.333    2.667    2.000    5.600    3.200 
#    2.400    1.333    0.000    0.000    0.000    0.000 
#    0.000    0.000    0.000    0.000    0.000    0.000 
#
# Total GULP energy -83520.140144 kJ/mol
# GULP energy per Si atom -5568.009343 kJ/mol
# Density = 2.324448 g / cm^3
# Si number density = 23.297510 Si / 1000 Ang^3
#
#
#
# Elastic Constant Matrix: (Units=GPa)
#
#
# Indices 1 2 3 4 5 6 
#
# 1 116.9210 46.0644 3.5584 12.0666 3.0925 -1.7080
# 2 46.0644 98.1907 19.8693 23.3182 -25.5811 -13.9726
# 3 3.5584 19.8693 88.6655 12.7850 -9.8245 -7.6835
# 4 12.0666 23.3182 12.7850 46.1601 -11.2219 -2.0597
# 5 3.0925 -25.5811 -9.8245 -11.2219 30.2158 7.7830
# 6 -1.7080 -13.9726 -7.6835 -2.0597 7.7830 53.4900
#
#
#
# Elastic Compliance Matrix: (Units=1/GPa)
#
#
# Indices 1 2 3 4 5 6 
#
# 1 0.011775 -0.007353 0.000488 -0.001384 -0.007680 -0.000411
# 2 -0.007353 0.018853 -0.001638 -0.003577 0.014276 0.002240
# 3 0.000488 -0.001638 0.012203 -0.002290 0.001411 0.001047
# 4 -0.001384 -0.003577 -0.002290 0.025949 0.006322 -0.001228
# 5 -0.007680 0.014276 0.001411 0.006322 0.049621 -0.003290
# 6 -0.000411 0.002240 0.001047 -0.001228 -0.003290 0.019849
#
#
# Mechanical properties :
#
#
# Convention : Reuss Voigt Hill
#
# Bulk Modulus (GPa) = 38.72253 49.19571 43.95912
# Shear Modulus (GPa) = 30.51295 41.59220 36.05258
#
# Velocity S-wave (km/s) = 3.62292 4.22982 3.93808
# Velocity P-wave (km/s) = 5.84446 6.70950 6.29186
#
# Compressibility (1/GPa) = 0.02582476
#
# Stress axis : x y z
#
# Youngs Moduli (GPa) = 84.92568 53.04238 81.94625
#
# Poissons Ratio (x) = 0.39004 -0.04001
# Poissons Ratio (y) = 0.62450 0.13422
# Poissons Ratio (z) = -0.04147 0.08688
#
# Static dielectric constant tensor:
#      x y z
#    x 1.695570 0.011930 -0.058160 
#    y 0.011930 1.978350 0.104270 
#    z -0.058160 0.104270 1.905590 
# 
# From -- ./inp_files/90043.got.cif
#   From: 2010.05.17/outbox.cif.g08.bks.cpg/sg2_46_cif.got.tgz:90043.got - 2010.06.03 11:33:40.
