data_PCOD9040884
_publ_section_title
;
Structure prediction by ZEFSAII (Michael W. Deem and Ramdas Pophale) SiO2 
 PCOD9040884
Probable space group: P -1
;
_chemical_formula_sum "Si O2"
_cell_formula_units_Z 16
_cell_length_a 16.882708
_cell_length_b 22.340627
_cell_length_c 12.932773
_cell_angle_alpha 20.703269
_cell_angle_beta 32.014408
_cell_angle_gamma 23.420132
_cell_volume 683.525900
_symmetry_space_group_name_H-M "P -1"
_symmetry_group_IT_number 2
_symmetry_cell_setting 'triclinic'
loop_
_space_group_symop_operation_xyz
x,y,z
-x,-y,-z
loop_
_atom_site_type_symbol
_atom_site_label
_atom_site_fract_x
_atom_site_fract_y
_atom_site_fract_z
Si Si1 0.677428 0.495813 0.833549
Si Si2 0.372074 0.494903 0.736144
Si Si3 0.762378 0.650019 0.030810
Si Si4 0.990931 0.838269 0.129094
Si Si5 0.098997 0.464358 0.334928
Si Si6 0.273041 0.667642 0.288395
Si Si7 0.558583 0.067870 0.727995
Si Si8 0.033932 0.136896 0.309715
O O1 0.706727 0.574151 0.781643
O O2 0.885732 0.249126 0.972672
O O3 0.628140 0.682072 0.505337
O O4 0.500000 0.500000 0.000000
O O5 0.500000 0.500000 0.500000
O O6 0.343487 0.326874 0.996134
O O7 0.498814 0.441332 0.784547
O O8 0.145166 0.722097 0.637331
O O9 0.741407 0.503917 0.365117
O O10 0.644113 0.890762 0.825885
O O11 0.000000 0.500000 0.000000
O O12 0.887232 0.730767 0.418145
O O13 0.160620 0.734360 0.196928
O O14 0.840370 0.103147 0.889715
O O15 0.000000 0.500000 0.500000
O O16 0.984773 0.678327 0.038369
O O17 0.747460 0.035715 0.605360
O O18 0.500000 0.000000 0.000000
O O19 0.000000 0.000000 0.500000
#
# Coordination Sequence:
#
# PCOD9040884 Si02
#       8
#     2   2   2   2   2   2   2   2
#     4  11  25  41  68 102 141 176 228 290 360 424
#     4  10  25  43  67 101 139 184 234 298 356 419
#     4  11  23  43  68 100 139 174 238 292 359 413
#     4  10  23  44  67  90 133 184 231 277 351 424
#     4  10  23  45  66  99 141 184 232 291 354 424
#     4  10  23  43  69  92 132 183 230 290 348 420
#     4  12  26  44  73 105 140 186 234 297 352 429
#     4  12  26  44  73 107 142 188 244 296 354 427
#
# _framework density 23.408035999999999
#
# number of rings (size 3 to 8) (size 9 to 14) (size 15 to 20)
#    0.000    1.250    1.250    3.750   10.500    4.000 
#    0.000    0.625    0.000    0.000    0.000    0.000 
#    0.000    0.000    0.000    0.000    0.000    0.000 
#
# Total GULP energy -89398.755723 kJ/mol
# GULP energy per Si atom -5587.422233 kJ/mol
# Density = 2.335476 g / cm^3
# Si number density = 23.408036 Si / 1000 Ang^3
#
#
#
# Elastic Constant Matrix: (Units=GPa)
#
#
# Indices 1 2 3 4 5 6 
#
# 1 111.3193 18.4914 22.6609 8.7780 -32.5156 -26.9267
# 2 18.4914 94.1597 9.0176 11.7108 -10.2057 -1.3802
# 3 22.6609 9.0176 81.8140 -0.5545 -14.2676 7.0123
# 4 8.7780 11.7108 -0.5545 39.1948 1.4314 -6.6020
# 5 -32.5156 -10.2057 -14.2676 1.4314 60.9107 0.1674
# 6 -26.9267 -1.3802 7.0123 -6.6020 0.1674 46.1499
#
#
#
# Elastic Compliance Matrix: (Units=1/GPa)
#
#
# Indices 1 2 3 4 5 6 
#
# 1 0.013902 -0.001400 -0.003299 -0.001575 0.006428 0.008322
# 2 -0.001400 0.011475 -0.000633 -0.003308 0.001107 -0.000855
# 3 -0.003299 -0.000633 0.013789 0.000402 0.001364 -0.003987
# 4 -0.001575 -0.003308 0.000402 0.027412 -0.001953 0.002850
# 5 0.006428 0.001107 0.001364 -0.001953 0.020391 0.003223
# 6 0.008322 -0.000855 -0.003987 0.002850 0.003223 0.027500
#
#
# Mechanical properties :
#
#
# Convention : Reuss Voigt Hill
#
# Bulk Modulus (GPa) = 35.08595 43.07029 39.07812
# Shear Modulus (GPa) = 37.13788 45.05927 41.09857
#
# Velocity S-wave (km/s) = 3.98747 4.39218 4.19471
# Velocity P-wave (km/s) = 6.01841 6.64541 6.33966
#
# Compressibility (1/GPa) = 0.02850144
#
# Stress axis : x y z
#
# Youngs Moduli (GPa) = 71.93148 87.14819 72.52280
#
# Poissons Ratio (x) = 0.12197 0.23928
# Poissons Ratio (y) = 0.10067 0.04592
# Poissons Ratio (z) = 0.23733 0.05518
#
# Static dielectric constant tensor:
#      x y z
#    x 2.016940 -0.071560 0.065780 
#    y -0.071560 2.072640 -0.141900 
#    z 0.065780 -0.141900 2.046840 
# 
# From -- ./inp_files/539269.got.cif
#   From: 2010.05.17/outbox.cif.g08.bks.cpg/sg2_270_cif.got.tgz:539269.got - 2010.06.03 11:33:40.
