data_PCOD9040337
_publ_section_title
;
Structure prediction by ZEFSAII (Michael W. Deem and Ramdas Pophale) SiO2 
 PCOD9040337
Probable space group: P -1
;
_chemical_formula_sum "Si O2"
_cell_formula_units_Z 16
_cell_length_a 12.504096
_cell_length_b 14.960165
_cell_length_c 12.127608
_cell_angle_alpha 119.946518
_cell_angle_beta 46.369266
_cell_angle_gamma 151.253890
_cell_volume 752.360028
_symmetry_space_group_name_H-M "P -1"
_symmetry_group_IT_number 2
_symmetry_cell_setting 'triclinic'
loop_
_space_group_symop_operation_xyz
x,y,z
-x,-y,-z
loop_
_atom_site_type_symbol
_atom_site_label
_atom_site_fract_x
_atom_site_fract_y
_atom_site_fract_z
Si Si1 0.694397 0.354071 0.841286
Si Si2 0.774220 0.940503 0.567557
Si Si3 0.034836 0.282647 0.201915
Si Si4 0.120515 0.529847 0.816374
Si Si5 0.894884 0.073501 0.953641
Si Si6 0.272163 0.733692 0.448747
Si Si7 0.806499 0.139299 0.836091
Si Si8 0.852210 0.991488 0.284523
O O1 0.727859 0.488415 0.846129
O O2 0.682852 0.247023 0.702298
O O3 0.966891 0.505103 0.816230
O O4 0.403439 0.162725 0.991769
O O5 0.449981 0.718083 0.678304
O O6 0.853818 0.998190 0.419019
O O7 0.784777 0.051811 0.695213
O O8 0.000000 0.000000 0.500000
O O9 0.932606 0.174935 0.091378
O O10 0.806310 0.212369 0.392217
O O11 0.069215 0.200336 0.201904
O O12 0.000292 0.345199 0.785915
O O13 0.000000 0.500000 0.000000
O O14 0.931082 0.156113 0.865022
O O15 0.099945 0.098290 0.839843
O O16 0.544870 0.843035 0.372472
O O17 0.000000 0.500000 0.500000
O O18 0.500000 0.000000 0.000000
#
# Coordination Sequence:
#
# PCOD9040337 Si02
#       8
#     2   2   2   2   2   2   2   2
#     4  11  24  43  72 105 141 179 249 290 345 430
#     4  12  27  50  70 107 150 183 236 304 363 419
#     4  11  25  43  73 100 138 190 239 282 355 421
#     4  12  25  45  78 107 139 188 246 295 349 431
#     4  12  25  47  67 106 144 183 236 302 350 423
#     4  10  23  43  66 100 133 181 235 284 344 419
#     4  12  25  45  77 103 138 194 240 291 361 424
#     4  12  26  46  70 101 153 180 230 301 359 415
#
# _framework density 21.266414999999999
#
# number of rings (size 3 to 8) (size 9 to 14) (size 15 to 20)
#    0.000    0.500    5.000    3.000    3.500    1.000 
#    2.250    0.000    0.000    0.000    0.000    0.000 
#    0.000    0.000    0.000    0.000    0.000    0.000 
#
# Total GULP energy -89291.547183 kJ/mol
# GULP energy per Si atom -5580.721699 kJ/mol
# Density = 2.121801 g / cm^3
# Si number density = 21.266415 Si / 1000 Ang^3
#
#
#
# Elastic Constant Matrix: (Units=GPa)
#
#
# Indices 1 2 3 4 5 6 
#
# 1 102.7094 36.1531 31.5168 5.3497 2.9691 -0.4114
# 2 36.1531 118.5111 45.6922 11.8130 -2.0092 -17.3195
# 3 31.5168 45.6922 80.9439 26.3575 -2.0975 1.7766
# 4 5.3497 11.8130 26.3575 42.0256 -2.3181 0.6482
# 5 2.9691 -2.0092 -2.0975 -2.3181 42.8604 1.1313
# 6 -0.4114 -17.3195 1.7766 0.6482 1.1313 40.8270
#
#
#
# Elastic Compliance Matrix: (Units=1/GPa)
#
#
# Indices 1 2 3 4 5 6 
#
# 1 0.011659 -0.002417 -0.003655 0.001444 -0.001002 -0.000744
# 2 -0.002417 0.012377 -0.006412 0.000784 0.000331 0.005483
# 3 -0.003655 -0.006412 0.021014 -0.010830 0.000488 -0.003513
# 4 0.001444 0.000784 -0.010830 0.030236 0.001034 0.000310
# 5 -0.001002 0.000331 0.000488 0.001034 0.023511 -0.000559
# 6 -0.000744 0.005483 -0.003513 0.000310 -0.000559 0.026976
#
#
# Mechanical properties :
#
#
# Convention : Reuss Voigt Hill
#
# Bulk Modulus (GPa) = 49.80045 58.76539 54.28292
# Shear Modulus (GPa) = 31.75920 37.72943 34.74432
#
# Velocity S-wave (km/s) = 3.86864 4.21661 4.04637
# Velocity P-wave (km/s) = 6.58965 7.16934 6.88559
#
# Compressibility (1/GPa) = 0.02008014
#
# Stress axis : x y z
#
# Youngs Moduli (GPa) = 85.76749 80.79788 47.58830
#
# Poissons Ratio (x) = 0.19531 0.17394
# Poissons Ratio (y) = 0.20732 0.30515
# Poissons Ratio (z) = 0.31348 0.51811
#
# Static dielectric constant tensor:
#      x y z
#    x 1.792290 -0.008380 0.018090 
#    y -0.008380 1.772840 -0.041320 
#    z 0.018090 -0.041320 1.973430 
# 
# From -- ./inp_files/433068.got.cif
#   From: 2010.05.17/outbox.cif.g08.bks.cpg/sg2_217_cif.got.tgz:433068.got - 2010.06.03 11:33:40.
