data_PCOD9040256
_publ_section_title
;
Structure prediction by ZEFSAII (Michael W. Deem and Ramdas Pophale) SiO2 
 PCOD9040256
Probable space group: P -1
;
_chemical_formula_sum "Si O2"
_cell_formula_units_Z 12
_cell_length_a 4.997563
_cell_length_b 13.370220
_cell_length_c 8.620931
_cell_angle_alpha 117.427900
_cell_angle_beta 83.659786
_cell_angle_gamma 93.777380
_cell_volume 508.085333
_symmetry_space_group_name_H-M "P -1"
_symmetry_group_IT_number 2
_symmetry_cell_setting 'triclinic'
loop_
_space_group_symop_operation_xyz
x,y,z
-x,-y,-z
loop_
_atom_site_type_symbol
_atom_site_label
_atom_site_fract_x
_atom_site_fract_y
_atom_site_fract_z
Si Si1 0.037423 0.698297 0.716973
Si Si2 0.556547 0.763545 0.575597
Si Si3 0.513256 0.014372 0.693641
Si Si4 0.002949 0.908362 0.074492
Si Si5 0.232788 0.384955 0.789606
Si Si6 0.250450 0.479045 0.189130
O O1 0.815326 0.753068 0.659757
O O2 0.897906 0.585792 0.710479
O O3 0.315532 0.684377 0.598173
O O4 0.089341 0.788802 0.914813
O O5 0.450558 0.889243 0.673537
O O6 0.659308 0.727668 0.374108
O O7 0.500000 0.000000 0.500000
O O8 0.706651 0.903742 0.162867
O O9 0.798861 0.051079 0.772540
O O10 0.000000 0.000000 0.000000
O O11 0.934965 0.416512 0.775969
O O12 0.443038 0.480637 0.779950
O O13 0.247591 0.396432 0.980786
#
# Coordination Sequence:
#
# PCOD9040256 Si02
#       6
#     2   2   2   2   2   2
#     4  12  25  40  69  96 127 171 217 256 325 383
#     4  12  24  42  64  99 128 167 215 269 316 377
#     4  12  26  44  66  99 132 172 218 266 324 380
#     4  12  23  46  67  93 136 173 210 269 321 388
#     4  10  23  43  65  89 133 162 210 268 316 381
#     4  10  23  44  63  94 123 172 210 257 327 383
#
# _framework density 23.618079999999999
#
# number of rings (size 3 to 8) (size 9 to 14) (size 15 to 20)
#    0.000    0.667    3.333    4.000    2.333    4.000 
#    6.000    0.000    0.000    0.000    0.000    0.000 
#    0.000    0.000    0.000    0.000    0.000    0.000 
#
# Total GULP energy -67211.719142 kJ/mol
# GULP energy per Si atom -5600.976595 kJ/mol
# Density = 2.356432 g / cm^3
# Si number density = 23.618080 Si / 1000 Ang^3
#
#
#
# Elastic Constant Matrix: (Units=GPa)
#
#
# Indices 1 2 3 4 5 6 
#
# 1 97.4165 -7.6578 19.7890 -6.7950 1.5070 -2.0367
# 2 -7.6578 24.8532 2.9452 -0.1552 -2.8247 6.6251
# 3 19.7890 2.9452 86.5659 8.9198 -1.1309 -14.5608
# 4 -6.7950 -0.1552 8.9198 22.1626 -7.2556 -6.3570
# 5 1.5070 -2.8247 -1.1309 -7.2556 49.2239 8.2669
# 6 -2.0367 6.6251 -14.5608 -6.3570 8.2669 25.0573
#
#
#
# Elastic Compliance Matrix: (Units=1/GPa)
#
#
# Indices 1 2 3 4 5 6 
#
# 1 0.011634 0.004463 -0.003523 0.004894 0.000757 -0.001289
# 2 0.004463 0.047401 -0.005497 0.000828 0.005425 -0.016944
# 3 -0.003523 -0.005497 0.014562 -0.005086 -0.002142 0.009045
# 4 0.004894 0.000828 -0.005086 0.053182 0.006162 0.008683
# 5 0.000757 0.005425 -0.002142 0.006162 0.022909 -0.008612
# 6 -0.001289 -0.016944 0.009045 0.008683 -0.008612 0.054584
#
#
# Mechanical properties :
#
#
# Convention : Reuss Voigt Hill
#
# Bulk Modulus (GPa) = 15.50817 26.55427 21.03122
# Shear Modulus (GPa) = 21.28730 32.20604 26.74667
#
# Velocity S-wave (km/s) = 3.00545 3.69673 3.36886
# Velocity P-wave (km/s) = 4.31556 5.43035 4.90473
#
# Compressibility (1/GPa) = 0.06448213
#
# Stress axis : x y z
#
# Youngs Moduli (GPa) = 85.95276 21.09645 68.67291
#
# Poissons Ratio (x) = -0.09414 0.24192
# Poissons Ratio (y) = -0.38357 0.37753
# Poissons Ratio (z) = 0.30279 0.11598
#
# Static dielectric constant tensor:
#      x y z
#    x 1.828870 0.015290 0.010430 
#    y 0.015290 1.885440 0.005830 
#    z 0.010430 0.005830 1.897320 
# 
# From -- ./inp_files/5525.got.cif
#   From: 2010.05.17/outbox.cif.g08.bks.cpg/sg2_3_cif.got.tgz:5525.got - 2010.06.03 11:33:40.
