data_PCOD9040280
_publ_section_title
;
Structure prediction by ZEFSAII (Michael W. Deem and Ramdas Pophale) SiO2 
 PCOD9040280
Probable space group: P -1
;
_chemical_formula_sum "Si O2"
_cell_formula_units_Z 16
_cell_length_a 9.177620
_cell_length_b 16.554233
_cell_length_c 12.851544
_cell_angle_alpha 52.176441
_cell_angle_beta 76.853269
_cell_angle_gamma 121.203425
_cell_volume 779.272056
_symmetry_space_group_name_H-M "P -1"
_symmetry_group_IT_number 2
_symmetry_cell_setting 'triclinic'
loop_
_space_group_symop_operation_xyz
x,y,z
-x,-y,-z
loop_
_atom_site_type_symbol
_atom_site_label
_atom_site_fract_x
_atom_site_fract_y
_atom_site_fract_z
Si Si1 0.841731 0.209777 0.798324
Si Si2 0.928291 0.349177 0.259415
Si Si3 0.777250 0.343573 0.867264
Si Si4 0.635758 0.455769 0.688730
Si Si5 0.816717 0.795229 0.222485
Si Si6 0.708338 0.708796 0.549915
Si Si7 0.262020 0.985259 0.372106
Si Si8 0.457394 0.718794 0.745893
O O1 0.892488 0.330624 0.775780
O O2 0.028420 0.342978 0.559728
O O3 0.979485 0.185005 0.836255
O O4 0.500000 0.000000 0.000000
O O5 0.985541 0.453970 0.267872
O O6 0.825586 0.176743 0.442695
O O7 0.705320 0.278349 0.278386
O O8 0.232721 0.528180 0.007490
O O9 0.589562 0.320069 0.856460
O O10 0.572327 0.165682 0.122664
O O11 0.450186 0.363906 0.687653
O O12 0.575756 0.516692 0.725085
O O13 0.719013 0.743964 0.398911
O O14 0.000000 0.000000 0.000000
O O15 0.550839 0.698596 0.654901
O O16 0.026996 0.882651 0.407583
O O17 0.290759 0.086048 0.378860
#
# Coordination Sequence:
#
# PCOD9040280 Si02
#       8
#     2   2   2   2   2   2   2   2
#     4  11  23  39  65  96 130 176 223 265 322 387
#     4  10  23  43  65  94 129 162 214 274 321 390
#     4  11  23  40  69  92 131 175 214 264 329 381
#     4  11  23  44  64  95 137 176 218 271 320 390
#     4  11  25  43  63  98 140 172 222 270 318 392
#     4  11  22  41  66  91 130 170 214 262 328 386
#     4  11  22  44  64  97 126 165 216 271 323 391
#     4  10  24  42  66  94 126 165 214 267 331 388
#
# _framework density 20.531981999999999
#
# number of rings (size 3 to 8) (size 9 to 14) (size 15 to 20)
#    0.000    1.250    1.250    5.625    3.500    1.500 
#    4.500    0.000    0.000    0.000    0.000    0.000 
#    0.000    0.000    0.000    0.000    0.000    0.000 
#
# Total GULP energy -89447.264383 kJ/mol
# GULP energy per Si atom -5590.454024 kJ/mol
# Density = 2.048525 g / cm^3
# Si number density = 20.531982 Si / 1000 Ang^3
#
#
#
# Elastic Constant Matrix: (Units=GPa)
#
#
# Indices 1 2 3 4 5 6 
#
# 1 63.6927 40.7737 38.0632 -5.0689 25.8868 -9.9980
# 2 40.7737 150.6928 30.7275 1.1644 -0.8416 -11.1078
# 3 38.0632 30.7275 76.3231 -17.6830 21.3856 -13.9741
# 4 -5.0689 1.1644 -17.6830 24.4937 0.3661 -4.6428
# 5 25.8868 -0.8416 21.3856 0.3661 32.9225 -3.7368
# 6 -9.9980 -11.1078 -13.9741 -4.6428 -3.7368 46.1277
#
#
#
# Elastic Compliance Matrix: (Units=1/GPa)
#
#
# Indices 1 2 3 4 5 6 
#
# 1 0.034732 -0.008121 -0.006253 0.003820 -0.023251 0.002179
# 2 -0.008121 0.009613 -0.003491 -0.004842 0.008922 -0.000267
# 3 -0.006253 -0.003491 0.026850 0.019754 -0.012045 0.006951
# 4 0.003820 -0.004842 0.019754 0.058285 -0.015442 0.010262
# 5 -0.023251 0.008922 -0.012045 -0.015442 0.056481 -0.003519
# 6 0.002179 -0.000267 0.006951 0.010262 -0.003519 0.024940
#
#
# Mechanical properties :
#
#
# Convention : Reuss Voigt Hill
#
# Bulk Modulus (GPa) = 28.19663 56.64859 42.42261
# Shear Modulus (GPa) = 19.34602 32.78506 26.06554
#
# Velocity S-wave (km/s) = 3.07292 4.00031 3.56688
# Velocity P-wave (km/s) = 5.13355 6.99907 6.13760
#
# Compressibility (1/GPa) = 0.03546523
#
# Stress axis : x y z
#
# Youngs Moduli (GPa) = 28.79191 104.02844 37.24413
#
# Poissons Ratio (x) = 0.84485 0.23288
# Poissons Ratio (y) = 0.23383 0.13001
# Poissons Ratio (z) = 0.18003 0.36313
#
# Static dielectric constant tensor:
#      x y z
#    x 1.721750 0.017250 0.003290 
#    y 0.017250 1.749300 -0.015960 
#    z 0.003290 -0.015960 1.726890 
# 
# From -- ./inp_files/398778.got.cif
#   From: 2010.05.17/outbox.cif.g08.bks.cpg/sg2_200_cif.got.tgz:398778.got - 2010.06.03 11:33:40.
