data_PCOD9040857
_publ_section_title
;
Structure prediction by ZEFSAII (Michael W. Deem and Ramdas Pophale) SiO2 
 PCOD9040857
Probable space group: P -1
;
_chemical_formula_sum "Si O2"
_cell_formula_units_Z 14
_cell_length_a 11.355828
_cell_length_b 8.867594
_cell_length_c 11.318476
_cell_angle_alpha 57.195868
_cell_angle_beta 50.938830
_cell_angle_gamma 38.622929
_cell_volume 549.522226
_symmetry_space_group_name_H-M "P -1"
_symmetry_group_IT_number 2
_symmetry_cell_setting 'triclinic'
loop_
_space_group_symop_operation_xyz
x,y,z
-x,-y,-z
loop_
_atom_site_type_symbol
_atom_site_label
_atom_site_fract_x
_atom_site_fract_y
_atom_site_fract_z
Si Si1 0.236970 0.797515 0.615621
Si Si2 0.548193 0.164307 0.947406
Si Si3 0.964302 0.707500 0.865179
Si Si4 0.127599 0.041855 0.821532
Si Si5 0.412051 0.221394 0.373453
Si Si6 0.165557 0.393680 0.231356
Si Si7 0.663958 0.390617 0.606469
O O1 0.476337 0.636565 0.551996
O O2 0.204048 0.814485 0.489557
O O3 0.172340 0.649100 0.756944
O O4 0.119589 0.001328 0.703151
O O5 0.574560 0.304520 0.780298
O O6 0.778034 0.959846 0.938773
O O7 0.355868 0.352941 0.071490
O O8 0.500000 0.000000 0.000000
O O9 0.894970 0.718238 0.771025
O O10 0.000000 0.500000 0.000000
O O11 0.024351 0.319524 0.774397
O O12 0.372906 0.857636 0.773299
O O13 0.000000 0.000000 0.000000
O O14 0.267756 0.252980 0.349467
O O15 0.270672 0.492095 0.405576
O O16 0.500000 0.000000 0.500000
#
# Coordination Sequence:
#
# PCOD9040857 Si02
#       7
#     2   2   2   2   2   2   2
#     4  10  23  43  72 101 149 193 247 310 374 442
#     4  10  23  43  69 103 141 187 247 307 367 447
#     4  11  24  42  71 110 144 193 248 307 375 457
#     4  11  25  46  75 113 148 196 256 315 381 455
#     4  11  28  49  74 108 157 202 251 318 383 455
#     4  11  26  45  76 107 151 194 253 309 390 444
#     4  10  23  46  70 103 147 197 252 307 378 448
#
# _framework density 25.476676999999999
#
# number of rings (size 3 to 8) (size 9 to 14) (size 15 to 20)
#    0.000    1.429    0.000    4.286    8.000    9.143 
#    0.000    0.000    0.000    0.000    0.000    0.000 
#    0.000    0.000    0.000    0.000    0.000    0.000 
#
# Total GULP energy -78181.241605 kJ/mol
# GULP energy per Si atom -5584.374400 kJ/mol
# Density = 2.541869 g / cm^3
# Si number density = 25.476677 Si / 1000 Ang^3
#
#
#
# Elastic Constant Matrix: (Units=GPa)
#
#
# Indices 1 2 3 4 5 6 
#
# 1 90.1860 19.5038 0.3407 -1.7823 7.7676 -3.3149
# 2 19.5038 86.7172 8.4647 5.3754 20.0947 -2.4388
# 3 0.3407 8.4647 80.4876 -2.2864 7.7170 18.4263
# 4 -1.7823 5.3754 -2.2864 42.7859 5.9438 0.8496
# 5 7.7676 20.0947 7.7170 5.9438 33.6149 3.8840
# 6 -3.3149 -2.4388 18.4263 0.8496 3.8840 44.7214
#
#
#
# Elastic Compliance Matrix: (Units=1/GPa)
#
#
# Indices 1 2 3 4 5 6 
#
# 1 0.011782 -0.002328 0.000201 0.001007 -0.001646 0.000787
# 2 -0.002328 0.014043 -0.001162 -0.000898 -0.007634 0.001752
# 3 0.000201 -0.001162 0.014094 0.001321 -0.002163 -0.005693
# 4 0.001007 -0.000898 0.001321 0.024194 -0.004207 -0.000613
# 5 -0.001646 -0.007634 -0.002163 -0.004207 0.036247 -0.002715
# 6 0.000787 0.001752 -0.005693 -0.000613 -0.002715 0.025107
#
#
# Mechanical properties :
#
#
# Convention : Reuss Voigt Hill
#
# Bulk Modulus (GPa) = 29.99375 34.88991 32.44183
# Shear Modulus (GPa) = 34.92667 39.49655 37.21161
#
# Velocity S-wave (km/s) = 3.70662 3.94166 3.82594
# Velocity P-wave (km/s) = 5.48792 5.86857 5.68144
#
# Compressibility (1/GPa) = 0.03334027
#
# Stress axis : x y z
#
# Youngs Moduli (GPa) = 84.87837 71.21170 70.95333
#
# Poissons Ratio (x) = 0.16581 -0.01427
# Poissons Ratio (y) = 0.19763 0.08242
# Poissons Ratio (z) = -0.01708 0.08272
#
# Static dielectric constant tensor:
#      x y z
#    x 2.093590 0.003210 0.050410 
#    y 0.003210 2.012330 0.074210 
#    z 0.050410 0.074210 2.060050 
# 
# From -- ./inp_files/391716.got.cif
#   From: 2010.05.17/outbox.cif.g08.bks.cpg/sg2_196_cif.got.tgz:391716.got - 2010.06.03 11:33:40.
