data_PCOD9040153
_publ_section_title
;
Structure prediction by ZEFSAII (Michael W. Deem and Ramdas Pophale) SiO2 
 PCOD9040153
Probable space group: P -1
;
_chemical_formula_sum "Si O2"
_cell_formula_units_Z 14
_cell_length_a 10.543678
_cell_length_b 8.591366
_cell_length_c 10.617437
_cell_angle_alpha 133.000825
_cell_angle_beta 131.729357
_cell_angle_gamma 66.898650
_cell_volume 521.583946
_symmetry_space_group_name_H-M "P -1"
_symmetry_group_IT_number 2
_symmetry_cell_setting 'triclinic'
loop_
_space_group_symop_operation_xyz
x,y,z
-x,-y,-z
loop_
_atom_site_type_symbol
_atom_site_label
_atom_site_fract_x
_atom_site_fract_y
_atom_site_fract_z
Si Si1 0.668738 0.309467 0.505369
Si Si2 0.989747 0.469279 0.662263
Si Si3 0.791817 0.296566 0.843624
Si Si4 0.081903 0.111346 0.243548
Si Si5 0.569199 0.769064 0.900052
Si Si6 0.428658 0.337154 0.698963
Si Si7 0.227081 0.165538 0.701069
O O1 0.727726 0.399167 0.730212
O O2 0.477648 0.287343 0.308506
O O3 0.795612 0.430183 0.555651
O O4 0.719205 0.068203 0.415610
O O5 0.052006 0.233092 0.563698
O O6 0.012063 0.669972 0.690171
O O7 0.099808 0.555861 0.904087
O O8 0.606516 0.233666 0.751255
O O9 0.905761 0.104005 0.786643
O O10 0.280912 0.210281 0.444984
O O11 0.000000 0.000000 0.000000
O O12 0.465006 0.579306 0.807330
O O13 0.745617 0.799770 0.112130
O O14 0.500000 0.000000 0.000000
O O15 0.355981 0.318509 0.781620
#
# Coordination Sequence:
#
# PCOD9040153 Si02
#       7
#     2   2   2   2   2   2   2
#     4  11  23  44  66  97 140 174 224 275 335 397
#     4  11  23  44  66  97 140 174 224 275 335 397
#     4  11  24  43  71  99 131 178 225 276 334 397
#     4  10  23  43  64 100 132 173 225 269 332 397
#     4  10  23  43  64 100 132 173 225 269 332 397
#     4  12  22  46  72  96 138 172 226 280 332 392
#     4  11  24  43  71  99 131 178 225 276 334 397
#
# _framework density 26.841315999999999
#
# number of rings (size 3 to 8) (size 9 to 14) (size 15 to 20)
#    0.000    1.143    4.286    1.714    0.000    1.143 
#    0.000    0.000    3.143    0.000    0.000    0.000 
#    0.000    0.000    0.000    0.000    0.000    0.000 
#
# Total GULP energy -78011.190898 kJ/mol
# GULP energy per Si atom -5572.227921 kJ/mol
# Density = 2.678022 g / cm^3
# Si number density = 26.841316 Si / 1000 Ang^3
#
#
#
# Elastic Constant Matrix: (Units=GPa)
#
#
# Indices 1 2 3 4 5 6 
#
# 1 54.0844 0.1814 -0.7935 -9.7918 2.1588 -4.4529
# 2 0.1814 186.2452 37.0817 -32.6094 -13.3475 -13.5326
# 3 -0.7935 37.0817 144.1814 -25.4650 -10.7580 -4.6335
# 4 -9.7918 -32.6094 -25.4650 65.7109 7.7436 -2.4466
# 5 2.1588 -13.3475 -10.7580 7.7436 34.5918 0.9084
# 6 -4.4529 -13.5326 -4.6335 -2.4466 0.9084 30.9132
#
#
#
# Elastic Compliance Matrix: (Units=1/GPa)
#
#
# Indices 1 2 3 4 5 6 
#
# 1 0.019546 0.000663 0.000595 0.003808 -0.001724 0.003547
# 2 0.000663 0.006365 -0.000933 0.002839 0.001412 0.002925
# 3 0.000595 -0.000933 0.007759 0.002501 0.001430 0.000996
# 4 0.003808 0.002839 0.002501 0.018612 -0.002628 0.003716
# 5 -0.001724 0.001412 0.001430 -0.002628 0.030608 -0.000523
# 6 0.003547 0.002925 0.000996 0.003716 -0.000523 0.034599
#
#
# Mechanical properties :
#
#
# Convention : Reuss Voigt Hill
#
# Bulk Modulus (GPa) = 29.13596 50.82780 39.98188
# Shear Modulus (GPa) = 38.97750 49.44594 44.21172
#
# Velocity S-wave (km/s) = 3.81484 4.29669 4.06291
# Velocity P-wave (km/s) = 5.50295 6.60249 6.07764
#
# Compressibility (1/GPa) = 0.03432185
#
# Stress axis : x y z
#
# Youngs Moduli (GPa) = 51.16041 157.10709 128.87676
#
# Poissons Ratio (x) = -0.10422 -0.07665
# Poissons Ratio (y) = -0.03394 0.12019
# Poissons Ratio (z) = -0.03043 0.14652
#
# Static dielectric constant tensor:
#      x y z
#    x 2.243840 -0.058190 -0.054130 
#    y -0.058190 2.109220 0.032850 
#    z -0.054130 0.032850 2.136150 
# 
# From -- ./inp_files/190214.got.cif
#   From: 2010.05.17/outbox.cif.g08.bks.cpg/sg2_96_cif.got.tgz:190214.got - 2010.06.03 11:33:40.
