data_PCOD9040792
_publ_section_title
;
Structure prediction by ZEFSAII (Michael W. Deem and Ramdas Pophale) SiO2 
 PCOD9040792
Probable space group: P -1
;
_chemical_formula_sum "Si O2"
_cell_formula_units_Z 14
_cell_length_a 7.942036
_cell_length_b 6.963946
_cell_length_c 13.679957
_cell_angle_alpha 128.277850
_cell_angle_beta 72.526193
_cell_angle_gamma 119.866325
_cell_volume 515.030397
_symmetry_space_group_name_H-M "P -1"
_symmetry_group_IT_number 2
_symmetry_cell_setting 'triclinic'
loop_
_space_group_symop_operation_xyz
x,y,z
-x,-y,-z
loop_
_atom_site_type_symbol
_atom_site_label
_atom_site_fract_x
_atom_site_fract_y
_atom_site_fract_z
Si Si1 0.298955 0.247470 0.304624
Si Si2 0.598028 0.107047 0.696057
Si Si3 0.979407 0.420807 0.650787
Si Si4 0.330092 0.261392 0.899929
Si Si5 0.714284 0.446528 0.195319
Si Si6 0.074429 0.805918 0.041254
Si Si7 0.232361 0.765000 0.547534
O O1 0.509259 0.362011 0.255103
O O2 0.257205 0.497521 0.425532
O O3 0.306029 0.090585 0.352232
O O4 0.163185 0.026255 0.180573
O O5 0.779597 0.388589 0.730659
O O6 0.452210 0.089093 0.803406
O O7 0.441822 0.994811 0.602925
O O8 0.888067 0.195866 0.510163
O O9 0.119548 0.410637 0.708104
O O10 0.108999 0.680879 0.643541
O O11 0.291130 0.363723 0.833015
O O12 0.120053 0.172029 0.956830
O O13 0.500000 0.500000 0.000000
O O14 0.763581 0.205433 0.065408
O O15 0.000000 0.500000 0.000000
#
# Coordination Sequence:
#
# PCOD9040792 Si02
#       7
#     2   2   2   2   2   2   2
#     4  12  25  45  73 103 146 183 239 296 350 423
#     4  12  24  46  72 105 146 188 237 292 350 422
#     4  11  25  47  73  99 149 184 240 288 350 415
#     4  11  24  45  73 104 142 183 239 290 357 426
#     4  11  23  46  71 106 141 183 238 294 357 416
#     4  10  23  43  69 100 135 181 234 286 355 417
#     4  11  27  48  67 108 145 187 244 287 350 421
#
# _framework density 27.182863999999999
#
# number of rings (size 3 to 8) (size 9 to 14) (size 15 to 20)
#    0.000    0.857    1.429    6.429    4.000    0.571 
#    2.571    2.143    0.000    0.000    0.000    0.000 
#    0.000    0.000    0.000    0.000    0.000    0.000 
#
# Total GULP energy -78281.809588 kJ/mol
# GULP energy per Si atom -5591.557828 kJ/mol
# Density = 2.712099 g / cm^3
# Si number density = 27.182864 Si / 1000 Ang^3
#
#
#
# Elastic Constant Matrix: (Units=GPa)
#
#
# Indices 1 2 3 4 5 6 
#
# 1 166.5452 58.7888 55.9584 7.9264 12.8600 31.1640
# 2 58.7888 117.5560 40.3847 -21.9073 -1.9029 32.5285
# 3 55.9584 40.3847 116.9931 9.2269 5.6430 14.4018
# 4 7.9264 -21.9073 9.2269 50.0379 9.5354 2.8037
# 5 12.8600 -1.9029 5.6430 9.5354 79.4377 5.1362
# 6 31.1640 32.5285 14.4018 2.8037 5.1362 69.4345
#
#
#
# Elastic Compliance Matrix: (Units=1/GPa)
#
#
# Indices 1 2 3 4 5 6 
#
# 1 0.008495 -0.003360 -0.002501 -0.002092 -0.000926 -0.001567
# 2 -0.003360 0.014004 -0.003257 0.007428 0.000524 -0.004715
# 3 -0.002501 -0.003257 0.011056 -0.003073 -0.000121 0.000488
# 4 -0.002092 0.007428 -0.003073 0.024680 -0.002050 -0.002749
# 5 -0.000926 0.000524 -0.000121 -0.002050 0.013050 -0.000687
# 6 -0.001567 -0.004715 0.000488 -0.002749 -0.000687 0.017375
#
#
# Mechanical properties :
#
#
# Convention : Reuss Voigt Hill
#
# Bulk Modulus (GPa) = 65.28307 79.03978 72.16143
# Shear Modulus (GPa) = 44.64204 56.17952 50.41078
#
# Velocity S-wave (km/s) = 4.05691 4.55106 4.31107
# Velocity P-wave (km/s) = 6.78329 7.53368 7.16831
#
# Compressibility (1/GPa) = 0.01531791
#
# Stress axis : x y z
#
# Youngs Moduli (GPa) = 117.71599 71.41024 90.44771
#
# Poissons Ratio (x) = 0.23997 0.22619
# Poissons Ratio (y) = 0.39557 0.29461
# Poissons Ratio (z) = 0.29438 0.23260
#
# Static dielectric constant tensor:
#      x y z
#    x 2.208200 -0.197290 -0.034280 
#    y -0.197290 2.471680 -0.013910 
#    z -0.034280 -0.013910 2.236480 
# 
# From -- ./inp_files/493841.got.cif
#   From: 2010.05.17/outbox.cif.g08.bks.cpg/sg2_247_cif.got.tgz:493841.got - 2010.06.03 11:33:40.
