data_PCOD9040848
_publ_section_title
;
Structure prediction by ZEFSAII (Michael W. Deem and Ramdas Pophale) SiO2 
 PCOD9040848
Probable space group: P -1
;
_chemical_formula_sum "Si O2"
_cell_formula_units_Z 14
_cell_length_a 17.878096
_cell_length_b 7.578617
_cell_length_c 11.150010
_cell_angle_alpha 81.966177
_cell_angle_beta 27.070385
_cell_angle_gamma 65.559600
_cell_volume 521.940318
_symmetry_space_group_name_H-M "P -1"
_symmetry_group_IT_number 2
_symmetry_cell_setting 'triclinic'
loop_
_space_group_symop_operation_xyz
x,y,z
-x,-y,-z
loop_
_atom_site_type_symbol
_atom_site_label
_atom_site_fract_x
_atom_site_fract_y
_atom_site_fract_z
Si Si1 0.081691 0.643057 0.359290
Si Si2 0.422004 0.686200 0.317973
Si Si3 0.346328 0.954682 0.169521
Si Si4 0.657540 0.669578 0.557359
Si Si5 0.703880 0.609314 0.238372
Si Si6 0.223443 0.854424 0.824177
Si Si7 0.015897 0.288057 0.243947
O O1 0.000000 0.500000 0.500000
O O2 0.061801 0.731025 0.515236
O O3 0.329204 0.468497 0.986657
O O4 0.907044 0.849086 0.501587
O O5 0.391806 0.767757 0.217128
O O6 0.380099 0.508874 0.401502
O O7 0.261793 0.881661 0.626661
O O8 0.437748 0.882862 0.910851
O O9 0.500000 0.000000 0.000000
O O10 0.730059 0.688094 0.323830
O O11 0.835660 0.542194 0.418305
O O12 0.455002 0.737143 0.562995
O O13 0.811782 0.336418 0.102662
O O14 0.788776 0.707809 0.022499
O O15 0.066048 0.091845 0.099972
#
# Coordination Sequence:
#
# PCOD9040848 Si02
#       7
#     2   2   2   2   2   2   2
#     4  12  25  47  72 109 139 192 238 290 368 423
#     4  11  25  49  70 102 152 178 239 304 342 437
#     4  12  25  44  74 104 141 188 235 295 360 423
#     4  11  25  47  67 108 141 184 246 292 356 427
#     4  10  23  43  69 102 143 188 239 295 354 430
#     4  10  24  46  71 106 140 191 240 293 361 423
#     4  12  24  45  74 102 149 187 240 298 355 428
#
# _framework density 26.822991999999999
#
# number of rings (size 3 to 8) (size 9 to 14) (size 15 to 20)
#    0.000    0.857    2.857    3.000    2.000    2.857 
#   18.000    0.000    0.000    0.000    0.000    0.000 
#    0.000    0.000    0.000    0.000    0.000    0.000 
#
# Total GULP energy -78420.862661 kJ/mol
# GULP energy per Si atom -5601.490190 kJ/mol
# Density = 2.676194 g / cm^3
# Si number density = 26.822992 Si / 1000 Ang^3
#
#
#
# Elastic Constant Matrix: (Units=GPa)
#
#
# Indices 1 2 3 4 5 6 
#
# 1 118.1358 17.3290 36.6307 6.5395 20.3214 -4.4976
# 2 17.3290 66.9630 29.1009 -0.2236 8.1636 1.7980
# 3 36.6307 29.1009 122.4069 8.9664 20.9826 -1.1414
# 4 6.5395 -0.2236 8.9664 34.0672 -6.0074 -2.2900
# 5 20.3214 8.1636 20.9826 -6.0074 59.2295 7.1405
# 6 -4.4976 1.7980 -1.1414 -2.2900 7.1405 50.1158
#
#
#
# Elastic Compliance Matrix: (Units=1/GPa)
#
#
# Indices 1 2 3 4 5 6 
#
# 1 0.009925 -0.001388 -0.002012 -0.001802 -0.002831 0.001216
# 2 -0.001388 0.016945 -0.003649 0.001227 -0.000357 -0.000709
# 3 -0.002012 -0.003649 0.010331 -0.002821 -0.002808 0.000457
# 4 -0.001802 0.001227 -0.002821 0.031289 0.004561 0.000510
# 5 -0.002831 -0.000357 -0.002808 0.004561 0.019712 -0.002905
# 6 0.001216 -0.000709 0.000457 0.000510 -0.002905 0.020536
#
#
# Mechanical properties :
#
#
# Convention : Reuss Voigt Hill
#
# Bulk Modulus (GPa) = 43.27996 52.62523 47.95259
# Shear Modulus (GPa) = 38.30381 43.64551 40.97466
#
# Velocity S-wave (km/s) = 3.78302 4.03819 3.91269
# Velocity P-wave (km/s) = 5.93734 6.43465 6.19099
#
# Compressibility (1/GPa) = 0.02310538
#
# Stress axis : x y z
#
# Youngs Moduli (GPa) = 100.75426 59.01449 96.79486
#
# Poissons Ratio (x) = 0.08190 0.19471
# Poissons Ratio (y) = 0.13983 0.35316
# Poissons Ratio (z) = 0.20268 0.21531
#
# Static dielectric constant tensor:
#      x y z
#    x 0.656210 1.435840 -0.004060 
#    y 1.435840 0.743240 0.161500 
#    z -0.004060 0.161500 2.230980 
# 
# From -- ./inp_files/461296.got.cif
#   From: 2010.05.17/outbox.cif.g08.bks.cpg/sg2_231_cif.got.tgz:461296.got - 2010.06.03 11:33:40.
