data_PCOD9040144
_publ_section_title
;
Structure prediction by ZEFSAII (Michael W. Deem and Ramdas Pophale) SiO2 
 PCOD9040144
Probable space group: P -1
;
_chemical_formula_sum "Si O2"
_cell_formula_units_Z 13
_cell_length_a 13.441637
_cell_length_b 9.604704
_cell_length_c 7.689749
_cell_angle_alpha 75.377998
_cell_angle_beta 118.703544
_cell_angle_gamma 56.622052
_cell_volume 515.405889
_symmetry_space_group_name_H-M "P -1"
_symmetry_group_IT_number 2
_symmetry_cell_setting 'triclinic'
loop_
_space_group_symop_operation_xyz
x,y,z
-x,-y,-z
loop_
_atom_site_type_symbol
_atom_site_label
_atom_site_fract_x
_atom_site_fract_y
_atom_site_fract_z
Si Si1 0.576555 0.644418 0.877562
Si Si2 0.837985 0.998377 0.519834
Si Si3 0.713736 0.786013 0.083895
Si Si4 0.842294 0.128374 0.121685
Si Si5 0.086299 0.394894 0.326389
Si Si6 0.390378 0.295942 0.494288
Si Si7 0.500000 0.500000 0.500000
O O1 0.554071 0.758166 0.645575
O O2 0.380955 0.765997 0.709386
O O3 0.646208 0.687563 0.061953
O O4 0.724034 0.374250 0.041337
O O5 0.891915 0.783040 0.685751
O O6 0.963753 0.991035 0.722086
O O7 0.874830 0.981373 0.348731
O O8 0.804039 0.731442 0.359693
O O9 0.875334 0.637151 0.123049
O O10 0.541585 0.056894 0.804746
O O11 0.700634 0.226216 0.822147
O O12 0.195742 0.411093 0.317390
O O13 0.390079 0.465099 0.483458
#
# Coordination Sequence:
#
# PCOD9040144 Si02
#       7
#     2   2   2   2   2   2   1
#     4  11  23  40  65  96 128 166 219 255 320 380
#     4  11  22  41  69  94 130 171 214 261 320 379
#     4  11  23  40  63 100 124 163 215 262 317 382
#     4  10  23  43  63  97 131 170 210 269 311 385
#     4  11  24  40  66  94 128 165 213 264 317 376
#     4  11  24  43  63  91 129 168 205 269 314 381
#     4  10  24  44  64  90 128 170 214 252 332 374
#
# _framework density 25.222840999999999
#
# number of rings (size 3 to 8) (size 9 to 14) (size 15 to 20)
#    0.000    1.231    3.077    2.308    2.154    3.077 
#    0.000    3.846    0.000    0.000    0.000    0.000 
#    0.000    0.000    0.000    0.000    0.000    0.000 
#
# Total GULP energy -72565.157772 kJ/mol
# GULP energy per Si atom -5581.935213 kJ/mol
# Density = 2.516543 g / cm^3
# Si number density = 25.222841 Si / 1000 Ang^3
#
#
#
# Elastic Constant Matrix: (Units=GPa)
#
#
# Indices 1 2 3 4 5 6 
#
# 1 156.8020 19.0516 39.7728 -5.6767 41.8401 19.8255
# 2 19.0516 43.0917 10.4863 -11.2631 -0.4235 13.3694
# 3 39.7728 10.4863 109.5484 -6.4309 34.7451 -17.5651
# 4 -5.6767 -11.2631 -6.4309 31.5434 -0.9677 0.7704
# 5 41.8401 -0.4235 34.7451 -0.9677 41.2989 0.2636
# 6 19.8255 13.3694 -17.5651 0.7704 0.2636 30.5488
#
#
#
# Elastic Compliance Matrix: (Units=1/GPa)
#
#
# Indices 1 2 3 4 5 6 
#
# 1 0.010337 -0.001912 -0.001797 0.000705 -0.008920 -0.006845
# 2 -0.001912 0.034950 -0.008039 0.011251 0.009445 -0.019042
# 3 -0.001797 -0.008039 0.016807 -0.000504 -0.012506 0.014469
# 4 0.000705 0.011251 -0.000504 0.035926 0.000710 -0.006583
# 5 -0.008920 0.009445 -0.012506 0.000710 0.043923 -0.005932
# 6 -0.006845 -0.019042 0.014469 -0.006583 -0.005932 0.054047
#
#
# Mechanical properties :
#
#
# Convention : Reuss Voigt Hill
#
# Bulk Modulus (GPa) = 25.90949 49.78484 37.84716
# Shear Modulus (GPa) = 21.51892 36.68697 29.10295
#
# Velocity S-wave (km/s) = 2.92405 3.81795 3.40050
# Velocity P-wave (km/s) = 4.65774 6.26231 5.51865
#
# Compressibility (1/GPa) = 0.03859590
#
# Stress axis : x y z
#
# Youngs Moduli (GPa) = 96.74209 28.61261 59.49790
#
# Poissons Ratio (x) = 0.05472 0.10692
# Poissons Ratio (y) = 0.18502 0.47833
# Poissons Ratio (z) = 0.17385 0.23003
#
# Static dielectric constant tensor:
#      x y z
#    x 1.976890 -0.009610 -0.013210 
#    y -0.009610 2.002490 0.092130 
#    z -0.013210 0.092130 2.026340 
# 
# From -- ./inp_files/254290.got.cif
#   From: 2010.05.17/outbox.cif.g08.bks.cpg/sg2_128_cif.got.tgz:254290.got - 2010.06.03 11:33:40.
