data_PCOD9040925
_publ_section_title
;
Structure prediction by ZEFSAII (Michael W. Deem and Ramdas Pophale) SiO2 
 PCOD9040925
Probable space group: P -1
;
_chemical_formula_sum "Si O2"
_cell_formula_units_Z 16
_cell_length_a 10.105283
_cell_length_b 16.026824
_cell_length_c 5.126936
_cell_angle_alpha 88.179278
_cell_angle_beta 62.055616
_cell_angle_gamma 69.009134
_cell_volume 675.455331
_symmetry_space_group_name_H-M "P -1"
_symmetry_group_IT_number 2
_symmetry_cell_setting 'triclinic'
loop_
_space_group_symop_operation_xyz
x,y,z
-x,-y,-z
loop_
_atom_site_type_symbol
_atom_site_label
_atom_site_fract_x
_atom_site_fract_y
_atom_site_fract_z
Si Si1 0.330643 0.227980 0.087817
Si Si2 0.915443 0.593589 0.418648
Si Si3 0.785306 0.352661 0.949772
Si Si4 0.189891 0.974848 0.862150
Si Si5 0.639299 0.656888 0.329660
Si Si6 0.691021 0.954131 0.759520
Si Si7 0.638234 0.220094 0.074245
Si Si8 0.591163 0.418304 0.625603
O O1 0.216906 0.325029 0.302905
O O2 0.268585 0.152356 0.240007
O O3 0.522530 0.195903 0.982496
O O4 0.323903 0.255276 0.788884
O O5 0.805412 0.581752 0.284757
O O6 0.000000 0.500000 0.500000
O O7 0.049374 0.632195 0.214774
O O8 0.666291 0.423851 0.837347
O O9 0.773491 0.259035 0.866888
O O10 0.737052 0.360610 0.300044
O O11 0.282073 0.866277 0.806853
O O12 0.265896 0.015533 0.561106
O O13 0.215931 0.014659 0.108987
O O14 0.000000 0.000000 0.000000
O O15 0.497133 0.693955 0.667861
O O16 0.545644 0.623439 0.202887
O O17 0.500000 0.000000 0.000000
O O18 0.500000 0.500000 0.500000
#
# Coordination Sequence:
#
# PCOD9040925 Si02
#       8
#     2   2   2   2   2   2   2   2
#     4  11  24  43  73  99 143 188 244 289 357 430
#     4  11  27  44  67 104 146 186 238 303 357 417
#     4  11  25  42  67 103 133 185 228 295 355 411
#     4  12  28  47  75 111 152 187 236 306 369 435
#     4  10  23  43  69  98 134 194 231 291 350 424
#     4  12  26  47  77 110 145 195 247 294 363 444
#     4  10  23  45  70 100 143 184 240 288 355 433
#     4  11  23  42  69  94 134 178 239 283 348 425
#
# _framework density 23.687726000000001
#
# number of rings (size 3 to 8) (size 9 to 14) (size 15 to 20)
#    0.000    1.000    2.500    2.625    8.750    0.500 
#    2.250    0.000    0.000    0.000    0.000    0.000 
#    0.000    0.000    0.000    0.000    0.000    0.000 
#
# Total GULP energy -89339.875861 kJ/mol
# GULP energy per Si atom -5583.742241 kJ/mol
# Density = 2.363381 g / cm^3
# Si number density = 23.687726 Si / 1000 Ang^3
#
#
#
# Elastic Constant Matrix: (Units=GPa)
#
#
# Indices 1 2 3 4 5 6 
#
# 1 105.6461 24.1092 16.6646 7.3342 -20.3546 -18.0767
# 2 24.1092 106.8441 37.5691 -20.7334 -18.7490 -7.5376
# 3 16.6646 37.5691 86.8608 -28.2336 -13.1521 -6.1620
# 4 7.3342 -20.7334 -28.2336 33.1668 6.0048 -1.7305
# 5 -20.3546 -18.7490 -13.1521 6.0048 46.5669 -5.3667
# 6 -18.0767 -7.5376 -6.1620 -1.7305 -5.3667 39.2571
#
#
#
# Elastic Compliance Matrix: (Units=1/GPa)
#
#
# Indices 1 2 3 4 5 6 
#
# 1 0.012866 -0.001952 -0.002671 -0.007068 0.005639 0.005590
# 2 -0.001952 0.012429 -0.002652 0.005510 0.002889 0.001709
# 3 -0.002671 -0.002652 0.018126 0.014233 0.001268 0.001907
# 4 -0.007068 0.005510 0.014233 0.047877 -0.002822 0.001762
# 5 0.005639 0.002889 0.001268 -0.002822 0.026616 0.006865
# 6 0.005590 0.001709 0.001907 0.001762 0.006865 0.029691
#
#
# Mechanical properties :
#
#
# Convention : Reuss Voigt Hill
#
# Bulk Modulus (GPa) = 34.63666 50.67076 42.65371
# Shear Modulus (GPa) = 29.10757 38.53203 33.81980
#
# Velocity S-wave (km/s) = 3.50923 4.03757 3.78264
# Velocity P-wave (km/s) = 5.57437 6.57066 6.09291
#
# Compressibility (1/GPa) = 0.02887115
#
# Stress axis : x y z
#
# Youngs Moduli (GPa) = 77.72460 80.45728 55.17040
#
# Poissons Ratio (x) = 0.15702 0.14739
# Poissons Ratio (y) = 0.15169 0.14629
# Poissons Ratio (z) = 0.20764 0.21335
#
# Static dielectric constant tensor:
#      x y z
#    x 1.933580 0.042110 0.058190 
#    y 0.042110 2.437870 0.052960 
#    z 0.058190 0.052960 2.025270 
# 
# From -- ./inp_files/46970.got.cif
#   From: 2010.05.17/outbox.cif.g08.bks.cpg/sg2_24_cif.got.tgz:46970.got - 2010.06.03 11:33:40.
