data_PCOD9040647
_publ_section_title
;
Structure prediction by ZEFSAII (Michael W. Deem and Ramdas Pophale) SiO2 
 PCOD9040647
Probable space group: P -1
;
_chemical_formula_sum "Si O2"
_cell_formula_units_Z 16
_cell_length_a 8.016553
_cell_length_b 7.324064
_cell_length_c 21.413225
_cell_angle_alpha 46.439225
_cell_angle_beta 90.427524
_cell_angle_gamma 63.409088
_cell_volume 711.306706
_symmetry_space_group_name_H-M "P -1"
_symmetry_group_IT_number 2
_symmetry_cell_setting 'triclinic'
loop_
_space_group_symop_operation_xyz
x,y,z
-x,-y,-z
loop_
_atom_site_type_symbol
_atom_site_label
_atom_site_fract_x
_atom_site_fract_y
_atom_site_fract_z
Si Si1 0.664869 0.905200 0.325098
Si Si2 0.441926 0.949138 0.203414
Si Si3 0.056428 0.115197 0.913930
Si Si4 0.474732 0.269872 0.012462
Si Si5 0.929415 0.780404 0.560100
Si Si6 0.593669 0.264807 0.353952
Si Si7 0.251277 0.253698 0.307960
Si Si8 0.018603 0.723389 0.901445
O O1 0.539400 0.066523 0.222164
O O2 0.887443 0.566877 0.387956
O O3 0.697253 0.109809 0.322889
O O4 0.474090 0.930674 0.355908
O O5 0.586436 0.563664 0.300228
O O6 0.455209 0.053427 0.110528
O O7 0.199302 0.091248 0.181265
O O8 0.901640 0.490361 0.806223
O O9 0.298357 0.969104 0.962667
O O10 0.034100 0.951332 0.892648
O O11 0.000000 0.000000 0.000000
O O12 0.500000 0.500000 0.000000
O O13 0.249722 0.498598 0.922145
O O14 0.877723 0.775590 0.633387
O O15 0.713685 0.978396 0.471762
O O16 0.000000 0.000000 0.500000
O O17 0.353362 0.393551 0.313133
O O18 0.000000 0.500000 0.000000
#
# Coordination Sequence:
#
# PCOD9040647 Si02
#       8
#     2   2   2   2   2   2   2   2
#     4  10  24  41  73  94 136 176 226 278 347 397
#     4  11  19  43  69  95 140 179 226 289 329 408
#     4  11  22  40  65  93 136 173 216 287 333 395
#     4   9  21  36  67  93 130 182 226 270 348 395
#     4  12  23  45  74  99 140 179 222 293 337 407
#     4  10  23  43  68 102 134 178 227 279 345 408
#     4  10  25  43  67 102 133 182 230 272 350 403
#     4   9  19  36  63  91 124 174 224 267 337 395
#
# _framework density 22.493811000000001
#
# number of rings (size 3 to 8) (size 9 to 14) (size 15 to 20)
#    0.750    1.000    2.500    1.500    5.250    0.500 
#    0.000    2.500   11.000    0.000    0.000    0.000 
#    0.000    0.000    0.000    0.000    0.000    0.000 
#
# Total GULP energy -89148.735938 kJ/mol
# GULP energy per Si atom -5571.795996 kJ/mol
# Density = 2.244261 g / cm^3
# Si number density = 22.493811 Si / 1000 Ang^3
#
#
#
# Elastic Constant Matrix: (Units=GPa)
#
#
# Indices 1 2 3 4 5 6 
#
# 1 77.8725 28.7691 30.6460 -5.9177 13.2277 -38.0753
# 2 28.7691 86.7331 41.6006 -1.5301 7.1378 -20.1180
# 3 30.6460 41.6006 104.0023 -2.0895 18.4830 -34.3413
# 4 -5.9177 -1.5301 -2.0895 25.4572 -7.3672 4.4984
# 5 13.2277 7.1378 18.4830 -7.3672 39.5904 -1.2837
# 6 -38.0753 -20.1180 -34.3413 4.4984 -1.2837 46.4018
#
#
#
# Elastic Compliance Matrix: (Units=1/GPa)
#
#
# Indices 1 2 3 4 5 6 
#
# 1 0.024430 -0.003977 0.002358 -0.000173 -0.007934 0.019864
# 2 -0.003977 0.015157 -0.005254 -0.000052 0.001021 -0.000547
# 3 0.002358 -0.005254 0.016152 -0.002673 -0.007501 0.011662
# 4 -0.000173 -0.000052 -0.002673 0.042709 0.009067 -0.006033
# 5 -0.007934 0.001021 -0.007501 0.009067 0.032538 -0.011598
# 6 0.019864 -0.000547 0.011662 -0.006033 -0.011598 0.046509
#
#
# Mechanical properties :
#
#
# Convention : Reuss Voigt Hill
#
# Bulk Modulus (GPa) = 23.81365 52.29325 38.05345
# Shear Modulus (GPa) = 24.36191 33.46268 28.91230
#
# Velocity S-wave (km/s) = 3.29454 3.86118 3.58906
# Velocity P-wave (km/s) = 5.00817 6.57089 5.84202
#
# Compressibility (1/GPa) = 0.04199272
#
# Stress axis : x y z
#
# Youngs Moduli (GPa) = 40.93365 65.97646 61.91117
#
# Poissons Ratio (x) = 0.26237 -0.14596
# Poissons Ratio (y) = 0.16278 0.32528
# Poissons Ratio (z) = -0.09651 0.34664
#
# Static dielectric constant tensor:
#      x y z
#    x 1.873610 -0.035280 0.060790 
#    y -0.035280 1.889280 0.005790 
#    z 0.060790 0.005790 1.838520 
# 
# From -- ./inp_files/587764.got.cif
#   From: 2010.05.17/outbox.cif.g08.bks.cpg/sg2_294_cif.got.tgz:587764.got - 2010.06.03 11:33:40.
