data_PCOD9040222
_publ_section_title
;
Structure prediction by ZEFSAII (Michael W. Deem and Ramdas Pophale) SiO2 
 PCOD9040222
Probable space group: P -1
;
_chemical_formula_sum "Si O2"
_cell_formula_units_Z 14
_cell_length_a 14.698238
_cell_length_b 23.844820
_cell_length_c 5.520812
_cell_angle_alpha 104.360459
_cell_angle_beta 83.962953
_cell_angle_gamma 160.525660
_cell_volume 573.188398
_symmetry_space_group_name_H-M "P -1"
_symmetry_group_IT_number 2
_symmetry_cell_setting 'triclinic'
loop_
_space_group_symop_operation_xyz
x,y,z
-x,-y,-z
loop_
_atom_site_type_symbol
_atom_site_label
_atom_site_fract_x
_atom_site_fract_y
_atom_site_fract_z
Si Si1 0.717364 0.255463 0.948888
Si Si2 0.130799 0.051966 0.766761
Si Si3 0.749898 0.403618 0.177791
Si Si4 0.663472 0.557553 0.198518
Si Si5 0.310855 0.309677 0.441717
Si Si6 0.861733 0.574187 0.684695
Si Si7 0.234536 0.878495 0.539433
O O1 0.697434 0.304470 0.150888
O O2 0.916276 0.325691 0.093617
O O3 0.917180 0.391221 0.803300
O O4 0.399763 0.036175 0.746172
O O5 0.487775 0.262783 0.910475
O O6 0.000000 0.000000 0.500000
O O7 0.991130 0.904223 0.653266
O O8 0.000000 0.000000 0.000000
O O9 0.729161 0.439777 0.426870
O O10 0.448696 0.384501 0.213776
O O11 0.748852 0.658245 0.484213
O O12 0.991789 0.735031 0.236335
O O13 0.500000 0.500000 0.000000
O O14 0.567107 0.435462 0.679075
O O15 0.059452 0.736672 0.640403
O O16 0.500000 0.000000 0.500000
#
# Coordination Sequence:
#
# PCOD9040222 Si02
#       7
#     2   2   2   2   2   2   2
#     4  11  24  43  64  95 137 176 225 292 351 418
#     4  12  26  44  70 103 139 187 238 290 350 430
#     4  11  24  43  65  99 135 176 232 286 353 417
#     4  10  24  43  69  97 136 178 225 301 354 418
#     4  10  23  43  65 100 131 178 238 284 356 422
#     4  11  22  42  70  92 130 177 230 284 348 421
#     4  11  23  42  65  99 130 171 232 276 354 422
#
# _framework density 24.424779000000001
#
# number of rings (size 3 to 8) (size 9 to 14) (size 15 to 20)
#    0.000    1.143    2.857    2.571    4.000    0.000 
#    5.143    0.000    0.000    0.000    0.000    0.000 
#    0.000    0.000    0.000    0.000    0.000    0.000 
#
# Total GULP energy -78167.955927 kJ/mol
# GULP energy per Si atom -5583.425423 kJ/mol
# Density = 2.436919 g / cm^3
# Si number density = 24.424779 Si / 1000 Ang^3
#
#
#
# Elastic Constant Matrix: (Units=GPa)
#
#
# Indices 1 2 3 4 5 6 
#
# 1 140.7764 15.8561 24.9233 8.3157 1.1218 -9.0079
# 2 15.8561 91.4712 27.4843 28.6119 3.6796 -10.6469
# 3 24.9233 27.4843 78.3627 20.8622 30.3469 -7.1711
# 4 8.3157 28.6119 20.8622 35.6898 1.6257 -0.4605
# 5 1.1218 3.6796 30.3469 1.6257 43.8403 11.4974
# 6 -9.0079 -10.6469 -7.1711 -0.4605 11.4974 47.2406
#
#
#
# Elastic Compliance Matrix: (Units=1/GPa)
#
#
# Indices 1 2 3 4 5 6 
#
# 1 0.007691 -0.000556 -0.002987 0.000324 0.001786 0.000456
# 2 -0.000556 0.015431 -0.001840 -0.011108 -0.000404 0.003083
# 3 -0.002987 -0.001840 0.025488 -0.011771 -0.018909 0.007372
# 4 0.000324 -0.011108 -0.011771 0.043240 0.009045 -0.006008
# 5 0.001786 -0.000404 -0.018909 0.009045 0.038685 -0.011948
# 6 0.000456 0.003083 0.007372 -0.006008 -0.011948 0.025918
#
#
# Mechanical properties :
#
#
# Convention : Reuss Voigt Hill
#
# Bulk Modulus (GPa) = 26.42440 49.68198 38.05319
# Shear Modulus (GPa) = 27.80351 41.51058 34.65705
#
# Velocity S-wave (km/s) = 3.37758 4.12701 3.77096
# Velocity P-wave (km/s) = 5.10420 6.56464 5.87994
#
# Compressibility (1/GPa) = 0.03784381
#
# Stress axis : x y z
#
# Youngs Moduli (GPa) = 130.02621 64.80446 39.23450
#
# Poissons Ratio (x) = 0.03601 0.11721
# Poissons Ratio (y) = 0.07226 0.07218
# Poissons Ratio (z) = 0.38845 0.11922
#
# Static dielectric constant tensor:
#      x y z
#    x 2.006490 0.059940 -0.066370 
#    y 0.059940 1.943770 -0.013110 
#    z -0.066370 -0.013110 2.211520 
# 
# From -- ./inp_files/28154.got.cif
#   From: 2010.05.17/outbox.cif.g08.bks.cpg/sg2_15_cif.got.tgz:28154.got - 2010.06.03 11:33:40.
