data_PCOD9040722
_publ_section_title
;
Structure prediction by ZEFSAII (Michael W. Deem and Ramdas Pophale) SiO2 
 PCOD9040722
Probable space group: P -1
;
_chemical_formula_sum "Si O2"
_cell_formula_units_Z 16
_cell_length_a 9.873509
_cell_length_b 6.826685
_cell_length_c 16.539417
_cell_angle_alpha 78.978994
_cell_angle_beta 86.931149
_cell_angle_gamma 137.558697
_cell_volume 705.848207
_symmetry_space_group_name_H-M "P -1"
_symmetry_group_IT_number 2
_symmetry_cell_setting 'triclinic'
loop_
_space_group_symop_operation_xyz
x,y,z
-x,-y,-z
loop_
_atom_site_type_symbol
_atom_site_label
_atom_site_fract_x
_atom_site_fract_y
_atom_site_fract_z
Si Si1 0.200421 0.123755 0.440505
Si Si2 0.920761 0.850805 0.265118
Si Si3 0.110522 0.692991 0.345977
Si Si4 0.647618 0.462563 0.859399
Si Si5 0.769496 0.980214 0.391037
Si Si6 0.110949 0.413636 0.010656
Si Si7 0.553705 0.239593 0.705928
Si Si8 0.272904 0.321490 0.880816
O O1 0.314638 0.419706 0.359321
O O2 0.138355 0.865920 0.408448
O O3 0.334648 0.191898 0.506535
O O4 0.000000 0.000000 0.500000
O O5 0.746680 0.667800 0.215397
O O6 0.005963 0.724075 0.282652
O O7 0.836298 0.857187 0.349180
O O8 0.127672 0.207629 0.205927
O O9 0.329536 0.837826 0.305294
O O10 0.959496 0.334305 0.385277
O O11 0.716373 0.406179 0.937530
O O12 0.532485 0.238334 0.803014
O O13 0.492376 0.468459 0.887638
O O14 0.645705 0.967886 0.329026
O O15 0.221763 0.461824 0.921754
O O16 0.919028 0.045269 0.064135
O O17 0.000000 0.500000 0.000000
#
# Coordination Sequence:
#
# PCOD9040722 Si02
#       8
#     2   2   2   2   2   2   2   2
#     4  12  23  46  67  90 136 180 221 281 335 382
#     4  11  23  42  68  94 134 175 219 272 330 388
#     4  12  24  42  67  96 130 178 225 277 330 385
#     4  11  21  45  67  94 138 171 213 267 327 393
#     4  12  25  43  66  96 134 176 228 280 326 389
#     4  10  24  43  67 103 128 168 214 265 324 391
#     4  12  26  42  66 101 131 175 227 274 330 392
#     4  10  23  43  68  95 135 169 211 265 329 393
#
# _framework density 22.667762
#
# number of rings (size 3 to 8) (size 9 to 14) (size 15 to 20)
#    0.000    0.750    6.250    1.125    1.750    3.000 
#    2.250    0.000    0.000    0.000    0.000    0.000 
#    0.000    0.000    0.000    0.000    0.000    0.000 
#
# Total GULP energy -89407.347233 kJ/mol
# GULP energy per Si atom -5587.959202 kJ/mol
# Density = 2.261617 g / cm^3
# Si number density = 22.667762 Si / 1000 Ang^3
#
#
#
# Elastic Constant Matrix: (Units=GPa)
#
#
# Indices 1 2 3 4 5 6 
#
# 1 163.0222 22.6711 34.5471 35.3567 11.4892 -20.0347
# 2 22.6711 67.5107 34.0414 23.3390 -0.3690 -8.2175
# 3 34.5471 34.0414 91.4581 40.9375 10.8282 -14.2862
# 4 35.3567 23.3390 40.9375 28.2124 2.1535 -2.6135
# 5 11.4892 -0.3690 10.8282 2.1535 38.3295 6.4772
# 6 -20.0347 -8.2175 -14.2862 -2.6135 6.4772 39.5458
#
#
#
# Elastic Compliance Matrix: (Units=1/GPa)
#
#
# Indices 1 2 3 4 5 6 
#
# 1 0.011905 0.002485 0.010853 -0.031357 -0.006446 0.009452
# 2 0.002485 0.021711 0.003177 -0.025112 -0.000937 0.005412
# 3 0.010853 0.003177 0.047214 -0.081679 -0.015409 0.020341
# 4 -0.031357 -0.025112 -0.081679 0.208104 0.027531 -0.041368
# 5 -0.006446 -0.000937 -0.015409 0.027531 0.032949 -0.012605
# 6 0.009452 0.005412 0.020341 -0.041368 -0.012605 0.037879
#
#
# Mechanical properties :
#
#
# Convention : Reuss Voigt Hill
#
# Bulk Modulus (GPa) = 8.78263 56.05668 32.41965
# Shear Modulus (GPa) = 13.71045 36.59963 25.15504
#
# Velocity S-wave (km/s) = 2.46203 4.02258 3.33487
# Velocity P-wave (km/s) = 3.45905 6.80869 5.40015
#
# Compressibility (1/GPa) = 0.11386112
#
# Stress axis : x y z
#
# Youngs Moduli (GPa) = 83.99633 46.05942 21.18029
#
# Poissons Ratio (x) = -0.11446 -0.22988
# Poissons Ratio (y) = -0.20873 -0.06729
# Poissons Ratio (z) = -0.91164 -0.14634
#
# Static dielectric constant tensor:
#      x y z
#    x 1.840800 0.041290 0.030810 
#    y 0.041290 1.858490 -0.012550 
#    z 0.030810 -0.012550 1.867520 
# 
# From -- ./inp_files/47708.got.cif
#   From: 2010.05.17/outbox.cif.g08.bks.cpg/sg2_24_cif.got.tgz:47708.got - 2010.06.03 11:33:40.
