data_PCOD9040421
_publ_section_title
;
Structure prediction by ZEFSAII (Michael W. Deem and Ramdas Pophale) SiO2 
 PCOD9040421
Probable space group: P -1
;
_chemical_formula_sum "Si O2"
_cell_formula_units_Z 14
_cell_length_a 9.404288
_cell_length_b 9.812339
_cell_length_c 13.119416
_cell_angle_alpha 112.845379
_cell_angle_beta 54.579505
_cell_angle_gamma 136.955191
_cell_volume 672.044930
_symmetry_space_group_name_H-M "P -1"
_symmetry_group_IT_number 2
_symmetry_cell_setting 'triclinic'
loop_
_space_group_symop_operation_xyz
x,y,z
-x,-y,-z
loop_
_atom_site_type_symbol
_atom_site_label
_atom_site_fract_x
_atom_site_fract_y
_atom_site_fract_z
Si Si1 0.608119 0.548638 0.358473
Si Si2 0.393250 0.271765 0.783339
Si Si3 0.108755 0.787688 0.206237
Si Si4 0.004475 0.284380 0.997372
Si Si5 0.355093 0.911666 0.639446
Si Si6 0.849160 0.496137 0.795024
Si Si7 0.462479 0.835411 0.769224
O O1 0.500000 0.500000 0.500000
O O2 0.515216 0.597831 0.320698
O O3 0.600817 0.373682 0.271778
O O4 0.879550 0.749409 0.317910
O O5 0.609725 0.402545 0.810385
O O6 0.333124 0.068216 0.728782
O O7 0.151861 0.217560 0.901201
O O8 0.134297 0.669903 0.241812
O O9 0.337117 0.018726 0.189407
O O10 0.050091 0.695882 0.090260
O O11 0.158233 0.450216 0.069475
O O12 0.747084 0.169391 0.117821
O O13 0.514973 0.911768 0.653634
O O14 0.089865 0.688693 0.693772
O O15 0.500000 0.000000 0.500000
#
# Coordination Sequence:
#
# PCOD9040421 Si02
#       7
#     2   2   2   2   2   2   2
#     4  11  25  44  66  96 131 169 222 271 317 383
#     4  11  25  41  66 101 132 165 218 276 320 377
#     4  11  22  42  69  96 128 175 218 262 326 390
#     4  10  23  43  66  97 136 167 216 270 324 385
#     4  11  24  43  65  94 131 171 216 270 324 381
#     4  11  23  42  67  97 129 175 215 264 330 386
#     4  11  23  43  70  95 129 177 216 259 330 391
#
# _framework density 20.831938999999998
#
# number of rings (size 3 to 8) (size 9 to 14) (size 15 to 20)
#    0.000    1.143    4.286    2.143    2.000    6.857 
#    2.571    0.000    0.000    0.000    0.000    0.000 
#    0.000    0.000    0.000    0.000    0.000    0.000 
#
# Total GULP energy -77965.801931 kJ/mol
# GULP energy per Si atom -5568.985852 kJ/mol
# Density = 2.078452 g / cm^3
# Si number density = 20.831939 Si / 1000 Ang^3
#
#
#
# Elastic Constant Matrix: (Units=GPa)
#
#
# Indices 1 2 3 4 5 6 
#
# 1 143.1504 42.4119 28.4811 0.3164 18.9723 15.0154
# 2 42.4119 87.0376 31.1165 9.6303 2.4992 3.9477
# 3 28.4811 31.1165 75.1305 -10.7638 7.7973 13.9864
# 4 0.3164 9.6303 -10.7638 20.1456 -7.0689 4.6018
# 5 18.9723 2.4992 7.7973 -7.0689 28.1128 -6.2632
# 6 15.0154 3.9477 13.9864 4.6018 -6.2632 36.6004
#
#
#
# Elastic Compliance Matrix: (Units=1/GPa)
#
#
# Indices 1 2 3 4 5 6 
#
# 1 0.009731 -0.004267 -0.000269 0.000331 -0.007073 -0.004681
# 2 -0.004267 0.018070 -0.009010 -0.014095 0.001399 0.005256
# 3 -0.000269 -0.009010 0.021748 0.017159 -0.002938 -0.009889
# 4 0.000331 -0.014095 0.017159 0.072468 0.011759 -0.012272
# 5 -0.007073 0.001399 -0.002938 0.011759 0.046290 0.010317
# 6 -0.004681 0.005256 -0.009889 -0.012272 0.010317 0.035763
#
#
# Mechanical properties :
#
#
# Convention : Reuss Voigt Hill
#
# Bulk Modulus (GPa) = 44.52643 56.59306 50.55975
# Shear Modulus (GPa) = 20.95148 30.52570 25.73859
#
# Velocity S-wave (km/s) = 3.17478 3.83212 3.51883
# Velocity P-wave (km/s) = 5.90419 6.84146 6.39004
#
# Compressibility (1/GPa) = 0.02245857
#
# Stress axis : x y z
#
# Youngs Moduli (GPa) = 102.76434 55.33927 45.98199
#
# Poissons Ratio (x) = 0.23612 0.01236
# Poissons Ratio (y) = 0.43847 0.41428
# Poissons Ratio (z) = 0.02763 0.49858
#
# Static dielectric constant tensor:
#      x y z
#    x 1.791360 0.002220 -0.004900 
#    y 0.002220 1.780800 -0.014770 
#    z -0.004900 -0.014770 1.816350 
# 
# From -- ./inp_files/382875.got.cif
#   From: 2010.05.17/outbox.cif.g08.bks.cpg/sg2_192_cif.got.tgz:382875.got - 2010.06.03 11:33:40.
