data_PCOD9040288
_publ_section_title
;
Structure prediction by ZEFSAII (Michael W. Deem and Ramdas Pophale) SiO2 
 PCOD9040288
Probable space group: P -1
;
_chemical_formula_sum "Si O2"
_cell_formula_units_Z 14
_cell_length_a 23.350332
_cell_length_b 5.078066
_cell_length_c 4.989341
_cell_angle_alpha 86.114171
_cell_angle_beta 104.454932
_cell_angle_gamma 121.112808
_cell_volume 489.134068
_symmetry_space_group_name_H-M "P -1"
_symmetry_group_IT_number 2
_symmetry_cell_setting 'triclinic'
loop_
_space_group_symop_operation_xyz
x,y,z
-x,-y,-z
loop_
_atom_site_type_symbol
_atom_site_label
_atom_site_fract_x
_atom_site_fract_y
_atom_site_fract_z
Si Si1 0.787638 0.547945 0.696235
Si Si2 0.651338 0.016418 0.669474
Si Si3 0.070672 0.076549 0.953729
Si Si4 0.230379 0.162056 0.837770
Si Si5 0.921371 0.400795 0.321969
Si Si6 0.486675 0.230747 0.295637
Si Si7 0.626560 0.495086 0.278540
O O1 0.733502 0.222532 0.786081
O O2 0.774037 0.585033 0.372256
O O3 0.866651 0.665181 0.819225
O O4 0.776682 0.772801 0.866153
O O5 0.637702 0.228651 0.430292
O O6 0.595705 0.948624 0.842568
O O7 0.635295 0.709657 0.525138
O O8 0.076264 0.277402 0.688607
O O9 0.077011 0.781641 0.932029
O O10 0.000000 0.000000 0.000000
O O11 0.310484 0.274529 0.857886
O O12 0.159211 0.854114 0.673843
O O13 0.000000 0.500000 0.500000
O O14 0.500000 0.500000 0.500000
O O15 0.545175 0.352394 0.123450
O O16 0.500000 0.000000 0.500000
#
# Coordination Sequence:
#
# PCOD9040288 Si02
#       7
#     2   2   2   2   2   2   2
#     4  10  23  43  65  95 129 168 212 262 316 376
#     4   9  18  33  57  86 121 161 206 256 310 369
#     4  11  24  42  66  96 129 167 210 260 314 375
#     4  10  23  43  65  95 129 168 212 262 316 376
#     4  11  24  42  66  96 129 167 210 260 314 375
#     4   8  14  28  51  82 116 156 202 252 306 364
#     4   9  18  33  57  86 121 161 206 256 310 369
#
# _framework density 28.622015000000001
#
# number of rings (size 3 to 8) (size 9 to 14) (size 15 to 20)
#    0.000    2.286    0.000    1.714    0.000   12.571 
#    0.000    0.714    0.000    0.000    0.000   31.000 
#    0.000    0.000    0.000    0.000    0.000    0.000 
#
# Total GULP energy -78161.756873 kJ/mol
# GULP energy per Si atom -5582.982634 kJ/mol
# Density = 2.855687 g / cm^3
# Si number density = 28.622015 Si / 1000 Ang^3
#
#
#
# Elastic Constant Matrix: (Units=GPa)
#
#
# Indices 1 2 3 4 5 6 
#
# 1 201.6523 51.1471 35.1893 -1.8872 -0.3870 56.4620
# 2 51.1471 125.3915 25.4007 -1.8268 0.6417 24.8318
# 3 35.1893 25.4007 64.4450 11.0994 -10.2801 1.2589
# 4 -1.8872 -1.8268 11.0994 36.7934 15.4183 1.2755
# 5 -0.3870 0.6417 -10.2801 15.4183 30.4139 -0.7377
# 6 56.4620 24.8318 1.2589 1.2755 -0.7377 91.2354
#
#
#
# Elastic Compliance Matrix: (Units=1/GPa)
#
#
# Indices 1 2 3 4 5 6 
#
# 1 0.007207 -0.001167 -0.004400 0.003047 -0.003016 -0.004149
# 2 -0.001167 0.009758 -0.004241 0.003154 -0.003300 -0.001946
# 3 -0.004400 -0.004241 0.024560 -0.014617 0.015839 0.003871
# 4 0.003047 0.003154 -0.014617 0.043341 -0.027022 -0.003367
# 5 -0.003016 -0.003300 0.015839 -0.027022 0.052044 0.003345
# 6 -0.004149 -0.001946 0.003871 -0.003367 0.003345 0.014079
#
#
# Mechanical properties :
#
#
# Convention : Reuss Voigt Hill
#
# Bulk Modulus (GPa) = 45.64327 68.32922 56.98625
# Shear Modulus (GPa) = 28.10427 50.33866 39.22147
#
# Velocity S-wave (km/s) = 3.13695 4.19828 3.70581
# Velocity P-wave (km/s) = 5.39464 6.88662 6.18578
#
# Compressibility (1/GPa) = 0.02190904
#
# Stress axis : x y z
#
# Youngs Moduli (GPa) = 138.74689 102.47677 40.71709
#
# Poissons Ratio (x) = 0.11959 0.17917
# Poissons Ratio (y) = 0.16192 0.17267
# Poissons Ratio (z) = 0.61055 0.43458
#
# Static dielectric constant tensor:
#      x y z
#    x 2.311750 0.057070 0.153870 
#    y 0.057070 2.361970 -0.112650 
#    z 0.153870 -0.112650 2.344690 
# 
# From -- ./inp_files/121210.got.cif
#   From: 2010.05.17/outbox.cif.g08.bks.cpg/sg2_61_cif.got.tgz:121210.got - 2010.06.03 11:33:40.
