data_PCOD9040670
_publ_section_title
;
Structure prediction by ZEFSAII (Michael W. Deem and Ramdas Pophale) SiO2 
 PCOD9040670
Probable space group: P -1
;
_chemical_formula_sum "Si O2"
_cell_formula_units_Z 14
_cell_length_a 6.346695
_cell_length_b 15.911975
_cell_length_c 15.746436
_cell_angle_alpha 153.520633
_cell_angle_beta 101.030270
_cell_angle_gamma 68.111908
_cell_volume 617.749655
_symmetry_space_group_name_H-M "P -1"
_symmetry_group_IT_number 2
_symmetry_cell_setting 'triclinic'
loop_
_space_group_symop_operation_xyz
x,y,z
-x,-y,-z
loop_
_atom_site_type_symbol
_atom_site_label
_atom_site_fract_x
_atom_site_fract_y
_atom_site_fract_z
Si Si1 0.286254 0.938447 0.758645
Si Si2 0.083930 0.183601 0.645592
Si Si3 0.205373 0.409307 0.506127
Si Si4 0.879571 0.152172 0.050167
Si Si5 0.963847 0.323362 0.575541
Si Si6 0.445902 0.234352 0.981776
Si Si7 0.626576 0.613431 0.060028
O O1 0.542896 0.780176 0.676381
O O2 0.171361 0.800654 0.585918
O O3 0.332503 0.075761 0.815189
O O4 0.100034 0.102216 0.958624
O O5 0.103107 0.198086 0.557848
O O6 0.306423 0.214774 0.733377
O O7 0.865392 0.410457 0.861087
O O8 0.000000 0.000000 0.500000
O O9 0.249035 0.607493 0.712565
O O10 0.000000 0.500000 0.500000
O O11 0.117564 0.348064 0.531931
O O12 0.674927 0.120173 0.956827
O O13 0.000000 0.000000 0.000000
O O14 0.759076 0.553593 0.799201
O O15 0.526945 0.284697 0.944263
O O16 0.500000 0.500000 0.000000
#
# Coordination Sequence:
#
# PCOD9040670 Si02
#       7
#     2   2   2   2   2   2   2
#     4  12  25  45  72  99 142 186 235 288 356 413
#     4  10  23  43  68 104 143 184 239 290 359 429
#     4  12  27  45  70 104 140 184 241 293 349 426
#     4  12  27  45  71 102 141 188 235 294 354 418
#     4  11  24  43  71 102 141 190 234 292 354 424
#     4  11  24  44  69 102 142 188 235 291 358 420
#     4  10  24  41  69 103 143 184 234 298 355 422
#
# _framework density 22.662904000000001
#
# number of rings (size 3 to 8) (size 9 to 14) (size 15 to 20)
#    0.000    0.857    2.857    3.429    4.000    6.286 
#    0.000    0.000    0.000    0.000    0.000    0.000 
#    0.000    0.000    0.000    0.000    0.000    0.000 
#
# Total GULP energy -78205.476095 kJ/mol
# GULP energy per Si atom -5586.105435 kJ/mol
# Density = 2.261132 g / cm^3
# Si number density = 22.662904 Si / 1000 Ang^3
#
#
#
# Elastic Constant Matrix: (Units=GPa)
#
#
# Indices 1 2 3 4 5 6 
#
# 1 47.1013 24.9209 0.3624 -1.1081 16.3893 5.4977
# 2 24.9209 114.7650 6.6733 -6.4346 20.1927 8.8242
# 3 0.3624 6.6733 55.7633 17.1137 11.7704 -6.3597
# 4 -1.1081 -6.4346 17.1137 25.5615 3.5242 5.4359
# 5 16.3893 20.1927 11.7704 3.5242 53.6862 7.4489
# 6 5.4977 8.8242 -6.3597 5.4359 7.4489 40.4749
#
#
#
# Elastic Compliance Matrix: (Units=1/GPa)
#
#
# Indices 1 2 3 4 5 6 
#
# 1 0.025975 -0.004512 0.001583 0.000054 -0.006428 -0.001120
# 2 -0.004512 0.010680 -0.002648 0.005066 -0.002054 -0.002434
# 3 0.001583 -0.002648 0.026053 -0.019033 -0.005052 0.007942
# 4 0.000054 0.005066 -0.019033 0.055581 0.000213 -0.011606
# 5 -0.006428 -0.002054 -0.005052 0.000213 0.022973 -0.003729
# 6 -0.001120 -0.002434 0.007942 -0.011606 -0.003729 0.028882
#
#
# Mechanical properties :
#
#
# Convention : Reuss Voigt Hill
#
# Bulk Modulus (GPa) = 19.39700 31.28254 25.33977
# Shear Modulus (GPa) = 25.19139 36.32271 30.75705
#
# Velocity S-wave (km/s) = 3.33764 4.00776 3.68795
# Velocity P-wave (km/s) = 4.84052 5.93714 5.41665
#
# Compressibility (1/GPa) = 0.05155435
#
# Stress axis : x y z
#
# Youngs Moduli (GPa) = 38.49908 93.63473 38.38362
#
# Poissons Ratio (x) = 0.42251 -0.06078
# Poissons Ratio (y) = 0.17372 0.10163
# Poissons Ratio (z) = -0.06096 0.24791
#
# Static dielectric constant tensor:
#      x y z
#    x 1.792050 -0.072370 -0.019890 
#    y -0.072370 1.845720 -0.021700 
#    z -0.019890 -0.021700 1.838870 
# 
# From -- ./inp_files/484647.got.cif
#   From: 2010.05.17/outbox.cif.g08.bks.cpg/sg2_243_cif.got.tgz:484647.got - 2010.06.03 11:33:40.
