data_PCOD9040493
_publ_section_title
;
Structure prediction by ZEFSAII (Michael W. Deem and Ramdas Pophale) SiO2 
 PCOD9040493
Probable space group: P -1
;
_chemical_formula_sum "Si O2"
_cell_formula_units_Z 14
_cell_length_a 11.806608
_cell_length_b 5.369666
_cell_length_c 14.850701
_cell_angle_alpha 109.351303
_cell_angle_beta 137.443143
_cell_angle_gamma 70.694655
_cell_volume 595.233466
_symmetry_space_group_name_H-M "P -1"
_symmetry_group_IT_number 2
_symmetry_cell_setting 'triclinic'
loop_
_space_group_symop_operation_xyz
x,y,z
-x,-y,-z
loop_
_atom_site_type_symbol
_atom_site_label
_atom_site_fract_x
_atom_site_fract_y
_atom_site_fract_z
Si Si1 0.406669 0.723741 0.676971
Si Si2 0.076469 0.862899 0.844574
Si Si3 0.244359 0.081593 0.136673
Si Si4 0.421121 0.778779 0.372780
Si Si5 0.132575 0.129551 0.533738
Si Si6 0.199411 0.633535 0.718775
Si Si7 0.880411 0.449504 0.766263
O O1 0.583367 0.837179 0.793768
O O2 0.442495 0.425226 0.625064
O O3 0.316234 0.736765 0.722726
O O4 0.275194 0.902703 0.556615
O O5 0.991109 0.158980 0.800406
O O6 0.218934 0.745160 0.842181
O O7 0.157724 0.909574 0.994285
O O8 0.951649 0.637775 0.756556
O O9 0.128513 0.356074 0.128214
O O10 0.295222 0.921421 0.239415
O O11 0.312793 0.611027 0.354394
O O12 0.500000 0.000000 0.500000
O O13 0.221796 0.321783 0.673609
O O14 0.004636 0.285646 0.406935
O O15 0.000000 0.000000 0.500000
#
# Coordination Sequence:
#
# PCOD9040493 Si02
#       7
#     2   2   2   2   2   2   2
#     4  10  23  43  71 100 142 185 232 291 357 419
#     4  12  27  44  77 104 143 186 242 287 349 423
#     4  11  25  47  71 102 144 187 235 296 351 413
#     4  11  26  47  71 106 142 188 234 295 356 417
#     4   9  20  41  64  94 139 181 231 283 348 412
#     4  10  23  43  67 104 137 186 233 289 353 422
#     4  11  26  47  73 104 141 188 237 293 347 418
#
# _framework density 23.520184
#
# number of rings (size 3 to 8) (size 9 to 14) (size 15 to 20)
#    0.000    1.429    1.429    1.714    8.000    8.571 
#    5.143    2.857    0.000    0.000    0.000    0.000 
#    0.000    0.000    0.000    0.000    0.000    0.000 
#
# Total GULP energy -78245.246912 kJ/mol
# GULP energy per Si atom -5588.946208 kJ/mol
# Density = 2.346665 g / cm^3
# Si number density = 23.520184 Si / 1000 Ang^3
#
#
#
# Elastic Constant Matrix: (Units=GPa)
#
#
# Indices 1 2 3 4 5 6 
#
# 1 163.2862 54.6310 30.7644 21.3433 -0.3626 5.4055
# 2 54.6310 143.6716 33.8413 3.1715 -1.3008 3.9263
# 3 30.7644 33.8413 54.6468 19.0089 -10.9373 -0.5333
# 4 21.3433 3.1715 19.0089 33.5288 -2.5880 9.2557
# 5 -0.3626 -1.3008 -10.9373 -2.5880 32.7960 6.8184
# 6 5.4055 3.9263 -0.5333 9.2557 6.8184 33.5230
#
#
#
# Elastic Compliance Matrix: (Units=1/GPa)
#
#
# Indices 1 2 3 4 5 6 
#
# 1 0.007772 -0.002497 -0.001646 -0.003929 -0.000932 0.000288
# 2 -0.002497 0.009308 -0.006192 0.004663 -0.000965 -0.001877
# 3 -0.001646 -0.006192 0.030243 -0.016130 0.007640 0.004371
# 4 -0.003929 0.004663 -0.016130 0.044598 0.000916 -0.012669
# 5 -0.000932 -0.000965 0.007640 0.000916 0.034494 -0.006884
# 6 0.000288 -0.001877 0.004371 -0.012669 -0.006884 0.034971
#
#
# Mechanical properties :
#
#
# Convention : Reuss Voigt Hill
#
# Bulk Modulus (GPa) = 37.51939 66.67531 52.09735
# Shear Modulus (GPa) = 26.18620 36.12743 31.15681
#
# Velocity S-wave (km/s) = 3.34031 3.92346 3.64357
# Velocity P-wave (km/s) = 5.55549 6.99531 6.31656
#
# Compressibility (1/GPa) = 0.02665289
#
# Stress axis : x y z
#
# Youngs Moduli (GPa) = 128.67087 107.43469 33.06555
#
# Poissons Ratio (x) = 0.26828 0.05442
# Poissons Ratio (y) = 0.32131 0.20474
# Poissons Ratio (z) = 0.21176 0.66524
#
# Static dielectric constant tensor:
#      x y z
#    x 1.938370 0.005420 -0.066260 
#    y 0.005420 1.915420 -0.037670 
#    z -0.066260 -0.037670 1.988400 
# 
# From -- ./inp_files/511197.got.cif
#   From: 2010.05.17/outbox.cif.g08.bks.cpg/sg2_256_cif.got.tgz:511197.got - 2010.06.03 11:33:40.
