data_PCOD9040960
_publ_section_title
;
Structure prediction by ZEFSAII (Michael W. Deem and Ramdas Pophale) SiO2 
 PCOD9040960
Probable space group: P -1
;
_chemical_formula_sum "Si O2"
_cell_formula_units_Z 16
_cell_length_a 11.815020
_cell_length_b 16.685441
_cell_length_c 4.798719
_cell_angle_alpha 84.003833
_cell_angle_beta 68.543511
_cell_angle_gamma 45.004047
_cell_volume 605.292302
_symmetry_space_group_name_H-M "P -1"
_symmetry_group_IT_number 2
_symmetry_cell_setting 'triclinic'
loop_
_space_group_symop_operation_xyz
x,y,z
-x,-y,-z
loop_
_atom_site_type_symbol
_atom_site_label
_atom_site_fract_x
_atom_site_fract_y
_atom_site_fract_z
Si Si1 0.387278 0.172874 0.480758
Si Si2 0.509469 0.556573 0.719457
Si Si3 0.003962 0.857997 0.460441
Si Si4 0.139155 0.537422 0.786739
Si Si5 0.978349 0.695612 0.409090
Si Si6 0.223421 0.995397 0.890037
Si Si7 0.303388 0.792783 0.575799
Si Si8 0.652454 0.699343 0.035098
O O1 0.225738 0.195024 0.527133
O O2 0.588145 0.051514 0.299275
O O3 0.362062 0.211702 0.806341
O O4 0.358499 0.268657 0.286703
O O5 0.500000 0.500000 0.500000
O O6 0.690780 0.517360 0.527012
O O7 0.354649 0.694617 0.767620
O O8 0.500000 0.500000 0.000000
O O9 0.045510 0.743413 0.484986
O O10 0.942066 0.896464 0.184037
O O11 0.843712 0.162747 0.529344
O O12 0.833638 0.966115 0.755091
O O13 0.192034 0.430056 0.933797
O O14 0.993484 0.615995 0.648404
O O15 0.082908 0.622607 0.061625
O O16 0.251543 0.892334 0.781441
O O17 0.476122 0.734155 0.263448
#
# Coordination Sequence:
#
# PCOD9040960 Si02
#       8
#     2   2   2   2   2   2   2   2
#     4  11  24  44  68 100 135 177 232 285 343 400
#     4  11  24  41  67 101 142 180 212 262 333 416
#     4  12  26  44  68  99 134 177 231 288 346 400
#     4  11  24  43  66 101 140 181 226 270 339 407
#     4  12  26  43  67 100 141 181 227 282 336 411
#     4  11  25  45  69  96 130 177 234 291 340 393
#     4  10  24  45  71 102 137 175 226 281 342 409
#     4  10  23  43  70 100 136 179 224 278 336 412
#
# _framework density 26.433512
#
# number of rings (size 3 to 8) (size 9 to 14) (size 15 to 20)
#    0.000    1.000    0.000    6.000    0.000   14.000 
#    0.000    1.875    0.000    0.000    0.000    0.000 
#    0.000    0.000    0.000    0.000    0.000    0.000 
#
# Total GULP energy -89719.717885 kJ/mol
# GULP energy per Si atom -5607.482368 kJ/mol
# Density = 2.637335 g / cm^3
# Si number density = 26.433512 Si / 1000 Ang^3
#
#
#
# Elastic Constant Matrix: (Units=GPa)
#
#
# Indices 1 2 3 4 5 6 
#
# 1 84.2516 -3.0580 14.0770 11.3548 -3.7870 -27.1293
# 2 -3.0580 118.8252 22.0376 -9.6690 -6.9135 -10.9628
# 3 14.0770 22.0376 117.5209 -8.7680 11.6259 -2.2733
# 4 11.3548 -9.6690 -8.7680 46.2786 -6.5951 -2.8906
# 5 -3.7870 -6.9135 11.6259 -6.5951 39.0547 3.2475
# 6 -27.1293 -10.9628 -2.2733 -2.8906 3.2475 44.2019
#
#
#
# Elastic Compliance Matrix: (Units=1/GPa)
#
#
# Indices 1 2 3 4 5 6 
#
# 1 0.015956 0.001553 -0.002373 -0.003264 0.001166 0.009757
# 2 0.001553 0.009398 -0.002000 0.001747 0.002446 0.003116
# 3 -0.002373 -0.002000 0.009561 0.001465 -0.003088 -0.001138
# 4 -0.003264 0.001747 0.001465 0.023544 0.003551 -0.000216
# 5 0.001166 0.002446 -0.003088 0.003551 0.027723 -0.000641
# 6 0.009757 0.003116 -0.001138 -0.000216 -0.000641 0.029359
#
#
# Mechanical properties :
#
#
# Convention : Reuss Voigt Hill
#
# Bulk Modulus (GPa) = 34.15632 42.96789 38.56210
# Shear Modulus (GPa) = 38.18530 45.07644 41.63087
#
# Velocity S-wave (km/s) = 3.80489 4.13398 3.97284
# Velocity P-wave (km/s) = 5.67913 6.25114 5.97199
#
# Compressibility (1/GPa) = 0.02927716
#
# Stress axis : x y z
#
# Youngs Moduli (GPa) = 62.67128 106.40025 104.59042
#
# Poissons Ratio (x) = -0.16525 0.24816
# Poissons Ratio (y) = -0.09733 0.20916
# Poissons Ratio (z) = 0.14870 0.21278
#
# Static dielectric constant tensor:
#      x y z
#    x 2.019420 0.014050 -0.085680 
#    y 0.014050 2.058920 -0.017910 
#    z -0.085680 -0.017910 1.991590 
# 
# From -- ./inp_files/99354.got.cif
#   From: 2010.05.17/outbox.cif.g08.bks.cpg/sg2_50_cif.got.tgz:99354.got - 2010.06.03 11:33:40.
