data_PCOD9040085
_publ_section_title
;
Structure prediction by ZEFSAII (Michael W. Deem and Ramdas Pophale) SiO2 
 PCOD9040085
Probable space group: P -1
;
_chemical_formula_sum "Si O2"
_cell_formula_units_Z 16
_cell_length_a 9.438048
_cell_length_b 13.756285
_cell_length_c 13.862230
_cell_angle_alpha 32.250314
_cell_angle_beta 84.114528
_cell_angle_gamma 105.486564
_cell_volume 712.281002
_symmetry_space_group_name_H-M "P -1"
_symmetry_group_IT_number 2
_symmetry_cell_setting 'triclinic'
loop_
_space_group_symop_operation_xyz
x,y,z
-x,-y,-z
loop_
_atom_site_type_symbol
_atom_site_label
_atom_site_fract_x
_atom_site_fract_y
_atom_site_fract_z
Si Si1 0.722425 0.941176 0.898598
Si Si2 0.309161 0.697134 0.483519
Si Si3 0.014266 0.176472 0.002447
Si Si4 0.979624 0.303721 0.099701
Si Si5 0.383422 0.210525 0.748250
Si Si6 0.207520 0.209365 0.266557
Si Si7 0.478209 0.681360 0.966155
Si Si8 0.566054 0.989886 0.398685
O O1 0.531913 0.718385 0.041852
O O2 0.774342 0.177329 0.645995
O O3 0.671250 0.905921 0.043964
O O4 0.878752 0.916385 0.894505
O O5 0.481379 0.810527 0.302405
O O6 0.403299 0.769932 0.524057
O O7 0.155642 0.405568 0.729140
O O8 0.985355 0.297570 0.989064
O O9 0.815327 0.948660 0.161591
O O10 0.157923 0.330821 0.094960
O O11 0.763118 0.048717 0.349660
O O12 0.000000 0.500000 0.000000
O O13 0.500000 0.500000 0.500000
O O14 0.320765 0.154258 0.245072
O O15 0.353045 0.409013 0.167543
O O16 0.000000 0.000000 0.500000
O O17 0.377445 0.780889 0.858345
O O18 0.500000 0.000000 0.500000
#
# Coordination Sequence:
#
# PCOD9040085 Si02
#       8
#     2   2   2   2   2   2   2   2
#     4  11  25  49  73 105 146 189 244 303 359 430
#     4  11  26  47  74 109 142 193 240 299 366 428
#     4  12  26  49  73 105 151 184 242 306 358 436
#     4  12  23  42  67 102 140 187 236 289 354 430
#     4  12  26  50  78 107 142 194 244 300 371 426
#     4  11  23  38  63  94 134 181 227 280 354 418
#     4  10  23  43  61  96 139 177 230 290 344 419
#     4  11  22  42  70  98 142 187 231 287 355 425
#
# _framework density 22.463047
#
# number of rings (size 3 to 8) (size 9 to 14) (size 15 to 20)
#    0.000    0.750    5.000    2.250    0.000    3.500 
#    2.250    0.000    0.000    0.000    0.000    0.000 
#    0.000    0.000    0.000    0.000    0.000    0.000 
#
# Total GULP energy -89369.183192 kJ/mol
# GULP energy per Si atom -5585.573950 kJ/mol
# Density = 2.241192 g / cm^3
# Si number density = 22.463047 Si / 1000 Ang^3
#
#
#
# Elastic Constant Matrix: (Units=GPa)
#
#
# Indices 1 2 3 4 5 6 
#
# 1 122.9589 32.8096 33.6392 -4.7987 4.3686 5.9022
# 2 32.8096 132.4345 24.4836 -2.1494 -4.8836 11.8698
# 3 33.6392 24.4836 74.8931 -21.9048 -8.4719 12.7019
# 4 -4.7987 -2.1494 -21.9048 30.8841 -5.2097 -6.7138
# 5 4.3686 -4.8836 -8.4719 -5.2097 34.7587 4.1176
# 6 5.9022 11.8698 12.7019 -6.7138 4.1176 34.0591
#
#
#
# Elastic Compliance Matrix: (Units=1/GPa)
#
#
# Indices 1 2 3 4 5 6 
#
# 1 0.009992 -0.001742 -0.005169 -0.002634 -0.003235 0.000675
# 2 -0.001742 0.008561 -0.001895 -0.001359 0.001037 -0.002368
# 3 -0.005169 -0.001895 0.022677 0.015573 0.008825 -0.004898
# 4 -0.002634 -0.001359 0.015573 0.045280 0.010392 0.002792
# 5 -0.003235 0.001037 0.008825 0.010392 0.033636 -0.005110
# 6 0.000675 -0.002368 -0.004898 0.002792 -0.005110 0.033064
#
#
# Mechanical properties :
#
#
# Convention : Reuss Voigt Hill
#
# Bulk Modulus (GPa) = 42.34048 56.90572 49.62310
# Shear Modulus (GPa) = 27.98059 35.89732 31.93895
#
# Velocity S-wave (km/s) = 3.53317 4.00191 3.77483
# Velocity P-wave (km/s) = 5.96106 6.83680 6.41389
#
# Compressibility (1/GPa) = 0.02361806
#
# Stress axis : x y z
#
# Youngs Moduli (GPa) = 100.08381 116.80529 44.09677
#
# Poissons Ratio (x) = 0.20351 0.22795
# Poissons Ratio (y) = 0.17437 0.08355
# Poissons Ratio (z) = 0.51735 0.22130
#
# Static dielectric constant tensor:
#      x y z
#    x 1.856410 -0.007080 0.035760 
#    y -0.007080 1.855890 0.022140 
#    z 0.035760 0.022140 1.870370 
# 
# From -- ./inp_files/505030.got.cif
#   From: 2010.05.17/outbox.cif.g08.bks.cpg/sg2_253_cif.got.tgz:505030.got - 2010.06.03 11:33:40.
