data_PCOD9040567
_publ_section_title
;
Structure prediction by ZEFSAII (Michael W. Deem and Ramdas Pophale) SiO2 
 PCOD9040567
Probable space group: P -1
;
_chemical_formula_sum "Si O2"
_cell_formula_units_Z 16
_cell_length_a 11.987293
_cell_length_b 11.944727
_cell_length_c 12.125141
_cell_angle_alpha 104.612991
_cell_angle_beta 41.098569
_cell_angle_gamma 72.679799
_cell_volume 708.705912
_symmetry_space_group_name_H-M "P -1"
_symmetry_group_IT_number 2
_symmetry_cell_setting 'triclinic'
loop_
_space_group_symop_operation_xyz
x,y,z
-x,-y,-z
loop_
_atom_site_type_symbol
_atom_site_label
_atom_site_fract_x
_atom_site_fract_y
_atom_site_fract_z
Si Si1 0.332763 0.584782 0.532606
Si Si2 0.611051 0.805159 0.596499
Si Si3 0.282322 0.623335 0.345225
Si Si4 0.100518 0.386142 0.120936
Si Si5 0.322831 0.983829 0.085957
Si Si6 0.766146 0.106475 0.283334
Si Si7 0.434405 0.951277 0.435064
Si Si8 0.527800 0.686353 0.016790
O O1 0.500000 0.500000 0.500000
O O2 0.436790 0.502561 0.312193
O O3 0.277620 0.747435 0.596920
O O4 0.079887 0.634445 0.751000
O O5 0.463522 0.818710 0.608114
O O6 0.898084 0.598292 0.326616
O O7 0.623014 0.935356 0.595046
O O8 0.447626 0.878582 0.849292
O O9 0.309797 0.495684 0.216589
O O10 0.396467 0.676509 0.209293
O O11 0.976970 0.812270 0.646439
O O12 0.279167 0.318127 0.076489
O O13 0.312709 0.260524 0.833429
O O14 0.339019 0.863283 0.124541
O O15 0.500000 0.000000 0.000000
O O16 0.803608 0.999720 0.329438
O O17 0.000000 0.000000 0.000000
O O18 0.500000 0.000000 0.500000
#
# Coordination Sequence:
#
# PCOD9040567 Si02
#       8
#     2   2   2   2   2   2   2   2
#     4  12  24  43  68 102 145 189 234 297 359 425
#     4  11  24  42  67 102 135 188 235 290 359 426
#     4  11  25  48  70 107 145 184 249 298 365 434
#     4  12  24  46  71 104 145 181 247 292 363 436
#     4  12  24  43  76 104 141 187 239 299 365 427
#     4  11  23  44  64  96 139 185 234 289 351 421
#     4  10  23  43  67  96 139 184 234 291 346 426
#     4  11  26  46  74 104 142 192 239 310 361 426
#
# _framework density 22.576360999999999
#
# number of rings (size 3 to 8) (size 9 to 14) (size 15 to 20)
#    0.000    0.750    1.250    7.125    0.000    3.500 
#    9.000    2.500    0.000    0.000    0.000    0.000 
#    0.000    0.000    0.000    0.000    0.000    0.000 
#
# Total GULP energy -89305.948248 kJ/mol
# GULP energy per Si atom -5581.621766 kJ/mol
# Density = 2.252498 g / cm^3
# Si number density = 22.576361 Si / 1000 Ang^3
#
#
#
# Elastic Constant Matrix: (Units=GPa)
#
#
# Indices 1 2 3 4 5 6 
#
# 1 121.6458 33.3593 33.8728 -7.5713 7.1100 1.8668
# 2 33.3593 102.9742 49.4873 -20.8544 -9.2770 -0.1365
# 3 33.8728 49.4873 115.3234 2.0256 20.0705 -9.8133
# 4 -7.5713 -20.8544 2.0256 42.4927 2.5344 2.2487
# 5 7.1100 -9.2770 20.0705 2.5344 31.6715 -2.0324
# 6 1.8668 -0.1365 -9.8133 2.2487 -2.0324 37.8185
#
#
#
# Elastic Compliance Matrix: (Units=1/GPa)
#
#
# Indices 1 2 3 4 5 6 
#
# 1 0.009472 -0.002357 -0.001528 0.000776 -0.001976 -0.001025
# 2 -0.002357 0.017278 -0.008850 0.007967 0.010431 -0.002031
# 3 -0.001528 -0.008850 0.015286 -0.004865 -0.011310 0.003691
# 4 0.000776 0.007967 -0.004865 0.027791 0.002841 -0.002772
# 5 -0.001976 0.010431 -0.011310 0.002841 0.041967 -0.000713
# 6 -0.001025 -0.002031 0.003691 -0.002772 -0.000713 0.027570
#
#
# Mechanical properties :
#
#
# Convention : Reuss Voigt Hill
#
# Bulk Modulus (GPa) = 60.36210 63.70914 62.03562
# Shear Modulus (GPa) = 29.35038 37.27813 33.31425
#
# Velocity S-wave (km/s) = 3.60953 4.06791 3.84555
# Velocity P-wave (km/s) = 6.64579 7.09538 6.87426
#
# Compressibility (1/GPa) = 0.01656669
#
# Stress axis : x y z
#
# Youngs Moduli (GPa) = 105.57697 57.87545 65.42029
#
# Poissons Ratio (x) = 0.13638 0.09994
# Poissons Ratio (y) = 0.24879 0.57900
# Poissons Ratio (z) = 0.16129 0.51222
#
# Static dielectric constant tensor:
#      x y z
#    x 1.862690 -0.068440 0.006010 
#    y -0.068440 1.901720 -0.007470 
#    z 0.006010 -0.007470 1.813020 
# 
# From -- ./inp_files/428325.got.cif
#   From: 2010.05.17/outbox.cif.g08.bks.cpg/sg2_215_cif.got.tgz:428325.got - 2010.06.03 11:33:40.
