data_PCOD9040983
_publ_section_title
;
Structure prediction by ZEFSAII (Michael W. Deem and Ramdas Pophale) SiO2 
 PCOD9040983
Probable space group: P -1
;
_chemical_formula_sum "Si O2"
_cell_formula_units_Z 12
_cell_length_a 9.558475
_cell_length_b 12.711307
_cell_length_c 5.656984
_cell_angle_alpha 47.885405
_cell_angle_beta 84.559928
_cell_angle_gamma 71.837101
_cell_volume 478.053153
_symmetry_space_group_name_H-M "P -1"
_symmetry_group_IT_number 2
_symmetry_cell_setting 'triclinic'
loop_
_space_group_symop_operation_xyz
x,y,z
-x,-y,-z
loop_
_atom_site_type_symbol
_atom_site_label
_atom_site_fract_x
_atom_site_fract_y
_atom_site_fract_z
Si Si1 0.663997 0.379256 0.886122
Si Si2 0.952249 0.170006 0.024607
Si Si3 0.641854 0.857953 0.266974
Si Si4 0.362155 0.409703 0.027100
Si Si5 0.939718 0.851805 0.459189
Si Si6 0.832091 0.592979 0.314821
O O1 0.661844 0.432400 0.078193
O O2 0.739605 0.489470 0.588680
O O3 0.496569 0.388002 0.855507
O O4 0.778181 0.219894 0.038442
O O5 0.022627 0.218146 0.177417
O O6 0.980164 0.229480 0.672373
O O7 0.003640 0.990608 0.262436
O O8 0.585133 0.736276 0.593952
O O9 0.764569 0.897578 0.351136
O O10 0.743504 0.757989 0.189399
O O11 0.500000 0.000000 0.000000
O O12 0.206476 0.407800 0.953058
O O13 0.000000 0.500000 0.500000
#
# Coordination Sequence:
#
# PCOD9040983 Si02
#       6
#     2   2   2   2   2   2
#     4  10  23  43  70 101 139 186 242 302 359 438
#     4  10  23  43  72 100 142 190 241 307 359 436
#     4  11  27  44  69 102 145 191 243 301 367 437
#     4  10  25  45  68 103 140 190 242 298 370 431
#     4  10  24  44  66 107 139 192 245 295 367 436
#     4  11  25  44  72 104 139 189 240 302 363 437
#
# _framework density 25.101811000000001
#
# number of rings (size 3 to 8) (size 9 to 14) (size 15 to 20)
#    0.000    1.667    0.000    1.500   11.667    6.000 
#    0.000    0.000    0.000    0.000    0.000    0.000 
#    0.000    0.000    0.000    0.000    0.000    0.000 
#
# Total GULP energy -66930.125440 kJ/mol
# GULP energy per Si atom -5577.510453 kJ/mol
# Density = 2.504468 g / cm^3
# Si number density = 25.101811 Si / 1000 Ang^3
#
#
#
# Elastic Constant Matrix: (Units=GPa)
#
#
# Indices 1 2 3 4 5 6 
#
# 1 158.1175 52.2953 43.6757 15.2068 28.5046 -17.4624
# 2 52.2953 123.7840 55.0076 5.3064 26.2150 -10.7758
# 3 43.6757 55.0076 113.3569 7.8162 23.1727 -17.5729
# 4 15.2068 5.3064 7.8162 33.8509 3.2054 -1.6373
# 5 28.5046 26.2150 23.1727 3.2054 46.3183 -0.2065
# 6 -17.4624 -10.7758 -17.5729 -1.6373 -0.2065 50.5225
#
#
#
# Elastic Compliance Matrix: (Units=1/GPa)
#
#
# Indices 1 2 3 4 5 6 
#
# 1 0.008379 -0.002094 -0.001049 -0.002790 -0.003244 0.001981
# 2 -0.002094 0.011462 -0.004086 0.000403 -0.003180 0.000300
# 3 -0.001049 -0.004086 0.012412 -0.001310 -0.003147 0.003028
# 4 -0.002790 0.000403 -0.001310 0.031018 -0.000004 -0.000329
# 5 -0.003244 -0.003180 -0.003147 -0.000004 0.026948 -0.002784
# 6 0.001981 0.000300 0.003028 -0.000329 -0.002784 0.021573
#
#
# Mechanical properties :
#
#
# Convention : Reuss Voigt Hill
#
# Bulk Modulus (GPa) = 56.20376 77.46839 66.83607
# Shear Modulus (GPa) = 37.82648 42.42364 40.12506
#
# Velocity S-wave (km/s) = 3.88612 4.11550 4.00245
# Velocity P-wave (km/s) = 6.52494 7.31517 6.93133
#
# Compressibility (1/GPa) = 0.01779241
#
# Stress axis : x y z
#
# Youngs Moduli (GPa) = 119.34703 87.24818 80.56858
#
# Poissons Ratio (x) = 0.18274 0.08455
# Poissons Ratio (y) = 0.24997 0.32921
# Poissons Ratio (z) = 0.12524 0.35650
#
# Static dielectric constant tensor:
#      x y z
#    x 2.022650 0.038220 -0.047310 
#    y 0.038220 2.034730 0.088180 
#    z -0.047310 0.088180 2.114570 
# 
# From -- ./inp_files/26219.got.cif
#   From: 2010.05.17/outbox.cif.g08.bks.cpg/sg2_14_cif.got.tgz:26219.got - 2010.06.03 11:33:40.
