data_PCOD9040556
_publ_section_title
;
Structure prediction by ZEFSAII (Michael W. Deem and Ramdas Pophale) SiO2 
 PCOD9040556
Probable space group: P -1
;
_chemical_formula_sum "Si O2"
_cell_formula_units_Z 16
_cell_length_a 17.910953
_cell_length_b 6.643740
_cell_length_c 13.751576
_cell_angle_alpha 72.049031
_cell_angle_beta 28.287101
_cell_angle_gamma 58.995561
_cell_volume 620.632736
_symmetry_space_group_name_H-M "P -1"
_symmetry_group_IT_number 2
_symmetry_cell_setting 'triclinic'
loop_
_space_group_symop_operation_xyz
x,y,z
-x,-y,-z
loop_
_atom_site_type_symbol
_atom_site_label
_atom_site_fract_x
_atom_site_fract_y
_atom_site_fract_z
Si Si1 0.190960 0.444151 0.830853
Si Si2 0.177156 0.096789 0.043391
Si Si3 0.610030 0.367939 0.494738
Si Si4 0.013233 0.845796 0.138170
Si Si5 0.655485 0.507890 0.886588
Si Si6 0.001202 0.972863 0.389662
Si Si7 0.829843 0.712080 0.521666
Si Si8 0.440801 0.166628 0.862437
O O1 0.315823 0.447071 0.600716
O O2 0.260581 0.206736 0.854264
O O3 0.000000 0.500000 0.000000
O O4 0.121363 0.682525 0.945734
O O5 0.977319 0.193368 0.315611
O O6 0.284423 0.120264 0.010817
O O7 0.138428 0.930554 0.035882
O O8 0.500000 0.500000 0.500000
O O9 0.476817 0.346356 0.726590
O O10 0.804059 0.088021 0.318483
O O11 0.980010 0.666710 0.273787
O O12 0.781490 0.255072 0.843362
O O13 0.803685 0.524996 0.645366
O O14 0.500000 0.500000 0.000000
O O15 0.582008 0.729557 0.016951
O O16 0.865634 0.884976 0.527135
O O17 0.000000 0.000000 0.500000
O O18 0.626967 0.892056 0.682905
#
# Coordination Sequence:
#
# PCOD9040556 Si02
#       8
#     2   2   2   2   2   2   2   2
#     4  12  25  45  73  98 136 184 229 284 341 402
#     4  11  24  42  72  96 139 178 227 280 340 402
#     4  11  23  44  68 102 138 181 231 286 339 403
#     4  10  25  45  72 102 136 178 234 279 344 410
#     4  12  25  42  70 102 139 183 225 279 350 409
#     4  11  24  41  67 100 135 177 227 278 336 410
#     4  10  23  43  67  96 136 175 225 282 340 406
#     4  11  24  44  68  99 140 180 227 284 340 410
#
# _framework density 25.780141
#
# number of rings (size 3 to 8) (size 9 to 14) (size 15 to 20)
#    0.000    1.000    2.500    3.375    5.250    1.000 
#    0.000    3.750    0.000    0.000    0.000    0.000 
#    0.000    0.000    0.000    0.000    0.000    0.000 
#
# Total GULP energy -89089.486247 kJ/mol
# GULP energy per Si atom -5568.092890 kJ/mol
# Density = 2.572146 g / cm^3
# Si number density = 25.780141 Si / 1000 Ang^3
#
#
#
# Elastic Constant Matrix: (Units=GPa)
#
#
# Indices 1 2 3 4 5 6 
#
# 1 126.8434 35.6642 29.2215 -11.5987 -11.6758 21.3957
# 2 35.6642 106.1666 56.4037 -38.3628 1.7203 6.6407
# 3 29.2215 56.4037 92.8046 -31.7042 -0.2750 16.2334
# 4 -11.5987 -38.3628 -31.7042 56.3752 -8.5803 -7.9346
# 5 -11.6758 1.7203 -0.2750 -8.5803 52.1407 -10.5385
# 6 21.3957 6.6407 16.2334 -7.9346 -10.5385 37.8592
#
#
#
# Elastic Compliance Matrix: (Units=1/GPa)
#
#
# Indices 1 2 3 4 5 6 
#
# 1 0.009660 -0.002866 -0.000812 -0.000862 0.001212 -0.004452
# 2 -0.002866 0.016681 -0.007395 0.007207 0.000675 0.003563
# 3 -0.000812 -0.007395 0.017803 0.004067 -0.000202 -0.005082
# 4 -0.000862 0.007207 0.004067 0.026075 0.004743 0.004264
# 5 0.001212 0.000675 -0.000202 0.004743 0.021472 0.006254
# 6 -0.004452 0.003563 -0.005082 0.004264 0.006254 0.033118
#
#
# Mechanical properties :
#
#
# Convention : Reuss Voigt Hill
#
# Bulk Modulus (GPa) = 45.45776 63.15484 54.30630
# Shear Modulus (GPa) = 32.40697 42.91004 37.65851
#
# Velocity S-wave (km/s) = 3.54934 4.08421 3.82613
# Velocity P-wave (km/s) = 5.87096 6.84044 6.37416
#
# Compressibility (1/GPa) = 0.02199844
#
# Stress axis : x y z
#
# Youngs Moduli (GPa) = 103.51555 59.94737 56.17069
#
# Poissons Ratio (x) = 0.17184 0.04559
# Poissons Ratio (y) = 0.29673 0.41538
# Poissons Ratio (z) = 0.08402 0.44330
#
# Static dielectric constant tensor:
#      x y z
#    x 2.141850 0.026680 0.071990 
#    y 0.026680 2.356060 0.165150 
#    z 0.071990 0.165150 2.050290 
# 
# From -- ./inp_files/536301.got.cif
#   From: 2010.05.17/outbox.cif.g08.bks.cpg/sg2_269_cif.got.tgz:536301.got - 2010.06.03 11:33:40.
