data_PCOD9040150
_publ_section_title
;
Structure prediction by ZEFSAII (Michael W. Deem and Ramdas Pophale) SiO2 
 PCOD9040150
Probable space group: P -1
;
_chemical_formula_sum "Si O2"
_cell_formula_units_Z 14
_cell_length_a 12.232165
_cell_length_b 11.820563
_cell_length_c 8.876577
_cell_angle_alpha 95.031714
_cell_angle_beta 144.533782
_cell_angle_gamma 66.530952
_cell_volume 611.851752
_symmetry_space_group_name_H-M "P -1"
_symmetry_group_IT_number 2
_symmetry_cell_setting 'triclinic'
loop_
_space_group_symop_operation_xyz
x,y,z
-x,-y,-z
loop_
_atom_site_type_symbol
_atom_site_label
_atom_site_fract_x
_atom_site_fract_y
_atom_site_fract_z
Si Si1 0.669002 0.262389 0.187520
Si Si2 0.476887 0.645302 0.489095
Si Si3 0.221488 0.396105 0.906139
Si Si4 0.122189 0.889286 0.314117
Si Si5 0.973216 0.324971 0.416584
Si Si6 0.629679 0.132432 0.838946
Si Si7 0.643845 0.958552 0.314611
O O1 0.870219 0.174802 0.523099
O O2 0.726626 0.358978 0.180099
O O3 0.432991 0.338849 0.020812
O O4 0.681644 0.159762 0.067667
O O5 0.500000 0.500000 0.500000
O O6 0.238380 0.763068 0.314161
O O7 0.479447 0.721244 0.350537
O O8 0.675848 0.626610 0.817210
O O9 0.098615 0.323647 0.708686
O O10 0.048589 0.557569 0.698434
O O11 0.292522 0.938572 0.540202
O O12 0.865626 0.016239 0.009537
O O13 0.117838 0.181248 0.478034
O O14 0.474480 0.075762 0.691440
O O15 0.500000 0.000000 0.000000
#
# Coordination Sequence:
#
# PCOD9040150 Si02
#       7
#     2   2   2   2   2   2   2
#     4  11  20  39  71 100 125 173 221 278 334 385
#     4  11  26  47  67  96 141 180 222 275 332 407
#     4  10  23  43  63  99 134 176 221 275 333 392
#     4  11  24  43  69  99 133 176 224 277 335 393
#     4  11  21  38  70  97 135 171 224 279 326 394
#     4  12  23  42  72 101 134 180 218 273 346 394
#     4  12  22  40  69 102 136 166 225 287 325 393
#
# _framework density 22.881357999999999
#
# number of rings (size 3 to 8) (size 9 to 14) (size 15 to 20)
#    0.000    0.857    4.286    3.857    0.000    1.714 
#    0.000    3.571    0.000    0.000    0.000    0.000 
#    0.000    0.000    0.000    0.000    0.000    0.000 
#
# Total GULP energy -78256.424323 kJ/mol
# GULP energy per Si atom -5589.744595 kJ/mol
# Density = 2.282928 g / cm^3
# Si number density = 22.881358 Si / 1000 Ang^3
#
#
#
# Elastic Constant Matrix: (Units=GPa)
#
#
# Indices 1 2 3 4 5 6 
#
# 1 86.1220 48.3966 23.2269 1.8599 1.9781 18.9379
# 2 48.3966 145.0397 18.4755 -11.3073 13.1424 9.1286
# 3 23.2269 18.4755 56.4868 -9.5601 5.2945 0.2329
# 4 1.8599 -11.3073 -9.5601 32.9658 9.8116 5.8059
# 5 1.9781 13.1424 5.2945 9.8116 28.7762 3.7995
# 6 18.9379 9.1286 0.2329 5.8059 3.7995 37.4282
#
#
#
# Elastic Compliance Matrix: (Units=1/GPa)
#
#
# Indices 1 2 3 4 5 6 
#
# 1 0.018355 -0.005651 -0.007075 -0.005305 0.005432 -0.007593
# 2 -0.005651 0.009667 0.000680 0.005602 -0.006095 0.000247
# 3 -0.007075 0.000680 0.022576 0.008906 -0.007363 0.002639
# 4 -0.005305 0.005602 0.008906 0.040882 -0.017334 -0.003320
# 5 0.005432 -0.006095 -0.007363 -0.017334 0.044832 -0.003079
# 6 -0.007593 0.000247 0.002639 -0.003320 -0.003079 0.031311
#
#
# Mechanical properties :
#
#
# Convention : Reuss Voigt Hill
#
# Bulk Modulus (GPa) = 37.72588 51.98293 44.85441
# Shear Modulus (GPa) = 24.93141 33.00402 28.96771
#
# Velocity S-wave (km/s) = 3.30448 3.80201 3.56194
# Velocity P-wave (km/s) = 5.57520 6.48394 6.04667
#
# Compressibility (1/GPa) = 0.02650700
#
# Stress axis : x y z
#
# Youngs Moduli (GPa) = 54.48177 103.44261 44.29402
#
# Poissons Ratio (x) = 0.58459 0.31336
# Poissons Ratio (y) = 0.30789 -0.03013
# Poissons Ratio (z) = 0.38544 -0.07037
#
# Static dielectric constant tensor:
#      x y z
#    x 1.858830 0.017060 -0.028950 
#    y 0.017060 1.850440 -0.012290 
#    z -0.028950 -0.012290 1.876370 
# 
# From -- ./inp_files/258673.got.cif
#   From: 2010.05.17/outbox.cif.g08.bks.cpg/sg2_130_cif.got.tgz:258673.got - 2010.06.03 11:33:40.
