data_PCOD9040781
_publ_section_title
;
Structure prediction by ZEFSAII (Michael W. Deem and Ramdas Pophale) SiO2 
 PCOD9040781
Probable space group: P -1
;
_chemical_formula_sum "Si O2"
_cell_formula_units_Z 14
_cell_length_a 9.808256
_cell_length_b 11.998843
_cell_length_c 9.037362
_cell_angle_alpha 62.852878
_cell_angle_beta 134.148001
_cell_angle_gamma 125.373898
_cell_volume 619.717650
_symmetry_space_group_name_H-M "P -1"
_symmetry_group_IT_number 2
_symmetry_cell_setting 'triclinic'
loop_
_space_group_symop_operation_xyz
x,y,z
-x,-y,-z
loop_
_atom_site_type_symbol
_atom_site_label
_atom_site_fract_x
_atom_site_fract_y
_atom_site_fract_z
Si Si1 0.816411 0.614548 0.322033
Si Si2 0.510952 0.142267 0.112843
Si Si3 0.014064 0.308051 0.061064
Si Si4 0.849572 0.442304 0.203423
Si Si5 0.485545 0.864032 0.217626
Si Si6 0.339132 0.352074 0.517455
Si Si7 0.134782 0.159606 0.986293
O O1 0.734306 0.507186 0.190479
O O2 0.668366 0.639428 0.315113
O O3 0.938041 0.759676 0.242993
O O4 0.953239 0.557822 0.558529
O O5 0.706922 0.285428 0.159659
O O6 0.547793 0.006957 0.264487
O O7 0.427315 0.103752 0.904716
O O8 0.355766 0.168952 0.090756
O O9 0.118704 0.320578 0.292322
O O10 0.078009 0.457013 0.943079
O O11 0.121893 0.233330 0.082847
O O12 0.766073 0.218093 0.923911
O O13 0.581015 0.760574 0.408113
O O14 0.500000 0.500000 0.500000
O O15 0.000000 0.000000 0.000000
#
# Coordination Sequence:
#
# PCOD9040781 Si02
#       7
#     2   2   2   2   2   2   2
#     4  10  23  43  68  99 138 180 230 281 345 406
#     4  11  23  43  70  96 139 177 231 281 342 406
#     4  11  25  44  72 101 143 177 229 286 345 400
#     4  10  23  44  72  99 134 183 228 287 340 404
#     4  11  24  45  67 105 138 180 223 285 344 410
#     4  12  25  41  71 106 138 179 231 280 341 417
#     4  11  23  45  68  98 138 184 226 285 342 407
#
# _framework density 22.590934000000001
#
# number of rings (size 3 to 8) (size 9 to 14) (size 15 to 20)
#    0.000    1.143    2.857    2.571    2.000    4.000 
#    0.000    4.286    0.000    0.000    0.000    0.000 
#    0.000    0.000    0.000    0.000    0.000    0.000 
#
# Total GULP energy -78231.092454 kJ/mol
# GULP energy per Si atom -5587.935175 kJ/mol
# Density = 2.253952 g / cm^3
# Si number density = 22.590934 Si / 1000 Ang^3
#
#
#
# Elastic Constant Matrix: (Units=GPa)
#
#
# Indices 1 2 3 4 5 6 
#
# 1 137.8545 43.4593 21.4174 -3.1551 -5.4504 -21.0432
# 2 43.4593 164.6399 35.4836 -29.9115 4.9906 -4.6437
# 3 21.4174 35.4836 61.2657 -19.5249 0.8601 -16.0366
# 4 -3.1551 -29.9115 -19.5249 32.3567 -6.9842 2.4422
# 5 -5.4504 4.9906 0.8601 -6.9842 37.2105 -6.2086
# 6 -21.0432 -4.6437 -16.0366 2.4422 -6.2086 35.0912
#
#
#
# Elastic Compliance Matrix: (Units=1/GPa)
#
#
# Indices 1 2 3 4 5 6 
#
# 1 0.009002 -0.002419 -0.001045 -0.001908 0.002162 0.005116
# 2 -0.002419 0.008307 -0.002628 0.005874 -0.000652 -0.002076
# 3 -0.001045 -0.002628 0.024775 0.012442 0.003652 0.010127
# 4 -0.001908 0.005874 0.012442 0.045050 0.007692 0.003545
# 5 0.002162 -0.000652 0.003652 0.007692 0.029912 0.007636
# 6 0.005116 -0.002076 0.010127 0.003545 0.007636 0.037023
#
#
# Mechanical properties :
#
#
# Convention : Reuss Voigt Hill
#
# Bulk Modulus (GPa) = 33.44618 62.72009 48.08314
# Shear Modulus (GPa) = 28.37377 38.49165 33.43271
#
# Velocity S-wave (km/s) = 3.54783 4.13225 3.85114
# Velocity P-wave (km/s) = 5.62317 7.11274 6.41136
#
# Compressibility (1/GPa) = 0.02989878
#
# Stress axis : x y z
#
# Youngs Moduli (GPa) = 111.09017 120.37951 40.36353
#
# Poissons Ratio (x) = 0.29117 0.04220
# Poissons Ratio (y) = 0.26871 0.10608
# Poissons Ratio (z) = 0.11614 0.31637
#
# Static dielectric constant tensor:
#      x y z
#    x 1.916720 -0.035700 -0.010300 
#    y -0.035700 1.825630 -0.030720 
#    z -0.010300 -0.030720 1.898010 
# 
# From -- ./inp_files/185559.got.cif
#   From: 2010.05.17/outbox.cif.g08.bks.cpg/sg2_93_cif.got.tgz:185559.got - 2010.06.03 11:33:40.
