data_PCOD9040708
_publ_section_title
;
Structure prediction by ZEFSAII (Michael W. Deem and Ramdas Pophale) SiO2 
 PCOD9040708
Probable space group: P -1
;
_chemical_formula_sum "Si O2"
_cell_formula_units_Z 16
_cell_length_a 12.222473
_cell_length_b 6.663896
_cell_length_c 13.916123
_cell_angle_alpha 90.450455
_cell_angle_beta 118.810720
_cell_angle_gamma 127.859167
_cell_volume 704.558609
_symmetry_space_group_name_H-M "P -1"
_symmetry_group_IT_number 2
_symmetry_cell_setting 'triclinic'
loop_
_space_group_symop_operation_xyz
x,y,z
-x,-y,-z
loop_
_atom_site_type_symbol
_atom_site_label
_atom_site_fract_x
_atom_site_fract_y
_atom_site_fract_z
Si Si1 0.303147 0.365051 0.628458
Si Si2 0.252315 0.732452 0.541062
Si Si3 0.328071 0.177287 0.450580
Si Si4 0.649301 0.563158 0.865230
Si Si5 0.832242 0.395361 0.986640
Si Si6 0.125706 0.869956 0.663504
Si Si7 0.776221 0.955176 0.084213
Si Si8 0.075387 0.996407 0.172580
O O1 0.343555 0.641395 0.625277
O O2 0.243439 0.203823 0.502123
O O3 0.477692 0.449297 0.739152
O O4 0.154282 0.132129 0.640658
O O5 0.204717 0.820244 0.611835
O O6 0.072960 0.438663 0.416522
O O7 0.349303 0.978473 0.503129
O O8 0.500000 0.500000 0.500000
O O9 0.206008 0.056485 0.306653
O O10 0.815848 0.844867 0.878643
O O11 0.685246 0.365449 0.872163
O O12 0.654577 0.653331 0.977043
O O13 0.752068 0.123090 0.009828
O O14 0.924459 0.662148 0.094768
O O15 0.000000 0.500000 0.000000
O O16 0.232005 0.987520 0.808618
O O17 0.974240 0.085439 0.159102
#
# Coordination Sequence:
#
# PCOD9040708 Si02
#       8
#     2   2   2   2   2   2   2   2
#     4  11  24  44  64  93 135 175 204 275 322 370
#     4  10  23  44  67  94 126 174 221 262 318 384
#     4  11  23  40  63  98 133 161 209 265 329 387
#     4  11  23  39  60  95 132 163 210 261 322 385
#     4  11  20  38  64  89 126 171 207 257 317 382
#     4  10  23  43  68  94 123 170 232 264 306 379
#     4  11  22  39  65  93 122 172 215 262 315 379
#     4  11  21  39  60  95 128 161 212 259 319 390
#
# _framework density 22.709251999999999
#
# number of rings (size 3 to 8) (size 9 to 14) (size 15 to 20)
#    0.000    1.250    3.750    2.625    0.000    7.000 
#    2.250    1.250    0.000    0.000    0.000    0.000 
#    0.000    0.000    0.000    0.000    0.000    0.000 
#
# Total GULP energy -89291.945191 kJ/mol
# GULP energy per Si atom -5580.746574 kJ/mol
# Density = 2.265757 g / cm^3
# Si number density = 22.709252 Si / 1000 Ang^3
#
#
#
# Elastic Constant Matrix: (Units=GPa)
#
#
# Indices 1 2 3 4 5 6 
#
# 1 52.8603 34.2856 33.9695 -13.1845 11.3260 -17.4742
# 2 34.2856 145.0844 25.0955 -26.9883 18.2818 -19.3936
# 3 33.9695 25.0955 97.0963 -17.2822 2.4787 -13.8385
# 4 -13.1845 -26.9883 -17.2822 39.0625 -2.9107 6.9877
# 5 11.3260 18.2818 2.4787 -2.9107 40.6256 -5.9351
# 6 -17.4742 -19.3936 -13.8385 6.9877 -5.9351 32.6186
#
#
#
# Elastic Compliance Matrix: (Units=1/GPa)
#
#
# Indices 1 2 3 4 5 6 
#
# 1 0.031380 -0.003632 -0.008093 0.002375 -0.005019 0.009796
# 2 -0.003632 0.009188 0.000078 0.004593 -0.002489 0.002113
# 3 -0.008093 0.000078 0.013832 0.003364 0.001791 0.001185
# 4 0.002375 0.004593 0.003364 0.031252 -0.000904 -0.001429
# 5 -0.005019 -0.002489 0.001791 -0.000904 0.027214 0.001737
# 6 0.009796 0.002113 0.001185 -0.001429 0.001737 0.038286
#
#
# Mechanical properties :
#
#
# Convention : Reuss Voigt Hill
#
# Bulk Modulus (GPa) = 32.14707 53.52692 42.83700
# Shear Modulus (GPa) = 27.05425 35.90738 31.48081
#
# Velocity S-wave (km/s) = 3.45531 3.98072 3.72728
# Velocity P-wave (km/s) = 5.48685 6.68953 6.11782
#
# Compressibility (1/GPa) = 0.03110703
#
# Stress axis : x y z
#
# Youngs Moduli (GPa) = 31.86714 108.83966 72.29657
#
# Poissons Ratio (x) = 0.39531 0.58507
# Poissons Ratio (y) = 0.11574 -0.00566
# Poissons Ratio (z) = 0.25789 -0.00852
#
# Static dielectric constant tensor:
#      x y z
#    x 1.945080 -0.005890 0.013130 
#    y -0.005890 1.893980 -0.014460 
#    z 0.013130 -0.014460 1.864500 
# 
# From -- ./inp_files/68518.got.cif
#   From: 2010.05.17/outbox.cif.g08.bks.cpg/sg2_35_cif.got.tgz:68518.got - 2010.06.03 11:33:40.
