data_PCOD9040750
_publ_section_title
;
Structure prediction by ZEFSAII (Michael W. Deem and Ramdas Pophale) SiO2 
 PCOD9040750
Probable space group: P -1
;
_chemical_formula_sum "Si O2"
_cell_formula_units_Z 16
_cell_length_a 9.577388
_cell_length_b 16.558262
_cell_length_c 12.410305
_cell_angle_alpha 140.745200
_cell_angle_beta 134.950179
_cell_angle_gamma 74.611322
_cell_volume 685.145778
_symmetry_space_group_name_H-M "P -1"
_symmetry_group_IT_number 2
_symmetry_cell_setting 'triclinic'
loop_
_space_group_symop_operation_xyz
x,y,z
-x,-y,-z
loop_
_atom_site_type_symbol
_atom_site_label
_atom_site_fract_x
_atom_site_fract_y
_atom_site_fract_z
Si Si1 0.293965 0.061069 0.606145
Si Si2 0.082178 0.342507 0.476920
Si Si3 0.697327 0.814900 0.028060
Si Si4 0.982889 0.470385 0.191007
Si Si5 0.352877 0.011290 0.225417
Si Si6 0.461121 0.741774 0.607209
Si Si7 0.606199 0.755513 0.361245
Si Si8 0.304730 0.439281 0.474208
O O1 0.343531 0.126779 0.823041
O O2 0.368979 0.198115 0.701903
O O3 0.461821 0.004544 0.622765
O O4 0.995615 0.914942 0.282274
O O5 0.984266 0.411520 0.573973
O O6 0.275345 0.331669 0.636646
O O7 0.222094 0.451579 0.560045
O O8 0.862079 0.163167 0.124760
O O9 0.588542 0.841251 0.890930
O O10 0.540447 0.619805 0.748964
O O11 0.173536 0.586038 0.318925
O O12 0.079149 0.379417 0.205823
O O13 0.688967 0.354029 0.880658
O O14 0.505110 0.143476 0.349729
O O15 0.249714 0.078349 0.318138
O O16 0.614124 0.674537 0.592155
#
# Coordination Sequence:
#
# PCOD9040750 Si02
#       8
#     2   2   2   2   2   2   2   2
#     4  11  25  42  68  99 135 176 222 278 334 401
#     4  12  25  45  70  99 137 179 227 275 332 399
#     4  10  23  43  68  98 132 176 222 275 338 394
#     4  11  25  43  71 100 133 180 224 276 333 400
#     4  12  26  43  69  99 136 179 224 275 339 396
#     4  11  25  44  70  98 138 175 224 275 335 400
#     4  12  26  44  67 101 139 174 225 279 336 395
#     4  11  23  44  71  97 136 176 224 273 333 403
#
# _framework density 23.352694
#
# number of rings (size 3 to 8) (size 9 to 14) (size 15 to 20)
#    0.000    0.750    1.250    6.750    5.250    5.500 
#    0.000    0.000    0.000    0.000    0.000    0.000 
#    0.000    0.000    0.000    0.000    0.000    0.000 
#
# Total GULP energy -89689.723040 kJ/mol
# GULP energy per Si atom -5605.607690 kJ/mol
# Density = 2.329954 g / cm^3
# Si number density = 23.352694 Si / 1000 Ang^3
#
#
#
# Elastic Constant Matrix: (Units=GPa)
#
#
# Indices 1 2 3 4 5 6 
#
# 1 78.2459 8.4719 13.3754 -2.7303 0.0997 1.0366
# 2 8.4719 96.7646 3.4106 -15.4473 19.4907 6.2144
# 3 13.3754 3.4106 82.2151 -2.8370 5.8309 -6.2969
# 4 -2.7303 -15.4473 -2.8370 20.2121 -2.9503 -1.4041
# 5 0.0997 19.4907 5.8309 -2.9503 43.6998 -7.1598
# 6 1.0366 6.2144 -6.2969 -1.4041 -7.1598 38.1596
#
#
#
# Elastic Compliance Matrix: (Units=1/GPa)
#
#
# Indices 1 2 3 4 5 6 
#
# 1 0.013300 -0.001094 -0.002174 0.000736 0.000736 -0.000377
# 2 -0.001094 0.013193 0.000129 0.008913 -0.005764 -0.002851
# 3 -0.002174 0.000129 0.012810 0.001544 -0.001337 0.001958
# 4 0.000736 0.008913 0.001544 0.056628 -0.000225 0.000825
# 5 0.000736 -0.005764 -0.001337 -0.000225 0.026545 0.005670
# 6 -0.000377 -0.002851 0.001958 0.000825 0.005670 0.028098
#
#
# Mechanical properties :
#
#
# Convention : Reuss Voigt Hill
#
# Bulk Modulus (GPa) = 30.28163 34.19348 32.23756
# Shear Modulus (GPa) = 29.78679 35.87881 32.83280
#
# Velocity S-wave (km/s) = 3.57531 3.92393 3.75367
# Velocity P-wave (km/s) = 5.48079 5.93327 5.71151
#
# Compressibility (1/GPa) = 0.03302332
#
# Stress axis : x y z
#
# Youngs Moduli (GPa) = 75.18759 75.79961 78.06657
#
# Poissons Ratio (x) = 0.08295 0.16972
# Poissons Ratio (y) = 0.08228 -0.01005
# Poissons Ratio (z) = 0.16346 -0.00976
#
# Static dielectric constant tensor:
#      x y z
#    x 1.873230 -0.006020 -0.015460 
#    y -0.006020 1.814400 -0.000160 
#    z -0.015460 -0.000160 1.887960 
# 
# From -- ./inp_files/262910.got.cif
#   From: 2010.05.17/outbox.cif.g08.bks.cpg/sg2_132_cif.got.tgz:262910.got - 2010.06.03 11:33:40.
