data_PCOD9040976
_publ_section_title
;
Structure prediction by ZEFSAII (Michael W. Deem and Ramdas Pophale) SiO2 
 PCOD9040976
Probable space group: P -1
;
_chemical_formula_sum "Si O2"
_cell_formula_units_Z 12
_cell_length_a 28.036341
_cell_length_b 6.165735
_cell_length_c 12.446789
_cell_angle_alpha 128.360772
_cell_angle_beta 18.189416
_cell_angle_gamma 128.618336
_cell_volume 521.382531
_symmetry_space_group_name_H-M "P -1"
_symmetry_group_IT_number 2
_symmetry_cell_setting 'triclinic'
loop_
_space_group_symop_operation_xyz
x,y,z
-x,-y,-z
loop_
_atom_site_type_symbol
_atom_site_label
_atom_site_fract_x
_atom_site_fract_y
_atom_site_fract_z
Si Si1 0.869188 0.700256 0.597837
Si Si2 0.118655 0.648154 0.204309
Si Si3 0.161011 0.655711 0.653167
Si Si4 0.633902 0.853065 0.722774
Si Si5 0.336508 0.348677 0.769650
Si Si6 0.599590 0.237469 0.630352
O O1 0.810885 0.541181 0.567033
O O2 0.038967 0.637769 0.253964
O O3 0.863878 0.028525 0.700166
O O4 0.766349 0.616574 0.895698
O O5 0.000000 0.500000 0.500000
O O6 0.266528 0.496593 0.863694
O O7 0.279236 0.686135 0.508209
O O8 0.202465 0.966735 0.604239
O O9 0.000000 0.500000 0.000000
O O10 0.611657 0.531853 0.634982
O O11 0.572681 0.842216 0.974434
O O12 0.500000 0.000000 0.000000
O O13 0.500000 0.500000 0.500000
O O14 0.349850 0.026053 0.618787
#
# Coordination Sequence:
#
# PCOD9040976 Si02
#       6
#     2   2   2   2   2   2
#     4  10  23  44  66  96 140 182 219 284 348 401
#     4   9  22  42  68  92 139 176 224 281 345 400
#     4  11  25  41  67 104 135 182 232 274 344 416
#     4   9  21  45  66  94 141 179 221 287 348 401
#     4  11  24  43  72 104 130 178 237 285 342 412
#     4  10  23  43  70 101 136 178 231 288 348 412
#
# _framework density 23.015733000000001
#
# number of rings (size 3 to 8) (size 9 to 14) (size 15 to 20)
#    0.000    2.000    0.000    1.000    7.000   10.667 
#    0.000    0.000    0.000    0.000    0.000    0.000 
#    0.000    0.000    0.000    0.000    0.000    0.000 
#
# Total GULP energy -66945.396720 kJ/mol
# GULP energy per Si atom -5578.783060 kJ/mol
# Density = 2.296335 g / cm^3
# Si number density = 23.015733 Si / 1000 Ang^3
#
#
#
# Elastic Constant Matrix: (Units=GPa)
#
#
# Indices 1 2 3 4 5 6 
#
# 1 86.8403 59.2728 47.1798 9.7887 13.5870 16.6166
# 2 59.2728 152.0150 57.4412 -9.1364 -11.6377 -8.5111
# 3 47.1798 57.4412 108.8625 -13.0841 2.6653 -6.3614
# 4 9.7887 -9.1364 -13.0841 48.4256 -6.0990 9.0354
# 5 13.5870 -11.6377 2.6653 -6.0990 36.1814 1.2632
# 6 16.6166 -8.5111 -6.3614 9.0354 1.2632 40.8663
#
#
#
# Elastic Compliance Matrix: (Units=1/GPa)
#
#
# Indices 1 2 3 4 5 6 
#
# 1 0.029449 -0.010658 -0.008703 -0.009800 -0.015047 -0.012917
# 2 -0.010658 0.012462 -0.001340 0.004199 0.008624 0.005526
# 3 -0.008703 -0.001340 0.014449 0.004907 0.002448 0.004348
# 4 -0.009800 0.004199 0.004907 0.025965 0.009060 -0.000397
# 5 -0.015047 0.008624 0.002448 0.009060 0.037230 0.005142
# 6 -0.012917 0.005526 0.004348 -0.000397 0.005142 0.031479
#
#
# Mechanical properties :
#
#
# Convention : Reuss Voigt Hill
#
# Bulk Modulus (GPa) = 66.85872 75.05614 70.95743
# Shear Modulus (GPa) = 25.32626 37.34960 31.33793
#
# Velocity S-wave (km/s) = 3.32081 4.03275 3.69397
# Velocity P-wave (km/s) = 6.61936 7.37331 7.00648
#
# Compressibility (1/GPa) = 0.01495691
#
# Stress axis : x y z
#
# Youngs Moduli (GPa) = 33.95698 80.24099 69.20841
#
# Poissons Ratio (x) = 0.85521 0.60235
# Poissons Ratio (y) = 0.36191 0.09277
# Poissons Ratio (z) = 0.29554 0.10755
#
# Static dielectric constant tensor:
#      x y z
#    x 1.942740 -0.102020 -0.007530 
#    y -0.102020 1.881950 -0.023340 
#    z -0.007530 -0.023340 1.978760 
# 
# From -- ./inp_files/199192.got.cif
#   From: 2010.05.17/outbox.cif.g08.bks.cpg/sg2_100_cif.got.tgz:199192.got - 2010.06.03 11:33:40.
