data_PCOD9040063
_publ_section_title
;
Structure prediction by ZEFSAII (Michael W. Deem and Ramdas Pophale) SiO2 
 PCOD9040063
Probable space group: P -1
;
_chemical_formula_sum "Si O2"
_cell_formula_units_Z 8
_cell_length_a 9.306220
_cell_length_b 5.055567
_cell_length_c 9.432600
_cell_angle_alpha 73.943146
_cell_angle_beta 45.409528
_cell_angle_gamma 80.975139
_cell_volume 303.258536
_symmetry_space_group_name_H-M "P -1"
_symmetry_group_IT_number 2
_symmetry_cell_setting 'triclinic'
loop_
_space_group_symop_operation_xyz
x,y,z
-x,-y,-z
loop_
_atom_site_type_symbol
_atom_site_label
_atom_site_fract_x
_atom_site_fract_y
_atom_site_fract_z
Si Si1 0.859980 0.754319 0.068133
Si Si2 0.538724 0.632771 0.106166
Si Si3 0.830923 0.176567 0.523862
Si Si4 0.299775 0.264971 0.529131
O O1 0.751307 0.770856 0.989224
O O2 0.685657 0.728966 0.313876
O O3 0.000000 0.500000 0.000000
O O4 0.000000 0.000000 0.000000
O O5 0.363985 0.836586 0.236190
O O6 0.490907 0.378984 0.288484
O O7 0.500000 0.500000 0.000000
O O8 0.135215 0.494705 0.571007
O O9 0.769865 0.029792 0.440619
O O10 0.000000 0.000000 0.500000
#
# Coordination Sequence:
#
# PCOD9040063 Si02
#       4
#     2   2   2   2
#     4  12  28  47  75 110 151 193 249 304 370 438
#     4  10  27  48  77 109 150 192 250 302 372 438
#     4  10  23  42  77 106 148 190 246 300 373 430
#     4  10  24  45  74 102 149 192 248 295 370 430
#
# _framework density 26.380130999999999
#
# number of rings (size 3 to 8) (size 9 to 14) (size 15 to 20)
#    1.500    0.000    0.000    3.000    7.000    4.000 
#    0.000    0.000    0.000    0.000    0.000    0.000 
#    0.000    0.000    0.000    0.000    0.000    0.000 
#
# Total GULP energy -44766.142316 kJ/mol
# GULP energy per Si atom -5595.767790 kJ/mol
# Density = 2.632009 g / cm^3
# Si number density = 26.380131 Si / 1000 Ang^3
#
#
#
# Elastic Constant Matrix: (Units=GPa)
#
#
# Indices 1 2 3 4 5 6 
#
# 1 176.5733 75.8695 45.3265 31.6532 -0.2139 21.8786
# 2 75.8695 194.3253 41.3195 36.2947 -3.3720 24.5948
# 3 45.3265 41.3195 101.2086 22.8901 23.0597 31.1396
# 4 31.6532 36.2947 22.8901 53.2850 6.4823 6.4364
# 5 -0.2139 -3.3720 23.0597 6.4823 44.8980 17.9141
# 6 21.8786 24.5948 31.1396 6.4364 17.9141 60.5292
#
#
#
# Elastic Compliance Matrix: (Units=1/GPa)
#
#
# Indices 1 2 3 4 5 6 
#
# 1 0.007599 -0.001887 -0.002149 -0.002385 0.001803 -0.001154
# 2 -0.001887 0.007027 -0.001265 -0.003183 0.002382 -0.001889
# 3 -0.002149 -0.001265 0.014589 -0.002947 -0.005463 -0.004284
# 4 -0.002385 -0.003183 -0.002947 0.023735 -0.002973 0.002028
# 5 0.001803 0.002382 -0.005463 -0.002973 0.028454 -0.006914
# 6 -0.001154 -0.001889 -0.004284 0.002028 -0.006914 0.021740
#
#
# Mechanical properties :
#
#
# Convention : Reuss Voigt Hill
#
# Bulk Modulus (GPa) = 53.72840 88.57090 71.14965
# Shear Modulus (GPa) = 41.68428 52.38188 47.03308
#
# Velocity S-wave (km/s) = 3.97941 4.46091 4.22702
# Velocity P-wave (km/s) = 6.44403 7.75762 7.13113
#
# Compressibility (1/GPa) = 0.01861213
#
# Stress axis : x y z
#
# Youngs Moduli (GPa) = 131.60405 142.31557 68.54522
#
# Poissons Ratio (x) = 0.26852 0.14729
# Poissons Ratio (y) = 0.24831 0.08673
# Poissons Ratio (z) = 0.28280 0.18007
#
# Static dielectric constant tensor:
#      x y z
#    x 1.898430 -0.054690 0.005650 
#    y -0.054690 2.008870 -0.132100 
#    z 0.005650 -0.132100 2.226920 
# 
# From -- ./inp_files/1346.got.cif
#   From: 2010.05.17/outbox.cif.g08.bks.cpg/sg2_1_cif.got.tgz:1346.got - 2010.06.03 11:33:40.
