data_PCOD9040580
_publ_section_title
;
Structure prediction by ZEFSAII (Michael W. Deem and Ramdas Pophale) SiO2 
 PCOD9040580
Probable space group: P -1
;
_chemical_formula_sum "Si O2"
_cell_formula_units_Z 16
_cell_length_a 8.245027
_cell_length_b 16.581420
_cell_length_c 8.119899
_cell_angle_alpha 93.685225
_cell_angle_beta 133.499777
_cell_angle_gamma 62.259838
_cell_volume 653.524242
_symmetry_space_group_name_H-M "P -1"
_symmetry_group_IT_number 2
_symmetry_cell_setting 'triclinic'
loop_
_space_group_symop_operation_xyz
x,y,z
-x,-y,-z
loop_
_atom_site_type_symbol
_atom_site_label
_atom_site_fract_x
_atom_site_fract_y
_atom_site_fract_z
Si Si1 0.216094 0.020291 0.862949
Si Si2 0.440455 0.936724 0.334764
Si Si3 0.471516 0.186290 0.903385
Si Si4 0.703146 0.662059 0.939338
Si Si5 0.304028 0.610410 0.804160
Si Si6 0.260552 0.517123 0.454679
Si Si7 0.695087 0.197195 0.580743
Si Si8 0.340335 0.693654 0.139236
O O1 0.210230 0.019813 0.059028
O O2 0.261732 0.916036 0.848753
O O3 0.949640 0.122654 0.630472
O O4 0.500000 0.000000 0.000000
O O5 0.635512 0.854312 0.317010
O O6 0.370244 0.875078 0.390320
O O7 0.500000 0.000000 0.500000
O O8 0.560083 0.246339 0.872901
O O9 0.302523 0.253914 0.947647
O O10 0.488493 0.643110 0.862295
O O11 0.577983 0.711274 0.683231
O O12 0.999726 0.560819 0.161093
O O13 0.167608 0.596441 0.549808
O O14 0.500000 0.500000 0.000000
O O15 0.171686 0.676455 0.885883
O O16 0.500000 0.500000 0.500000
O O17 0.394711 0.412985 0.628562
O O18 0.798123 0.244600 0.784777
#
# Coordination Sequence:
#
# PCOD9040580 Si02
#       8
#     2   2   2   2   2   2   2   2
#     4  10  23  43  67  97 137 171 227 278 340 400
#     4   9  21  43  64 100 133 174 224 284 335 400
#     4   8  21  40  62  95 129 170 221 273 341 393
#     4  11  24  43  68  98 139 179 226 280 341 406
#     4   9  21  43  67  98 130 175 224 288 343 393
#     4  11  24  43  67 100 138 178 230 282 337 405
#     4  11  23  43  70  99 136 183 224 278 344 408
#     4   9  20  42  66  96 131 172 227 283 337 399
#
# _framework density 24.482641000000001
#
# number of rings (size 3 to 8) (size 9 to 14) (size 15 to 20)
#    0.750    1.500    0.000    1.125    1.750    9.000 
#    2.250    5.000    0.000    0.000    0.000    0.000 
#    0.000    0.000    0.000    0.000    0.000    0.000 
#
# Total GULP energy -89120.842033 kJ/mol
# GULP energy per Si atom -5570.052627 kJ/mol
# Density = 2.442692 g / cm^3
# Si number density = 24.482641 Si / 1000 Ang^3
#
#
#
# Elastic Constant Matrix: (Units=GPa)
#
#
# Indices 1 2 3 4 5 6 
#
# 1 63.8527 16.1743 17.5788 -0.2989 -13.9212 10.9827
# 2 16.1743 149.5897 43.4439 20.5481 -15.1409 2.6644
# 3 17.5788 43.4439 100.2743 -4.5250 -15.8824 -5.4235
# 4 -0.2989 20.5481 -4.5250 43.7951 -8.2849 -11.7485
# 5 -13.9212 -15.1409 -15.8824 -8.2849 16.7974 -2.8065
# 6 10.9827 2.6644 -5.4235 -11.7485 -2.8065 22.4410
#
#
#
# Elastic Compliance Matrix: (Units=1/GPa)
#
#
# Indices 1 2 3 4 5 6 
#
# 1 0.020753 -0.000213 -0.001749 0.000442 0.014143 -0.008554
# 2 -0.000213 0.008893 -0.004399 -0.006060 -0.000180 -0.005210
# 3 -0.001749 -0.004399 0.016037 0.010359 0.016998 0.012803
# 4 0.000442 -0.006060 0.010359 0.039507 0.028743 0.027285
# 5 0.014143 -0.000180 0.016998 0.028743 0.105596 0.025462
# 6 -0.008554 -0.005210 0.012803 0.027285 0.025462 0.069929
#
#
# Mechanical properties :
#
#
# Convention : Reuss Voigt Hill
#
# Bulk Modulus (GPa) = 30.33801 52.01232 41.17517
# Shear Modulus (GPa) = 17.57945 32.37467 24.97706
#
# Velocity S-wave (km/s) = 2.68253 3.64036 3.19751
# Velocity P-wave (km/s) = 4.69182 6.24182 5.52148
#
# Compressibility (1/GPa) = 0.03296195
#
# Stress axis : x y z
#
# Youngs Moduli (GPa) = 48.18543 112.45368 62.35478
#
# Poissons Ratio (x) = 0.02394 0.10903
# Poissons Ratio (y) = 0.01026 0.27430
# Poissons Ratio (z) = 0.08426 0.49469
#
# Static dielectric constant tensor:
#      x y z
#    x 1.971030 -0.065970 0.000240 
#    y -0.065970 2.012790 -0.008420 
#    z 0.000240 -0.008420 2.057680 
# 
# From -- ./inp_files/217720.got.cif
#   From: 2010.05.17/outbox.cif.g08.bks.cpg/sg2_109_cif.got.tgz:217720.got - 2010.06.03 11:33:40.
