data_PCOD9040502
_publ_section_title
;
Structure prediction by ZEFSAII (Michael W. Deem and Ramdas Pophale) SiO2 
 PCOD9040502
Probable space group: P -1
;
_chemical_formula_sum "Si O2"
_cell_formula_units_Z 14
_cell_length_a 5.209496
_cell_length_b 13.344147
_cell_length_c 28.307723
_cell_angle_alpha 19.832027
_cell_angle_beta 127.457537
_cell_angle_gamma 122.064768
_cell_volume 523.713007
_symmetry_space_group_name_H-M "P -1"
_symmetry_group_IT_number 2
_symmetry_cell_setting 'triclinic'
loop_
_space_group_symop_operation_xyz
x,y,z
-x,-y,-z
loop_
_atom_site_type_symbol
_atom_site_label
_atom_site_fract_x
_atom_site_fract_y
_atom_site_fract_z
Si Si1 0.232898 0.807383 0.572930
Si Si2 0.555306 0.751842 0.335987
Si Si3 0.724181 0.313069 0.067247
Si Si4 0.807650 0.480384 0.148114
Si Si5 0.918047 0.079448 0.068953
Si Si6 0.779113 0.735681 0.126125
Si Si7 0.707951 0.800887 0.441130
O O1 0.350833 0.510563 0.746751
O O2 0.037677 0.713493 0.547046
O O3 0.500000 0.000000 0.500000
O O4 0.000000 0.000000 0.500000
O O5 0.668306 0.741559 0.407552
O O6 0.537619 0.410662 0.469929
O O7 0.787087 0.968350 0.242542
O O8 0.182844 0.930481 0.203402
O O9 0.500000 0.500000 0.000000
O O10 0.523377 0.310335 0.997648
O O11 0.000000 0.500000 0.000000
O O12 0.947045 0.556734 0.179641
O O13 0.693592 0.158617 0.281581
O O14 0.036820 0.574604 0.089956
O O15 0.028198 0.891655 0.115928
O O16 0.535982 0.066753 0.021029
#
# Coordination Sequence:
#
# PCOD9040502 Si02
#       7
#     2   2   2   2   2   2   2
#     4  12  26  47  75 109 150 193 249 304 371 445
#     4  10  23  45  72 105 154 194 249 307 373 447
#     4  11  25  45  72 105 145 190 246 299 368 440
#     4  11  23  39  72  96 142 186 246 300 367 432
#     4  10  23  43  67 106 144 191 248 308 373 435
#     4  11  23  41  70 104 142 193 250 305 368 440
#     4  11  22  45  72 108 149 200 247 306 375 446
#
# _framework density 26.732196999999999
#
# number of rings (size 3 to 8) (size 9 to 14) (size 15 to 20)
#    0.000    1.143    4.286    1.286    4.000    1.143 
#    0.000    2.143    0.000    0.000    0.000    0.000 
#    0.000    0.000    0.000    0.000    0.000    0.000 
#
# Total GULP energy -78042.318517 kJ/mol
# GULP energy per Si atom -5574.451323 kJ/mol
# Density = 2.667135 g / cm^3
# Si number density = 26.732197 Si / 1000 Ang^3
#
#
#
# Elastic Constant Matrix: (Units=GPa)
#
#
# Indices 1 2 3 4 5 6 
#
# 1 95.0006 37.9384 50.1337 -0.1969 -32.7515 25.3825
# 2 37.9384 176.2980 16.3758 12.7127 -13.5590 5.4818
# 3 50.1337 16.3758 119.6720 -16.7744 -28.8595 11.8502
# 4 -0.1969 12.7127 -16.7744 76.4021 16.9381 -10.8358
# 5 -32.7515 -13.5590 -28.8595 16.9381 48.7916 -2.1092
# 6 25.3825 5.4818 11.8502 -10.8358 -2.1092 32.9248
#
#
#
# Elastic Compliance Matrix: (Units=1/GPa)
#
#
# Indices 1 2 3 4 5 6 
#
# 1 0.023465 -0.002571 -0.005483 -0.006018 0.013155 -0.016826
# 2 -0.002571 0.006310 0.000129 -0.001057 0.000495 0.000569
# 3 -0.005483 0.000129 0.011420 0.002064 0.002433 0.000931
# 4 -0.006018 -0.001057 0.002064 0.016894 -0.008585 0.009083
# 5 0.013155 0.000495 0.002433 -0.008585 0.033373 -0.011787
# 6 -0.016826 0.000569 0.000931 0.009083 -0.011787 0.045148
#
#
# Mechanical properties :
#
#
# Convention : Reuss Voigt Hill
#
# Bulk Modulus (GPa) = 39.45867 66.65184 53.05525
# Shear Modulus (GPa) = 31.07322 50.72519 40.89921
#
# Velocity S-wave (km/s) = 3.41308 4.36079 3.91571
# Velocity P-wave (km/s) = 5.50681 7.09526 6.35089
#
# Compressibility (1/GPa) = 0.02534298
#
# Stress axis : x y z
#
# Youngs Moduli (GPa) = 42.61627 158.47204 87.56851
#
# Poissons Ratio (x) = 0.40748 0.48017
# Poissons Ratio (y) = 0.10958 -0.01126
# Poissons Ratio (z) = 0.23368 -0.02038
#
# Static dielectric constant tensor:
#      x y z
#    x 2.542980 -0.017130 0.051520 
#    y -0.017130 2.136700 -0.044110 
#    z 0.051520 -0.044110 2.162840 
# 
# From -- ./inp_files/621916.got.cif
#   From: 2010.05.17/outbox.cif.g08.bks.cpg/sg2_311_cif.got.tgz:621916.got - 2010.06.03 11:33:40.
