data_PCOD9040494
_publ_section_title
;
Structure prediction by ZEFSAII (Michael W. Deem and Ramdas Pophale) SiO2 
 PCOD9040494
Probable space group: P -1
;
_chemical_formula_sum "Si O2"
_cell_formula_units_Z 14
_cell_length_a 19.258036
_cell_length_b 8.050770
_cell_length_c 7.952928
_cell_angle_alpha 117.976298
_cell_angle_beta 123.708808
_cell_angle_gamma 34.777258
_cell_volume 584.832614
_symmetry_space_group_name_H-M "P -1"
_symmetry_group_IT_number 2
_symmetry_cell_setting 'triclinic'
loop_
_space_group_symop_operation_xyz
x,y,z
-x,-y,-z
loop_
_atom_site_type_symbol
_atom_site_label
_atom_site_fract_x
_atom_site_fract_y
_atom_site_fract_z
Si Si1 0.839054 0.582004 0.347913
Si Si2 0.128142 0.079939 0.606429
Si Si3 0.251038 0.282940 0.332584
Si Si4 0.636050 0.553691 0.525795
Si Si5 0.419973 0.678649 0.145952
Si Si6 0.740934 0.377589 0.947983
Si Si7 0.973137 0.770411 0.094321
O O1 0.835868 0.764951 0.306557
O O2 0.785635 0.722055 0.530361
O O3 0.990962 0.277845 0.428642
O O4 0.769091 0.520473 0.152290
O O5 0.103335 0.065661 0.757691
O O6 0.244593 0.764447 0.541012
O O7 0.359880 0.256213 0.477788
O O8 0.118548 0.597148 0.226134
O O9 0.301673 0.030992 0.159780
O O10 0.516499 0.619154 0.375197
O O11 0.672825 0.537613 0.757077
O O12 0.359016 0.588925 0.079177
O O13 0.500000 0.500000 0.000000
O O14 0.878166 0.025973 0.951291
O O15 0.000000 0.500000 0.000000
#
# Coordination Sequence:
#
# PCOD9040494 Si02
#       7
#     2   2   2   2   2   2   2
#     4  10  23  43  72 101 141 175 226 287 340 406
#     4  10  23  43  67 104 138 178 226 282 341 399
#     4  11  24  46  71 101 133 180 231 283 342 402
#     4  12  27  43  70 102 142 180 230 279 336 414
#     4  12  26  48  71  95 136 185 233 284 337 404
#     4  12  26  43  68 105 139 180 227 280 346 402
#     4  11  23  41  72  98 139 175 225 280 341 401
#
# _framework density 23.938472000000001
#
# number of rings (size 3 to 8) (size 9 to 14) (size 15 to 20)
#    0.000    0.857    1.429    5.143    6.000    3.429 
#    0.000    2.143    0.000    0.000    0.000    0.000 
#    0.000    0.000    0.000    0.000    0.000    0.000 
#
# Total GULP energy -78377.722318 kJ/mol
# GULP energy per Si atom -5598.408737 kJ/mol
# Density = 2.388399 g / cm^3
# Si number density = 23.938472 Si / 1000 Ang^3
#
#
#
# Elastic Constant Matrix: (Units=GPa)
#
#
# Indices 1 2 3 4 5 6 
#
# 1 126.3621 36.5531 45.8817 -11.9241 29.4878 -19.6833
# 2 36.5531 59.7747 29.7078 10.5725 -6.1040 -18.6607
# 3 45.8817 29.7078 115.7789 -9.4905 24.8089 -3.3210
# 4 -11.9241 10.5725 -9.4905 24.1436 -2.2617 0.3196
# 5 29.4878 -6.1040 24.8089 -2.2617 48.8011 -0.0470
# 6 -19.6833 -18.6607 -3.3210 0.3196 -0.0470 30.3820
#
#
#
# Elastic Compliance Matrix: (Units=1/GPa)
#
#
# Indices 1 2 3 4 5 6 
#
# 1 0.015038 -0.011602 0.000206 0.011609 -0.010102 0.002501
# 2 -0.011602 0.041083 -0.011221 -0.026796 0.016628 0.016798
# 3 0.000206 -0.011221 0.013818 0.009759 -0.008105 -0.005364
# 4 0.011609 -0.026796 0.009759 0.061666 -0.012477 -0.008539
# 5 -0.010102 0.016628 -0.008105 -0.012477 0.032220 0.002964
# 6 0.002501 0.016798 -0.005364 -0.008539 0.002964 0.044360
#
#
# Mechanical properties :
#
#
# Convention : Reuss Voigt Hill
#
# Bulk Modulus (GPa) = 40.48146 58.46677 49.47412
# Shear Modulus (GPa) = 19.10926 33.31689 26.21307
#
# Velocity S-wave (km/s) = 2.82842 3.73469 3.31270
# Velocity P-wave (km/s) = 5.25490 6.56308 5.94508
#
# Compressibility (1/GPa) = 0.02470266
#
# Stress axis : x y z
#
# Youngs Moduli (GPa) = 66.50015 24.34126 72.37050
#
# Poissons Ratio (x) = 0.28241 -0.01488
# Poissons Ratio (y) = 0.77153 0.81209
# Poissons Ratio (z) = -0.01367 0.27314
#
# Static dielectric constant tensor:
#      x y z
#    x 1.928380 0.042680 0.024620 
#    y 0.042680 1.972740 -0.036650 
#    z 0.024620 -0.036650 1.932210 
# 
# From -- ./inp_files/189753.got.cif
#   From: 2010.05.17/outbox.cif.g08.bks.cpg/sg2_95_cif.got.tgz:189753.got - 2010.06.03 11:33:40.
