data_PCOD9040423
_publ_section_title
;
Structure prediction by ZEFSAII (Michael W. Deem and Ramdas Pophale) SiO2 
 PCOD9040423
Probable space group: P -1
;
_chemical_formula_sum "Si O2"
_cell_formula_units_Z 16
_cell_length_a 6.033782
_cell_length_b 8.225136
_cell_length_c 17.628413
_cell_angle_alpha 64.901994
_cell_angle_beta 119.336627
_cell_angle_gamma 108.215989
_cell_volume 684.557445
_symmetry_space_group_name_H-M "P -1"
_symmetry_group_IT_number 2
_symmetry_cell_setting 'triclinic'
loop_
_space_group_symop_operation_xyz
x,y,z
-x,-y,-z
loop_
_atom_site_type_symbol
_atom_site_label
_atom_site_fract_x
_atom_site_fract_y
_atom_site_fract_z
Si Si1 0.619739 0.500636 0.245588
Si Si2 0.098910 0.747988 0.246822
Si Si3 0.863849 0.628221 0.897230
Si Si4 0.751954 0.972442 0.910033
Si Si5 0.574803 0.557159 0.398606
Si Si6 0.700888 0.783852 0.508135
Si Si7 0.803215 0.062896 0.193739
Si Si8 0.252007 0.893297 0.648730
O O1 0.860625 0.595333 0.220578
O O2 0.357106 0.502200 0.157255
O O3 0.647629 0.580242 0.319086
O O4 0.628172 0.289308 0.300231
O O5 0.312397 0.649205 0.343962
O O6 0.981853 0.909067 0.238164
O O7 0.215633 0.850109 0.172324
O O8 0.763443 0.787601 0.899916
O O9 0.045505 0.743401 0.843172
O O10 0.000000 0.500000 0.000000
O O11 0.461474 0.962116 0.893923
O O12 0.000000 0.000000 0.000000
O O13 0.766265 0.659613 0.471796
O O14 0.502569 0.347947 0.451548
O O15 0.952713 0.847885 0.586030
O O16 0.620673 0.959462 0.418768
O O17 0.728621 0.048151 0.272384
#
# Coordination Sequence:
#
# PCOD9040423 Si02
#       8
#     2   2   2   2   2   2   2   2
#     4  12  25  43  72 100 142 180 224 281 347 404
#     4  11  25  44  71  96 138 184 230 271 344 409
#     4  11  28  43  71 107 137 177 225 281 339 404
#     4  11  26  45  71 100 135 180 229 279 337 410
#     4  11  24  45  65 101 134 185 225 282 339 402
#     4  10  23  43  66  97 139 172 241 278 333 410
#     4  11  25  49  70  97 140 184 224 278 342 409
#     4  11  22  45  67 100 133 184 225 287 342 394
#
# _framework density 23.372762999999999
#
# number of rings (size 3 to 8) (size 9 to 14) (size 15 to 20)
#    0.000    1.000    2.500    3.000    7.000    2.500 
#    9.000    0.000    0.000    0.000    0.000    0.000 
#    0.000    0.000    0.000    0.000    0.000    0.000 
#
# Total GULP energy -89513.421780 kJ/mol
# GULP energy per Si atom -5594.588861 kJ/mol
# Density = 2.331957 g / cm^3
# Si number density = 23.372763 Si / 1000 Ang^3
#
#
#
# Elastic Constant Matrix: (Units=GPa)
#
#
# Indices 1 2 3 4 5 6 
#
# 1 38.8117 6.5678 2.5171 -3.2794 8.2438 8.0790
# 2 6.5678 83.7913 22.7658 -10.1134 -0.9507 19.1493
# 3 2.5171 22.7658 90.1325 -17.5133 2.6760 13.0549
# 4 -3.2794 -10.1134 -17.5133 54.3314 1.6415 2.1698
# 5 8.2438 -0.9507 2.6760 1.6415 18.7030 1.0883
# 6 8.0790 19.1493 13.0549 2.1698 1.0883 43.6358
#
#
#
# Elastic Compliance Matrix: (Units=1/GPa)
#
#
# Indices 1 2 3 4 5 6 
#
# 1 0.030041 -0.001341 0.001130 0.002536 -0.013397 -0.005103
# 2 -0.001341 0.014189 -0.002444 0.001933 0.001806 -0.005388
# 3 0.001130 -0.002444 0.012995 0.004008 -0.002650 -0.003158
# 4 0.002536 0.001933 0.004008 0.020445 -0.003187 -0.003454
# 5 -0.013397 0.001806 -0.002650 -0.003187 0.060056 0.001141
# 6 -0.005103 -0.005388 -0.003158 -0.003454 0.001141 0.027315
#
#
# Mechanical properties :
#
#
# Convention : Reuss Voigt Hill
#
# Bulk Modulus (GPa) = 19.26251 30.71520 24.98885
# Shear Modulus (GPa) = 26.64436 35.39305 31.01870
#
# Velocity S-wave (km/s) = 3.38001 3.89560 3.64693
# Velocity P-wave (km/s) = 4.84685 5.77964 5.33368
#
# Compressibility (1/GPa) = 0.05191431
#
# Stress axis : x y z
#
# Youngs Moduli (GPa) = 33.28756 70.47831 76.95015
#
# Poissons Ratio (x) = 0.09453 -0.08692
# Poissons Ratio (y) = 0.04465 0.18806
# Poissons Ratio (z) = -0.03760 0.17224
#
# Static dielectric constant tensor:
#      x y z
#    x 1.907120 -0.020240 0.025740 
#    y -0.020240 1.901920 0.027740 
#    z 0.025740 0.027740 1.865550 
# 
# From -- ./inp_files/39490.got.cif
#   From: 2010.05.17/outbox.cif.g08.bks.cpg/sg2_20_cif.got.tgz:39490.got - 2010.06.03 11:33:40.
