data_PCOD9040822
_publ_section_title
;
Structure prediction by ZEFSAII (Michael W. Deem and Ramdas Pophale) SiO2 
 PCOD9040822
Probable space group: P -1
;
_chemical_formula_sum "Si O2"
_cell_formula_units_Z 12
_cell_length_a 11.144910
_cell_length_b 7.893977
_cell_length_c 11.170793
_cell_angle_alpha 82.877267
_cell_angle_beta 25.753021
_cell_angle_gamma 79.591446
_cell_volume 418.256182
_symmetry_space_group_name_H-M "P -1"
_symmetry_group_IT_number 2
_symmetry_cell_setting 'triclinic'
loop_
_space_group_symop_operation_xyz
x,y,z
-x,-y,-z
loop_
_atom_site_type_symbol
_atom_site_label
_atom_site_fract_x
_atom_site_fract_y
_atom_site_fract_z
Si Si1 0.872562 0.188778 0.504198
Si Si2 0.660745 0.550950 0.621845
Si Si3 0.264414 0.377706 0.831105
Si Si4 0.866074 0.988491 0.921769
Si Si5 0.454191 0.819126 0.613414
Si Si6 0.441601 0.205698 0.100311
O O1 0.873004 0.068242 0.397565
O O2 0.892825 0.383098 0.422230
O O3 0.608752 0.215726 0.826554
O O4 0.150704 0.142524 0.337840
O O5 0.395122 0.484532 0.806155
O O6 0.686544 0.719904 0.504807
O O7 0.623955 0.616685 0.783791
O O8 0.508029 0.313279 0.519445
O O9 0.189460 0.196436 0.962854
O O10 0.000000 0.500000 0.000000
O O11 0.635451 0.080317 0.027668
O O12 0.822049 0.122123 0.061423
O O13 0.500000 0.000000 0.500000
#
# Coordination Sequence:
#
# PCOD9040822 Si02
#       6
#     2   2   2   2   2   2
#     4  12  24  45  73 107 142 187 236 291 349 420
#     4  11  24  43  70 105 140 187 237 292 353 421
#     4  11  23  44  71 103 141 186 238 295 353 419
#     4  10  23  43  69 101 140 187 234 289 354 420
#     4   9  21  43  66  96 137 181 232 290 350 414
#     4  11  26  46  72 106 145 186 235 291 352 420
#
# _framework density 28.690550999999999
#
# number of rings (size 3 to 8) (size 9 to 14) (size 15 to 20)
#    0.000    1.333    0.000    4.500    0.000    5.333 
#    0.000   21.667    0.000    0.000    0.000    0.000 
#    0.000    0.000    0.000    0.000    0.000    0.000 
#
# Total GULP energy -67250.088193 kJ/mol
# GULP energy per Si atom -5604.174016 kJ/mol
# Density = 2.862525 g / cm^3
# Si number density = 28.690551 Si / 1000 Ang^3
#
#
#
# Elastic Constant Matrix: (Units=GPa)
#
#
# Indices 1 2 3 4 5 6 
#
# 1 122.0504 22.8233 67.1155 14.2049 10.7873 16.3659
# 2 22.8233 151.1925 36.9502 26.5931 19.7376 -0.6858
# 3 67.1155 36.9502 187.4220 4.1268 47.8244 28.3191
# 4 14.2049 26.5931 4.1268 56.7015 1.8951 12.9617
# 5 10.7873 19.7376 47.8244 1.8951 57.1411 25.2702
# 6 16.3659 -0.6858 28.3191 12.9617 25.2702 79.4563
#
#
#
# Elastic Compliance Matrix: (Units=1/GPa)
#
#
# Indices 1 2 3 4 5 6 
#
# 1 0.010719 -0.000570 -0.004057 -0.001936 0.002132 -0.001129
# 2 -0.000570 0.007958 -0.000908 -0.003888 -0.002628 0.001980
# 3 -0.004057 -0.000908 0.008515 0.001140 -0.005850 -0.000533
# 4 -0.001936 -0.003888 0.001140 0.020716 0.001839 -0.004005
# 5 0.002132 -0.002628 -0.005850 0.001839 0.025898 -0.006914
# 6 -0.001129 0.001980 -0.000533 -0.004005 -0.006914 0.015877
#
#
# Mechanical properties :
#
#
# Convention : Reuss Voigt Hill
#
# Bulk Modulus (GPa) = 62.02135 79.38255 70.70195
# Shear Modulus (GPa) = 47.11326 60.91151 54.01239
#
# Velocity S-wave (km/s) = 4.05670 4.61266 4.34358
# Velocity P-wave (km/s) = 6.60354 7.48982 7.06060
#
# Compressibility (1/GPa) = 0.01612348
#
# Stress axis : x y z
#
# Youngs Moduli (GPa) = 93.29146 125.66163 117.43380
#
# Poissons Ratio (x) = 0.07157 0.47644
# Poissons Ratio (y) = 0.05313 0.10662
# Poissons Ratio (z) = 0.37849 0.11409
#
# Static dielectric constant tensor:
#      x y z
#    x 2.225230 -0.052490 -0.002750 
#    y -0.052490 2.307010 -0.056940 
#    z -0.002750 -0.056940 2.200760 
# 
# From -- ./inp_files/27588.got.cif
#   From: 2010.05.17/outbox.cif.g08.bks.cpg/sg2_14_cif.got.tgz:27588.got - 2010.06.03 11:33:40.
