data_PCOD9040890
_publ_section_title
;
Structure prediction by ZEFSAII (Michael W. Deem and Ramdas Pophale) SiO2 
 PCOD9040890
Probable space group: P -1
;
_chemical_formula_sum "Si O2"
_cell_formula_units_Z 16
_cell_length_a 11.728468
_cell_length_b 14.858939
_cell_length_c 14.640439
_cell_angle_alpha 28.476323
_cell_angle_beta 36.798438
_cell_angle_gamma 37.910525
_cell_volume 695.588948
_symmetry_space_group_name_H-M "P -1"
_symmetry_group_IT_number 2
_symmetry_cell_setting 'triclinic'
loop_
_space_group_symop_operation_xyz
x,y,z
-x,-y,-z
loop_
_atom_site_type_symbol
_atom_site_label
_atom_site_fract_x
_atom_site_fract_y
_atom_site_fract_z
Si Si1 0.622153 0.234849 0.082639
Si Si2 0.931956 0.070566 0.761378
Si Si3 0.114911 0.973419 0.544789
Si Si4 0.257163 0.265126 0.417548
Si Si5 0.561748 0.864884 0.390829
Si Si6 0.926306 0.365011 0.890997
Si Si7 0.404311 0.570679 0.261358
Si Si8 0.151617 0.526432 0.955032
O O1 0.408043 0.249818 0.250226
O O2 0.685395 0.025196 0.173604
O O3 0.741551 0.292488 0.038314
O O4 0.625616 0.391038 0.862273
O O5 0.748821 0.249903 0.750030
O O6 0.132161 0.109093 0.638005
O O7 0.968014 0.089692 0.613294
O O8 0.918742 0.852754 0.993505
O O9 0.339652 0.987271 0.389914
O O10 0.155915 0.749907 0.749884
O O11 0.000000 0.000000 0.500000
O O12 0.403157 0.207608 0.461785
O O13 0.083302 0.474846 0.326291
O O14 0.611297 0.647042 0.506417
O O15 0.905370 0.487427 0.890180
O O16 0.625974 0.589885 0.113511
O O17 0.000000 0.500000 0.000000
#
# Coordination Sequence:
#
# PCOD9040890 Si02
#       8
#     2   2   2   2   2   2   2   2
#     4  12  21  38  71  93 132 175 225 264 323 393
#     4  11  25  43  63  99 139 166 212 279 338 389
#     4  10  23  43  69  94 126 173 229 270 316 391
#     4  12  21  38  71  93 132 175 225 264 323 393
#     4  11  23  41  67 100 129 178 227 266 322 396
#     4  11  23  41  67 100 129 178 227 266 322 396
#     4  11  25  43  63  99 139 166 212 279 338 389
#     4  10  23  43  69  94 126 173 229 270 316 391
#
# _framework density 23.002089999999999
#
# number of rings (size 3 to 8) (size 9 to 14) (size 15 to 20)
#    0.000    1.000    5.000    3.000    3.500    2.000 
#    0.000    5.000    0.000    0.000    0.000    0.000 
#    0.000    0.000    0.000    0.000    0.000    0.000 
#
# Total GULP energy -89088.208699 kJ/mol
# GULP energy per Si atom -5568.013044 kJ/mol
# Density = 2.294974 g / cm^3
# Si number density = 23.002090 Si / 1000 Ang^3
#
#
#
# Elastic Constant Matrix: (Units=GPa)
#
#
# Indices 1 2 3 4 5 6 
#
# 1 156.5708 38.9086 -4.0717 10.0864 1.5302 2.5892
# 2 38.9086 130.0455 11.7976 6.5627 -0.5588 -2.1015
# 3 -4.0717 11.7976 74.6818 -34.7794 0.7079 -0.2983
# 4 10.0864 6.5627 -34.7794 27.7707 0.4234 -0.5165
# 5 1.5302 -0.5588 0.7079 0.4234 30.3629 -12.0726
# 6 2.5892 -2.1015 -0.2983 -0.5165 -12.0726 10.4097
#
#
#
# Elastic Compliance Matrix: (Units=1/GPa)
#
#
# Indices 1 2 3 4 5 6 
#
# 1 0.007177 -0.002016 -0.000738 -0.003114 -0.002375 -0.005122
# 2 -0.002016 0.009272 -0.005363 -0.008127 0.002288 0.004470
# 3 -0.000738 -0.005363 0.035860 0.046484 -0.001072 0.001192
# 4 -0.003114 -0.008127 0.046484 0.097371 -0.000609 0.004591
# 5 -0.002375 0.002288 -0.001072 -0.000609 0.062213 0.073143
# 6 -0.005122 0.004470 0.001192 0.004591 0.073143 0.183330
#
#
# Mechanical properties :
#
#
# Convention : Reuss Voigt Hill
#
# Bulk Modulus (GPa) = 27.72194 50.50747 39.11470
# Shear Modulus (GPa) = 11.80689 34.68622 23.24656
#
# Velocity S-wave (km/s) = 2.26806 3.88746 3.18249
# Velocity P-wave (km/s) = 4.35165 6.49270 5.52685
#
# Compressibility (1/GPa) = 0.03607252
#
# Stress axis : x y z
#
# Youngs Moduli (GPa) = 139.32908 107.85600 27.88653
#
# Poissons Ratio (x) = 0.21746 0.02059
# Poissons Ratio (y) = 0.28092 0.14957
# Poissons Ratio (z) = 0.10288 0.57847
#
# Static dielectric constant tensor:
#      x y z
#    x 1.785700 -0.004880 -0.000560 
#    y -0.004880 1.989510 -0.048310 
#    z -0.000560 -0.048310 1.926840 
# 
# From -- ./inp_files/504543.got.cif
#   From: 2010.05.17/outbox.cif.g08.bks.cpg/sg2_253_cif.got.tgz:504543.got - 2010.06.03 11:33:40.
