data_PCOD9040827
_publ_section_title
;
Structure prediction by ZEFSAII (Michael W. Deem and Ramdas Pophale) SiO2 
 PCOD9040827
Probable space group: P -1
;
_chemical_formula_sum "Si O2"
_cell_formula_units_Z 14
_cell_length_a 14.343363
_cell_length_b 14.079388
_cell_length_c 5.585221
_cell_angle_alpha 71.353017
_cell_angle_beta 107.976302
_cell_angle_gamma 144.566000
_cell_volume 617.216286
_symmetry_space_group_name_H-M "P -1"
_symmetry_group_IT_number 2
_symmetry_cell_setting 'triclinic'
loop_
_space_group_symop_operation_xyz
x,y,z
-x,-y,-z
loop_
_atom_site_type_symbol
_atom_site_label
_atom_site_fract_x
_atom_site_fract_y
_atom_site_fract_z
Si Si1 0.064315 0.500709 0.794277
Si Si2 0.712418 0.883888 0.716906
Si Si3 0.659433 0.990911 0.212647
Si Si4 0.748125 0.698949 0.630294
Si Si5 0.564930 0.627204 0.149910
Si Si6 0.038735 0.814455 0.003414
Si Si7 0.398837 0.856581 0.739026
O O1 0.257231 0.660829 0.766701
O O2 0.000000 0.500000 0.500000
O O3 0.009266 0.340116 0.877011
O O4 0.000000 0.500000 0.000000
O O5 0.739100 0.800223 0.670862
O O6 0.610955 0.877276 0.478560
O O7 0.607555 0.767023 0.957468
O O8 0.878646 0.069510 0.788889
O O9 0.703130 0.133921 0.239940
O O10 0.815539 0.068161 0.163225
O O11 0.527343 0.913777 0.975873
O O12 0.727766 0.714322 0.325258
O O13 0.588103 0.498797 0.694416
O O14 0.895622 0.761204 0.813726
O O15 0.500000 0.500000 0.000000
O O16 0.500000 0.000000 0.500000
#
# Coordination Sequence:
#
# PCOD9040827 Si02
#       7
#     2   2   2   2   2   2   2
#     4  12  27  51  76 110 151 193 253 326 382 452
#     4  11  23  42  68 103 144 185 243 298 365 452
#     4  11  24  42  69 101 139 184 243 301 376 448
#     4  10  23  43  69 101 144 188 241 299 361 447
#     4   9  21  43  66  96 139 182 240 294 358 436
#     4  12  26  43  69 104 144 195 242 305 382 439
#     4  11  25  47  75 102 139 195 249 311 377 455
#
# _framework density 22.682485
#
# number of rings (size 3 to 8) (size 9 to 14) (size 15 to 20)
#    0.000    1.143    1.429    3.857    2.000   10.286 
#    0.000    0.000    0.000    0.000    0.000    0.000 
#    0.000    0.000    0.000    0.000    0.000    0.000 
#
# Total GULP energy -78078.044818 kJ/mol
# GULP energy per Si atom -5577.003201 kJ/mol
# Density = 2.263086 g / cm^3
# Si number density = 22.682485 Si / 1000 Ang^3
#
#
#
# Elastic Constant Matrix: (Units=GPa)
#
#
# Indices 1 2 3 4 5 6 
#
# 1 70.2615 23.2135 35.4682 7.3577 22.1314 -15.1280
# 2 23.2135 135.6324 60.9896 -11.3672 3.9660 -14.4632
# 3 35.4682 60.9896 194.9953 -5.1552 29.7726 -0.4724
# 4 7.3577 -11.3672 -5.1552 38.7910 -4.1909 4.2509
# 5 22.1314 3.9660 29.7726 -4.1909 35.9174 -0.1097
# 6 -15.1280 -14.4632 -0.4724 4.2509 -0.1097 39.9503
#
#
#
# Elastic Compliance Matrix: (Units=1/GPa)
#
#
# Indices 1 2 3 4 5 6 
#
# 1 0.022605 -0.002566 -0.001460 -0.007589 -0.013295 0.008385
# 2 -0.002566 0.009511 -0.002930 0.003010 0.003317 0.002126
# 3 -0.001460 -0.002930 0.007008 0.000023 -0.004588 -0.001546
# 4 -0.007589 0.003010 0.000023 0.029478 0.007749 -0.004899
# 5 -0.013295 0.003317 -0.004588 0.007749 0.040361 -0.004602
# 6 0.008385 0.002126 -0.001546 -0.004899 -0.004602 0.029466
#
#
# Mechanical properties :
#
#
# Convention : Reuss Voigt Hill
#
# Bulk Modulus (GPa) = 39.66133 71.13688 55.39910
# Shear Modulus (GPa) = 31.10551 41.67958 36.39254
#
# Velocity S-wave (km/s) = 3.70718 4.29128 4.00988
# Velocity P-wave (km/s) = 5.98729 7.48222 6.77611
#
# Compressibility (1/GPa) = 0.02521348
#
# Stress axis : x y z
#
# Youngs Moduli (GPa) = 44.23852 105.13594 142.70209
#
# Poissons Ratio (x) = 0.26974 0.20828
# Poissons Ratio (y) = 0.11350 0.41812
# Poissons Ratio (z) = 0.06457 0.30805
#
# Static dielectric constant tensor:
#      x y z
#    x 1.897480 0.009560 -0.134620 
#    y 0.009560 1.878980 0.031560 
#    z -0.134620 0.031560 2.185550 
# 
# From -- ./inp_files/111598.got.cif
#   From: 2010.05.17/outbox.cif.g08.bks.cpg/sg2_56_cif.got.tgz:111598.got - 2010.06.03 11:33:40.
