data_PCOD9040123
_publ_section_title
;
Structure prediction by ZEFSAII (Michael W. Deem and Ramdas Pophale) SiO2 
 PCOD9040123
Probable space group: P -1
;
_chemical_formula_sum "Si O2"
_cell_formula_units_Z 14
_cell_length_a 11.436777
_cell_length_b 15.113102
_cell_length_c 19.955304
_cell_angle_alpha 20.048720
_cell_angle_beta 30.460053
_cell_angle_gamma 28.851801
_cell_volume 554.341832
_symmetry_space_group_name_H-M "P -1"
_symmetry_group_IT_number 2
_symmetry_cell_setting 'triclinic'
loop_
_space_group_symop_operation_xyz
x,y,z
-x,-y,-z
loop_
_atom_site_type_symbol
_atom_site_label
_atom_site_fract_x
_atom_site_fract_y
_atom_site_fract_z
Si Si1 0.235883 0.615663 0.249430
Si Si2 0.487649 0.681687 0.310249
Si Si3 0.998347 0.202970 0.187024
Si Si4 0.420815 0.960524 0.444522
Si Si5 0.747777 0.685912 0.370621
Si Si6 0.617487 0.372403 0.129945
Si Si7 0.064286 0.239523 0.923552
O O1 0.414568 0.350095 0.389433
O O2 0.404992 0.617641 0.099989
O O3 0.995210 0.569799 0.374793
O O4 0.133038 0.909707 0.128139
O O5 0.500000 0.500000 0.500000
O O6 0.389057 0.528441 0.413341
O O7 0.761069 0.678944 0.169850
O O8 0.284849 0.992977 0.193569
O O9 0.856632 0.041438 0.416972
O O10 0.840406 0.241920 0.168059
O O11 0.000000 0.500000 0.000000
O O12 0.545295 0.956147 0.313928
O O13 0.484399 0.165618 0.317857
O O14 0.849649 0.720721 0.222173
O O15 0.776460 0.408960 0.962321
#
# Coordination Sequence:
#
# PCOD9040123 Si02
#       7
#     2   2   2   2   2   2   2
#     4  11  22  42  67  95 131 171 229 278 333 395
#     4  10  23  43  63  92 135 179 222 271 337 402
#     4  11  24  44  70 102 131 175 231 282 337 400
#     4  11  23  41  68 100 129 175 221 282 334 400
#     4  11  23  42  66  95 137 177 219 273 342 400
#     4  11  24  41  68  98 134 171 225 277 339 394
#     4  11  25  43  61  99 134 174 225 276 331 405
#
# _framework density 25.255175000000001
#
# number of rings (size 3 to 8) (size 9 to 14) (size 15 to 20)
#    0.000    1.143    1.429    6.000    4.000    1.143 
#    5.143    1.429    0.000    0.000    0.000    0.000 
#    0.000    0.000    0.000    0.000    0.000    0.000 
#
# Total GULP energy -78332.451166 kJ/mol
# GULP energy per Si atom -5595.175083 kJ/mol
# Density = 2.519769 g / cm^3
# Si number density = 25.255175 Si / 1000 Ang^3
#
#
#
# Elastic Constant Matrix: (Units=GPa)
#
#
# Indices 1 2 3 4 5 6 
#
# 1 65.8141 8.3268 60.5787 -2.5191 -19.5936 3.6704
# 2 8.3268 119.7966 36.1602 19.1757 -11.7927 5.3662
# 3 60.5787 36.1602 95.8296 6.3272 -24.7175 0.8713
# 4 -2.5191 19.1757 6.3272 58.9021 -0.7523 1.2933
# 5 -19.5936 -11.7927 -24.7175 -0.7523 39.9066 15.1094
# 6 3.6704 5.3662 0.8713 1.2933 15.1094 34.9357
#
#
#
# Elastic Compliance Matrix: (Units=1/GPa)
#
#
# Indices 1 2 3 4 5 6 
#
# 1 0.042615 0.005993 -0.026873 0.003076 0.009495 -0.008948
# 2 0.005993 0.010857 -0.006890 -0.002424 0.003119 -0.003385
# 3 -0.026873 -0.006890 0.030991 -0.002233 0.003247 0.001787
# 4 0.003076 -0.002424 -0.002233 0.018150 -0.000039 -0.000550
# 5 0.009495 0.003119 0.003247 -0.000039 0.039751 -0.018748
# 6 -0.008948 -0.003385 0.001787 -0.000550 -0.018748 0.038168
#
#
# Mechanical properties :
#
#
# Convention : Reuss Voigt Hill
#
# Bulk Modulus (GPa) = 34.57409 54.61909 44.59659
# Shear Modulus (GPa) = 20.34892 38.50718 29.42805
#
# Velocity S-wave (km/s) = 2.84162 3.90901 3.41725
# Velocity P-wave (km/s) = 4.94834 6.48441 5.76774
#
# Compressibility (1/GPa) = 0.02892339
#
# Stress axis : x y z
#
# Youngs Moduli (GPa) = 23.46592 92.10419 32.26717
#
# Poissons Ratio (x) = -0.55194 0.86711
# Poissons Ratio (y) = -0.14062 0.22231
# Poissons Ratio (z) = 0.63060 0.63457
#
# Static dielectric constant tensor:
#      x y z
#    x 2.118270 0.048930 0.123340 
#    y 0.048930 2.049600 0.079780 
#    z 0.123340 0.079780 2.079540 
# 
# From -- ./inp_files/457670.got.cif
#   From: 2010.05.17/outbox.cif.g08.bks.cpg/sg2_229_cif.got.tgz:457670.got - 2010.06.03 11:33:40.
