data_PCOD9040569
_publ_section_title
;
Structure prediction by ZEFSAII (Michael W. Deem and Ramdas Pophale) SiO2 
 PCOD9040569
Probable space group: P -1
;
_chemical_formula_sum "Si O2"
_cell_formula_units_Z 12
_cell_length_a 13.458367
_cell_length_b 7.303184
_cell_length_c 5.772310
_cell_angle_alpha 106.644115
_cell_angle_beta 108.243256
_cell_angle_gamma 80.213265
_cell_volume 514.245778
_symmetry_space_group_name_H-M "P -1"
_symmetry_group_IT_number 2
_symmetry_cell_setting 'triclinic'
loop_
_space_group_symop_operation_xyz
x,y,z
-x,-y,-z
loop_
_atom_site_type_symbol
_atom_site_label
_atom_site_fract_x
_atom_site_fract_y
_atom_site_fract_z
Si Si1 0.094564 0.073917 0.738264
Si Si2 0.165150 0.458155 0.682149
Si Si3 0.970940 0.655801 0.841201
Si Si4 0.612981 0.382097 0.044577
Si Si5 0.378947 0.987372 0.354156
Si Si6 0.317167 0.975934 0.807935
O O1 0.136604 0.268147 0.731118
O O2 0.198025 0.930798 0.746813
O O3 0.000000 0.000000 0.500000
O O4 0.057585 0.141277 0.988611
O O5 0.075217 0.628567 0.749602
O O6 0.284569 0.502278 0.816799
O O7 0.132025 0.407088 0.381718
O O8 0.000000 0.500000 0.000000
O O9 0.611775 0.225395 0.194526
O O10 0.500000 0.500000 0.000000
O O11 0.634251 0.236754 0.789937
O O12 0.325180 0.054487 0.581763
O O13 0.500000 0.000000 0.500000
O O14 0.346892 0.080426 0.110561
#
# Coordination Sequence:
#
# PCOD9040569 Si02
#       6
#     2   2   2   2   2   2
#     4  11  26  40  70 102 138 183 232 292 361 420
#     4  10  23  43  67  96 141 180 238 286 353 418
#     4   9  22  41  66  97 131 182 230 289 350 418
#     4  10  26  43  69 101 137 189 235 289 347 418
#     4  10  24  45  71  98 141 181 237 286 346 410
#     4  10  26  43  70 104 140 180 232 292 351 416
#
# _framework density 23.335145000000001
#
# number of rings (size 3 to 8) (size 9 to 14) (size 15 to 20)
#    1.000    1.000    0.000    0.500   14.000    2.667 
#    0.000    0.000    0.000    0.000    0.000    0.000 
#    0.000    0.000    0.000    0.000    0.000    0.000 
#
# Total GULP energy -66871.844180 kJ/mol
# GULP energy per Si atom -5572.653682 kJ/mol
# Density = 2.328203 g / cm^3
# Si number density = 23.335145 Si / 1000 Ang^3
#
#
#
# Elastic Constant Matrix: (Units=GPa)
#
#
# Indices 1 2 3 4 5 6 
#
# 1 137.7082 22.9209 82.8356 16.1631 28.7233 -8.8080
# 2 22.9209 35.4816 15.8991 -4.2266 -3.4268 -5.9096
# 3 82.8356 15.8991 193.6975 7.0012 9.0777 4.2571
# 4 16.1631 -4.2266 7.0012 29.4249 -3.8807 -1.2247
# 5 28.7233 -3.4268 9.0777 -3.8807 51.5059 2.7684
# 6 -8.8080 -5.9096 4.2571 -1.2247 2.7684 48.0788
#
#
#
# Elastic Compliance Matrix: (Units=1/GPa)
#
#
# Indices 1 2 3 4 5 6 
#
# 1 0.014749 -0.008911 -0.004880 -0.009282 -0.008781 0.002308
# 2 -0.008911 0.036537 -0.000037 0.011334 0.008116 0.002683
# 3 -0.004880 -0.000037 0.007171 0.001117 0.001625 -0.001599
# 4 -0.009282 0.011334 0.001117 0.041621 0.008862 0.000144
# 5 -0.008781 0.008116 0.001625 0.008862 0.025341 -0.001988
# 6 0.002308 0.002683 -0.001599 0.000144 -0.001988 0.021812
#
#
# Mechanical properties :
#
#
# Convention : Reuss Voigt Hill
#
# Bulk Modulus (GPa) = 32.46529 67.79983 50.13256
# Shear Modulus (GPa) = 27.00471 42.15072 34.57771
#
# Velocity S-wave (km/s) = 3.40554 4.25469 3.85357
# Velocity P-wave (km/s) = 5.42276 7.29756 6.42887
#
# Compressibility (1/GPa) = 0.03080213
#
# Stress axis : x y z
#
# Youngs Moduli (GPa) = 67.80188 27.36921 139.44645
#
# Poissons Ratio (x) = 0.24387 0.68046
# Poissons Ratio (y) = 0.60415 0.00522
# Poissons Ratio (z) = 0.33085 0.00102
#
# Static dielectric constant tensor:
#      x y z
#    x 1.902610 -0.001390 -0.079520 
#    y -0.001390 2.020900 -0.056790 
#    z -0.079520 -0.056790 1.931780 
# 
# From -- ./inp_files/60021.got.cif
#   From: 2010.05.17/outbox.cif.g08.bks.cpg/sg2_31_cif.got.tgz:60021.got - 2010.06.03 11:33:40.
