data_PCOD9040310
_publ_section_title
;
Structure prediction by ZEFSAII (Michael W. Deem and Ramdas Pophale) SiO2 
 PCOD9040310
Probable space group: P -1
;
_chemical_formula_sum "Si O2"
_cell_formula_units_Z 14
_cell_length_a 6.618853
_cell_length_b 17.287522
_cell_length_c 7.368768
_cell_angle_alpha 111.757552
_cell_angle_beta 100.534801
_cell_angle_gamma 46.942204
_cell_volume 569.106516
_symmetry_space_group_name_H-M "P -1"
_symmetry_group_IT_number 2
_symmetry_cell_setting 'triclinic'
loop_
_space_group_symop_operation_xyz
x,y,z
-x,-y,-z
loop_
_atom_site_type_symbol
_atom_site_label
_atom_site_fract_x
_atom_site_fract_y
_atom_site_fract_z
Si Si1 0.264516 0.928346 0.062872
Si Si2 0.251104 0.335513 0.086888
Si Si3 0.867593 0.288560 0.068760
Si Si4 0.671525 0.097640 0.538672
Si Si5 0.557357 0.659641 0.243132
Si Si6 0.482659 0.405773 0.427039
Si Si7 0.310226 0.025132 0.872534
O O1 0.386884 0.909191 0.271855
O O2 0.457696 0.793970 0.932465
O O3 0.425751 0.971247 0.051752
O O4 0.071766 0.006783 0.891093
O O5 0.018504 0.334773 0.110005
O O6 0.258319 0.417708 0.277247
O O7 0.224948 0.363620 0.892148
O O8 0.766702 0.304600 0.274003
O O9 0.068631 0.158459 0.930314
O O10 0.583700 0.216434 0.600972
O O11 0.556173 0.064479 0.345349
O O12 0.000000 0.000000 0.500000
O O13 0.578080 0.603471 0.384341
O O14 0.377698 0.653629 0.067085
O O15 0.500000 0.500000 0.500000
#
# Coordination Sequence:
#
# PCOD9040310 Si02
#       7
#     2   2   2   2   2   2   2
#     4  11  20  36  61  88 132 180 215 262 312 381
#     4  10  23  43  65  97 133 168 220 273 326 389
#     4  11  24  42  65 101 135 170 222 273 325 392
#     4  11  21  35  60  91 127 178 215 245 319 391
#     4  10  23  44  66  94 135 173 218 271 328 395
#     4  11  26  47  71  94 124 173 224 280 344 390
#     4  12  23  36  57  93 136 175 211 259 311 383
#
# _framework density 24.599965999999998
#
# number of rings (size 3 to 8) (size 9 to 14) (size 15 to 20)
#    0.000    1.143    4.286    2.571    2.000    4.571 
#    2.571    1.429    0.000    0.000    0.000    0.000 
#    0.000    0.000    0.000    0.000    0.000    0.000 
#
# Total GULP energy -78052.671207 kJ/mol
# GULP energy per Si atom -5575.190801 kJ/mol
# Density = 2.454398 g / cm^3
# Si number density = 24.599966 Si / 1000 Ang^3
#
#
#
# Elastic Constant Matrix: (Units=GPa)
#
#
# Indices 1 2 3 4 5 6 
#
# 1 109.4214 39.3564 38.5422 -8.5970 2.4630 34.6487
# 2 39.3564 117.2045 68.3969 -5.7997 -7.6186 44.8740
# 3 38.5422 68.3969 133.0758 -22.3544 11.1227 25.7816
# 4 -8.5970 -5.7997 -22.3544 46.3120 20.2180 -7.8014
# 5 2.4630 -7.6186 11.1227 20.2180 41.9168 0.2183
# 6 34.6487 44.8740 25.7816 -7.8014 0.2183 51.8513
#
#
#
# Elastic Compliance Matrix: (Units=1/GPa)
#
#
# Indices 1 2 3 4 5 6 
#
# 1 0.012130 -0.000351 -0.001938 0.000288 -0.000366 -0.006794
# 2 -0.000351 0.019891 -0.010011 -0.009440 0.010916 -0.013469
# 3 -0.001938 -0.010011 0.015274 0.011372 -0.011265 0.004122
# 4 0.000288 -0.009440 0.011372 0.037237 -0.022753 0.008022
# 5 -0.000366 0.010916 -0.011265 -0.022753 0.039863 -0.007193
# 6 -0.006794 -0.013469 0.004122 0.008022 -0.007193 0.034670
#
#
# Mechanical properties :
#
#
# Convention : Reuss Voigt Hill
#
# Bulk Modulus (GPa) = 44.05941 72.47697 58.26819
# Shear Modulus (GPa) = 26.14671 42.24308 34.19490
#
# Velocity S-wave (km/s) = 3.26371 4.14841 3.73237
# Velocity P-wave (km/s) = 5.67025 7.24375 6.50475
#
# Compressibility (1/GPa) = 0.02269663
#
# Stress axis : x y z
#
# Youngs Moduli (GPa) = 82.44194 50.27412 65.47066
#
# Poissons Ratio (x) = 0.01763 0.12687
# Poissons Ratio (y) = 0.02891 0.65540
# Poissons Ratio (z) = 0.15976 0.50327
#
# Static dielectric constant tensor:
#      x y z
#    x 2.148970 0.076490 -0.027790 
#    y 0.076490 1.976200 -0.060790 
#    z -0.027790 -0.060790 2.007200 
# 
# From -- ./inp_files/41213.got.cif
#   From: 2010.05.17/outbox.cif.g08.bks.cpg/sg2_21_cif.got.tgz:41213.got - 2010.06.03 11:33:40.
