data_PCOD9040092
_publ_section_title
;
Structure prediction by ZEFSAII (Michael W. Deem and Ramdas Pophale) SiO2 
 PCOD9040092
Probable space group: P -1
;
_chemical_formula_sum "Si O2"
_cell_formula_units_Z 16
_cell_length_a 15.693509
_cell_length_b 14.666607
_cell_length_c 9.277664
_cell_angle_alpha 59.871940
_cell_angle_beta 141.159764
_cell_angle_gamma 144.936559
_cell_volume 712.797653
_symmetry_space_group_name_H-M "P -1"
_symmetry_group_IT_number 2
_symmetry_cell_setting 'triclinic'
loop_
_space_group_symop_operation_xyz
x,y,z
-x,-y,-z
loop_
_atom_site_type_symbol
_atom_site_label
_atom_site_fract_x
_atom_site_fract_y
_atom_site_fract_z
Si Si1 0.339659 0.702453 0.678654
Si Si2 0.907083 0.144717 0.485707
Si Si3 0.459332 0.204258 0.863114
Si Si4 0.833752 0.799357 0.446933
Si Si5 0.279681 0.430861 0.296936
Si Si6 0.307136 0.645697 0.371666
Si Si7 0.801578 0.292263 0.066598
Si Si8 0.039879 0.358915 0.747453
O O1 0.428127 0.723899 0.621595
O O2 0.198277 0.522323 0.714971
O O3 0.169325 0.694856 0.450237
O O4 0.536484 0.848300 0.933362
O O5 0.806345 0.182591 0.234903
O O6 0.127015 0.239719 0.617967
O O7 0.955653 0.209826 0.658382
O O8 0.722643 0.943882 0.373845
O O9 0.398454 0.286542 0.758192
O O10 0.687491 0.303239 0.017902
O O11 0.872675 0.739081 0.672016
O O12 0.000000 0.000000 0.500000
O O13 0.500000 0.500000 0.500000
O O14 0.344659 0.570402 0.373514
O O15 0.154268 0.389844 0.020137
O O16 0.053292 0.477031 0.222488
O O17 0.320541 0.760355 0.203614
#
# Coordination Sequence:
#
# PCOD9040092 Si02
#       8
#     2   2   2   2   2   2   2   2
#     4  11  20  37  61  97 128 161 210 265 317 373
#     4  11  22  42  64  91 130 172 209 256 323 382
#     4  11  23  40  65  91 127 172 214 255 314 383
#     4  10  23  43  62  86 130 176 207 256 324 378
#     4  12  24  41  65  97 127 167 218 265 316 385
#     4  11  22  36  63  93 127 161 206 270 321 364
#     4  11  19  38  62  90 125 165 209 259 316 368
#     4  11  22  37  64  96 124 163 215 263 316 374
#
# _framework density 22.446763000000001
#
# number of rings (size 3 to 8) (size 9 to 14) (size 15 to 20)
#    0.000    1.000    3.750    4.875    0.000    1.000 
#    0.000    8.125    0.000    0.000    0.000    0.000 
#    0.000    0.000    0.000    0.000    0.000    0.000 
#
# Total GULP energy -89283.613596 kJ/mol
# GULP energy per Si atom -5580.225850 kJ/mol
# Density = 2.239567 g / cm^3
# Si number density = 22.446763 Si / 1000 Ang^3
#
#
#
# Elastic Constant Matrix: (Units=GPa)
#
#
# Indices 1 2 3 4 5 6 
#
# 1 169.9065 10.7701 59.5372 0.6686 -2.5237 -25.3672
# 2 10.7701 29.5373 9.1893 -8.9897 -2.7033 -6.4245
# 3 59.5372 9.1893 98.4649 -10.9864 -12.1705 -13.0608
# 4 0.6686 -8.9897 -10.9864 32.1233 -0.7999 -3.6590
# 5 -2.5237 -2.7033 -12.1705 -0.7999 54.3346 2.8430
# 6 -25.3672 -6.4245 -13.0608 -3.6590 2.8430 24.3378
#
#
#
# Elastic Compliance Matrix: (Units=1/GPa)
#
#
# Indices 1 2 3 4 5 6 
#
# 1 0.008396 -0.000831 -0.004458 -0.001266 -0.000986 0.006064
# 2 -0.000831 0.040725 -0.000161 0.012711 0.001535 0.011529
# 3 -0.004458 -0.000161 0.014283 0.005397 0.002883 0.003451
# 4 -0.001266 0.012711 0.005397 0.037789 0.001795 0.010404
# 5 -0.000986 0.001535 0.002883 0.001795 0.019162 -0.001044
# 6 0.006064 0.011529 0.003451 0.010404 -0.001044 0.053990
#
#
# Mechanical properties :
#
#
# Convention : Reuss Voigt Hill
#
# Bulk Modulus (GPa) = 19.04597 50.76687 34.90642
# Shear Modulus (GPa) = 24.66131 36.71996 30.69064
#
# Velocity S-wave (km/s) = 3.31820 4.04898 3.70166
# Velocity P-wave (km/s) = 4.81497 6.67268 5.81844
#
# Compressibility (1/GPa) = 0.05250453
#
# Stress axis : x y z
#
# Youngs Moduli (GPa) = 119.10280 24.55473 70.01508
#
# Poissons Ratio (x) = 0.02040 0.31212
# Poissons Ratio (y) = 0.09897 0.01127
# Poissons Ratio (z) = 0.53094 0.00395
#
# Static dielectric constant tensor:
#      x y z
#    x 1.871860 0.018480 -0.016720 
#    y 0.018480 1.959630 0.038890 
#    z -0.016720 0.038890 1.882500 
# 
# From -- ./inp_files/312888.got.cif
#   From: 2010.05.17/outbox.cif.g08.bks.cpg/sg2_157_cif.got.tgz:312888.got - 2010.06.03 11:33:40.
