data_PCOD9040052
_publ_section_title
;
Structure prediction by ZEFSAII (Michael W. Deem and Ramdas Pophale) SiO2 
 PCOD9040052
Probable space group: P -1
;
_chemical_formula_sum "Si O2"
_cell_formula_units_Z 16
_cell_length_a 4.897728
_cell_length_b 24.516297
_cell_length_c 15.073127
_cell_angle_alpha 18.913764
_cell_angle_beta 83.699378
_cell_angle_gamma 85.534935
_cell_volume 581.226372
_symmetry_space_group_name_H-M "P -1"
_symmetry_group_IT_number 2
_symmetry_cell_setting 'triclinic'
loop_
_space_group_symop_operation_xyz
x,y,z
-x,-y,-z
loop_
_atom_site_type_symbol
_atom_site_label
_atom_site_fract_x
_atom_site_fract_y
_atom_site_fract_z
Si Si1 0.906246 0.894116 0.580572
Si Si2 0.833631 0.259551 0.580703
Si Si3 0.629592 0.356078 0.804120
Si Si4 0.505710 0.093168 0.547710
Si Si5 0.920576 0.418941 0.870601
Si Si6 0.167489 0.989768 0.887430
Si Si7 0.538077 0.529674 0.056254
Si Si8 0.180842 0.275047 0.810460
O O1 0.173370 0.891029 0.509915
O O2 0.672379 0.997249 0.384925
O O3 0.861348 0.708506 0.913045
O O4 0.000000 0.000000 0.500000
O O5 0.679981 0.378457 0.334278
O O6 0.941949 0.397997 0.437952
O O7 0.711089 0.112311 0.877737
O O8 0.049154 0.158043 0.672718
O O9 0.720432 0.335527 0.933284
O O10 0.363313 0.255322 0.924377
O O11 0.632333 0.563435 0.483601
O O12 0.888603 0.324770 0.780824
O O13 0.402553 0.034386 0.737639
O O14 0.363512 0.270449 0.261002
O O15 0.749303 0.461957 0.896778
O O16 0.918199 0.876797 0.019576
O O17 0.500000 0.500000 0.000000
#
# Coordination Sequence:
#
# PCOD9040052 Si02
#       8
#     2   2   2   2   2   2   2   2
#     4  11  26  49  79 113 155 206 268 329 398 478
#     4  11  25  51  78 111 165 214 271 341 405 483
#     4  10  23  42  76 104 150 203 254 316 385 476
#     4  11  26  49  77 115 156 209 262 332 396 482
#     4  11  24  46  77 112 153 204 276 324 408 477
#     4  11  26  48  76 121 164 210 272 338 413 473
#     4  11  26  48  80 110 149 218 273 328 397 486
#     4  10  23  45  70 109 152 203 253 312 393 475
#
# _framework density 27.528002999999998
#
# number of rings (size 3 to 8) (size 9 to 14) (size 15 to 20)
#    0.000    1.250    2.500    1.125    7.000    3.000 
#    4.500    1.875    0.000    0.750    0.000    0.000 
#    0.000    0.000    0.000    0.000    0.000    0.000 
#
# Total GULP energy -89419.633730 kJ/mol
# GULP energy per Si atom -5588.727108 kJ/mol
# Density = 2.746535 g / cm^3
# Si number density = 27.528003 Si / 1000 Ang^3
#
#
#
# Elastic Constant Matrix: (Units=GPa)
#
#
# Indices 1 2 3 4 5 6 
#
# 1 133.1510 24.4119 35.6157 6.8690 3.6387 10.4537
# 2 24.4119 90.3762 23.0686 1.6836 11.7120 12.1142
# 3 35.6157 23.0686 144.5215 -2.8713 22.3160 12.0864
# 4 6.8690 1.6836 -2.8713 57.5997 9.7509 0.7752
# 5 3.6387 11.7120 22.3160 9.7509 35.4233 6.9151
# 6 10.4537 12.1142 12.0864 0.7752 6.9151 45.0749
#
#
#
# Elastic Compliance Matrix: (Units=1/GPa)
#
#
# Indices 1 2 3 4 5 6 
#
# 1 0.008486 -0.001810 -0.001971 -0.001305 0.001556 -0.001169
# 2 -0.001810 0.012465 -0.000880 0.000353 -0.003042 -0.002234
# 3 -0.001971 -0.000880 0.008430 0.001553 -0.005086 -0.000813
# 4 -0.001305 0.000353 0.001553 0.018623 -0.006169 0.000418
# 5 0.001556 -0.003042 -0.005086 -0.006169 0.034639 -0.003388
# 6 -0.001169 -0.002234 -0.000813 0.000418 -0.003388 0.023787
#
#
# Mechanical properties :
#
#
# Convention : Reuss Voigt Hill
#
# Bulk Modulus (GPa) = 49.85096 59.36012 54.60554
# Shear Modulus (GPa) = 40.83701 46.61642 43.72672
#
# Velocity S-wave (km/s) = 3.85576 4.11958 3.98985
# Velocity P-wave (km/s) = 6.16207 6.65119 6.41129
#
# Compressibility (1/GPa) = 0.02005979
#
# Stress axis : x y z
#
# Youngs Moduli (GPa) = 117.84387 80.22181 118.62787
#
# Poissons Ratio (x) = 0.14517 0.23378
# Poissons Ratio (y) = 0.21326 0.10442
# Poissons Ratio (z) = 0.23224 0.07061
#
# Static dielectric constant tensor:
#      x y z
#    x 2.313420 0.207670 -0.394740 
#    y 0.207670 2.231040 -0.335910 
#    z -0.394740 -0.335910 2.872530 
# 
# From -- ./inp_files/485920.got.cif
#   From: 2010.05.17/outbox.cif.g08.bks.cpg/sg2_243_cif.got.tgz:485920.got - 2010.06.03 11:33:40.
