data_PCOD9040963
_publ_section_title
;
Structure prediction by ZEFSAII (Michael W. Deem and Ramdas Pophale) SiO2 
 PCOD9040963
Probable space group: P -1
;
_chemical_formula_sum "Si O2"
_cell_formula_units_Z 16
_cell_length_a 9.700656
_cell_length_b 11.248558
_cell_length_c 15.597964
_cell_angle_alpha 147.163906
_cell_angle_beta 131.865364
_cell_angle_gamma 52.203751
_cell_volume 681.553665
_symmetry_space_group_name_H-M "P -1"
_symmetry_group_IT_number 2
_symmetry_cell_setting 'triclinic'
loop_
_space_group_symop_operation_xyz
x,y,z
-x,-y,-z
loop_
_atom_site_type_symbol
_atom_site_label
_atom_site_fract_x
_atom_site_fract_y
_atom_site_fract_z
Si Si1 0.096242 0.791014 0.864807
Si Si2 0.829306 0.243879 0.455541
Si Si3 0.398107 0.100479 0.786837
Si Si4 0.216140 0.422735 0.058790
Si Si5 0.511607 0.754360 0.397249
Si Si6 0.238194 0.365821 0.725594
Si Si7 0.306232 0.283304 0.364475
Si Si8 0.719201 0.008683 0.093093
O O1 0.185641 0.625641 0.875207
O O2 0.912826 0.705235 0.695938
O O3 0.225200 0.859570 0.885342
O O4 0.000000 0.000000 0.000000
O O5 0.705594 0.484773 0.550561
O O6 0.044361 0.263926 0.576288
O O7 0.750194 0.076101 0.385932
O O8 0.795535 0.132987 0.282025
O O9 0.376504 0.242326 0.777150
O O10 0.592881 0.935784 0.775576
O O11 0.326533 0.270382 0.936880
O O12 0.326736 0.633234 0.242649
O O13 0.209060 0.252448 0.031758
O O14 0.000000 0.500000 0.000000
O O15 0.668491 0.629692 0.325663
O O16 0.581319 0.732540 0.509884
O O17 0.500000 0.000000 0.500000
O O18 0.500000 0.000000 0.000000
#
# Coordination Sequence:
#
# PCOD9040963 Si02
#       8
#     2   2   2   2   2   2   2   2
#     4  11  27  43  72 103 144 184 241 299 362 419
#     4  10  23  43  70 100 140 186 241 287 356 425
#     4  11  25  43  71 103 146 183 234 298 357 423
#     4  11  29  46  72 102 141 190 240 290 359 426
#     4  12  26  45  74 105 142 187 237 292 361 429
#     4  11  24  44  68 104 140 184 237 296 359 422
#     4  11  24  45  71 105 140 187 237 299 355 425
#     4  11  24  46  71  97 139 191 243 287 353 435
#
# _framework density 23.475776
#
# number of rings (size 3 to 8) (size 9 to 14) (size 15 to 20)
#    0.000    1.000    1.250    3.750   12.250    3.500 
#    2.250    0.000    0.000    0.000    0.000    0.000 
#    0.000    0.000    0.000    0.000    0.000    0.000 
#
# Total GULP energy -89396.128515 kJ/mol
# GULP energy per Si atom -5587.258032 kJ/mol
# Density = 2.342234 g / cm^3
# Si number density = 23.475776 Si / 1000 Ang^3
#
#
#
# Elastic Constant Matrix: (Units=GPa)
#
#
# Indices 1 2 3 4 5 6 
#
# 1 80.1734 9.4544 15.5577 2.0470 23.2012 -1.7643
# 2 9.4544 123.9890 45.0691 25.3485 20.7582 -1.6137
# 3 15.5577 45.0691 82.3107 21.0849 21.1267 5.6178
# 4 2.0470 25.3485 21.0849 38.6927 2.6255 6.0836
# 5 23.2012 20.7582 21.1267 2.6255 44.6229 -6.2022
# 6 -1.7643 -1.6137 5.6178 6.0836 -6.2022 32.4831
#
#
#
# Elastic Compliance Matrix: (Units=1/GPa)
#
#
# Indices 1 2 3 4 5 6 
#
# 1 0.014778 0.000519 -0.001161 0.000080 -0.007436 -0.000405
# 2 0.000519 0.011116 -0.004265 -0.005059 -0.002885 0.001715
# 3 -0.001161 -0.004265 0.018040 -0.006024 -0.006075 -0.003427
# 4 0.000080 -0.005059 -0.006024 0.033037 0.002538 -0.004908
# 5 -0.007436 -0.002885 -0.006075 0.002538 0.031177 0.005981
# 6 -0.000405 0.001715 -0.003427 -0.004908 0.005981 0.033502
#
#
# Mechanical properties :
#
#
# Convention : Reuss Voigt Hill
#
# Bulk Modulus (GPa) = 29.30905 47.40394 38.35650
# Shear Modulus (GPa) = 30.70536 37.58586 34.14561
#
# Velocity S-wave (km/s) = 3.62050 4.00565 3.81793
# Velocity P-wave (km/s) = 5.47624 6.45215 5.98412
#
# Compressibility (1/GPa) = 0.03411915
#
# Stress axis : x y z
#
# Youngs Moduli (GPa) = 67.66750 89.96334 55.43195
#
# Poissons Ratio (x) = -0.04666 0.06437
# Poissons Ratio (y) = -0.03510 0.23641
# Poissons Ratio (z) = 0.07858 0.38368
#
# Static dielectric constant tensor:
#      x y z
#    x 1.956410 -0.123970 0.006010 
#    y -0.123970 2.691810 -0.024570 
#    z 0.006010 -0.024570 2.034840 
# 
# From -- ./inp_files/560197.got.cif
#   From: 2010.05.17/outbox.cif.g08.bks.cpg/sg2_281_cif.got.tgz:560197.got - 2010.06.03 11:33:40.
