data_PCOD9040766
_publ_section_title
;
Structure prediction by ZEFSAII (Michael W. Deem and Ramdas Pophale) SiO2 
 PCOD9040766
Probable space group: P -1
;
_chemical_formula_sum "Si O2"
_cell_formula_units_Z 15
_cell_length_a 14.685114
_cell_length_b 12.327335
_cell_length_c 14.275762
_cell_angle_alpha 131.966138
_cell_angle_beta 160.280364
_cell_angle_gamma 50.278630
_cell_volume 647.890448
_symmetry_space_group_name_H-M "P -1"
_symmetry_group_IT_number 2
_symmetry_cell_setting 'triclinic'
loop_
_space_group_symop_operation_xyz
x,y,z
-x,-y,-z
loop_
_atom_site_type_symbol
_atom_site_label
_atom_site_fract_x
_atom_site_fract_y
_atom_site_fract_z
Si Si1 0.000000 0.500000 0.000000
Si Si2 0.385942 0.346950 0.144957
Si Si3 0.268370 0.558829 0.993912
Si Si4 0.529090 0.042950 0.443311
Si Si5 0.980848 0.762869 0.984406
Si Si6 0.085816 0.670509 0.589231
Si Si7 0.548302 0.729728 0.205959
Si Si8 0.099731 0.833175 0.506112
O O1 0.286259 0.443399 0.190885
O O2 0.991183 0.650696 0.015516
O O3 0.627960 0.226521 0.316128
O O4 0.437958 0.454437 0.170032
O O5 0.124458 0.263122 0.812958
O O6 0.055989 0.465390 0.675564
O O7 0.092870 0.671484 0.951474
O O8 0.465957 0.646203 0.170741
O O9 0.822476 0.101970 0.738409
O O10 0.500000 0.000000 0.500000
O O11 0.472400 0.899555 0.245387
O O12 0.316063 0.172033 0.285999
O O13 0.861692 0.717762 0.476401
O O14 0.117696 0.788912 0.606733
O O15 0.370694 0.658843 0.911027
O O16 0.000000 0.000000 0.500000
#
# Coordination Sequence:
#
# PCOD9040766 Si02
#       8
#     1   2   2   2   2   2   2   2
#     4  10  26  48  74 114 138 186 248 308 358 420
#     4  10  24  43  70  99 135 178 234 286 356 417
#     4  10  23  43  68  98 139 184 222 293 357 423
#     4  12  26  46  69 102 142 192 236 285 367 437
#     4  11  26  45  75 101 144 186 240 295 358 435
#     4  11  25  42  64 104 132 175 237 283 344 419
#     4  12  25  41  69  98 140 179 229 286 348 419
#     4  11  24  45  69  93 137 184 225 285 354 420
#
# _framework density 23.152061
#
# number of rings (size 3 to 8) (size 9 to 14) (size 15 to 20)
#    0.000    1.067    1.333    4.000    1.867   14.933 
#    0.000    0.000    0.000    0.000    0.000    0.000 
#    0.000    0.000    0.000    0.000    0.000    0.000 
#
# Total GULP energy -83754.982976 kJ/mol
# GULP energy per Si atom -5583.665532 kJ/mol
# Density = 2.309937 g / cm^3
# Si number density = 23.152061 Si / 1000 Ang^3
#
#
#
# Elastic Constant Matrix: (Units=GPa)
#
#
# Indices 1 2 3 4 5 6 
#
# 1 100.5803 42.7741 17.7206 2.1111 13.8445 15.2946
# 2 42.7741 143.7220 14.6020 -9.5282 12.2779 2.4513
# 3 17.7206 14.6020 76.2236 -14.9952 13.3114 7.6180
# 4 2.1111 -9.5282 -14.9952 34.1278 -9.4702 7.4979
# 5 13.8445 12.2779 13.3114 -9.4702 28.8216 5.1721
# 6 15.2946 2.4513 7.6180 7.4979 5.1721 42.8642
#
#
#
# Elastic Compliance Matrix: (Units=1/GPa)
#
#
# Indices 1 2 3 4 5 6 
#
# 1 0.012844 -0.003417 -0.001892 -0.003127 -0.004333 -0.002982
# 2 -0.003417 0.008222 -0.000249 0.001926 -0.001222 0.000604
# 3 -0.001892 -0.000249 0.015824 0.006625 -0.003606 -0.002847
# 4 -0.003127 0.001926 0.006625 0.037956 0.011566 -0.008207
# 5 -0.004333 -0.001222 -0.003606 0.011566 0.043667 -0.005035
# 6 -0.002982 0.000604 -0.002847 -0.008207 -0.005035 0.026908
#
#
# Mechanical properties :
#
#
# Convention : Reuss Voigt Hill
#
# Bulk Modulus (GPa) = 38.79687 52.30216 45.54952
# Shear Modulus (GPa) = 30.27935 37.52465 33.90200
#
# Velocity S-wave (km/s) = 3.62034 4.03027 3.83079
# Velocity P-wave (km/s) = 5.85403 6.65562 6.26765
#
# Compressibility (1/GPa) = 0.02577527
#
# Stress axis : x y z
#
# Youngs Moduli (GPa) = 77.85683 121.62816 63.19325
#
# Poissons Ratio (x) = 0.41557 0.11956
# Poissons Ratio (y) = 0.26601 0.01572
# Poissons Ratio (z) = 0.14731 0.03026
#
# Static dielectric constant tensor:
#      x y z
#    x 1.875600 -0.014330 -0.042380 
#    y -0.014330 1.839180 0.008530 
#    z -0.042380 0.008530 1.825930 
# 
# From -- ./inp_files/531990.got.cif
#   From: 2010.05.17/outbox.cif.g08.bks.cpg/sg2_266_cif.got.tgz:531990.got - 2010.06.03 11:33:40.
