data_PCOD9040814
_publ_section_title
;
Structure prediction by ZEFSAII (Michael W. Deem and Ramdas Pophale) SiO2 
 PCOD9040814
Probable space group: P -1
;
_chemical_formula_sum "Si O2"
_cell_formula_units_Z 12
_cell_length_a 13.609563
_cell_length_b 7.107805
_cell_length_c 14.242001
_cell_angle_alpha 134.298622
_cell_angle_beta 148.732846
_cell_angle_gamma 42.433166
_cell_volume 473.416643
_symmetry_space_group_name_H-M "P -1"
_symmetry_group_IT_number 2
_symmetry_cell_setting 'triclinic'
loop_
_space_group_symop_operation_xyz
x,y,z
-x,-y,-z
loop_
_atom_site_type_symbol
_atom_site_label
_atom_site_fract_x
_atom_site_fract_y
_atom_site_fract_z
Si Si1 0.060812 0.049769 0.671830
Si Si2 0.290929 0.015881 0.125652
Si Si3 0.299084 0.557923 0.414184
Si Si4 0.368035 0.269241 0.552586
Si Si5 0.096673 0.584908 0.801120
Si Si6 0.459244 0.841731 0.003084
O O1 0.091686 0.350805 0.792290
O O2 0.258021 0.797173 0.783396
O O3 0.874695 0.130456 0.620779
O O4 0.000000 0.000000 0.500000
O O5 0.490204 0.797184 0.265068
O O6 0.363507 0.025603 0.081658
O O7 0.225776 0.317052 0.228705
O O8 0.123149 0.875762 0.949750
O O9 0.500000 0.500000 0.500000
O O10 0.357479 0.516531 0.557665
O O11 0.130713 0.323847 0.396170
O O12 0.500000 0.000000 0.500000
O O13 0.322710 0.403166 0.877532
O O14 0.500000 0.000000 0.000000
#
# Coordination Sequence:
#
# PCOD9040814 Si02
#       6
#     2   2   2   2   2   2
#     4  10  24  45  72 101 141 188 233 287 350 423
#     4  11  24  44  70 102 141 177 240 291 346 421
#     4  10  24  42  71 107 135 188 232 290 354 406
#     4   9  22  43  67 101 138 178 227 286 355 409
#     4  10  23  43  69 101 135 184 230 286 352 406
#     4  10  24  43  66 104 137 186 232 285 359 411
#
# _framework density 25.347652
#
# number of rings (size 3 to 8) (size 9 to 14) (size 15 to 20)
#    0.000    2.000    0.000    0.500    9.333   11.333 
#    0.000    0.000    0.000    0.000    0.000    0.000 
#    0.000    0.000    0.000    0.000    0.000    0.000 
#
# Total GULP energy -66889.285708 kJ/mol
# GULP energy per Si atom -5574.107142 kJ/mol
# Density = 2.528996 g / cm^3
# Si number density = 25.347652 Si / 1000 Ang^3
#
#
#
# Elastic Constant Matrix: (Units=GPa)
#
#
# Indices 1 2 3 4 5 6 
#
# 1 126.5434 51.6602 60.6865 -7.4247 -12.4694 -9.9504
# 2 51.6602 86.6206 25.0038 -11.3311 8.8887 -31.1881
# 3 60.6865 25.0038 129.2971 -25.9981 5.6952 -10.8247
# 4 -7.4247 -11.3311 -25.9981 50.8132 -3.3370 11.0269
# 5 -12.4694 8.8887 5.6952 -3.3370 47.6189 -8.1906
# 6 -9.9504 -31.1881 -10.8247 11.0269 -8.1906 56.4384
#
#
#
# Elastic Compliance Matrix: (Units=1/GPa)
#
#
# Indices 1 2 3 4 5 6 
#
# 1 0.014532 -0.008529 -0.006001 -0.002026 0.005613 -0.002091
# 2 -0.008529 0.020115 0.001404 0.001733 -0.004506 0.008889
# 3 -0.006001 0.001404 0.011451 0.004997 -0.002760 0.000537
# 4 -0.002026 0.001733 0.004997 0.022950 -0.000356 -0.002977
# 5 0.005613 -0.004506 -0.002760 -0.000356 0.023875 0.001505
# 6 -0.002091 0.008889 0.000537 -0.002977 0.001505 0.023165
#
#
# Mechanical properties :
#
#
# Convention : Reuss Voigt Hill
#
# Bulk Modulus (GPa) = 50.38678 68.57357 59.48018
# Shear Modulus (GPa) = 33.56742 44.64812 39.10777
#
# Velocity S-wave (km/s) = 3.64302 4.20149 3.93218
# Velocity P-wave (km/s) = 6.13326 7.11679 6.64325
#
# Compressibility (1/GPa) = 0.01984647
#
# Stress axis : x y z
#
# Youngs Moduli (GPa) = 68.81411 49.71350 87.33165
#
# Poissons Ratio (x) = 0.42398 0.52409
# Poissons Ratio (y) = 0.58689 -0.12262
# Poissons Ratio (z) = 0.41297 -0.06980
#
# Static dielectric constant tensor:
#      x y z
#    x 2.359410 0.185870 0.060230 
#    y 0.185870 2.206430 -0.061480 
#    z 0.060230 -0.061480 2.126370 
# 
# From -- ./inp_files/530269.got.cif
#   From: 2010.05.17/outbox.cif.g08.bks.cpg/sg2_266_cif.got.tgz:530269.got - 2010.06.03 11:33:40.
