data_PCOD9040119
_publ_section_title
;
Structure prediction by ZEFSAII (Michael W. Deem and Ramdas Pophale) SiO2 
 PCOD9040119
Probable space group: P -1
;
_chemical_formula_sum "Si O2"
_cell_formula_units_Z 14
_cell_length_a 6.391416
_cell_length_b 16.066130
_cell_length_c 15.918410
_cell_angle_alpha 154.290003
_cell_angle_beta 109.788621
_cell_angle_gamma 77.405480
_cell_volume 651.910704
_symmetry_space_group_name_H-M "P -1"
_symmetry_group_IT_number 2
_symmetry_cell_setting 'triclinic'
loop_
_space_group_symop_operation_xyz
x,y,z
-x,-y,-z
loop_
_atom_site_type_symbol
_atom_site_label
_atom_site_fract_x
_atom_site_fract_y
_atom_site_fract_z
Si Si1 0.022104 0.492358 0.248074
Si Si2 0.012561 0.341125 0.785089
Si Si3 0.634331 0.018713 0.123245
Si Si4 0.656150 0.928230 0.385703
Si Si5 0.599050 0.131480 0.878310
Si Si6 0.479475 0.575408 0.472848
Si Si7 0.868047 0.795753 0.622069
O O1 0.042007 0.549547 0.206059
O O2 0.951446 0.680123 0.452457
O O3 0.260433 0.456865 0.285303
O O4 0.816505 0.309471 0.069661
O O5 0.245404 0.258737 0.739233
O O6 0.838098 0.132251 0.581488
O O7 0.000000 0.500000 0.000000
O O8 0.534878 0.874316 0.055927
O O9 0.588704 0.218342 0.336322
O O10 0.904329 0.061004 0.180760
O O11 0.500000 0.000000 0.000000
O O12 0.547525 0.863026 0.220451
O O13 0.500000 0.000000 0.500000
O O14 0.697215 0.933990 0.701343
O O15 0.500000 0.500000 0.500000
O O16 0.725175 0.626278 0.508468
#
# Coordination Sequence:
#
# PCOD9040119 Si02
#       7
#     2   2   2   2   2   2   2
#     4  11  25  42  66  97 131 177 222 272 338 401
#     4  11  25  44  68 102 139 177 228 282 339 406
#     4  10  24  40  63  93 129 172 219 272 335 399
#     4  11  24  44  70  99 137 178 230 279 340 409
#     4  11  25  41  66  99 129 178 221 273 337 399
#     4  10  24  40  64  94 125 172 223 274 331 395
#     4  10  23  43  63  89 135 168 219 277 329 394
#
# _framework density 21.475332999999999
#
# number of rings (size 3 to 8) (size 9 to 14) (size 15 to 20)
#    0.000    1.429    0.000    4.286    6.000   10.286 
#    0.000    0.000    0.000    0.000    0.000    0.000 
#    0.000    0.000    0.000    0.000    0.000    0.000 
#
# Total GULP energy -78095.657011 kJ/mol
# GULP energy per Si atom -5578.261215 kJ/mol
# Density = 2.142645 g / cm^3
# Si number density = 21.475333 Si / 1000 Ang^3
#
#
#
# Elastic Constant Matrix: (Units=GPa)
#
#
# Indices 1 2 3 4 5 6 
#
# 1 99.4670 52.0488 34.4092 -17.8870 5.6029 5.9345
# 2 52.0488 143.4583 39.1272 -25.1896 15.9915 9.7143
# 3 34.4092 39.1272 111.0835 -10.4270 9.1695 4.5320
# 4 -17.8870 -25.1896 -10.4270 40.0792 -1.3676 -1.7633
# 5 5.6029 15.9915 9.1695 -1.3676 43.8279 6.5419
# 6 5.9345 9.7143 4.5320 -1.7633 6.5419 31.8021
#
#
#
# Elastic Compliance Matrix: (Units=1/GPa)
#
#
# Indices 1 2 3 4 5 6 
#
# 1 0.013417 -0.003609 -0.002595 0.003016 0.000379 -0.000942
# 2 -0.003609 0.009805 -0.001707 0.003965 -0.002433 -0.001358
# 3 -0.002595 -0.001707 0.010560 0.000465 -0.001207 -0.000225
# 4 0.003016 0.003965 0.000465 0.028873 -0.001024 -0.000029
# 5 0.000379 -0.002433 -0.001207 -0.001024 0.024511 -0.004255
# 6 -0.000942 -0.001358 -0.000225 -0.000029 -0.004255 0.032941
#
#
# Mechanical properties :
#
#
# Convention : Reuss Voigt Hill
#
# Bulk Modulus (GPa) = 55.68001 67.24213 61.46107
# Shear Modulus (GPa) = 35.23223 38.37008 36.80115
#
# Velocity S-wave (km/s) = 4.05481 4.23153 4.14411
# Velocity P-wave (km/s) = 6.92140 7.43329 7.18190
#
# Compressibility (1/GPa) = 0.01795977
#
# Stress axis : x y z
#
# Youngs Moduli (GPa) = 74.53277 101.98825 94.69927
#
# Poissons Ratio (x) = 0.36809 0.24570
# Poissons Ratio (y) = 0.26900 0.16168
# Poissons Ratio (z) = 0.19338 0.17413
#
# Static dielectric constant tensor:
#      x y z
#    x 1.860840 0.204030 0.058450 
#    y 0.204030 3.279280 -0.068240 
#    z 0.058450 -0.068240 1.820820 
# 
# From -- ./inp_files/48162.got.cif
#   From: 2010.05.17/outbox.cif.g08.bks.cpg/sg2_25_cif.got.tgz:48162.got - 2010.06.03 11:33:40.
