data_PCOD9040760
_publ_section_title
;
Structure prediction by ZEFSAII (Michael W. Deem and Ramdas Pophale) SiO2 
 PCOD9040760
Probable space group: P -1
;
_chemical_formula_sum "Si O2"
_cell_formula_units_Z 16
_cell_length_a 15.391120
_cell_length_b 9.618255
_cell_length_c 5.254921
_cell_angle_alpha 97.297229
_cell_angle_beta 85.291356
_cell_angle_gamma 62.479310
_cell_volume 675.482369
_symmetry_space_group_name_H-M "P -1"
_symmetry_group_IT_number 2
_symmetry_cell_setting 'triclinic'
loop_
_space_group_symop_operation_xyz
x,y,z
-x,-y,-z
loop_
_atom_site_type_symbol
_atom_site_label
_atom_site_fract_x
_atom_site_fract_y
_atom_site_fract_z
Si Si1 0.600987 0.514472 0.480170
Si Si2 0.557913 0.829142 0.305421
Si Si3 0.070231 0.808146 0.393936
Si Si4 0.382064 0.890891 0.049163
Si Si5 0.709647 0.337531 0.904851
Si Si6 0.087106 0.279914 0.841458
Si Si7 0.962397 0.404398 0.306515
Si Si8 0.699818 0.930935 0.389838
O O1 0.500000 0.500000 0.500000
O O2 0.563989 0.695029 0.456372
O O3 0.656889 0.466288 0.724105
O O4 0.676586 0.413547 0.210371
O O5 0.667222 0.807438 0.247722
O O6 0.500000 0.000000 0.500000
O O7 0.497107 0.832241 0.071019
O O8 0.172877 0.762014 0.211722
O O9 0.093780 0.690777 0.608272
O O10 0.004152 0.741023 0.251689
O O11 0.000000 0.000000 0.500000
O O12 0.329244 0.034447 0.300267
O O13 0.343805 0.771784 0.128121
O O14 0.352465 0.927026 0.770703
O O15 0.091732 0.446350 0.841360
O O16 0.184706 0.137580 0.678481
O O17 0.067504 0.270455 0.139879
O O18 0.000000 0.500000 0.500000
#
# Coordination Sequence:
#
# PCOD9040760 Si02
#       8
#     2   2   2   2   2   2   2   2
#     4  12  27  50  76 107 150 195 242 308 367 440
#     4  10  25  46  72 106 142 185 239 305 368 434
#     4  11  26  45  71 106 149 193 244 308 359 442
#     4  11  24  46  67 106 140 183 239 301 358 436
#     4  12  28  45  78 106 150 197 249 291 380 438
#     4  10  23  43  68  98 136 191 234 302 360 426
#     4   9  22  43  66  92 140 175 239 295 361 418
#     4  11  25  41  74  99 140 185 242 294 366 429
#
# _framework density 23.686778
#
# number of rings (size 3 to 8) (size 9 to 14) (size 15 to 20)
#    0.000    1.250    1.250    2.250   10.500    4.500 
#    0.000    0.000    0.000    0.000    0.000    0.000 
#    0.000    0.000    0.000    0.000    0.000    0.000 
#
# Total GULP energy -89182.570586 kJ/mol
# GULP energy per Si atom -5573.910662 kJ/mol
# Density = 2.363287 g / cm^3
# Si number density = 23.686778 Si / 1000 Ang^3
#
#
#
# Elastic Constant Matrix: (Units=GPa)
#
#
# Indices 1 2 3 4 5 6 
#
# 1 84.3337 24.4852 24.6758 12.9092 -7.4061 -5.9573
# 2 24.4852 110.0526 11.3255 -1.7926 -4.9971 22.6417
# 3 24.6758 11.3255 89.8592 3.6075 -19.8811 -7.9046
# 4 12.9092 -1.7926 3.6075 33.6098 -3.5531 -3.9662
# 5 -7.4061 -4.9971 -19.8811 -3.5531 29.8508 -0.3033
# 6 -5.9573 22.6417 -7.9046 -3.9662 -0.3033 37.0734
#
#
#
# Elastic Compliance Matrix: (Units=1/GPa)
#
#
# Indices 1 2 3 4 5 6 
#
# 1 0.014916 -0.003799 -0.002990 -0.005141 0.000497 0.003533
# 2 -0.003799 0.011696 -0.001093 0.001313 0.000364 -0.007843
# 3 -0.002990 -0.001093 0.014281 0.000881 0.008726 0.003398
# 4 -0.005141 0.001313 0.000881 0.032304 0.003397 0.002043
# 5 0.000497 0.000364 0.008726 0.003397 0.039925 0.002408
# 6 0.003533 -0.007843 0.003398 0.002043 0.002408 0.033294
#
#
# Mechanical properties :
#
#
# Convention : Reuss Voigt Hill
#
# Bulk Modulus (GPa) = 39.79409 45.02429 42.40919
# Shear Modulus (GPa) = 29.31599 35.02407 32.17003
#
# Velocity S-wave (km/s) = 3.52184 3.84947 3.68930
# Velocity P-wave (km/s) = 5.77706 6.22956 6.00757
#
# Compressibility (1/GPa) = 0.02512936
#
# Stress axis : x y z
#
# Youngs Moduli (GPa) = 67.04339 85.50118 70.02067
#
# Poissons Ratio (x) = 0.32482 0.20935
# Poissons Ratio (y) = 0.25470 0.07653
# Poissons Ratio (z) = 0.20045 0.09345
#
# Static dielectric constant tensor:
#      x y z
#    x 2.032880 -0.021230 0.073450 
#    y -0.021230 2.074170 -0.116560 
#    z 0.073450 -0.116560 2.184070 
# 
# From -- ./inp_files/90696.got.cif
#   From: 2010.05.17/outbox.cif.g08.bks.cpg/sg2_46_cif.got.tgz:90696.got - 2010.06.03 11:33:40.
