data_PCOD9040133
_publ_section_title
;
Structure prediction by ZEFSAII (Michael W. Deem and Ramdas Pophale) SiO2 
 PCOD9040133
Probable space group: P -1
;
_chemical_formula_sum "Si O2"
_cell_formula_units_Z 16
_cell_length_a 11.733860
_cell_length_b 9.103520
_cell_length_c 16.139197
_cell_angle_alpha 110.479241
_cell_angle_beta 156.918951
_cell_angle_gamma 72.823200
_cell_volume 631.486484
_symmetry_space_group_name_H-M "P -1"
_symmetry_group_IT_number 2
_symmetry_cell_setting 'triclinic'
loop_
_space_group_symop_operation_xyz
x,y,z
-x,-y,-z
loop_
_atom_site_type_symbol
_atom_site_label
_atom_site_fract_x
_atom_site_fract_y
_atom_site_fract_z
Si Si1 0.114200 0.204506 0.781749
Si Si2 0.895082 0.493824 0.273428
Si Si3 0.511047 0.391212 0.856555
Si Si4 0.771368 0.982063 0.767985
Si Si5 0.312200 0.056922 0.602954
Si Si6 0.715382 0.851703 0.942644
Si Si7 0.413334 0.499780 0.246081
Si Si8 0.592456 0.334947 0.564108
O O1 0.843045 0.276454 0.662150
O O2 0.172584 0.334705 0.775844
O O3 0.996452 0.037846 0.633221
O O4 0.334176 0.177615 0.998580
O O5 0.712075 0.487421 0.234030
O O6 0.234160 0.481644 0.509792
O O7 0.752035 0.375331 0.085849
O O8 0.325913 0.232906 0.677981
O O9 0.672908 0.452781 0.894267
O O10 0.663376 0.804290 0.637211
O O11 0.489225 0.055499 0.633546
O O12 0.000000 0.000000 0.000000
O O13 0.957799 0.067813 0.836673
O O14 0.493047 0.960261 0.771013
O O15 0.675692 0.683592 0.837285
O O16 0.304801 0.615226 0.265323
O O17 0.500000 0.500000 0.500000
#
# Coordination Sequence:
#
# PCOD9040133 Si02
#       8
#     2   2   2   2   2   2   2   2
#     4  11  23  41  66  95 136 170 209 267 328 393
#     4  11  24  48  66  92 136 166 223 281 321 385
#     4  11  27  43  71  97 120 178 226 272 329 379
#     4   9  21  37  61  92 137 168 205 262 321 387
#     4  10  23  43  63  95 130 168 219 265 322 387
#     4  11  23  41  63  95 134 176 206 262 329 385
#     4  12  24  43  68  97 134 171 220 266 332 390
#     4  11  22  38  66 103 133 174 212 266 330 389
#
# _framework density 25.337043000000001
#
# number of rings (size 3 to 8) (size 9 to 14) (size 15 to 20)
#    0.000    1.250    3.750    1.875    7.000    3.000 
#    0.000    0.625    0.000    0.000    0.000    0.000 
#    0.000    0.000    0.000    0.000    0.000    0.000 
#
# Total GULP energy -89638.040700 kJ/mol
# GULP energy per Si atom -5602.377544 kJ/mol
# Density = 2.527938 g / cm^3
# Si number density = 25.337043 Si / 1000 Ang^3
#
#
#
# Elastic Constant Matrix: (Units=GPa)
#
#
# Indices 1 2 3 4 5 6 
#
# 1 80.2545 17.6253 13.4411 4.6295 -13.2481 4.1096
# 2 17.6253 78.7980 26.6493 21.9558 -11.9077 4.8155
# 3 13.4411 26.6493 109.2562 22.2297 -8.6138 -8.6687
# 4 4.6295 21.9558 22.2297 52.1795 -0.2762 -2.4209
# 5 -13.2481 -11.9077 -8.6138 -0.2762 36.8508 -3.7230
# 6 4.1096 4.8155 -8.6687 -2.4209 -3.7230 28.7039
#
#
#
# Elastic Compliance Matrix: (Units=1/GPa)
#
#
# Indices 1 2 3 4 5 6 
#
# 1 0.013801 -0.002079 -0.001001 0.000032 0.003913 -0.001419
# 2 -0.002079 0.016353 -0.002539 -0.005746 0.003573 -0.003234
# 3 -0.001001 -0.002539 0.011020 -0.003350 0.001759 0.003843
# 4 0.000032 -0.005746 -0.003350 0.023069 -0.002294 0.001596
# 5 0.003913 0.003573 0.001759 -0.002294 0.030407 0.003122
# 6 -0.001419 -0.003234 0.003843 0.001596 0.003122 0.037284
#
#
# Mechanical properties :
#
#
# Convention : Reuss Voigt Hill
#
# Bulk Modulus (GPa) = 33.40431 42.63780 38.02106
# Shear Modulus (GPa) = 32.64721 37.58637 35.11679
#
# Velocity S-wave (km/s) = 3.59349 3.85574 3.72692
# Velocity P-wave (km/s) = 5.51635 6.05699 5.79298
#
# Compressibility (1/GPa) = 0.02993625
#
# Stress axis : x y z
#
# Youngs Moduli (GPa) = 72.45627 61.15089 90.74023
#
# Poissons Ratio (x) = 0.12715 0.09086
# Poissons Ratio (y) = 0.15066 0.23036
# Poissons Ratio (z) = 0.07256 0.15524
#
# Static dielectric constant tensor:
#      x y z
#    x 2.053710 0.049820 -0.003770 
#    y 0.049820 1.980910 -0.017690 
#    z -0.003770 -0.017690 2.004010 
# 
# From -- ./inp_files/206088.got.cif
#   From: 2010.05.17/outbox.cif.g08.bks.cpg/sg2_104_cif.got.tgz:206088.got - 2010.06.03 11:33:40.
