data_PCOD9040545
_publ_section_title
;
Structure prediction by ZEFSAII (Michael W. Deem and Ramdas Pophale) SiO2 
 PCOD9040545
Probable space group: P -1
;
_chemical_formula_sum "Si O2"
_cell_formula_units_Z 16
_cell_length_a 14.395138
_cell_length_b 14.872430
_cell_length_c 7.468733
_cell_angle_alpha 107.893451
_cell_angle_beta 92.982355
_cell_angle_gamma 28.691634
_cell_volume 642.444500
_symmetry_space_group_name_H-M "P -1"
_symmetry_group_IT_number 2
_symmetry_cell_setting 'triclinic'
loop_
_space_group_symop_operation_xyz
x,y,z
-x,-y,-z
loop_
_atom_site_type_symbol
_atom_site_label
_atom_site_fract_x
_atom_site_fract_y
_atom_site_fract_z
Si Si1 0.534515 0.859316 0.463827
Si Si2 0.670922 0.455013 0.334488
Si Si3 0.708328 0.709767 0.013792
Si Si4 0.775829 0.837713 0.920433
Si Si5 0.961146 0.754360 0.355911
Si Si6 0.053834 0.119055 0.898378
Si Si7 0.168669 0.501768 0.505937
Si Si8 0.224760 0.791752 0.512186
O O1 0.688652 0.688781 0.202098
O O2 0.651583 0.747317 0.600249
O O3 0.500000 0.000000 0.500000
O O4 0.291738 0.038171 0.554244
O O5 0.661829 0.576934 0.430721
O O6 0.443976 0.624257 0.330466
O O7 0.714942 0.357658 0.463487
O O8 0.869011 0.255606 0.096718
O O9 0.460470 0.939359 0.058756
O O10 0.792414 0.739577 0.012687
O O11 0.862920 0.498068 0.774253
O O12 0.966382 0.639854 0.677419
O O13 0.826731 0.895849 0.032257
O O14 0.043326 0.751542 0.218908
O O15 0.017460 0.727028 0.544484
O O16 0.202284 0.894873 0.722973
O O17 0.000000 0.000000 0.500000
#
# Coordination Sequence:
#
# PCOD9040545 Si02
#       8
#     2   2   2   2   2   2   2   2
#     4  12  26  42  65  94 135 184 231 284 334 388
#     4  10  24  45  70 100 135 173 215 275 339 400
#     4  11  24  42  64  98 136 181 232 279 327 390
#     4  10  23  43  67  95 137 181 230 277 331 393
#     4  12  26  41  66 100 133 184 229 276 333 393
#     4  11  24  45  67 101 136 177 221 275 335 399
#     4  11  24  45  68  98 139 178 228 281 333 404
#     4  11  24  46  73 102 133 169 217 276 340 412
#
# _framework density 24.904875000000001
#
# number of rings (size 3 to 8) (size 9 to 14) (size 15 to 20)
#    0.000    1.000    1.250    4.875    7.000    3.000 
#    4.500    0.000    0.000    0.000    0.000    0.000 
#    0.000    0.000    0.000    0.000    0.000    0.000 
#
# Total GULP energy -89233.754515 kJ/mol
# GULP energy per Si atom -5577.109657 kJ/mol
# Density = 2.484819 g / cm^3
# Si number density = 24.904875 Si / 1000 Ang^3
#
#
#
# Elastic Constant Matrix: (Units=GPa)
#
#
# Indices 1 2 3 4 5 6 
#
# 1 109.0802 22.8787 58.6001 9.5408 -11.9841 -6.2887
# 2 22.8787 145.1194 59.2459 -0.2126 -5.4357 -19.0833
# 3 58.6001 59.2459 184.3029 -11.1862 3.3568 3.3959
# 4 9.5408 -0.2126 -11.1862 45.8155 3.9148 -5.1979
# 5 -11.9841 -5.4357 3.3568 3.9148 51.6376 16.5579
# 6 -6.2887 -19.0833 3.3959 -5.1979 16.5579 27.0222
#
#
#
# Elastic Compliance Matrix: (Units=1/GPa)
#
#
# Indices 1 2 3 4 5 6 
#
# 1 0.012105 -0.000016 -0.004139 -0.003722 0.003139 0.000687
# 2 -0.000016 0.009082 -0.003013 0.000292 -0.001330 0.007660
# 3 -0.004139 -0.003013 0.007938 0.002538 -0.001035 -0.002967
# 4 -0.003722 0.000292 0.002538 0.024424 -0.005031 0.006802
# 5 0.003139 -0.001330 -0.001035 -0.005031 0.025809 -0.016861
# 6 0.000687 0.007660 -0.002967 0.006802 -0.016861 0.054589
#
#
# Mechanical properties :
#
#
# Convention : Reuss Voigt Hill
#
# Bulk Modulus (GPa) = 67.62756 79.99469 73.81112
# Shear Modulus (GPa) = 32.63424 44.74690 38.69057
#
# Velocity S-wave (km/s) = 3.62381 4.24336 3.94577
# Velocity P-wave (km/s) = 6.68750 7.49653 7.10354
#
# Compressibility (1/GPa) = 0.01478687
#
# Stress axis : x y z
#
# Youngs Moduli (GPa) = 82.61347 110.11392 125.97320
#
# Poissons Ratio (x) = 0.00177 0.52144
# Poissons Ratio (y) = 0.00132 0.37961
# Poissons Ratio (z) = 0.34196 0.33182
#
# Static dielectric constant tensor:
#      x y z
#    x 1.997940 0.004580 0.029330 
#    y 0.004580 1.695480 0.236960 
#    z 0.029330 0.236960 1.779960 
# 
# From -- ./inp_files/315428.got.cif
#   From: 2010.05.17/outbox.cif.g08.bks.cpg/sg2_158_cif.got.tgz:315428.got - 2010.06.03 11:33:40.
