data_PCOD9040414
_publ_section_title
;
Structure prediction by ZEFSAII (Michael W. Deem and Ramdas Pophale) SiO2 
 PCOD9040414
Probable space group: P -1
;
_chemical_formula_sum "Si O2"
_cell_formula_units_Z 16
_cell_length_a 14.550051
_cell_length_b 20.496778
_cell_length_c 8.989535
_cell_angle_alpha 61.857274
_cell_angle_beta 71.267666
_cell_angle_gamma 20.750537
_cell_volume 773.392832
_symmetry_space_group_name_H-M "P -1"
_symmetry_group_IT_number 2
_symmetry_cell_setting 'triclinic'
loop_
_space_group_symop_operation_xyz
x,y,z
-x,-y,-z
loop_
_atom_site_type_symbol
_atom_site_label
_atom_site_fract_x
_atom_site_fract_y
_atom_site_fract_z
Si Si1 0.129819 0.331089 0.175200
Si Si2 0.767277 0.687333 0.541845
Si Si3 0.294824 0.787760 0.488661
Si Si4 0.145579 0.960603 0.058006
Si Si5 0.259902 0.456741 0.283931
Si Si6 0.390741 0.074738 0.809204
Si Si7 0.559058 0.449960 0.845144
Si Si8 0.675729 0.542530 0.074824
O O1 0.137206 0.331837 0.348596
O O2 0.955789 0.383160 0.158129
O O3 0.438096 0.105404 0.184208
O O4 0.000000 0.500000 0.000000
O O5 0.688682 0.663744 0.667949
O O6 0.550268 0.889666 0.342248
O O7 0.000000 0.500000 0.500000
O O8 0.229002 0.864813 0.275606
O O9 0.514988 0.686888 0.554195
O O10 0.438389 0.605291 0.645764
O O11 0.000000 0.000000 0.500000
O O12 0.431069 0.770081 0.024588
O O13 0.000000 0.000000 0.000000
O O14 0.900055 0.197598 0.934567
O O15 0.944842 0.694515 0.252613
O O16 0.311198 0.467429 0.099521
O O17 0.500000 0.000000 0.000000
O O18 0.410426 0.481329 0.823229
O O19 0.500000 0.500000 0.000000
#
# Coordination Sequence:
#
# PCOD9040414 Si02
#       8
#     2   2   2   2   2   2   2   2
#     4  12  23  43  67  97 138 179 223 287 344 404
#     4  10  23  43  66  96 135 176 227 280 337 411
#     4  12  24  44  74 100 139 182 231 290 349 415
#     4  10  24  44  68 100 140 177 232 294 347 416
#     4  11  23  45  68 100 137 181 232 280 350 417
#     4  11  23  44  68  99 137 182 231 286 339 413
#     4  11  22  45  70  99 137 180 233 285 347 420
#     4  11  23  42  67  99 137 177 230 285 351 409
#
# _framework density 20.688064000000001
#
# number of rings (size 3 to 8) (size 9 to 14) (size 15 to 20)
#    0.000    1.000    5.000    1.875    3.500    4.000 
#    2.250    0.000    0.000    0.000    0.000    0.000 
#    0.000    0.000    0.000    0.000    0.000    0.000 
#
# Total GULP energy -89200.979761 kJ/mol
# GULP energy per Si atom -5575.061235 kJ/mol
# Density = 2.064098 g / cm^3
# Si number density = 20.688064 Si / 1000 Ang^3
#
#
#
# Elastic Constant Matrix: (Units=GPa)
#
#
# Indices 1 2 3 4 5 6 
#
# 1 65.1851 10.2212 36.3025 -9.0973 17.3539 3.7637
# 2 10.2212 153.8284 46.7978 -17.0191 6.0159 10.8022
# 3 36.3025 46.7978 120.9549 -13.4094 16.5255 9.1455
# 4 -9.0973 -17.0191 -13.4094 35.7185 10.8069 0.2705
# 5 17.3539 6.0159 16.5255 10.8069 50.5859 -5.6976
# 6 3.7637 10.8022 9.1455 0.2705 -5.6976 32.4043
#
#
#
# Elastic Compliance Matrix: (Units=1/GPa)
#
#
# Indices 1 2 3 4 5 6 
#
# 1 0.020851 0.001275 -0.004817 0.006374 -0.007413 -0.002844
# 2 0.001275 0.007833 -0.002637 0.003546 -0.001525 -0.002313
# 3 -0.004817 -0.002637 0.011566 0.002677 -0.002645 -0.002313
# 4 0.006374 0.003546 0.002677 0.035899 -0.011720 -0.005038
# 5 -0.007413 -0.001525 -0.002645 -0.011720 0.026638 0.006898
# 6 -0.002844 -0.002313 -0.002313 -0.005038 0.006898 0.033869
#
#
# Mechanical properties :
#
#
# Convention : Reuss Voigt Hill
#
# Bulk Modulus (GPa) = 35.85174 58.51237 47.18206
# Shear Modulus (GPa) = 31.58360 40.18487 35.88424
#
# Velocity S-wave (km/s) = 3.91149 4.41207 4.16930
# Velocity P-wave (km/s) = 6.14548 7.36883 6.78479
#
# Compressibility (1/GPa) = 0.02789265
#
# Stress axis : x y z
#
# Youngs Moduli (GPa) = 47.95951 127.67244 86.45746
#
# Poissons Ratio (x) = -0.16275 0.41644
# Poissons Ratio (y) = -0.06114 0.22796
# Poissons Ratio (z) = 0.23101 0.33662
#
# Static dielectric constant tensor:
#      x y z
#    x 1.845240 -0.090800 -0.049560 
#    y -0.090800 1.785380 -0.018320 
#    z -0.049560 -0.018320 1.767340 
# 
# From -- ./inp_files/307388.got.cif
#   From: 2010.05.17/outbox.cif.g08.bks.cpg/sg2_154_cif.got.tgz:307388.got - 2010.06.03 11:33:40.
