data_PCOD9040297
_publ_section_title
;
Structure prediction by ZEFSAII (Michael W. Deem and Ramdas Pophale) SiO2 
 PCOD9040297
Probable space group: P -1
;
_chemical_formula_sum "Si O2"
_cell_formula_units_Z 15
_cell_length_a 7.667701
_cell_length_b 12.613211
_cell_length_c 12.097733
_cell_angle_alpha 128.755582
_cell_angle_beta 79.105787
_cell_angle_gamma 62.759973
_cell_volume 590.359608
_symmetry_space_group_name_H-M "P -1"
_symmetry_group_IT_number 2
_symmetry_cell_setting 'triclinic'
loop_
_space_group_symop_operation_xyz
x,y,z
-x,-y,-z
loop_
_atom_site_type_symbol
_atom_site_label
_atom_site_fract_x
_atom_site_fract_y
_atom_site_fract_z
Si Si1 0.197864 0.266102 0.281368
Si Si2 0.241045 0.702712 0.727096
Si Si3 0.250000 0.599144 0.893344
Si Si4 0.473109 0.863131 0.059591
Si Si5 0.992512 0.536717 0.154490
Si Si6 0.500000 0.000000 0.500000
Si Si7 0.074792 0.984705 0.756490
Si Si8 0.701424 0.179613 0.608142
O O1 0.000000 0.500000 0.500000
O O2 0.005794 0.257559 0.246868
O O3 0.380912 0.075750 0.224058
O O4 0.400295 0.206054 0.124541
O O5 0.500000 0.500000 0.500000
O O6 0.299931 0.664630 0.824453
O O7 0.186484 0.880682 0.795047
O O8 0.510269 0.415999 0.815200
O O9 0.151595 0.510806 0.803545
O O10 0.998531 0.816158 0.123890
O O11 0.203876 0.935894 0.166797
O O12 0.704681 0.654308 0.963890
O O13 0.813732 0.771692 0.350313
O O14 0.000000 0.500000 0.000000
O O15 0.555972 0.122494 0.613945
O O16 0.269505 0.827350 0.533262
O O17 0.000000 0.000000 0.500000
#
# Coordination Sequence:
#
# PCOD9040297 Si02
#       8
#     2   2   2   2   2   1   2   2
#     4  10  23  43  65  95 135 177 217 275 346 403
#     4  11  22  43  66  99 132 169 226 276 337 412
#     4  11  24  44  68  94 132 176 222 278 340 405
#     4  10  24  41  63 100 132 168 228 272 335 415
#     4  11  24  44  67  95 130 174 228 277 331 402
#     4  10  26  46  68  96 132 182 232 280 338 386
#     4  11  25  41  69  99 134 176 218 281 349 398
#     4  11  26  47  68 102 138 178 236 280 335 414
#
# _framework density 25.408241
#
# number of rings (size 3 to 8) (size 9 to 14) (size 15 to 20)
#    0.000    1.333    2.667    1.200    7.467    2.667 
#    0.000    0.000    0.000    0.000    0.000    0.000 
#    0.000    0.000    0.000    0.000    0.000    0.000 
#
# Total GULP energy -83620.013480 kJ/mol
# GULP energy per Si atom -5574.667565 kJ/mol
# Density = 2.535041 g / cm^3
# Si number density = 25.408241 Si / 1000 Ang^3
#
#
#
# Elastic Constant Matrix: (Units=GPa)
#
#
# Indices 1 2 3 4 5 6 
#
# 1 64.4937 6.8594 10.6076 7.7912 -16.2306 9.1691
# 2 6.8594 106.9359 48.4081 36.0662 5.4049 -2.6716
# 3 10.6076 48.4081 153.4577 48.9458 -3.8202 8.9236
# 4 7.7912 36.0662 48.9458 66.1313 4.5826 -9.4628
# 5 -16.2306 5.4049 -3.8202 4.5826 40.6250 8.2353
# 6 9.1691 -2.6716 8.9236 -9.4628 8.2353 28.8855
#
#
#
# Elastic Compliance Matrix: (Units=1/GPa)
#
#
# Indices 1 2 3 4 5 6 
#
# 1 0.020771 -0.001098 0.001768 -0.005762 0.011793 -0.012490
# 2 -0.001098 0.012151 -0.002533 -0.004268 -0.002107 0.001457
# 3 0.001768 -0.002533 0.010264 -0.007852 0.004478 -0.007815
# 4 -0.005762 -0.004268 -0.007852 0.026681 -0.008529 0.015032
# 5 0.011793 -0.002107 0.004478 -0.008529 0.034637 -0.017991
# 6 -0.012490 0.001457 -0.007815 0.015032 -0.017991 0.051187
#
#
# Mechanical properties :
#
#
# Convention : Reuss Voigt Hill
#
# Bulk Modulus (GPa) = 25.34195 50.73750 38.03973
# Shear Modulus (GPa) = 28.97374 44.39584 36.68479
#
# Velocity S-wave (km/s) = 3.38054 4.18461 3.80388
# Velocity P-wave (km/s) = 5.02324 6.58485 5.85633
#
# Compressibility (1/GPa) = 0.03946026
#
# Stress axis : x y z
#
# Youngs Moduli (GPa) = 48.14431 82.29854 97.43156
#
# Poissons Ratio (x) = 0.09033 -0.17226
# Poissons Ratio (y) = 0.05284 0.24679
# Poissons Ratio (z) = -0.08512 0.20846
#
# Static dielectric constant tensor:
#      x y z
#    x 2.064960 -0.038230 -0.020590 
#    y -0.038230 2.094530 0.063610 
#    z -0.020590 0.063610 2.059140 
# 
# From -- ./inp_files/331896.got.cif
#   From: 2010.05.17/outbox.cif.g08.bks.cpg/sg2_166_cif.got.tgz:331896.got - 2010.06.03 11:33:40.
