data_PCOD9040877
_publ_section_title
;
Structure prediction by ZEFSAII (Michael W. Deem and Ramdas Pophale) SiO2 
 PCOD9040877
Probable space group: P -1
;
_chemical_formula_sum "Si O2"
_cell_formula_units_Z 14
_cell_length_a 11.456266
_cell_length_b 9.014229
_cell_length_c 6.891958
_cell_angle_alpha 108.816579
_cell_angle_beta 105.481466
_cell_angle_gamma 116.553030
_cell_volume 526.829672
_symmetry_space_group_name_H-M "P -1"
_symmetry_group_IT_number 2
_symmetry_cell_setting 'triclinic'
loop_
_space_group_symop_operation_xyz
x,y,z
-x,-y,-z
loop_
_atom_site_type_symbol
_atom_site_label
_atom_site_fract_x
_atom_site_fract_y
_atom_site_fract_z
Si Si1 0.309509 0.232929 0.301602
Si Si2 0.400208 0.837589 0.214931
Si Si3 0.122248 0.835237 0.962716
Si Si4 0.109891 0.940407 0.553046
Si Si5 0.411727 0.277276 0.923466
Si Si6 0.092145 0.584037 0.378758
Si Si7 0.354745 0.609212 0.432042
O O1 0.297539 0.406071 0.416685
O O2 0.467631 0.281225 0.459532
O O3 0.344812 0.259358 0.096952
O O4 0.159041 0.021535 0.175432
O O5 0.493996 0.812031 0.087192
O O6 0.315752 0.634172 0.207747
O O7 0.500000 0.000000 0.500000
O O8 0.276744 0.856212 0.075210
O O9 0.107679 0.882455 0.753756
O O10 0.984729 0.617403 0.855591
O O11 0.082116 0.751001 0.360812
O O12 0.272800 0.134027 0.663447
O O13 0.000000 0.000000 0.500000
O O14 0.500000 0.500000 0.000000
O O15 0.266435 0.678067 0.535426
O O16 0.000000 0.500000 0.500000
#
# Coordination Sequence:
#
# PCOD9040877 Si02
#       7
#     2   2   2   2   2   2   2
#     4  10  23  43  69 106 134 188 235 293 348 417
#     4  12  24  43  69 105 144 182 238 297 355 409
#     4  10  24  42  70  99 135 188 231 286 353 416
#     4  10  24  44  67 103 142 180 239 288 349 422
#     4  11  24  41  73 103 136 189 239 289 353 418
#     4  10  24  45  67 102 138 191 230 290 355 420
#     4  11  23  43  68 100 149 177 237 294 352 421
#
# _framework density 26.574054
#
# number of rings (size 3 to 8) (size 9 to 14) (size 15 to 20)
#    0.000    1.429    2.857    0.857    6.000    3.429 
#    0.000    2.857    0.000    0.000    0.000    0.000 
#    0.000    0.000    0.000    0.000    0.000    0.000 
#
# Total GULP energy -78235.026073 kJ/mol
# GULP energy per Si atom -5588.216148 kJ/mol
# Density = 2.651357 g / cm^3
# Si number density = 26.574054 Si / 1000 Ang^3
#
#
#
# Elastic Constant Matrix: (Units=GPa)
#
#
# Indices 1 2 3 4 5 6 
#
# 1 113.5552 34.8886 18.0524 3.5176 26.3330 -17.2122
# 2 34.8886 202.9991 51.9535 37.2552 31.3303 -25.2769
# 3 18.0524 51.9535 101.0952 7.3919 16.1262 -10.7640
# 4 3.5176 37.2552 7.3919 53.0922 1.2286 8.5955
# 5 26.3330 31.3303 16.1262 1.2286 36.0838 -10.0360
# 6 -17.2122 -25.2769 -10.7640 8.5955 -10.0360 48.5507
#
#
#
# Elastic Compliance Matrix: (Units=1/GPa)
#
#
# Indices 1 2 3 4 5 6 
#
# 1 0.010928 -0.000302 -0.000405 -0.000674 -0.006862 0.002328
# 2 -0.000302 0.007698 -0.002459 -0.005502 -0.004215 0.003458
# 3 -0.000405 -0.002459 0.011707 0.000084 -0.002634 0.000612
# 4 -0.000674 -0.005502 0.000084 0.023766 0.002540 -0.006767
# 5 -0.006862 -0.004215 -0.002634 0.002540 0.038087 0.002212
# 6 0.002328 0.003458 0.000612 -0.006767 0.002212 0.025014
#
#
# Mechanical properties :
#
#
# Convention : Reuss Voigt Hill
#
# Bulk Modulus (GPa) = 41.66345 69.71538 55.68941
# Shear Modulus (GPa) = 38.01330 48.39567 43.20448
#
# Velocity S-wave (km/s) = 3.78625 4.27214 4.03651
# Velocity P-wave (km/s) = 5.90140 7.11521 6.53654
#
# Compressibility (1/GPa) = 0.02400186
#
# Stress axis : x y z
#
# Youngs Moduli (GPa) = 91.50474 129.89618 85.41926
#
# Poissons Ratio (x) = 0.03924 0.03455
# Poissons Ratio (y) = 0.02764 0.21008
# Poissons Ratio (z) = 0.03701 0.31947
#
# Static dielectric constant tensor:
#      x y z
#    x 2.103020 0.007640 -0.049820 
#    y 0.007640 2.165260 0.032480 
#    z -0.049820 0.032480 2.301470 
# 
# From -- ./inp_files/240698.got.cif
#   From: 2010.05.17/outbox.cif.g08.bks.cpg/sg2_121_cif.got.tgz:240698.got - 2010.06.03 11:33:40.
