data_PCOD9040575
_publ_section_title
;
Structure prediction by ZEFSAII (Michael W. Deem and Ramdas Pophale) SiO2 
 PCOD9040575
Probable space group: P -1
;
_chemical_formula_sum "Si O2"
_cell_formula_units_Z 14
_cell_length_a 19.941711
_cell_length_b 7.866530
_cell_length_c 5.028432
_cell_angle_alpha 116.706640
_cell_angle_beta 53.346056
_cell_angle_gamma 124.342523
_cell_volume 514.909456
_symmetry_space_group_name_H-M "P -1"
_symmetry_group_IT_number 2
_symmetry_cell_setting 'triclinic'
loop_
_space_group_symop_operation_xyz
x,y,z
-x,-y,-z
loop_
_atom_site_type_symbol
_atom_site_label
_atom_site_fract_x
_atom_site_fract_y
_atom_site_fract_z
Si Si1 0.995259 0.263782 0.355892
Si Si2 0.840010 0.533980 0.555398
Si Si3 0.707103 0.110616 0.592518
Si Si4 0.110944 0.835512 0.961909
Si Si5 0.324826 0.438668 0.288383
Si Si6 0.436696 0.620559 0.666609
Si Si7 0.391121 0.073713 0.802296
O O1 0.090439 0.298402 0.295395
O O2 0.033105 0.826951 0.933164
O O3 0.000000 0.500000 0.500000
O O4 0.915108 0.130886 0.657904
O O5 0.763996 0.335438 0.749446
O O6 0.888170 0.398719 0.199826
O O7 0.779887 0.605923 0.554363
O O8 0.788237 0.029565 0.302573
O O9 0.672701 0.106897 0.371186
O O10 0.623854 0.988331 0.898064
O O11 0.360473 0.496485 0.542299
O O12 0.389354 0.619957 0.057930
O O13 0.347914 0.245027 0.014497
O O14 0.500000 0.500000 0.500000
O O15 0.507764 0.824207 0.489229
#
# Coordination Sequence:
#
# PCOD9040575 Si02
#       7
#     2   2   2   2   2   2   2
#     4  10  17  33  56  84 104 150 186 224 256 333
#     4   9  22  35  58  88 113 137 189 237 276 307
#     4  10  22  34  58  82 116 142 187 221 280 335
#     4   9  20  33  57  81 111 145 187 220 267 331
#     4  11  22  38  61  84 109 141 191 241 266 314
#     4  10  21  38  60  80 107 150 193 221 267 341
#     4  11  20  39  57  79 108 153 185 219 278 344
#
# _framework density 27.189247000000002
#
# number of rings (size 3 to 8) (size 9 to 14) (size 15 to 20)
#    0.857    1.143    0.000    6.857    0.000    4.571 
#    0.000    4.286    0.000    5.143    0.000    0.000 
#    0.000    0.000    0.000    0.000    0.000    0.000 
#
# Total GULP energy -78279.719952 kJ/mol
# GULP energy per Si atom -5591.408568 kJ/mol
# Density = 2.712736 g / cm^3
# Si number density = 27.189247 Si / 1000 Ang^3
#
#
#
# Elastic Constant Matrix: (Units=GPa)
#
#
# Indices 1 2 3 4 5 6 
#
# 1 146.5000 5.9780 32.8452 16.5553 12.2016 1.7532
# 2 5.9780 70.1970 28.7396 -2.4534 -0.2613 -0.6011
# 3 32.8452 28.7396 125.6020 -17.7955 18.1129 -1.4820
# 4 16.5553 -2.4534 -17.7955 35.4465 0.1321 7.8820
# 5 12.2016 -0.2613 18.1129 0.1321 45.2868 0.1594
# 6 1.7532 -0.6011 -1.4820 7.8820 0.1594 33.3168
#
#
#
# Elastic Compliance Matrix: (Units=1/GPa)
#
#
# Indices 1 2 3 4 5 6 
#
# 1 0.008119 0.000261 -0.002775 -0.005323 -0.001063 0.000718
# 2 0.000261 0.015871 -0.004101 -0.001168 0.001664 0.000359
# 3 -0.002775 -0.004101 0.011122 0.006840 -0.003741 -0.001033
# 4 -0.005323 -0.001168 0.006840 0.035813 -0.001385 -0.007903
# 5 -0.001063 0.001664 -0.003741 -0.001385 0.023877 0.000133
# 6 0.000718 0.000359 -0.001033 -0.007903 0.000133 0.031807
#
#
# Mechanical properties :
#
#
# Convention : Reuss Voigt Hill
#
# Bulk Modulus (GPa) = 45.70079 53.04717 49.37398
# Shear Modulus (GPa) = 33.98295 41.12577 37.55436
#
# Velocity S-wave (km/s) = 3.53918 3.89340 3.72051
# Velocity P-wave (km/s) = 5.79189 6.30588 6.05434
#
# Compressibility (1/GPa) = 0.02188146
#
# Stress axis : x y z
#
# Youngs Moduli (GPa) = 123.16860 63.00878 89.91160
#
# Poissons Ratio (x) = -0.01644 0.24953
# Poissons Ratio (y) = -0.03214 0.36872
# Poissons Ratio (z) = 0.34182 0.25839
#
# Static dielectric constant tensor:
#      x y z
#    x 2.161370 -0.070830 -0.079540 
#    y -0.070830 2.263080 -0.020330 
#    z -0.079540 -0.020330 2.050490 
# 
# From -- ./inp_files/104052.got.cif
#   From: 2010.05.17/outbox.cif.g08.bks.cpg/sg2_53_cif.got.tgz:104052.got - 2010.06.03 11:33:40.
