data_PCOD9040989
_publ_section_title
;
Structure prediction by ZEFSAII (Michael W. Deem and Ramdas Pophale) SiO2 
 PCOD9040989
Probable space group: P -1
;
_chemical_formula_sum "Si O2"
_cell_formula_units_Z 12
_cell_length_a 9.184714
_cell_length_b 12.072442
_cell_length_c 12.386047
_cell_angle_alpha 41.157078
_cell_angle_beta 140.080634
_cell_angle_gamma 138.752880
_cell_volume 528.232118
_symmetry_space_group_name_H-M "P -1"
_symmetry_group_IT_number 2
_symmetry_cell_setting 'triclinic'
loop_
_space_group_symop_operation_xyz
x,y,z
-x,-y,-z
loop_
_atom_site_type_symbol
_atom_site_label
_atom_site_fract_x
_atom_site_fract_y
_atom_site_fract_z
Si Si1 0.371137 0.397458 0.394331
Si Si2 0.967468 0.182630 0.814126
Si Si3 0.864138 0.366727 0.172808
Si Si4 0.432670 0.045965 0.672312
Si Si5 0.469205 0.527419 0.807280
Si Si6 0.747412 0.202682 0.443109
O O1 0.500000 0.500000 0.500000
O O2 0.301313 0.179160 0.529532
O O3 0.537786 0.459846 0.335905
O O4 0.121207 0.428821 0.211340
O O5 0.728700 0.166677 0.760747
O O6 0.887332 0.187597 0.640223
O O7 0.674485 0.156021 0.184624
O O8 0.000000 0.000000 0.000000
O O9 0.770133 0.643226 0.156949
O O10 0.926407 0.337494 0.354255
O O11 0.714431 0.493824 0.994240
O O12 0.379422 0.983428 0.562167
O O13 0.447754 0.707075 0.711142
#
# Coordination Sequence:
#
# PCOD9040989 Si02
#       6
#     2   2   2   2   2   2
#     4  12  26  46  67  96 141 181 224 273 335 405
#     4  12  22  41  66 106 134 168 224 278 334 391
#     4  10  24  45  67 102 133 180 221 271 342 401
#     4  10  24  43  69  95 136 177 221 274 341 384
#     4  12  24  42  71 103 133 176 227 279 333 397
#     4  10  23  43  70 102 132 176 223 281 335 388
#
# _framework density 22.717286999999999
#
# number of rings (size 3 to 8) (size 9 to 14) (size 15 to 20)
#    1.000    0.000    3.333    3.500    2.333    0.000 
#    0.000    2.500    0.000    0.000    0.000    0.000 
#    0.000    0.000    0.000    0.000    0.000    0.000 
#
# Total GULP energy -66996.215078 kJ/mol
# GULP energy per Si atom -5583.017923 kJ/mol
# Density = 2.266558 g / cm^3
# Si number density = 22.717287 Si / 1000 Ang^3
#
#
#
# Elastic Constant Matrix: (Units=GPa)
#
#
# Indices 1 2 3 4 5 6 
#
# 1 70.9196 36.7542 4.9436 8.5975 11.3567 -5.9290
# 2 36.7542 88.1037 29.0445 -18.0292 14.3675 -18.8563
# 3 4.9436 29.0445 106.5112 -14.5229 16.0448 -18.7043
# 4 8.5975 -18.0292 -14.5229 27.6341 1.5863 6.2297
# 5 11.3567 14.3675 16.0448 1.5863 45.5043 -2.2627
# 6 -5.9290 -18.8563 -18.7043 6.2297 -2.2627 39.1413
#
#
#
# Elastic Compliance Matrix: (Units=1/GPa)
#
#
# Indices 1 2 3 4 5 6 
#
# 1 0.022442 -0.012313 0.000521 -0.014655 -0.001388 -0.000031
# 2 -0.012313 0.022106 -0.001785 0.016368 -0.003594 0.005119
# 3 0.000521 -0.001785 0.011647 0.004118 -0.003622 0.003920
# 4 -0.014655 0.016368 0.004118 0.054158 -0.004914 -0.001270
# 5 -0.001388 -0.003594 -0.003622 -0.004914 0.024833 -0.001455
# 6 -0.000031 0.005119 0.003920 -0.001270 -0.001455 0.030001
#
#
# Mechanical properties :
#
#
# Convention : Reuss Voigt Hill
#
# Bulk Modulus (GPa) = 34.43281 45.22434 39.82858
# Shear Modulus (GPa) = 24.74999 35.44208 30.09604
#
# Velocity S-wave (km/s) = 3.30431 3.95414 3.64374
# Velocity P-wave (km/s) = 5.45416 6.38730 5.93909
#
# Compressibility (1/GPa) = 0.02904207
#
# Stress axis : x y z
#
# Youngs Moduli (GPa) = 44.56009 45.23597 85.86147
#
# Poissons Ratio (x) = 0.55699 -0.04477
# Poissons Ratio (y) = 0.54867 0.15323
# Poissons Ratio (z) = -0.02324 0.08073
#
# Static dielectric constant tensor:
#      x y z
#    x 1.878690 0.039740 -0.019380 
#    y 0.039740 1.851440 0.003360 
#    z -0.019380 0.003360 1.867540 
# 
# From -- ./inp_files/392246.got.cif
#   From: 2010.05.17/outbox.cif.g08.bks.cpg/sg2_197_cif.got.tgz:392246.got - 2010.06.03 11:33:40.
