data_PCOD9040769
_publ_section_title
;
Structure prediction by ZEFSAII (Michael W. Deem and Ramdas Pophale) SiO2 
 PCOD9040769
Probable space group: P -1
;
_chemical_formula_sum "Si O2"
_cell_formula_units_Z 14
_cell_length_a 16.504325
_cell_length_b 7.396179
_cell_length_c 12.991621
_cell_angle_alpha 41.045587
_cell_angle_beta 48.969611
_cell_angle_gamma 37.474807
_cell_volume 626.894105
_symmetry_space_group_name_H-M "P -1"
_symmetry_group_IT_number 2
_symmetry_cell_setting 'triclinic'
loop_
_space_group_symop_operation_xyz
x,y,z
-x,-y,-z
loop_
_atom_site_type_symbol
_atom_site_label
_atom_site_fract_x
_atom_site_fract_y
_atom_site_fract_z
Si Si1 0.265849 0.319360 0.266328
Si Si2 0.471752 0.380551 0.679869
Si Si3 0.476344 0.725359 0.096667
Si Si4 0.035041 0.646829 0.171875
Si Si5 0.169380 0.968900 0.639763
Si Si6 0.305179 0.856392 0.995076
Si Si7 0.932327 0.435528 0.177400
O O1 0.188073 0.405018 0.186960
O O2 0.234083 0.682304 0.164820
O O3 0.427196 0.032707 0.247227
O O4 0.210211 0.168682 0.451744
O O5 0.500000 0.500000 0.500000
O O6 0.524444 0.423483 0.726584
O O7 0.309405 0.622075 0.716087
O O8 0.353514 0.909286 0.040038
O O9 0.587374 0.411507 0.065125
O O10 0.500000 0.000000 0.000000
O O11 0.009004 0.429497 0.214179
O O12 0.931472 0.784481 0.293158
O O13 0.000000 0.000000 0.000000
O O14 0.089812 0.852666 0.695260
O O15 0.215723 0.204609 0.856947
O O16 0.000000 0.500000 0.000000
#
# Coordination Sequence:
#
# PCOD9040769 Si02
#       7
#     2   2   2   2   2   2   2
#     4  11  24  46  68 103 141 178 227 288 346 414
#     4  10  23  43  68  98 141 180 217 283 355 404
#     4  11  22  40  70  95 138 180 229 284 337 406
#     4  12  24  45  71  97 135 182 236 282 343 404
#     4  11  25  47  67  97 145 178 224 292 345 410
#     4  11  24  40  69 106 129 181 240 275 344 414
#     4  12  25  41  69 101 134 178 233 287 338 409
#
# _framework density 22.332319999999999
#
# number of rings (size 3 to 8) (size 9 to 14) (size 15 to 20)
#    0.000    0.857    4.286    2.143    4.000    0.571 
#    5.143    1.429    0.000    0.000    0.000    0.000 
#    0.000    0.000    0.000    0.000    0.000    0.000 
#
# Total GULP energy -78092.497031 kJ/mol
# GULP energy per Si atom -5578.035502 kJ/mol
# Density = 2.228149 g / cm^3
# Si number density = 22.332320 Si / 1000 Ang^3
#
#
#
# Elastic Constant Matrix: (Units=GPa)
#
#
# Indices 1 2 3 4 5 6 
#
# 1 143.2592 16.6700 7.8461 -2.7745 8.4559 29.5445
# 2 16.6700 62.5896 8.3345 8.6680 1.5746 12.5287
# 3 7.8461 8.3345 92.8061 4.0411 1.0077 20.2915
# 4 -2.7745 8.6680 4.0411 19.2923 -1.1920 5.4339
# 5 8.4559 1.5746 1.0077 -1.1920 36.3668 -7.6788
# 6 29.5445 12.5287 20.2915 5.4339 -7.6788 49.2944
#
#
#
# Elastic Compliance Matrix: (Units=1/GPa)
#
#
# Indices 1 2 3 4 5 6 
#
# 1 0.008575 -0.001572 0.000579 0.003267 -0.003063 -0.005815
# 2 -0.001572 0.018103 -0.000539 -0.007535 -0.001241 -0.002800
# 3 0.000579 -0.000539 0.011986 -0.000789 -0.001589 -0.005304
# 4 0.003267 -0.007535 -0.000789 0.057566 0.000202 -0.006033
# 5 -0.003063 -0.001241 -0.001589 0.000202 0.029885 0.007438
# 6 -0.005815 -0.002800 -0.005304 -0.006033 0.007438 0.028490
#
#
# Mechanical properties :
#
#
# Convention : Reuss Voigt Hill
#
# Bulk Modulus (GPa) = 28.09119 40.48401 34.28760
# Shear Modulus (GPa) = 29.49216 38.71099 34.10158
#
# Velocity S-wave (km/s) = 3.63795 4.16794 3.91193
# Velocity P-wave (km/s) = 5.50021 6.42881 5.98255
#
# Compressibility (1/GPa) = 0.03559835
#
# Stress axis : x y z
#
# Youngs Moduli (GPa) = 116.61902 55.24019 83.43053
#
# Poissons Ratio (x) = 0.08685 -0.04828
# Poissons Ratio (y) = 0.18335 0.04498
# Poissons Ratio (z) = -0.06749 0.02978
#
# Static dielectric constant tensor:
#      x y z
#    x 2.203970 0.155890 -1.334830 
#    y 0.155890 2.062520 -1.002730 
#    z -1.334830 -1.002730 7.626710 
# 
# From -- ./inp_files/441559.got.cif
#   From: 2010.05.17/outbox.cif.g08.bks.cpg/sg2_221_cif.got.tgz:441559.got - 2010.06.03 11:33:40.
