data_PCOD9040712
_publ_section_title
;
Structure prediction by ZEFSAII (Michael W. Deem and Ramdas Pophale) SiO2 
 PCOD9040712
Probable space group: P -1
;
_chemical_formula_sum "Si O2"
_cell_formula_units_Z 12
_cell_length_a 9.497108
_cell_length_b 6.837859
_cell_length_c 9.037390
_cell_angle_alpha 107.825867
_cell_angle_beta 63.001723
_cell_angle_gamma 83.226520
_cell_volume 474.440071
_symmetry_space_group_name_H-M "P -1"
_symmetry_group_IT_number 2
_symmetry_cell_setting 'triclinic'
loop_
_space_group_symop_operation_xyz
x,y,z
-x,-y,-z
loop_
_atom_site_type_symbol
_atom_site_label
_atom_site_fract_x
_atom_site_fract_y
_atom_site_fract_z
Si Si1 0.000826 0.192883 0.158866
Si Si2 0.801252 0.477199 0.872745
Si Si3 0.098079 0.078362 0.640051
Si Si4 0.602738 0.295806 0.710307
Si Si5 0.332663 0.624544 0.768886
Si Si6 0.619377 0.951683 0.285662
O O1 0.007280 0.072393 0.282328
O O2 0.817848 0.365567 0.268617
O O3 0.139523 0.309977 0.100884
O O4 0.000000 0.000000 0.000000
O O5 0.661659 0.459387 0.820487
O O6 0.751815 0.393221 0.035060
O O7 0.970144 0.295222 0.695999
O O8 0.240076 0.912388 0.439196
O O9 0.203440 0.140544 0.738823
O O10 0.505142 0.432165 0.647773
O O11 0.459746 0.196583 0.810162
O O12 0.375727 0.842512 0.762610
O O13 0.500000 0.000000 0.500000
#
# Coordination Sequence:
#
# PCOD9040712 Si02
#       6
#     2   2   2   2   2   2
#     4  11  24  43  70  94 127 178 234 273 322 387
#     4  12  25  41  67 100 137 175 220 272 331 394
#     4  10  23  43  68  94 131 179 223 270 325 392
#     4  11  25  42  64 102 140 173 215 271 336 394
#     4  11  24  41  69  96 132 175 223 271 328 392
#     4   9  22  42  67  93 132 169 222 266 327 388
#
# _framework density 25.292974999999998
#
# number of rings (size 3 to 8) (size 9 to 14) (size 15 to 20)
#    0.000    1.333    1.667    2.500    4.667   11.333 
#    0.000    0.000    0.000    0.000    0.000    0.000 
#    0.000    0.000    0.000    0.000    0.000    0.000 
#
# Total GULP energy -66992.687448 kJ/mol
# GULP energy per Si atom -5582.723954 kJ/mol
# Density = 2.523541 g / cm^3
# Si number density = 25.292975 Si / 1000 Ang^3
#
#
#
# Elastic Constant Matrix: (Units=GPa)
#
#
# Indices 1 2 3 4 5 6 
#
# 1 144.2069 73.2651 33.9642 10.6784 -6.9504 51.8009
# 2 73.2651 163.3760 18.4116 -2.1276 -10.9391 47.7294
# 3 33.9642 18.4116 71.3626 6.9293 -17.1343 23.1806
# 4 10.6784 -2.1276 6.9293 35.3951 10.1347 -15.0932
# 5 -6.9504 -10.9391 -17.1343 10.1347 39.2075 8.3807
# 6 51.8009 47.7294 23.1806 -15.0932 8.3807 57.4887
#
#
#
# Elastic Compliance Matrix: (Units=1/GPa)
#
#
# Indices 1 2 3 4 5 6 
#
# 1 0.018285 0.000605 0.008086 -0.025484 0.019908 -0.029831
# 2 0.000605 0.010839 0.006770 -0.011905 0.012860 -0.017275
# 3 0.008086 0.006770 0.034642 -0.037401 0.037130 -0.042107
# 4 -0.025484 -0.011905 -0.037401 0.097265 -0.067120 0.083248
# 5 0.019908 0.012860 0.037130 -0.067120 0.081832 -0.073138
# 6 -0.029831 -0.017275 -0.042107 0.083248 -0.073138 0.108113
#
#
# Mechanical properties :
#
#
# Convention : Reuss Voigt Hill
#
# Bulk Modulus (GPa) = 10.56089 70.02525 40.29307
# Shear Modulus (GPa) = 14.22003 43.30523 28.76263
#
# Velocity S-wave (km/s) = 2.37367 4.14230 3.37587
# Velocity P-wave (km/s) = 3.42008 7.11505 5.58215
#
# Compressibility (1/GPa) = 0.09468903
#
# Stress axis : x y z
#
# Youngs Moduli (GPa) = 54.68964 92.25751 28.86663
#
# Poissons Ratio (x) = -0.05583 -0.23341
# Poissons Ratio (y) = -0.03309 -0.19544
# Poissons Ratio (z) = -0.44221 -0.62463
#
# Static dielectric constant tensor:
#      x y z
#    x 2.013060 -0.007440 -0.007180 
#    y -0.007440 2.023190 0.085090 
#    z -0.007180 0.085090 2.249160 
# 
# From -- ./inp_files/40408.got.cif
#   From: 2010.05.17/outbox.cif.g08.bks.cpg/sg2_21_cif.got.tgz:40408.got - 2010.06.03 11:33:40.
