data_PCOD9040213
_publ_section_title
;
Structure prediction by ZEFSAII (Michael W. Deem and Ramdas Pophale) SiO2 
 PCOD9040213
Probable space group: P -1
;
_chemical_formula_sum "Si O2"
_cell_formula_units_Z 14
_cell_length_a 6.655571
_cell_length_b 7.740660
_cell_length_c 19.372205
_cell_angle_alpha 43.989706
_cell_angle_beta 74.409039
_cell_angle_gamma 94.466181
_cell_volume 610.312315
_symmetry_space_group_name_H-M "P -1"
_symmetry_group_IT_number 2
_symmetry_cell_setting 'triclinic'
loop_
_space_group_symop_operation_xyz
x,y,z
-x,-y,-z
loop_
_atom_site_type_symbol
_atom_site_label
_atom_site_fract_x
_atom_site_fract_y
_atom_site_fract_z
Si Si1 0.804494 0.369417 0.498627
Si Si2 0.506202 0.304262 0.914527
Si Si3 0.626085 0.817181 0.332260
Si Si4 0.760818 0.215951 0.401348
Si Si5 0.947403 0.689315 0.006500
Si Si6 0.004226 0.690995 0.784982
Si Si7 0.659526 0.713416 0.213831
O O1 0.704611 0.588397 0.420315
O O2 0.572568 0.143641 0.617448
O O3 0.876498 0.265281 0.451828
O O4 0.000000 0.500000 0.500000
O O5 0.734057 0.544318 0.851864
O O6 0.485314 0.374779 0.816281
O O7 0.295817 0.296877 0.981937
O O8 0.500000 0.000000 0.000000
O O9 0.529631 0.747956 0.284049
O O10 0.862439 0.078140 0.238681
O O11 0.750670 0.494555 0.295416
O O12 0.897323 0.165453 0.338984
O O13 0.500000 0.000000 0.500000
O O14 0.936185 0.556028 0.121634
O O15 0.000000 0.500000 0.000000
O O16 0.141874 0.990924 0.902709
#
# Coordination Sequence:
#
# PCOD9040213 Si02
#       7
#     2   2   2   2   2   2   2
#     4  10  23  43  66  95 135 185 241 288 353 422
#     4  12  26  44  73 108 143 190 246 294 360 434
#     4  10  23  43  64  97 140 181 231 299 354 420
#     4  11  23  43  72  98 142 193 232 293 365 425
#     4  12  25  48  73 102 147 191 237 303 364 424
#     4  12  24  44  68 104 141 185 244 292 358 432
#     4  11  23  45  69  98 143 186 231 299 361 421
#
# _framework density 22.939073
#
# number of rings (size 3 to 8) (size 9 to 14) (size 15 to 20)
#    0.000    0.857    5.714    1.286    2.000    2.857 
#    0.000    1.429    0.000    0.000    0.000    0.000 
#    0.000    0.000    0.000    0.000    0.000    0.000 
#
# Total GULP energy -78138.134038 kJ/mol
# GULP energy per Si atom -5581.295288 kJ/mol
# Density = 2.288686 g / cm^3
# Si number density = 22.939073 Si / 1000 Ang^3
#
#
#
# Elastic Constant Matrix: (Units=GPa)
#
#
# Indices 1 2 3 4 5 6 
#
# 1 71.2308 19.0102 10.6672 6.9971 -12.0902 14.3106
# 2 19.0102 74.8599 12.3309 12.9196 2.7593 7.5084
# 3 10.6672 12.3309 77.2779 1.3618 -4.7682 1.9073
# 4 6.9971 12.9196 1.3618 43.4479 12.8567 -2.6096
# 5 -12.0902 2.7593 -4.7682 12.8567 31.5225 5.1494
# 6 14.3106 7.5084 1.9073 -2.6096 5.1494 38.3739
#
#
#
# Elastic Compliance Matrix: (Units=1/GPa)
#
#
# Indices 1 2 3 4 5 6 
#
# 1 0.019271 -0.003253 -0.001131 -0.005952 0.011308 -0.008416
# 2 -0.003253 0.015381 -0.001958 -0.003787 -0.001049 -0.001816
# 3 -0.001131 -0.001958 0.013534 -0.000231 0.001902 -0.000139
# 4 -0.005952 -0.003787 -0.000231 0.030096 -0.015419 0.007088
# 5 0.011308 -0.001049 0.001902 -0.015419 0.044547 -0.011132
# 6 -0.008416 -0.001816 -0.000139 0.007088 -0.011132 0.031536
#
#
# Mechanical properties :
#
#
# Convention : Reuss Voigt Hill
#
# Bulk Modulus (GPa) = 28.16749 34.15391 31.16070
# Shear Modulus (GPa) = 27.95104 34.75954 31.35529
#
# Velocity S-wave (km/s) = 3.49447 3.89691 3.70116
# Velocity P-wave (km/s) = 5.34675 5.93036 5.64610
#
# Compressibility (1/GPa) = 0.03550192
#
# Stress axis : x y z
#
# Youngs Moduli (GPa) = 51.89103 65.01385 73.88948
#
# Poissons Ratio (x) = 0.21148 0.08355
# Poissons Ratio (y) = 0.16880 0.14471
# Poissons Ratio (z) = 0.05868 0.12733
#
# Static dielectric constant tensor:
#      x y z
#    x 1.827750 -0.055350 0.016530 
#    y -0.055350 2.019280 0.078610 
#    z 0.016530 0.078610 1.919010 
# 
# From -- ./inp_files/52940.got.cif
#   From: 2010.05.17/outbox.cif.g08.bks.cpg/sg2_27_cif.got.tgz:52940.got - 2010.06.03 11:33:40.
