data_PCOD9040156
_publ_section_title
;
Structure prediction by ZEFSAII (Michael W. Deem and Ramdas Pophale) SiO2 
 PCOD9040156
Probable space group: P -1
;
_chemical_formula_sum "Si O2"
_cell_formula_units_Z 13
_cell_length_a 17.837563
_cell_length_b 8.469857
_cell_length_c 4.964931
_cell_angle_alpha 121.849380
_cell_angle_beta 56.714705
_cell_angle_gamma 125.693849
_cell_volume 484.893744
_symmetry_space_group_name_H-M "P -1"
_symmetry_group_IT_number 2
_symmetry_cell_setting 'triclinic'
loop_
_space_group_symop_operation_xyz
x,y,z
-x,-y,-z
loop_
_atom_site_type_symbol
_atom_site_label
_atom_site_fract_x
_atom_site_fract_y
_atom_site_fract_z
Si Si1 0.825125 0.726040 0.847918
Si Si2 0.500000 0.500000 0.500000
Si Si3 0.127965 0.530132 0.897790
Si Si4 0.746784 0.160164 0.700490
Si Si5 0.064696 0.817014 0.968056
Si Si6 0.556843 0.959381 0.602314
Si Si7 0.299896 0.267116 0.392183
O O1 0.853784 0.555216 0.500848
O O2 0.735733 0.708817 0.810095
O O3 0.781501 0.728752 0.230341
O O4 0.914131 0.948222 0.822045
O O5 0.547775 0.730314 0.457459
O O6 0.405042 0.428027 0.422033
O O7 0.084902 0.698906 0.075889
O O8 0.225106 0.647608 0.987605
O O9 0.044877 0.336009 0.037288
O O10 0.848926 0.172503 0.391376
O O11 0.669295 0.123070 0.579680
O O12 0.701221 0.956715 0.786343
O O13 0.500000 0.000000 0.500000
O O14 0.500000 0.000000 0.000000
#
# Coordination Sequence:
#
# PCOD9040156 Si02
#       7
#     2   1   2   2   2   2   2
#     4  11  24  43  67  99 138 182 231 290 357 431
#     4  10  26  48  74 104 150 190 246 306 366 434
#     4  11  23  40  70  98 135 188 231 294 363 424
#     4  10  23  44  70  97 145 183 235 306 357 428
#     4  10  23  43  64 100 138 181 239 288 357 440
#     4  11  28  47  76 110 145 194 248 302 367 444
#     4  10  24  45  69  98 138 188 234 292 364 425
#
# _framework density 26.809998
#
# number of rings (size 3 to 8) (size 9 to 14) (size 15 to 20)
#    0.000    1.538    1.538    0.923    6.462    6.154 
#    0.000    2.308    0.000    0.000    0.000    0.000 
#    0.000    0.000    0.000    0.000    0.000    0.000 
#
# Total GULP energy -72594.115311 kJ/mol
# GULP energy per Si atom -5584.162716 kJ/mol
# Density = 2.674898 g / cm^3
# Si number density = 26.809998 Si / 1000 Ang^3
#
#
#
# Elastic Constant Matrix: (Units=GPa)
#
#
# Indices 1 2 3 4 5 6 
#
# 1 115.2839 38.1641 33.4747 20.0332 16.3174 6.3128
# 2 38.1641 146.7559 49.6187 49.1824 6.8010 30.1468
# 3 33.4747 49.6187 119.6995 2.0843 12.0114 12.1715
# 4 20.0332 49.1824 2.0843 38.1214 0.7705 5.6562
# 5 16.3174 6.8010 12.0114 0.7705 30.2334 7.6302
# 6 6.3128 30.1468 12.1715 5.6562 7.6302 56.7625
#
#
#
# Elastic Compliance Matrix: (Units=1/GPa)
#
#
# Indices 1 2 3 4 5 6 
#
# 1 0.011071 -0.000002 -0.002555 -0.005656 -0.004953 0.000547
# 2 -0.000002 0.017005 -0.006165 -0.020764 0.000598 -0.005721
# 3 -0.002555 -0.006165 0.011645 0.008631 -0.002206 0.000498
# 4 -0.005656 -0.020764 0.008631 0.054878 0.001865 0.004087
# 5 -0.004953 0.000598 -0.002206 0.001865 0.037588 -0.004532
# 6 0.000547 -0.005721 0.000498 0.004087 -0.004532 0.020690
#
#
# Mechanical properties :
#
#
# Convention : Reuss Voigt Hill
#
# Bulk Modulus (GPa) = 44.89233 69.36160 57.12696
# Shear Modulus (GPa) = 28.12979 42.38891 35.25935
#
# Velocity S-wave (km/s) = 3.24269 3.98060 3.63044
# Velocity P-wave (km/s) = 5.54987 6.85964 6.23922
#
# Compressibility (1/GPa) = 0.02227552
#
# Stress axis : x y z
#
# Youngs Moduli (GPa) = 90.32582 58.80478 85.87417
#
# Poissons Ratio (x) = 0.00015 0.21942
# Poissons Ratio (y) = 0.00022 0.52944
# Poissons Ratio (z) = 0.23080 0.36255
#
# Static dielectric constant tensor:
#      x y z
#    x 1.961880 -0.096430 0.139710 
#    y -0.096430 2.135240 0.029160 
#    z 0.139710 0.029160 1.999740 
# 
# From -- ./inp_files/105896.got.cif
#   From: 2010.05.17/outbox.cif.g08.bks.cpg/sg2_53_cif.got.tgz:105896.got - 2010.06.03 11:33:40.
