data_PCOD9040276
_publ_section_title
;
Structure prediction by ZEFSAII (Michael W. Deem and Ramdas Pophale) SiO2 
 PCOD9040276
Probable space group: P -1
;
_chemical_formula_sum "Si O2"
_cell_formula_units_Z 14
_cell_length_a 27.434668
_cell_length_b 16.080091
_cell_length_c 4.861407
_cell_angle_alpha 107.756361
_cell_angle_beta 97.226016
_cell_angle_gamma 18.671287
_cell_volume 552.392606
_symmetry_space_group_name_H-M "P -1"
_symmetry_group_IT_number 2
_symmetry_cell_setting 'triclinic'
loop_
_space_group_symop_operation_xyz
x,y,z
-x,-y,-z
loop_
_atom_site_type_symbol
_atom_site_label
_atom_site_fract_x
_atom_site_fract_y
_atom_site_fract_z
Si Si1 0.707364 0.758980 0.399276
Si Si2 0.450526 0.708048 0.903378
Si Si3 0.147322 0.799043 0.089564
Si Si4 0.489134 0.752274 0.482308
Si Si5 0.029022 0.197096 0.454738
Si Si6 0.641350 0.709528 0.017562
Si Si7 0.215656 0.958766 0.822861
O O1 0.763900 0.579424 0.078009
O O2 0.835692 0.542323 0.530441
O O3 0.672621 0.907799 0.372619
O O4 0.506766 0.074151 0.661262
O O5 0.470880 0.761993 0.799101
O O6 0.273301 0.957156 0.948464
O O7 0.617820 0.366800 0.559494
O O8 0.462795 0.710667 0.234135
O O9 0.071537 0.022301 0.359849
O O10 0.319288 0.533691 0.753811
O O11 0.221755 0.608002 0.194777
O O12 0.000000 0.000000 0.000000
O O13 0.057099 0.210501 0.750758
O O14 0.163911 0.997320 0.103551
O O15 0.500000 0.000000 0.000000
#
# Coordination Sequence:
#
# PCOD9040276 Si02
#       7
#     2   2   2   2   2   2   2
#     4  10  25  41  62  96 141 176 224 275 339 407
#     4  11  22  45  69 101 127 175 225 286 336 408
#     4  11  22  42  67 102 138 175 232 277 329 403
#     4  11  24  42  70  98 135 178 222 270 346 405
#     4  12  24  44  66 106 132 180 220 287 337 399
#     4  10  23  43  65  93 135 192 229 270 337 401
#     4  11  24  42  72  98 134 167 230 287 343 391
#
# _framework density 25.344290000000001
#
# number of rings (size 3 to 8) (size 9 to 14) (size 15 to 20)
#    0.000    1.143    4.286    0.857    6.000    2.286 
#    2.571    7.857    0.000    0.000    0.000    0.000 
#    0.000    0.000    0.000    0.000    0.000    0.000 
#
# Total GULP energy -78262.459020 kJ/mol
# GULP energy per Si atom -5590.175644 kJ/mol
# Density = 2.528660 g / cm^3
# Si number density = 25.344290 Si / 1000 Ang^3
#
#
#
# Elastic Constant Matrix: (Units=GPa)
#
#
# Indices 1 2 3 4 5 6 
#
# 1 86.1584 53.0586 18.3261 8.8563 -1.2983 -24.7163
# 2 53.0586 147.9508 20.0812 -3.0250 13.2736 -20.3846
# 3 18.3261 20.0812 80.8652 -0.7339 2.2675 -6.3882
# 4 8.8563 -3.0250 -0.7339 42.0245 3.0892 5.9397
# 5 -1.2983 13.2736 2.2675 3.0892 20.3304 -2.3696
# 6 -24.7163 -20.3846 -6.3882 5.9397 -2.3696 55.6829
#
#
#
# Elastic Compliance Matrix: (Units=1/GPa)
#
#
# Indices 1 2 3 4 5 6 
#
# 1 0.018519 -0.006164 -0.002397 -0.005848 0.007134 0.006616
# 2 -0.006164 0.009787 -0.000798 0.002481 -0.007049 0.000191
# 3 -0.002397 -0.000798 0.013150 0.000764 -0.001212 0.000020
# 4 -0.005848 0.002481 0.000764 0.026371 -0.006633 -0.004695
# 5 0.007134 -0.007049 -0.001212 -0.006633 0.055800 0.003529
# 6 0.006616 0.000191 0.000020 -0.004695 0.003529 0.021619
#
#
# Mechanical properties :
#
#
# Convention : Reuss Voigt Hill
#
# Bulk Modulus (GPa) = 43.97847 55.32288 49.65068
# Shear Modulus (GPa) = 29.14722 38.50814 33.82768
#
# Velocity S-wave (km/s) = 3.39492 3.90218 3.65735
# Velocity P-wave (km/s) = 5.72341 6.49450 6.12111
#
# Compressibility (1/GPa) = 0.02273840
#
# Stress axis : x y z
#
# Youngs Moduli (GPa) = 53.99929 102.17234 76.04504
#
# Poissons Ratio (x) = 0.62979 0.18225
# Poissons Ratio (y) = 0.33285 0.06071
# Poissons Ratio (z) = 0.12941 0.08157
#
# Static dielectric constant tensor:
#      x y z
#    x 2.024430 0.018460 0.016550 
#    y 0.018460 2.006410 0.027840 
#    z 0.016550 0.027840 2.064260 
# 
# From -- ./inp_files/70236.got.cif
#   From: 2010.05.17/outbox.cif.g08.bks.cpg/sg2_36_cif.got.tgz:70236.got - 2010.06.03 11:33:40.
