data_PCOD9040220
_publ_section_title
;
Structure prediction by ZEFSAII (Michael W. Deem and Ramdas Pophale) SiO2 
 PCOD9040220
Probable space group: P -1
;
_chemical_formula_sum "Si O2"
_cell_formula_units_Z 16
_cell_length_a 14.734435
_cell_length_b 11.988337
_cell_length_c 5.146176
_cell_angle_alpha 70.387938
_cell_angle_beta 110.202804
_cell_angle_gamma 125.610158
_cell_volume 682.696212
_symmetry_space_group_name_H-M "P -1"
_symmetry_group_IT_number 2
_symmetry_cell_setting 'triclinic'
loop_
_space_group_symop_operation_xyz
x,y,z
-x,-y,-z
loop_
_atom_site_type_symbol
_atom_site_label
_atom_site_fract_x
_atom_site_fract_y
_atom_site_fract_z
Si Si1 0.245000 0.868625 0.965318
Si Si2 0.598531 0.596873 0.317498
Si Si3 0.543540 0.331609 0.266282
Si Si4 0.993953 0.199516 0.283551
Si Si5 0.063226 0.487950 0.326198
Si Si6 0.717354 0.251524 0.428709
Si Si7 0.895581 0.929715 0.758535
Si Si8 0.327945 0.146311 0.518533
O O1 0.113981 0.811719 0.961855
O O2 0.241869 0.776501 0.784467
O O3 0.303948 0.021083 0.778211
O O4 0.308668 0.866309 0.289662
O O5 0.500000 0.500000 0.500000
O O6 0.631709 0.490003 0.327525
O O7 0.686533 0.739805 0.428557
O O8 0.538359 0.642924 0.014294
O O9 0.611444 0.268729 0.256908
O O10 0.455533 0.224957 0.475867
O O11 0.046850 0.336512 0.404792
O O12 0.093144 0.198543 0.224996
O O13 0.931744 0.052235 0.488031
O O14 0.190856 0.613178 0.418295
O O15 0.000000 0.500000 0.500000
O O16 0.000000 0.500000 0.000000
O O17 0.773335 0.899343 0.755706
O O18 0.000000 0.000000 0.000000
#
# Coordination Sequence:
#
# PCOD9040220 Si02
#       8
#     2   2   2   2   2   2   2   2
#     4  11  26  44  72  98 145 181 230 291 345 418
#     4   9  21  46  65  94 135 177 231 288 347 397
#     4  10  24  43  72  99 140 177 233 291 340 421
#     4  10  23  43  64  99 136 182 229 294 343 420
#     4  12  24  44  69  98 138 190 229 284 353 410
#     4  12  26  45  69 106 138 187 236 284 346 420
#     4  10  24  42  70 102 133 179 239 289 354 413
#     4  10  24  43  70  98 138 184 227 290 354 412
#
# _framework density 23.436484
#
# number of rings (size 3 to 8) (size 9 to 14) (size 15 to 20)
#    0.000    1.500    2.500    0.000   12.250    3.000 
#    4.500    0.000    0.000    0.000    0.000    0.000 
#    0.000    0.000    0.000    0.000    0.000    0.000 
#
# Total GULP energy -89255.830469 kJ/mol
# GULP energy per Si atom -5578.489404 kJ/mol
# Density = 2.338314 g / cm^3
# Si number density = 23.436484 Si / 1000 Ang^3
#
#
#
# Elastic Constant Matrix: (Units=GPa)
#
#
# Indices 1 2 3 4 5 6 
#
# 1 87.9561 29.2070 17.3868 -8.5965 13.1588 -19.4837
# 2 29.2070 92.9925 -7.4078 -6.4707 -2.9037 -15.9984
# 3 17.3868 -7.4078 66.3084 -5.3151 -3.6347 -8.8486
# 4 -8.5965 -6.4707 -5.3151 31.6016 -3.3931 -1.7871
# 5 13.1588 -2.9037 -3.6347 -3.3931 23.8863 0.1718
# 6 -19.4837 -15.9984 -8.8486 -1.7871 0.1718 30.3309
#
#
#
# Elastic Compliance Matrix: (Units=1/GPa)
#
#
# Indices 1 2 3 4 5 6 
#
# 1 0.017243 -0.004639 -0.004423 0.002299 -0.010464 0.007534
# 2 -0.004639 0.013899 0.004071 0.003157 0.005272 0.005695
# 3 -0.004423 0.004071 0.017948 0.003575 0.006137 0.004718
# 4 0.002299 0.003157 0.003575 0.034350 0.004496 0.006183
# 5 -0.010464 0.005272 0.006137 0.004496 0.049858 -0.002168
# 6 0.007534 0.005695 0.004718 0.006183 -0.002168 0.042566
#
#
# Mechanical properties :
#
#
# Convention : Reuss Voigt Hill
#
# Bulk Modulus (GPa) = 25.57006 36.18098 30.87552
# Shear Modulus (GPa) = 25.14048 31.03516 28.08782
#
# Velocity S-wave (km/s) = 3.27877 3.64294 3.46564
# Velocity P-wave (km/s) = 5.02671 5.75900 5.40527
#
# Compressibility (1/GPa) = 0.03910823
#
# Stress axis : x y z
#
# Youngs Moduli (GPa) = 57.99406 71.94848 55.71584
#
# Poissons Ratio (x) = 0.33374 0.24645
# Poissons Ratio (y) = 0.26901 -0.22682
# Poissons Ratio (z) = 0.25653 -0.29291
#
# Static dielectric constant tensor:
#      x y z
#    x 0.035620 -1.140090 0.859210 
#    y -1.140090 1.363310 0.564770 
#    z 0.859210 0.564770 1.600370 
# 
# From -- ./inp_files/93434.got.cif
#   From: 2010.05.17/outbox.cif.g08.bks.cpg/sg2_47_cif.got.tgz:93434.got - 2010.06.03 11:33:40.
