data_PCOD9040445
_publ_section_title
;
Structure prediction by ZEFSAII (Michael W. Deem and Ramdas Pophale) SiO2 
 PCOD9040445
Probable space group: P -1
;
_chemical_formula_sum "Si O2"
_cell_formula_units_Z 14
_cell_length_a 11.723108
_cell_length_b 9.355348
_cell_length_c 9.611806
_cell_angle_alpha 136.875845
_cell_angle_beta 69.095002
_cell_angle_gamma 125.972126
_cell_volume 578.242075
_symmetry_space_group_name_H-M "P -1"
_symmetry_group_IT_number 2
_symmetry_cell_setting 'triclinic'
loop_
_space_group_symop_operation_xyz
x,y,z
-x,-y,-z
loop_
_atom_site_type_symbol
_atom_site_label
_atom_site_fract_x
_atom_site_fract_y
_atom_site_fract_z
Si Si1 0.336291 0.397043 0.034780
Si Si2 0.124734 0.699483 0.435381
Si Si3 0.397623 0.623173 0.446176
Si Si4 0.039999 0.674062 0.972492
Si Si5 0.289154 0.223363 0.637532
Si Si6 0.870385 0.803511 0.583756
Si Si7 0.741317 0.130655 0.212171
O O1 0.271601 0.344430 0.871077
O O2 0.279986 0.135316 0.947839
O O3 0.500000 0.500000 0.000000
O O4 0.345029 0.584115 0.280342
O O5 0.153964 0.708694 0.593006
O O6 0.078774 0.463016 0.193244
O O7 0.991513 0.738117 0.497469
O O8 0.254301 0.952379 0.499274
O O9 0.548938 0.640540 0.391855
O O10 0.273826 0.389874 0.412949
O O11 0.396898 0.850877 0.679812
O O12 0.188465 0.752726 0.882872
O O13 0.000000 0.500000 0.000000
O O14 0.065055 0.930800 0.191457
O O15 0.179387 0.200979 0.554421
#
# Coordination Sequence:
#
# PCOD9040445 Si02
#       7
#     2   2   2   2   2   2   2
#     4   9  21  42  68 100 132 176 224 274 332 399
#     4  11  25  44  67  98 136 176 224 281 330 402
#     4  11  23  44  72  95 137 180 220 284 334 395
#     4  12  25  43  69 100 135 177 229 278 335 404
#     4  10  23  43  67 100 134 176 224 275 338 399
#     4  12  24  44  67  96 139 179 223 280 336 393
#     4  11  24  45  68 101 135 175 234 271 336 403
#
# _framework density 24.211313000000001
#
# number of rings (size 3 to 8) (size 9 to 14) (size 15 to 20)
#    0.000    1.143    4.286    1.286    0.000    8.000 
#    0.000    5.000    0.000    0.000    0.000    0.000 
#    0.000    0.000    0.000    0.000    0.000    0.000 
#
# Total GULP energy -78325.097087 kJ/mol
# GULP energy per Si atom -5594.649792 kJ/mol
# Density = 2.415621 g / cm^3
# Si number density = 24.211313 Si / 1000 Ang^3
#
#
#
# Elastic Constant Matrix: (Units=GPa)
#
#
# Indices 1 2 3 4 5 6 
#
# 1 66.1850 21.1344 28.6538 -8.6815 -2.6470 8.7260
# 2 21.1344 122.3327 13.0264 -18.7551 3.0769 11.4373
# 3 28.6538 13.0264 121.0999 -15.8385 0.3442 1.9930
# 4 -8.6815 -18.7551 -15.8385 45.7730 4.4321 1.9826
# 5 -2.6470 3.0769 0.3442 4.4321 33.8445 -5.0258
# 6 8.7260 11.4373 1.9930 1.9826 -5.0258 36.9209
#
#
#
# Elastic Compliance Matrix: (Units=1/GPa)
#
#
# Indices 1 2 3 4 5 6 
#
# 1 0.018126 -0.002250 -0.003834 0.001235 0.001008 -0.003309
# 2 -0.002250 0.009454 0.000063 0.003783 -0.001958 -0.002870
# 3 -0.003834 0.000063 0.009505 0.002653 -0.000730 0.000132
# 4 0.001235 0.003783 0.002653 0.025096 -0.004082 -0.003510
# 5 0.001008 -0.001958 -0.000730 -0.004082 0.031067 0.004856
# 6 -0.003309 -0.002870 0.000132 -0.003510 0.004856 0.029598
#
#
# Mechanical properties :
#
#
# Convention : Reuss Voigt Hill
#
# Bulk Modulus (GPa) = 39.93063 48.36075 44.14569
# Shear Modulus (GPa) = 34.90768 39.76122 37.33445
#
# Velocity S-wave (km/s) = 3.80121 4.05687 3.93112
# Velocity P-wave (km/s) = 5.98281 6.47782 6.23523
#
# Compressibility (1/GPa) = 0.02504343
#
# Stress axis : x y z
#
# Youngs Moduli (GPa) = 55.16950 105.77669 105.20994
#
# Poissons Ratio (x) = 0.23798 0.40334
# Poissons Ratio (y) = 0.12412 -0.00662
# Poissons Ratio (z) = 0.21150 -0.00666
#
# Static dielectric constant tensor:
#      x y z
#    x 1.961640 -0.005680 -0.049700 
#    y -0.005680 1.969450 0.021070 
#    z -0.049700 0.021070 1.982800 
# 
# From -- ./inp_files/226004.got.cif
#   From: 2010.05.17/outbox.cif.g08.bks.cpg/sg2_114_cif.got.tgz:226004.got - 2010.06.03 11:33:40.
