data_PCOD9040223
_publ_section_title
;
Structure prediction by ZEFSAII (Michael W. Deem and Ramdas Pophale) SiO2 
 PCOD9040223
Probable space group: P -1
;
_chemical_formula_sum "Si O2"
_cell_formula_units_Z 16
_cell_length_a 6.709145
_cell_length_b 15.407216
_cell_length_c 11.573653
_cell_angle_alpha 127.406912
_cell_angle_beta 62.089133
_cell_angle_gamma 87.458102
_cell_volume 742.007104
_symmetry_space_group_name_H-M "P -1"
_symmetry_group_IT_number 2
_symmetry_cell_setting 'triclinic'
loop_
_space_group_symop_operation_xyz
x,y,z
-x,-y,-z
loop_
_atom_site_type_symbol
_atom_site_label
_atom_site_fract_x
_atom_site_fract_y
_atom_site_fract_z
Si Si1 0.061368 0.207089 0.428043
Si Si2 0.213564 0.140651 0.791414
Si Si3 0.383501 0.532576 0.185548
Si Si4 0.426359 0.235311 0.187385
Si Si5 0.053373 0.999443 0.120059
Si Si6 0.954020 0.571972 0.693056
Si Si7 0.236313 0.027994 0.448418
Si Si8 0.270004 0.610241 0.814244
O O1 0.257259 0.250954 0.358604
O O2 0.198605 0.108730 0.411269
O O3 0.804289 0.322041 0.633993
O O4 0.997385 0.133490 0.287081
O O5 0.234797 0.107494 0.623739
O O6 0.112541 0.052813 0.809220
O O7 0.497952 0.097533 0.724605
O O8 0.003834 0.280650 0.982058
O O9 0.206397 0.468434 0.211182
O O10 0.591052 0.481719 0.191779
O O11 0.500000 0.500000 0.000000
O O12 0.221745 0.284729 0.178928
O O13 0.565635 0.320763 0.210244
O O14 0.651036 0.096077 0.009840
O O15 0.000000 0.000000 0.000000
O O16 0.000000 0.500000 0.500000
O O17 0.207079 0.551668 0.672881
O O18 0.000000 0.000000 0.500000
#
# Coordination Sequence:
#
# PCOD9040223 Si02
#       8
#     2   2   2   2   2   2   2   2
#     4  12  24  43  70 100 145 183 230 299 352 424
#     4  10  23  43  65 100 131 179 232 279 347 427
#     4  11  26  48  70 106 144 187 243 292 360 425
#     4  10  24  42  68 102 137 181 233 295 358 421
#     4  11  24  40  66 106 138 181 229 292 363 419
#     4  11  24  47  71 102 134 189 244 292 355 418
#     4  11  23  43  67  95 138 182 228 277 354 417
#     4  10  25  44  74  98 141 184 235 297 353 414
#
# _framework density 21.563137000000001
#
# number of rings (size 3 to 8) (size 9 to 14) (size 15 to 20)
#    0.000    1.250    2.500    1.875    5.250    5.500 
#    2.250    0.000    0.000    0.000    0.000    0.000 
#    0.000    0.000    0.000    0.000    0.000    0.000 
#
# Total GULP energy -89511.412246 kJ/mol
# GULP energy per Si atom -5594.463265 kJ/mol
# Density = 2.151406 g / cm^3
# Si number density = 21.563137 Si / 1000 Ang^3
#
#
#
# Elastic Constant Matrix: (Units=GPa)
#
#
# Indices 1 2 3 4 5 6 
#
# 1 124.9893 37.3861 44.9638 -6.0062 -12.1683 -23.6232
# 2 37.3861 82.5388 25.1357 -24.7977 6.6950 -16.4544
# 3 44.9638 25.1357 133.7383 -6.3702 -9.5901 -10.6472
# 4 -6.0062 -24.7977 -6.3702 37.5996 -8.0705 -5.8395
# 5 -12.1683 6.6950 -9.5901 -8.0705 41.2211 -4.9520
# 6 -23.6232 -16.4544 -10.6472 -5.8395 -4.9520 27.0843
#
#
#
# Elastic Compliance Matrix: (Units=1/GPa)
#
#
# Indices 1 2 3 4 5 6 
#
# 1 0.011978 -0.002523 -0.002329 0.002394 0.005005 0.009430
# 2 -0.002523 0.020859 -0.001279 0.015232 0.000147 0.013280
# 3 -0.002329 -0.001279 0.008768 0.000851 0.001866 0.001163
# 4 0.002394 0.015232 0.000851 0.042724 0.009514 0.022627
# 5 0.005005 0.000147 0.001866 0.009514 0.029528 0.012639
# 6 0.009430 0.013280 0.001163 0.022627 0.012639 0.060862
#
#
# Mechanical properties :
#
#
# Convention : Reuss Voigt Hill
#
# Bulk Modulus (GPa) = 34.07979 61.80417 47.94198
# Shear Modulus (GPa) = 25.41137 36.76638 31.08887
#
# Velocity S-wave (km/s) = 3.43660 4.13371 3.80117
# Velocity P-wave (km/s) = 5.62014 7.17688 6.44568
#
# Compressibility (1/GPa) = 0.02934290
#
# Stress axis : x y z
#
# Youngs Moduli (GPa) = 83.48740 47.93986 114.05512
#
# Poissons Ratio (x) = 0.12095 0.26565
# Poissons Ratio (y) = 0.21064 0.14586
# Poissons Ratio (z) = 0.19446 0.06131
#
# Static dielectric constant tensor:
#      x y z
#    x 1.799650 0.000760 0.003530 
#    y 0.000760 1.743990 0.011470 
#    z 0.003530 0.011470 1.804190 
# 
# From -- ./inp_files/368034.got.cif
#   From: 2010.05.17/outbox.cif.g08.bks.cpg/sg2_185_cif.got.tgz:368034.got - 2010.06.03 11:33:40.
