data_PCOD9040492
_publ_section_title
;
Structure prediction by ZEFSAII (Michael W. Deem and Ramdas Pophale) SiO2 
 PCOD9040492
Probable space group: P -1
;
_chemical_formula_sum "Si O2"
_cell_formula_units_Z 13
_cell_length_a 19.119877
_cell_length_b 17.929473
_cell_length_c 10.738412
_cell_angle_alpha 146.814769
_cell_angle_beta 21.381847
_cell_angle_gamma 158.024161
_cell_volume 492.593382
_symmetry_space_group_name_H-M "P -1"
_symmetry_group_IT_number 2
_symmetry_cell_setting 'triclinic'
loop_
_space_group_symop_operation_xyz
x,y,z
-x,-y,-z
loop_
_atom_site_type_symbol
_atom_site_label
_atom_site_fract_x
_atom_site_fract_y
_atom_site_fract_z
Si Si1 0.423255 0.968837 0.333987
Si Si2 0.058569 0.220867 0.283243
Si Si3 0.356132 0.150313 0.369140
Si Si4 0.245931 0.407546 0.699577
Si Si5 0.781920 0.310391 0.503378
Si Si6 0.000000 0.000000 0.500000
Si Si7 0.371562 0.636073 0.407457
O O1 0.437963 0.891311 0.329488
O O2 0.089880 0.833471 0.680115
O O3 0.615880 0.204519 0.337401
O O4 0.489506 0.897084 0.016930
O O5 0.110191 0.393164 0.506610
O O6 0.358105 0.302470 0.903231
O O7 0.837517 0.008992 0.424167
O O8 0.597570 0.384697 0.339494
O O9 0.152943 0.098150 0.521514
O O10 0.500000 0.500000 0.500000
O O11 0.127375 0.218982 0.555310
O O12 0.987787 0.331125 0.103394
O O13 0.611509 0.322654 0.712577
O O14 0.000000 0.500000 0.500000
#
# Coordination Sequence:
#
# PCOD9040492 Si02
#       7
#     2   2   2   2   2   1   2
#     4  12  25  44  71 103 138 185 230 290 345 408
#     4  11  26  46  66  99 144 184 233 281 349 413
#     4  11  24  41  70 100 138 182 229 284 347 407
#     4  10  23  43  67 104 135 178 228 283 344 407
#     4  12  23  45  76 101 141 179 235 289 343 414
#     4  10  24  42  66 104 138 174 232 280 342 408
#     4  11  26  45  68 101 137 187 235 281 348 414
#
# _framework density 26.390934000000001
#
# number of rings (size 3 to 8) (size 9 to 14) (size 15 to 20)
#    0.000    0.923    3.077    2.308    6.462    1.846 
#    0.000    0.000    0.000    0.000    0.000    0.000 
#    0.000    0.000    0.000    0.000    0.000    0.000 
#
# Total GULP energy -72595.672558 kJ/mol
# GULP energy per Si atom -5584.282504 kJ/mol
# Density = 2.633087 g / cm^3
# Si number density = 26.390934 Si / 1000 Ang^3
#
#
#
# Elastic Constant Matrix: (Units=GPa)
#
#
# Indices 1 2 3 4 5 6 
#
# 1 86.1462 6.4636 3.0438 3.7476 -15.7435 13.6950
# 2 6.4636 272.4141 14.6489 23.6087 29.2259 27.7105
# 3 3.0438 14.6489 49.9893 0.7963 0.9462 10.5856
# 4 3.7476 23.6087 0.7963 29.8985 -7.1006 -1.7521
# 5 -15.7435 29.2259 0.9462 -7.1006 29.4068 -4.0186
# 6 13.6950 27.7105 10.5856 -1.7521 -4.0186 46.2338
#
#
#
# Elastic Compliance Matrix: (Units=1/GPa)
#
#
# Indices 1 2 3 4 5 6 
#
# 1 0.013549 -0.000983 -0.000140 0.000844 0.008076 -0.002658
# 2 -0.000983 0.005531 -0.000490 -0.006375 -0.008074 -0.003855
# 3 -0.000140 -0.000490 0.021168 -0.000684 -0.001067 -0.004630
# 4 0.000844 -0.006375 -0.000684 0.043114 0.018168 0.006940
# 5 0.008076 -0.008074 -0.001067 0.018168 0.051853 0.007887
# 6 -0.002658 -0.003855 -0.004630 0.006940 0.007887 0.026736
#
#
# Mechanical properties :
#
#
# Convention : Reuss Voigt Hill
#
# Bulk Modulus (GPa) = 27.01200 50.76247 38.88723
# Shear Modulus (GPa) = 28.16610 46.73405 37.45008
#
# Velocity S-wave (km/s) = 3.27045 4.21270 3.77112
# Velocity P-wave (km/s) = 4.95163 6.55279 5.80765
#
# Compressibility (1/GPa) = 0.03702058
#
# Stress axis : x y z
#
# Youngs Moduli (GPa) = 73.80858 180.78436 47.24117
#
# Poissons Ratio (x) = 0.17772 0.00663
# Poissons Ratio (y) = 0.07256 0.02316
# Poissons Ratio (z) = 0.01036 0.08864
#
# Static dielectric constant tensor:
#      x y z
#    x 2.157940 -0.019300 -0.066170 
#    y -0.019300 1.943590 -0.062030 
#    z -0.066170 -0.062030 1.998050 
# 
# From -- ./inp_files/472454.got.cif
#   From: 2010.05.17/outbox.cif.g08.bks.cpg/sg2_237_cif.got.tgz:472454.got - 2010.06.03 11:33:40.
