data_PCOD9040138
_publ_section_title
;
Structure prediction by ZEFSAII (Michael W. Deem and Ramdas Pophale) SiO2 
 PCOD9040138
Probable space group: P -1
;
_chemical_formula_sum "Si O2"
_cell_formula_units_Z 16
_cell_length_a 9.404019
_cell_length_b 18.882003
_cell_length_c 5.393232
_cell_angle_alpha 106.243385
_cell_angle_beta 136.572227
_cell_angle_gamma 79.796061
_cell_volume 631.562908
_symmetry_space_group_name_H-M "P -1"
_symmetry_group_IT_number 2
_symmetry_cell_setting 'triclinic'
loop_
_space_group_symop_operation_xyz
x,y,z
-x,-y,-z
loop_
_atom_site_type_symbol
_atom_site_label
_atom_site_fract_x
_atom_site_fract_y
_atom_site_fract_z
Si Si1 0.206738 0.688670 0.773418
Si Si2 0.515652 0.569742 0.910374
Si Si3 0.072942 0.320222 0.091289
Si Si4 0.238709 0.173191 0.964667
Si Si5 0.215830 0.464059 0.189583
Si Si6 0.492179 0.920743 0.049364
Si Si7 0.104055 0.071962 0.085527
Si Si8 0.835893 0.154816 0.120927
O O1 0.399834 0.636774 0.946926
O O2 0.075616 0.678739 0.340854
O O3 0.292358 0.772966 0.976818
O O4 0.064057 0.678378 0.829888
O O5 0.361134 0.538249 0.466505
O O6 0.732731 0.573645 0.044950
O O7 0.500000 0.500000 0.000000
O O8 0.205997 0.245688 0.161651
O O9 0.217468 0.394937 0.315848
O O10 0.463291 0.153000 0.128990
O O11 0.060062 0.179950 0.540819
O O12 0.174790 0.093260 0.924446
O O13 0.000000 0.500000 0.000000
O O14 0.682609 0.919267 0.482671
O O15 0.283167 0.906802 0.927495
O O16 0.500000 0.000000 0.000000
O O17 0.910649 0.125871 0.925927
O O18 0.000000 0.000000 0.000000
#
# Coordination Sequence:
#
# PCOD9040138 Si02
#       8
#     2   2   2   2   2   2   2   2
#     4  11  24  46  72 102 140 185 232 285 348 409
#     4  11  26  43  69 106 139 182 236 286 343 413
#     4  11  24  45  75  99 141 188 230 284 351 409
#     4  10  23  43  63  96 133 174 226 278 340 406
#     4  11  24  45  70 101 141 185 231 284 346 411
#     4  11  24  41  65  99 130 175 229 276 344 411
#     4  11  22  41  67  94 130 172 221 280 337 405
#     4  10  23  43  64  93 136 174 220 283 340 403
#
# _framework density 25.333977999999998
#
# number of rings (size 3 to 8) (size 9 to 14) (size 15 to 20)
#    0.000    1.250    2.500    2.250    5.250    6.000 
#    2.250    0.000    0.000    0.000    0.000    0.000 
#    0.000    0.000    0.000    0.000    0.000    0.000 
#
# Total GULP energy -89235.224629 kJ/mol
# GULP energy per Si atom -5577.201539 kJ/mol
# Density = 2.527632 g / cm^3
# Si number density = 25.333978 Si / 1000 Ang^3
#
#
#
# Elastic Constant Matrix: (Units=GPa)
#
#
# Indices 1 2 3 4 5 6 
#
# 1 162.2949 35.1965 7.7591 -14.6587 -9.0399 -18.5859
# 2 35.1965 121.4249 -5.5836 -19.4148 5.7061 -13.7188
# 3 7.7591 -5.5836 53.8155 -12.8998 1.5628 -12.3259
# 4 -14.6587 -19.4148 -12.8998 33.3186 3.3839 12.4979
# 5 -9.0399 5.7061 1.5628 3.3839 31.0953 -11.2319
# 6 -18.5859 -13.7188 -12.3259 12.4979 -11.2319 55.9172
#
#
#
# Elastic Compliance Matrix: (Units=1/GPa)
#
#
# Indices 1 2 3 4 5 6 
#
# 1 0.007092 -0.001885 -0.000650 0.000599 0.003191 0.002259
# 2 -0.001885 0.010145 0.003059 0.006397 -0.003083 0.000488
# 3 -0.000650 0.003059 0.021893 0.009029 -0.001753 0.002990
# 4 0.000599 0.006397 0.009029 0.041032 -0.008490 -0.007117
# 5 0.003191 -0.003083 -0.001753 -0.008490 0.038083 0.009465
# 6 0.002259 0.000488 0.002990 -0.007117 0.009465 0.022905
#
#
# Mechanical properties :
#
#
# Convention : Reuss Voigt Hill
#
# Bulk Modulus (GPa) = 24.88806 45.80883 35.34845
# Shear Modulus (GPa) = 32.57437 44.07711 38.32574
#
# Velocity S-wave (km/s) = 3.58969 4.17567 3.89372
# Velocity P-wave (km/s) = 5.19870 6.43191 5.84790
#
# Compressibility (1/GPa) = 0.04017991
#
# Stress axis : x y z
#
# Youngs Moduli (GPa) = 141.00624 98.56778 45.67622
#
# Poissons Ratio (x) = 0.18575 0.02968
# Poissons Ratio (y) = 0.26573 -0.13972
# Poissons Ratio (z) = 0.09162 -0.30152
#
# Static dielectric constant tensor:
#      x y z
#    x 2.036790 -0.059060 -0.093270 
#    y -0.059060 2.087210 0.112100 
#    z -0.093270 0.112100 2.238740 
# 
# From -- ./inp_files/10743.got.cif
#   From: 2010.05.17/outbox.cif.g08.bks.cpg/sg2_6_cif.got.tgz:10743.got - 2010.06.03 11:33:40.
