data_PCOD9040717
_publ_section_title
;
Structure prediction by ZEFSAII (Michael W. Deem and Ramdas Pophale) SiO2 
 PCOD9040717
Probable space group: P -1
;
_chemical_formula_sum "Si O2"
_cell_formula_units_Z 16
_cell_length_a 8.950981
_cell_length_b 16.378459
_cell_length_c 11.835932
_cell_angle_alpha 154.336110
_cell_angle_beta 98.550248
_cell_angle_gamma 71.549488
_cell_volume 672.313398
_symmetry_space_group_name_H-M "P -1"
_symmetry_group_IT_number 2
_symmetry_cell_setting 'triclinic'
loop_
_space_group_symop_operation_xyz
x,y,z
-x,-y,-z
loop_
_atom_site_type_symbol
_atom_site_label
_atom_site_fract_x
_atom_site_fract_y
_atom_site_fract_z
Si Si1 0.677803 0.909301 0.343001
Si Si2 0.714026 0.905159 0.685763
Si Si3 0.911816 0.852543 0.848131
Si Si4 0.664836 0.521547 0.276356
Si Si5 0.982114 0.724439 0.311199
Si Si6 0.441089 0.340193 0.124901
Si Si7 0.794858 0.577195 0.603444
Si Si8 0.684567 0.310724 0.791639
O O1 0.836709 0.864740 0.383526
O O2 0.500000 0.000000 0.500000
O O3 0.666114 0.100479 0.505915
O O4 0.688186 0.707062 0.026334
O O5 0.749504 0.944117 0.865553
O O6 0.645072 0.730116 0.469350
O O7 0.895441 0.799496 0.515413
O O8 0.600556 0.116514 0.874346
O O9 0.831653 0.783968 0.863797
O O10 0.059035 0.617576 0.560932
O O11 0.000000 0.000000 0.000000
O O12 0.499905 0.502533 0.278359
O O13 0.769661 0.512221 0.390853
O O14 0.739896 0.341806 0.965002
O O15 0.165545 0.707380 0.294447
O O16 0.000000 0.500000 0.000000
O O17 0.367663 0.388296 0.301099
O O18 0.500000 0.500000 0.000000
#
# Coordination Sequence:
#
# PCOD9040717 Si02
#       8
#     2   2   2   2   2   2   2   2
#     4  12  24  43  66 101 138 181 227 286 349 409
#     4  11  24  43  66 100 134 182 229 285 345 418
#     4  10  23  43  68  94 139 174 234 290 342 404
#     4  11  23  42  68  95 137 178 226 286 345 406
#     4  12  25  42  68  99 135 177 232 283 351 414
#     4  12  25  43  69  97 144 177 232 284 345 419
#     4  10  25  42  66 102 129 184 231 282 348 411
#     4  12  25  44  71 101 138 182 230 288 353 418
#
# _framework density 23.798425000000002
#
# number of rings (size 3 to 8) (size 9 to 14) (size 15 to 20)
#    0.000    0.750    3.750    3.000    1.750    5.000 
#    0.000    0.000    0.000    0.000    0.000    0.000 
#    0.000    0.000    0.000    0.000    0.000    0.000 
#
# Total GULP energy -89186.916395 kJ/mol
# GULP energy per Si atom -5574.182275 kJ/mol
# Density = 2.374426 g / cm^3
# Si number density = 23.798425 Si / 1000 Ang^3
#
#
#
# Elastic Constant Matrix: (Units=GPa)
#
#
# Indices 1 2 3 4 5 6 
#
# 1 148.0937 40.6247 34.7539 27.1449 15.2372 39.6226
# 2 40.6247 79.9859 14.2580 8.8392 -0.6341 6.1375
# 3 34.7539 14.2580 29.4396 3.6496 4.3107 6.1521
# 4 27.1449 8.8392 3.6496 34.1883 7.8836 4.5788
# 5 15.2372 -0.6341 4.3107 7.8836 50.5565 2.6267
# 6 39.6226 6.1375 6.1521 4.5788 2.6267 56.1369
#
#
#
# Elastic Compliance Matrix: (Units=1/GPa)
#
#
# Indices 1 2 3 4 5 6 
#
# 1 0.014237 -0.003630 -0.012263 -0.007645 -0.001704 -0.007605
# 2 -0.003630 0.014988 -0.003345 -0.001200 0.001686 0.001309
# 3 -0.012263 -0.003345 0.048942 0.005284 -0.001514 0.003297
# 4 -0.007645 -0.001200 0.005284 0.035653 -0.003836 0.002220
# 5 -0.001704 0.001686 -0.001514 -0.003836 0.021015 0.000514
# 6 -0.007605 0.001309 0.003297 0.002220 0.000514 0.022472
#
#
# Mechanical properties :
#
#
# Convention : Reuss Voigt Hill
#
# Bulk Modulus (GPa) = 25.19464 48.53248 36.86356
# Shear Modulus (GPa) = 23.92184 39.36854 31.64519
#
# Velocity S-wave (km/s) = 3.17391 4.07166 3.65049
# Velocity P-wave (km/s) = 4.90319 6.52242 5.76989
#
# Compressibility (1/GPa) = 0.03969098
#
# Stress axis : x y z
#
# Youngs Moduli (GPa) = 70.23711 66.72102 20.43238
#
# Poissons Ratio (x) = 0.24222 0.25056
# Poissons Ratio (y) = 0.25498 0.06834
# Poissons Ratio (z) = 0.86131 0.22318
#
# Static dielectric constant tensor:
#      x y z
#    x 1.927860 -0.078690 0.020600 
#    y -0.078690 2.218160 0.033070 
#    z 0.020600 0.033070 1.921670 
# 
# From -- ./inp_files/400034.got.cif
#   From: 2010.05.17/outbox.cif.g08.bks.cpg/sg2_201_cif.got.tgz:400034.got - 2010.06.03 11:33:40.
