data_PCOD9040229
_publ_section_title
;
Structure prediction by ZEFSAII (Michael W. Deem and Ramdas Pophale) SiO2 
 PCOD9040229
Probable space group: P -1
;
_chemical_formula_sum "Si O2"
_cell_formula_units_Z 14
_cell_length_a 13.161650
_cell_length_b 23.327163
_cell_length_c 23.596640
_cell_angle_alpha 167.773219
_cell_angle_beta 22.874282
_cell_angle_gamma 156.424570
_cell_volume 584.920082
_symmetry_space_group_name_H-M "P -1"
_symmetry_group_IT_number 2
_symmetry_cell_setting 'triclinic'
loop_
_space_group_symop_operation_xyz
x,y,z
-x,-y,-z
loop_
_atom_site_type_symbol
_atom_site_label
_atom_site_fract_x
_atom_site_fract_y
_atom_site_fract_z
Si Si1 0.576650 0.259216 0.767750
Si Si2 0.847934 0.468677 0.936856
Si Si3 0.796195 0.971478 0.701226
Si Si4 0.226557 0.687427 0.734567
Si Si5 0.720777 0.103920 0.748114
Si Si6 0.843137 0.235489 0.290855
Si Si7 0.057533 0.902848 0.661309
O O1 0.609454 0.368345 0.919489
O O2 0.852333 0.183637 0.530359
O O3 0.351403 0.983316 0.615714
O O4 0.500000 0.500000 0.000000
O O5 0.747638 0.386005 0.971833
O O6 0.062167 0.273709 0.628411
O O7 0.981052 0.776522 0.148883
O O8 0.685556 0.130027 0.858316
O O9 0.530527 0.821567 0.723540
O O10 0.164068 0.734454 0.745353
O O11 0.147091 0.359985 0.465506
O O12 0.058171 0.830952 0.004516
O O13 0.465610 0.877395 0.641132
O O14 0.000000 0.000000 0.500000
O O15 0.000000 0.500000 0.500000
O O16 0.000000 0.000000 0.000000
#
# Coordination Sequence:
#
# PCOD9040229 Si02
#       7
#     2   2   2   2   2   2   2
#     4  11  26  45  69  97 133 167 233 288 330 395
#     4  11  24  40  71  95 130 173 229 268 333 390
#     4  10  23  43  65 101 132 172 217 271 325 416
#     4  11  23  43  69  90 139 177 211 274 356 387
#     4   9  22  44  67  98 138 184 220 273 335 410
#     4  11  25  40  64 104 140 172 231 281 332 415
#     4  11  24  43  68  92 127 175 218 272 346 387
#
# _framework density 23.934894
#
# number of rings (size 3 to 8) (size 9 to 14) (size 15 to 20)
#    0.000    1.429    1.429    2.143    8.000    8.000 
#    0.000    4.286    0.000    0.000    0.000    0.000 
#    0.000    0.000    0.000    0.000    0.000    0.000 
#
# Total GULP energy -78157.523762 kJ/mol
# GULP energy per Si atom -5582.680269 kJ/mol
# Density = 2.388042 g / cm^3
# Si number density = 23.934894 Si / 1000 Ang^3
#
#
#
# Elastic Constant Matrix: (Units=GPa)
#
#
# Indices 1 2 3 4 5 6 
#
# 1 39.7038 8.3713 3.9185 17.6311 -10.6427 -5.4410
# 2 8.3713 134.7971 32.0928 23.4567 -2.7383 14.1609
# 3 3.9185 32.0928 116.3325 23.4232 1.0737 1.0594
# 4 17.6311 23.4567 23.4232 43.2939 3.1718 4.9140
# 5 -10.6427 -2.7383 1.0737 3.1718 26.8037 7.0258
# 6 -5.4410 14.1609 1.0594 4.9140 7.0258 16.1822
#
#
#
# Elastic Compliance Matrix: (Units=1/GPa)
#
#
# Indices 1 2 3 4 5 6 
#
# 1 0.039508 -0.000786 0.002587 -0.019649 0.014270 0.013574
# 2 -0.000786 0.009464 -0.001932 -0.002993 0.003447 -0.009008
# 3 0.002587 -0.001932 0.010206 -0.005953 0.000176 0.003623
# 4 -0.019649 -0.002993 -0.005953 0.037883 -0.009471 -0.010990
# 5 0.014270 0.003447 0.000176 -0.009471 0.048773 -0.016530
# 6 0.013574 -0.009008 0.003623 -0.010990 -0.016530 0.084520
#
#
# Mechanical properties :
#
#
# Convention : Reuss Voigt Hill
#
# Bulk Modulus (GPa) = 16.97334 42.17764 29.57549
# Shear Modulus (GPa) = 19.97963 33.68601 26.83282
#
# Velocity S-wave (km/s) = 2.89234 3.75561 3.35188
# Velocity P-wave (km/s) = 4.27329 6.03872 5.23102
#
# Compressibility (1/GPa) = 0.05891593
#
# Stress axis : x y z
#
# Youngs Moduli (GPa) = 25.31156 105.65874 97.98405
#
# Poissons Ratio (x) = 0.08308 -0.25349
# Poissons Ratio (y) = 0.01990 0.18928
# Poissons Ratio (z) = -0.06548 0.20410
#
# Static dielectric constant tensor:
#      x y z
#    x 2.003170 -0.120950 -0.016920 
#    y -0.120950 2.080740 -0.063690 
#    z -0.016920 -0.063690 1.847840 
# 
# From -- ./inp_files/619992.got.cif
#   From: 2010.05.17/outbox.cif.g08.bks.cpg/sg2_310_cif.got.tgz:619992.got - 2010.06.03 11:33:40.
