data_PCOD9040426
_publ_section_title
;
Structure prediction by ZEFSAII (Michael W. Deem and Ramdas Pophale) SiO2 
 PCOD9040426
Probable space group: P -1
;
_chemical_formula_sum "Si O2"
_cell_formula_units_Z 12
_cell_length_a 11.326747
_cell_length_b 6.291856
_cell_length_c 11.821188
_cell_angle_alpha 50.026348
_cell_angle_beta 128.906124
_cell_angle_gamma 120.875964
_cell_volume 493.820269
_symmetry_space_group_name_H-M "P -1"
_symmetry_group_IT_number 2
_symmetry_cell_setting 'triclinic'
loop_
_space_group_symop_operation_xyz
x,y,z
-x,-y,-z
loop_
_atom_site_type_symbol
_atom_site_label
_atom_site_fract_x
_atom_site_fract_y
_atom_site_fract_z
Si Si1 0.443600 0.167679 0.076223
Si Si2 0.191566 0.781006 0.440380
Si Si3 0.377355 0.702045 0.378064
Si Si4 0.712971 0.177460 0.073227
Si Si5 0.926042 0.276856 0.372488
Si Si6 0.839848 0.587073 0.836275
O O1 0.578084 0.066283 0.118933
O O2 0.421499 0.998147 0.237151
O O3 0.500000 0.500000 0.000000
O O4 0.292148 0.072092 0.937247
O O5 0.341166 0.739999 0.474229
O O6 0.197937 0.767346 0.584505
O O7 0.053504 0.537986 0.398627
O O8 0.151685 0.081695 0.279337
O O9 0.500000 0.500000 0.500000
O O10 0.221458 0.548051 0.273718
O O11 0.852535 0.293555 0.200454
O O12 0.709994 0.442504 0.898159
O O13 0.000000 0.000000 0.500000
O O14 0.000000 0.500000 0.000000
#
# Coordination Sequence:
#
# PCOD9040426 Si02
#       6
#     2   2   2   2   2   2
#     4  10  23  44  70  98 135 195 237 286 359 438
#     4  11  25  44  74 106 141 196 240 291 380 431
#     4  11  26  46  71 108 152 187 244 312 364 437
#     4  10  23  43  66  97 140 177 232 292 351 418
#     4  11  25  45  69 106 141 182 238 306 354 429
#     4  11  24  46  72 104 142 189 247 307 359 436
#
# _framework density 24.300339000000001
#
# number of rings (size 3 to 8) (size 9 to 14) (size 15 to 20)
#    0.000    1.333    0.000    4.000    4.667    8.667 
#    6.000    0.000    0.000    0.000    0.000    0.000 
#    0.000    0.000    0.000    0.000    0.000    0.000 
#
# Total GULP energy -67109.341572 kJ/mol
# GULP energy per Si atom -5592.445131 kJ/mol
# Density = 2.424503 g / cm^3
# Si number density = 24.300339 Si / 1000 Ang^3
#
#
#
# Elastic Constant Matrix: (Units=GPa)
#
#
# Indices 1 2 3 4 5 6 
#
# 1 143.4604 24.5591 39.9375 -6.4740 -35.8766 -15.4923
# 2 24.5591 172.2359 55.0219 -15.0669 -19.5987 5.6827
# 3 39.9375 55.0219 77.1483 3.1622 -24.4215 -15.6250
# 4 -6.4740 -15.0669 3.1622 51.3328 1.5307 -2.5867
# 5 -35.8766 -19.5987 -24.4215 1.5307 43.5113 6.1993
# 6 -15.4923 5.6827 -15.6250 -2.5867 6.1993 34.6921
#
#
#
# Elastic Compliance Matrix: (Units=1/GPa)
#
#
# Indices 1 2 3 4 5 6 
#
# 1 0.009501 0.000319 -0.002909 0.001387 0.006024 0.001907
# 2 0.000319 0.008435 -0.006944 0.002707 0.000680 -0.004287
# 3 -0.002909 -0.006944 0.023434 -0.003590 0.006474 0.008968
# 4 0.001387 0.002707 -0.003590 0.020692 -0.000404 0.000174
# 5 0.006024 0.000680 0.006474 -0.000404 0.031938 -0.000243
# 6 0.001907 -0.004287 0.008968 0.000174 -0.000243 0.034474
#
#
# Mechanical properties :
#
#
# Convention : Reuss Voigt Hill
#
# Bulk Modulus (GPa) = 44.84488 70.20907 57.52698
# Shear Modulus (GPa) = 32.26266 44.12898 38.19582
#
# Velocity S-wave (km/s) = 3.64766 4.26606 3.96892
# Velocity P-wave (km/s) = 6.01956 7.29525 6.68789
#
# Compressibility (1/GPa) = 0.02229909
#
# Stress axis : x y z
#
# Youngs Moduli (GPa) = 105.25225 118.55880 42.67333
#
# Poissons Ratio (x) = -0.03776 0.12415
# Poissons Ratio (y) = -0.03353 0.29634
# Poissons Ratio (z) = 0.30620 0.82333
#
# Static dielectric constant tensor:
#      x y z
#    x 2.059380 0.081630 0.110460 
#    y 0.081630 1.865240 -0.112900 
#    z 0.110460 -0.112900 1.583710 
# 
# From -- ./inp_files/72490.got.cif
#   From: 2010.05.17/outbox.cif.g08.bks.cpg/sg2_37_cif.got.tgz:72490.got - 2010.06.03 11:33:40.
