data_PCOD9040601
_publ_section_title
;
Structure prediction by ZEFSAII (Michael W. Deem and Ramdas Pophale) SiO2 
 PCOD9040601
Probable space group: P -1
;
_chemical_formula_sum "Si O2"
_cell_formula_units_Z 14
_cell_length_a 5.146403
_cell_length_b 20.051583
_cell_length_c 16.427752
_cell_angle_alpha 153.556651
_cell_angle_beta 50.947929
_cell_angle_gamma 118.497296
_cell_volume 567.391955
_symmetry_space_group_name_H-M "P -1"
_symmetry_group_IT_number 2
_symmetry_cell_setting 'triclinic'
loop_
_space_group_symop_operation_xyz
x,y,z
-x,-y,-z
loop_
_atom_site_type_symbol
_atom_site_label
_atom_site_fract_x
_atom_site_fract_y
_atom_site_fract_z
Si Si1 0.190788 0.134881 0.245188
Si Si2 0.387136 0.347753 0.771813
Si Si3 0.489176 0.170111 0.711975
Si Si4 0.287310 0.781214 0.026830
Si Si5 0.422770 0.111854 0.360681
Si Si6 0.664193 0.385784 0.019723
Si Si7 0.721682 0.607842 0.612123
O O1 0.272871 0.157096 0.348839
O O2 0.144833 0.293508 0.376098
O O3 0.839158 0.080594 0.243882
O O4 0.500000 0.000000 0.000000
O O5 0.590336 0.242831 0.688259
O O6 0.332176 0.242879 0.591988
O O7 0.036700 0.420279 0.972330
O O8 0.552714 0.480233 0.848234
O O9 0.728465 0.215201 0.781920
O O10 0.107052 0.226549 0.889478
O O11 0.500000 0.000000 0.500000
O O12 0.479429 0.639473 0.892882
O O13 0.325964 0.951617 0.227069
O O14 0.452722 0.738124 0.860085
O O15 0.500000 0.500000 0.500000
O O16 0.000000 0.500000 0.500000
#
# Coordination Sequence:
#
# PCOD9040601 Si02
#       7
#     2   2   2   2   2   2   2
#     4  12  28  50  76 107 147 190 249 307 368 435
#     4  10  24  42  66 104 139 189 233 298 359 448
#     4  11  23  42  72 106 142 190 239 303 366 450
#     4  11  27  44  71 104 144 190 246 304 370 436
#     4  12  27  46  78 107 142 194 246 301 371 436
#     4  10  23  43  67  98 149 179 241 288 373 434
#     4  12  30  50  76 109 150 195 249 311 371 437
#
# _framework density 24.674302999999998
#
# number of rings (size 3 to 8) (size 9 to 14) (size 15 to 20)
#    0.000    0.857    1.429    3.429   14.000    2.286 
#    0.000    0.000    0.000    0.000    0.000    0.000 
#    0.000    0.000    0.000    0.000    0.000    0.000 
#
# Total GULP energy -78205.142813 kJ/mol
# GULP energy per Si atom -5586.081629 kJ/mol
# Density = 2.461814 g / cm^3
# Si number density = 24.674303 Si / 1000 Ang^3
#
#
#
# Elastic Constant Matrix: (Units=GPa)
#
#
# Indices 1 2 3 4 5 6 
#
# 1 104.9807 39.0777 7.3603 -1.9150 4.0883 -2.9324
# 2 39.0777 163.1165 21.0629 3.7239 -2.3554 -13.7971
# 3 7.3603 21.0629 91.0321 -4.8167 6.2204 4.1915
# 4 -1.9150 3.7239 -4.8167 45.5440 -0.3221 4.6866
# 5 4.0883 -2.3554 6.2204 -0.3221 34.1338 -0.7294
# 6 -2.9324 -13.7971 4.1915 4.6866 -0.7294 42.2143
#
#
#
# Elastic Compliance Matrix: (Units=1/GPa)
#
#
# Indices 1 2 3 4 5 6 
#
# 1 0.010550 -0.002563 -0.000120 0.000650 -0.001417 -0.000190
# 2 -0.002563 0.007220 -0.001717 -0.001129 0.001161 0.002498
# 3 -0.000120 -0.001717 0.011719 0.001559 -0.002267 -0.001945
# 4 0.000650 -0.001129 0.001559 0.022547 -0.000291 -0.002987
# 5 -0.001417 0.001161 -0.002267 -0.000291 0.029979 0.001056
# 6 -0.000190 0.002498 -0.001945 -0.002987 0.001056 0.025035
#
#
# Mechanical properties :
#
#
# Convention : Reuss Voigt Hill
#
# Bulk Modulus (GPa) = 48.33743 54.90347 51.62045
# Shear Modulus (GPa) = 40.73421 43.82031 42.27726
#
# Velocity S-wave (km/s) = 4.06751 4.21877 4.14383
# Velocity P-wave (km/s) = 6.45695 6.78456 6.62278
#
# Compressibility (1/GPa) = 0.02068790
#
# Stress axis : x y z
#
# Youngs Moduli (GPa) = 94.78819 138.49998 85.33036
#
# Poissons Ratio (x) = 0.35501 0.01024
# Poissons Ratio (y) = 0.24297 0.14655
# Poissons Ratio (z) = 0.01137 0.23786
#
# Static dielectric constant tensor:
#      x y z
#    x 2.220790 -0.119080 -0.174540 
#    y -0.119080 1.984240 0.086260 
#    z -0.174540 0.086260 2.095920 
# 
# From -- ./inp_files/27733.got.cif
#   From: 2010.05.17/outbox.cif.g08.bks.cpg/sg2_14_cif.got.tgz:27733.got - 2010.06.03 11:33:40.
