data_PCOD9040087
_publ_section_title
;
Structure prediction by ZEFSAII (Michael W. Deem and Ramdas Pophale) SiO2 
 PCOD9040087
Probable space group: P -1
;
_chemical_formula_sum "Si O2"
_cell_formula_units_Z 14
_cell_length_a 9.018515
_cell_length_b 22.043432
_cell_length_c 10.107940
_cell_angle_alpha 42.461121
_cell_angle_beta 134.898522
_cell_angle_gamma 149.419946
_cell_volume 675.347261
_symmetry_space_group_name_H-M "P -1"
_symmetry_group_IT_number 2
_symmetry_cell_setting 'triclinic'
loop_
_space_group_symop_operation_xyz
x,y,z
-x,-y,-z
loop_
_atom_site_type_symbol
_atom_site_label
_atom_site_fract_x
_atom_site_fract_y
_atom_site_fract_z
Si Si1 0.714013 0.468991 0.327709
Si Si2 0.688115 0.664900 0.950914
Si Si3 0.406982 0.380902 0.556703
Si Si4 0.832012 0.072003 0.059610
Si Si5 0.700031 0.925750 0.705190
Si Si6 0.660651 0.364078 0.981603
Si Si7 0.211223 0.888406 0.332668
O O1 0.528407 0.373024 0.242923
O O2 0.512386 0.414350 0.419097
O O3 0.000000 0.500000 0.500000
O O4 0.786292 0.591535 0.125458
O O5 0.521477 0.628745 0.043094
O O6 0.970202 0.814071 0.894548
O O7 0.500000 0.500000 0.500000
O O8 0.057370 0.253291 0.550029
O O9 0.574283 0.356044 0.788458
O O10 0.988095 0.021617 0.232772
O O11 0.872052 0.118619 0.859340
O O12 0.500000 0.000000 0.000000
O O13 0.470204 0.774559 0.841780
O O14 0.521278 0.930408 0.478194
O O15 0.761121 0.010503 0.730627
O O16 0.000000 0.500000 0.000000
#
# Coordination Sequence:
#
# PCOD9040087 Si02
#       7
#     2   2   2   2   2   2   2
#     4  11  24  42  64  98 137 173 218 278 339 397
#     4  10  23  43  61  97 135 169 224 270 332 406
#     4  12  22  40  69  97 131 178 222 274 336 394
#     4  11  24  44  68  92 137 181 223 278 339 403
#     4  10  24  42  68  98 132 174 229 280 334 398
#     4  11  21  40  69  97 131 173 218 277 334 398
#     4  11  23  44  67  99 136 170 233 285 324 408
#
# _framework density 20.730077000000001
#
# number of rings (size 3 to 8) (size 9 to 14) (size 15 to 20)
#    0.000    1.143    4.286    2.143    0.000    7.429 
#    2.571    0.000    0.000    0.000    0.000    0.000 
#    0.000    0.000    0.000    0.000    0.000    0.000 
#
# Total GULP energy -78134.479945 kJ/mol
# GULP energy per Si atom -5581.034282 kJ/mol
# Density = 2.068289 g / cm^3
# Si number density = 20.730077 Si / 1000 Ang^3
#
#
#
# Elastic Constant Matrix: (Units=GPa)
#
#
# Indices 1 2 3 4 5 6 
#
# 1 84.2592 56.5391 29.7945 7.6750 20.6313 13.8929
# 2 56.5391 114.9055 26.2384 16.2394 18.2575 -5.7648
# 3 29.7945 26.2384 81.0133 37.6658 14.6882 -5.6710
# 4 7.6750 16.2394 37.6658 32.2106 -0.7621 1.6223
# 5 20.6313 18.2575 14.6882 -0.7621 38.8338 8.3367
# 6 13.8929 -5.7648 -5.6710 1.6223 8.3367 35.1422
#
#
#
# Elastic Compliance Matrix: (Units=1/GPa)
#
#
# Indices 1 2 3 4 5 6 
#
# 1 0.027896 -0.014165 -0.017811 0.022293 0.002863 -0.017935
# 2 -0.014165 0.017845 0.010505 -0.018748 -0.007993 0.012984
# 3 -0.017811 0.010505 0.048442 -0.059388 -0.020137 0.024101
# 4 0.022293 -0.018748 -0.059388 0.106983 0.028662 -0.033211
# 5 0.002863 -0.007993 -0.020137 0.028662 0.039694 -0.016433
# 6 -0.017935 0.012984 0.024101 -0.033211 -0.016433 0.046996
#
#
# Mechanical properties :
#
#
# Convention : Reuss Voigt Hill
#
# Bulk Modulus (GPa) = 19.51608 56.14690 37.83149
# Shear Modulus (GPa) = 14.37283 32.41104 23.39194
#
# Velocity S-wave (km/s) = 2.63598 3.95838 3.36282
# Velocity P-wave (km/s) = 4.32427 6.93074 5.77644
#
# Compressibility (1/GPa) = 0.05123980
#
# Stress axis : x y z
#
# Youngs Moduli (GPa) = 35.84698 56.03860 20.64345
#
# Poissons Ratio (x) = 0.79376 0.36769
# Poissons Ratio (y) = 0.50776 -0.21685
# Poissons Ratio (z) = 0.63848 -0.58866
#
# Static dielectric constant tensor:
#      x y z
#    x 1.884650 0.193080 -0.034100 
#    y 0.193080 1.981790 -0.101690 
#    z -0.034100 -0.101690 1.777570 
# 
# From -- ./inp_files/223283.got.cif
#   From: 2010.05.17/outbox.cif.g08.bks.cpg/sg2_112_cif.got.tgz:223283.got - 2010.06.03 11:33:40.
