data_PCOD9040975
_publ_section_title
;
Structure prediction by ZEFSAII (Michael W. Deem and Ramdas Pophale) SiO2 
 PCOD9040975
Probable space group: P -1
;
_chemical_formula_sum "Si O2"
_cell_formula_units_Z 16
_cell_length_a 16.887820
_cell_length_b 9.287689
_cell_length_c 8.171342
_cell_angle_alpha 98.158590
_cell_angle_beta 133.878081
_cell_angle_gamma 55.078499
_cell_volume 683.442838
_symmetry_space_group_name_H-M "P -1"
_symmetry_group_IT_number 2
_symmetry_cell_setting 'triclinic'
loop_
_space_group_symop_operation_xyz
x,y,z
-x,-y,-z
loop_
_atom_site_type_symbol
_atom_site_label
_atom_site_fract_x
_atom_site_fract_y
_atom_site_fract_z
Si Si1 0.588671 0.428326 0.282417
Si Si2 0.206352 0.000356 0.498288
Si Si3 0.027419 0.397034 0.743901
Si Si4 0.365813 0.407289 0.096124
Si Si5 0.753919 0.748783 0.261924
Si Si6 0.274417 0.105778 0.287866
Si Si7 0.055711 0.800579 0.620522
Si Si8 0.446363 0.238233 0.542764
O O1 0.590262 0.589711 0.375026
O O2 0.740804 0.211145 0.438340
O O3 0.500000 0.500000 0.000000
O O4 0.501307 0.397360 0.273166
O O5 0.291206 0.044726 0.742312
O O6 0.236981 0.026320 0.363586
O O7 0.040802 0.152118 0.350258
O O8 0.140443 0.360947 0.764048
O O9 0.983444 0.280314 0.588961
O O10 0.871492 0.616081 0.555045
O O11 0.123512 0.296520 0.025872
O O12 0.363341 0.274362 0.942094
O O13 0.223427 0.628892 0.884252
O O14 0.373923 0.332108 0.275966
O O15 0.376066 0.151947 0.497237
O O16 0.380102 0.938834 0.274032
O O17 0.000000 0.000000 0.500000
#
# Coordination Sequence:
#
# PCOD9040975 Si02
#       8
#     2   2   2   2   2   2   2   2
#     4  12  28  44  68 100 139 179 228 286 341 406
#     4  11  25  42  68 106 137 170 235 285 333 403
#     4   9  19  39  67  94 133 178 224 270 339 401
#     4  11  22  45  71  94 138 186 220 279 349 405
#     4   9  20  39  67 100 128 174 229 274 330 405
#     4  11  24  43  71 102 135 183 229 285 338 402
#     4  10  23  43  70 101 135 184 229 276 349 410
#     4  11  26  45  68 100 138 186 224 273 354 416
#
# _framework density 23.410882000000001
#
# number of rings (size 3 to 8) (size 9 to 14) (size 15 to 20)
#    0.000    1.500    2.500    1.875    7.000    1.000 
#    0.000    1.250    0.000    0.000    0.000    0.000 
#    0.000    0.000    0.000    0.000    0.000    0.000 
#
# Total GULP energy -89466.285435 kJ/mol
# GULP energy per Si atom -5591.642840 kJ/mol
# Density = 2.335760 g / cm^3
# Si number density = 23.410882 Si / 1000 Ang^3
#
#
#
# Elastic Constant Matrix: (Units=GPa)
#
#
# Indices 1 2 3 4 5 6 
#
# 1 65.4445 -3.2384 0.6440 -10.4595 -6.1769 0.2146
# 2 -3.2384 131.6708 16.4405 7.4419 4.6230 -2.0099
# 3 0.6440 16.4405 75.1529 -8.2220 -12.8245 -6.2206
# 4 -10.4595 7.4419 -8.2220 23.6374 1.6708 -3.2579
# 5 -6.1769 4.6230 -12.8245 1.6708 29.0716 -6.1243
# 6 0.2146 -2.0099 -6.2206 -3.2579 -6.1243 31.7258
#
#
#
# Elastic Compliance Matrix: (Units=1/GPa)
#
#
# Indices 1 2 3 4 5 6 
#
# 1 0.016956 -0.000386 0.001733 0.008179 0.004355 0.001881
# 2 -0.000386 0.008203 -0.002696 -0.003631 -0.002551 -0.000872
# 3 0.001733 -0.002696 0.016690 0.007561 0.008901 0.005585
# 4 0.008179 -0.003631 0.007561 0.050388 0.004271 0.007196
# 5 0.004355 -0.002551 0.008901 0.004271 0.041518 0.010007
# 6 0.001881 -0.000872 0.005585 0.007196 0.010007 0.035218
#
#
# Mechanical properties :
#
#
# Convention : Reuss Voigt Hill
#
# Bulk Modulus (GPa) = 25.54229 33.32893 29.43561
# Shear Modulus (GPa) = 27.06791 34.11511 30.59151
#
# Velocity S-wave (km/s) = 3.40400 3.82151 3.61878
# Velocity P-wave (km/s) = 5.13651 5.80856 5.48284
#
# Compressibility (1/GPa) = 0.03915075
#
# Stress axis : x y z
#
# Youngs Moduli (GPa) = 58.97646 121.90243 59.91789
#
# Poissons Ratio (x) = 0.04702 -0.10381
# Poissons Ratio (y) = 0.02275 0.16153
# Poissons Ratio (z) = -0.10218 0.32863
#
# Static dielectric constant tensor:
#      x y z
#    x 1.981230 -0.019090 0.033200 
#    y -0.019090 1.944820 -0.038780 
#    z 0.033200 -0.038780 1.877450 
# 
# From -- ./inp_files/329221.got.cif
#   From: 2010.05.17/outbox.cif.g08.bks.cpg/sg2_165_cif.got.tgz:329221.got - 2010.06.03 11:33:40.
