data_PCOD9040246
_publ_section_title
;
Structure prediction by ZEFSAII (Michael W. Deem and Ramdas Pophale) SiO2 
 PCOD9040246
Probable space group: P -1
;
_chemical_formula_sum "Si O2"
_cell_formula_units_Z 12
_cell_length_a 12.783371
_cell_length_b 13.420756
_cell_length_c 5.259858
_cell_angle_alpha 103.746902
_cell_angle_beta 55.862673
_cell_angle_gamma 141.156844
_cell_volume 432.498517
_symmetry_space_group_name_H-M "P -1"
_symmetry_group_IT_number 2
_symmetry_cell_setting 'triclinic'
loop_
_space_group_symop_operation_xyz
x,y,z
-x,-y,-z
loop_
_atom_site_type_symbol
_atom_site_label
_atom_site_fract_x
_atom_site_fract_y
_atom_site_fract_z
Si Si1 0.759415 0.207897 0.192143
Si Si2 0.639090 0.810935 0.399678
Si Si3 0.328875 0.468243 0.318990
Si Si4 0.615131 0.020050 0.699857
Si Si5 0.138651 0.528501 0.527764
Si Si6 0.020353 0.103163 0.733898
O O1 0.641726 0.105011 0.986819
O O2 0.712681 0.292876 0.424481
O O3 0.817751 0.179308 0.354210
O O4 0.985326 0.379782 0.856729
O O5 0.442639 0.614143 0.462162
O O6 0.598393 0.886538 0.674849
O O7 0.805508 0.832060 0.276330
O O8 0.781553 0.957684 0.073647
O O9 0.265108 0.514745 0.233419
O O10 0.127967 0.271237 0.562213
O O11 0.500000 0.500000 0.000000
O O12 0.500000 0.000000 0.500000
O O13 0.000000 0.500000 0.500000
O O14 0.000000 0.000000 0.500000
#
# Coordination Sequence:
#
# PCOD9040246 Si02
#       6
#     2   2   2   2   2   2
#     4  10  23  43  65 102 142 185 241 302 364 442
#     4  11  25  48  73 106 149 196 245 310 376 444
#     4  12  25  48  77 108 148 197 248 305 375 454
#     4  11  23  42  72 100 139 194 246 299 369 443
#     4  11  24  45  71 104 145 192 241 307 376 438
#     4  11  25  46  74 109 147 194 245 306 379 449
#
# _framework density 27.745757999999999
#
# number of rings (size 3 to 8) (size 9 to 14) (size 15 to 20)
#    0.000    1.000    3.333    2.500    0.000    8.000 
#    6.000    0.000    0.000    0.000    0.000    0.000 
#    0.000    0.000    0.000    0.000    0.000    0.000 
#
# Total GULP energy -66864.934423 kJ/mol
# GULP energy per Si atom -5572.077869 kJ/mol
# Density = 2.768261 g / cm^3
# Si number density = 27.745758 Si / 1000 Ang^3
#
#
#
# Elastic Constant Matrix: (Units=GPa)
#
#
# Indices 1 2 3 4 5 6 
#
# 1 96.9262 66.9198 22.6926 0.7246 -14.5197 -22.0986
# 2 66.9198 267.4673 67.7277 -19.6594 -7.2567 -23.6877
# 3 22.6926 67.7277 127.6793 -0.8318 16.5367 -25.0085
# 4 0.7246 -19.6594 -0.8318 48.0223 -18.6354 -16.8407
# 5 -14.5197 -7.2567 16.5367 -18.6354 36.8808 4.3686
# 6 -22.0986 -23.6877 -25.0085 -16.8407 4.3686 69.7167
#
#
#
# Elastic Compliance Matrix: (Units=1/GPa)
#
#
# Indices 1 2 3 4 5 6 
#
# 1 0.014086 -0.002546 -0.001328 0.002382 0.006453 0.003294
# 2 -0.002546 0.005476 -0.002665 0.003695 0.003042 0.000799
# 3 -0.001328 -0.002665 0.010927 -0.003082 -0.007781 0.002336
# 4 0.002382 0.003695 -0.003082 0.031979 0.018319 0.007482
# 5 0.006453 0.003042 -0.007781 0.018319 0.042758 0.002034
# 6 0.003294 0.000799 0.002336 0.007482 0.002034 0.018177
#
#
# Mechanical properties :
#
#
# Convention : Reuss Voigt Hill
#
# Bulk Modulus (GPa) = 57.43879 89.63922 73.53900
# Shear Modulus (GPa) = 35.14047 53.23948 44.18998
#
# Velocity S-wave (km/s) = 3.56268 4.38520 3.99516
# Velocity P-wave (km/s) = 6.13762 7.61692 6.91693
#
# Compressibility (1/GPa) = 0.01740984
#
# Stress axis : x y z
#
# Youngs Moduli (GPa) = 70.99301 182.62678 91.51347
#
# Poissons Ratio (x) = 0.46499 0.12152
# Poissons Ratio (y) = 0.18076 0.24393
# Poissons Ratio (z) = 0.09427 0.48679
#
# Static dielectric constant tensor:
#      x y z
#    x 1.513390 0.025540 -0.114420 
#    y 0.025540 2.104740 0.021910 
#    z -0.114420 0.021910 2.094790 
# 
# From -- ./inp_files/70350.got.cif
#   From: 2010.05.17/outbox.cif.g08.bks.cpg/sg2_36_cif.got.tgz:70350.got - 2010.06.03 11:33:40.
