data_PCOD9040296
_publ_section_title
;
Structure prediction by ZEFSAII (Michael W. Deem and Ramdas Pophale) SiO2 
 PCOD9040296
Probable space group: P -1
;
_chemical_formula_sum "Si O2"
_cell_formula_units_Z 15
_cell_length_a 7.750183
_cell_length_b 10.716521
_cell_length_c 11.980076
_cell_angle_alpha 87.361489
_cell_angle_beta 72.457576
_cell_angle_gamma 134.915727
_cell_volume 620.510609
_symmetry_space_group_name_H-M "P -1"
_symmetry_group_IT_number 2
_symmetry_cell_setting 'triclinic'
loop_
_space_group_symop_operation_xyz
x,y,z
-x,-y,-z
loop_
_atom_site_type_symbol
_atom_site_label
_atom_site_fract_x
_atom_site_fract_y
_atom_site_fract_z
Si Si1 0.663861 0.071664 0.581299
Si Si2 0.641815 0.847672 0.294721
Si Si3 0.607165 0.232430 0.175169
Si Si4 0.327244 0.333722 0.882956
Si Si5 0.500000 0.000000 0.000000
Si Si6 0.831072 0.530934 0.485040
Si Si7 0.018216 0.389209 0.804814
Si Si8 0.226153 0.255219 0.164724
O O1 0.549368 0.131358 0.668705
O O2 0.995115 0.261984 0.507211
O O3 0.500000 0.000000 0.500000
O O4 0.565949 0.902148 0.677515
O O5 0.690155 0.807033 0.168870
O O6 0.481609 0.658531 0.406604
O O7 0.934470 0.052110 0.272269
O O8 0.891597 0.437703 0.157090
O O9 0.445253 0.260890 0.146757
O O10 0.618661 0.130220 0.086646
O O11 0.146932 0.336396 0.845910
O O12 0.640123 0.550400 0.817533
O O13 0.217219 0.271071 0.032832
O O14 0.696383 0.195434 0.880187
O O15 0.858998 0.546760 0.345944
O O16 0.000000 0.500000 0.500000
#
# Coordination Sequence:
#
# PCOD9040296 Si02
#       8
#     2   2   2   2   1   2   2   2
#     4  11  25  46  68  99 140 179 225 288 343 405
#     4  11  24  42  73  96 130 187 224 276 341 402
#     4  11  24  43  68 101 141 175 228 287 337 406
#     4  10  24  44  68  97 141 173 230 281 333 412
#     4  12  24  40  70 102 134 180 230 276 348 396
#     4  10  23  43  65  95 135 174 227 285 331 403
#     4  11  24  45  65 103 137 178 229 285 340 401
#     4  10  24  45  67 101 137 178 224 281 339 405
#
# _framework density 24.173639999999999
#
# number of rings (size 3 to 8) (size 9 to 14) (size 15 to 20)
#    0.000    1.333    1.333    3.200    5.600    0.533 
#    2.400    2.000    0.000    0.000    0.000    0.000 
#    0.000    0.000    0.000    0.000    0.000    0.000 
#
# Total GULP energy -83657.786937 kJ/mol
# GULP energy per Si atom -5577.185796 kJ/mol
# Density = 2.411862 g / cm^3
# Si number density = 24.173640 Si / 1000 Ang^3
#
#
#
# Elastic Constant Matrix: (Units=GPa)
#
#
# Indices 1 2 3 4 5 6 
#
# 1 46.5580 -2.9619 2.7189 2.7100 31.7541 -6.0341
# 2 -2.9619 177.4159 15.1439 -29.0407 2.3701 1.1399
# 3 2.7189 15.1439 74.2118 -10.1703 37.0640 8.4554
# 4 2.7100 -29.0407 -10.1703 48.4777 13.4840 -2.1228
# 5 31.7541 2.3701 37.0640 13.4840 38.0130 3.9291
# 6 -6.0341 1.1399 8.4554 -2.1228 3.9291 16.1807
#
#
#
# Elastic Compliance Matrix: (Units=1/GPa)
#
#
# Indices 1 2 3 4 5 6 
#
# 1 -0.035843 -0.003502 -0.044637 -0.034486 0.087525 -0.015572
# 2 -0.003502 0.006053 -0.003638 0.001430 0.005694 -0.001027
# 3 -0.044637 -0.003638 -0.015733 -0.021746 0.063296 -0.026391
# 4 -0.034486 0.001430 -0.021746 0.004456 0.049693 -0.013080
# 5 0.087525 0.005694 0.063296 0.049693 -0.130365 0.037338
# 6 -0.015572 -0.001027 -0.026391 -0.013080 0.037338 0.059076
#
#
# Mechanical properties :
#
#
# Convention : Reuss Voigt Hill
#
# Bulk Modulus (GPa) = -6.70790 36.44308 14.86759
# Shear Modulus (GPa) = -85.47838 39.41994 -23.02922
#
# Velocity S-wave (km/s) = -5.95289 4.04257 -3.08986
# Velocity P-wave (km/s) = 7.07320 6.07438 2.56242
#
# Compressibility (1/GPa) = -0.14907805
#
# Stress axis : x y z
#
# Youngs Moduli (GPa) = -27.89913 165.20424 -63.56109
#
# Poissons Ratio (x) = 0.57860 -2.83719
# Poissons Ratio (y) = -0.09771 -0.23122
# Poissons Ratio (z) = -1.24534 0.60098
#
# Static dielectric constant tensor:
#      x y z
#    x 1.938510 0.043890 -0.022460 
#    y 0.043890 1.980900 -0.049500 
#    z -0.022460 -0.049500 1.959580 
# 
# From -- ./inp_files/390190.got.cif
#   From: 2010.05.17/outbox.cif.g08.bks.cpg/sg2_196_cif.got.tgz:390190.got - 2010.06.03 11:33:40.
