data_PCOD9040165
_publ_section_title
;
Structure prediction by ZEFSAII (Michael W. Deem and Ramdas Pophale) SiO2 
 PCOD9040165
Probable space group: P -1
;
_chemical_formula_sum "Si O2"
_cell_formula_units_Z 14
_cell_length_a 10.797673
_cell_length_b 17.435081
_cell_length_c 7.154671
_cell_angle_alpha 45.150511
_cell_angle_beta 122.486034
_cell_angle_gamma 142.011659
_cell_volume 587.211848
_symmetry_space_group_name_H-M "P -1"
_symmetry_group_IT_number 2
_symmetry_cell_setting 'triclinic'
loop_
_space_group_symop_operation_xyz
x,y,z
-x,-y,-z
loop_
_atom_site_type_symbol
_atom_site_label
_atom_site_fract_x
_atom_site_fract_y
_atom_site_fract_z
Si Si1 0.345332 0.319815 0.196990
Si Si2 0.369414 0.080574 0.248204
Si Si3 0.004830 0.207308 0.406547
Si Si4 0.955934 0.420603 0.907130
Si Si5 0.831620 0.826420 0.087124
Si Si6 0.714009 0.357889 0.491774
Si Si7 0.619743 0.090678 0.748701
O O1 0.181087 0.259879 0.324036
O O2 0.487857 0.287220 0.407169
O O3 0.500000 0.500000 0.000000
O O4 0.207707 0.229591 0.058695
O O5 0.331125 0.995110 0.172591
O O6 0.183880 0.968220 0.435192
O O7 0.541248 0.118562 0.452701
O O8 0.372459 0.207869 0.980281
O O9 0.111567 0.251359 0.618492
O O10 0.906267 0.271975 0.169866
O O11 0.789761 0.402802 0.687461
O O12 0.149605 0.511974 0.771508
O O13 0.000000 0.500000 0.000000
O O14 0.000000 0.000000 0.000000
O O15 0.761911 0.255644 0.660733
O O16 0.500000 0.000000 0.000000
#
# Coordination Sequence:
#
# PCOD9040165 Si02
#       7
#     2   2   2   2   2   2   2
#     4  12  26  47  72 106 145 184 244 290 353 424
#     4  10  23  43  64 106 134 181 232 291 342 421
#     4  11  25  44  71 100 141 189 232 291 358 417
#     4  11  25  44  70  96 138 186 237 289 357 419
#     4  10  25  44  71 103 143 183 234 292 353 420
#     4  11  25  45  67 104 137 184 235 296 350 422
#     4  11  23  41  71  97 140 177 235 287 350 412
#
# _framework density 23.841481000000002
#
# number of rings (size 3 to 8) (size 9 to 14) (size 15 to 20)
#    0.000    1.143    2.857    1.714    4.000    9.714 
#    0.000    0.000    0.000    0.000    0.000    0.000 
#    0.000    0.000    0.000    0.000    0.000    0.000 
#
# Total GULP energy -77986.734504 kJ/mol
# GULP energy per Si atom -5570.481036 kJ/mol
# Density = 2.378722 g / cm^3
# Si number density = 23.841481 Si / 1000 Ang^3
#
#
#
# Elastic Constant Matrix: (Units=GPa)
#
#
# Indices 1 2 3 4 5 6 
#
# 1 66.2492 6.9302 25.0827 13.7446 -17.1405 8.0233
# 2 6.9302 80.8039 35.7878 27.5790 -23.7252 -8.7370
# 3 25.0827 35.7878 108.5726 38.1732 -3.9370 -3.1912
# 4 13.7446 27.5790 38.1732 50.8219 -4.7799 -0.8209
# 5 -17.1405 -23.7252 -3.9370 -4.7799 34.3801 -3.0269
# 6 8.0233 -8.7370 -3.1912 -0.8209 -3.0269 25.1591
#
#
#
# Elastic Compliance Matrix: (Units=1/GPa)
#
#
# Indices 1 2 3 4 5 6 
#
# 1 0.020813 0.004631 -0.004803 -0.003459 0.012163 -0.004288
# 2 0.004631 0.022729 -0.004825 -0.008244 0.016962 0.007576
# 3 -0.004803 -0.004825 0.014318 -0.007296 -0.005026 0.000829
# 4 -0.003459 -0.008244 -0.007296 0.030130 -0.004255 -0.002214
# 5 0.012163 0.016962 -0.005026 -0.004255 0.046288 0.006804
# 6 -0.004288 0.007576 0.000829 -0.002214 0.006804 0.044597
#
#
# Mechanical properties :
#
#
# Convention : Reuss Voigt Hill
#
# Bulk Modulus (GPa) = 20.89268 43.46967 32.18117
# Shear Modulus (GPa) = 24.41106 34.59388 29.50247
#
# Velocity S-wave (km/s) = 3.20330 3.81333 3.52155
# Velocity P-wave (km/s) = 4.73959 6.13685 5.48291
#
# Compressibility (1/GPa) = 0.04786365
#
# Stress axis : x y z
#
# Youngs Moduli (GPa) = 48.04766 43.99688 69.84174
#
# Poissons Ratio (x) = -0.20374 0.33548
# Poissons Ratio (y) = -0.22250 0.33701
# Poissons Ratio (z) = 0.23079 0.21230
#
# Static dielectric constant tensor:
#      x y z
#    x 2.042660 0.021950 0.106570 
#    y 0.021950 2.003820 0.011750 
#    z 0.106570 0.011750 2.061550 
# 
# From -- ./inp_files/72455.got.cif
#   From: 2010.05.17/outbox.cif.g08.bks.cpg/sg2_37_cif.got.tgz:72455.got - 2010.06.03 11:33:40.
