data_PCOD9040397
_publ_section_title
;
Structure prediction by ZEFSAII (Michael W. Deem and Ramdas Pophale) SiO2 
 PCOD9040397
Probable space group: P -1
;
_chemical_formula_sum "Si O2"
_cell_formula_units_Z 15
_cell_length_a 25.679317
_cell_length_b 9.406375
_cell_length_c 9.339412
_cell_angle_alpha 43.036510
_cell_angle_beta 28.641031
_cell_angle_gamma 44.080275
_cell_volume 717.286007
_symmetry_space_group_name_H-M "P -1"
_symmetry_group_IT_number 2
_symmetry_cell_setting 'triclinic'
loop_
_space_group_symop_operation_xyz
x,y,z
-x,-y,-z
loop_
_atom_site_type_symbol
_atom_site_label
_atom_site_fract_x
_atom_site_fract_y
_atom_site_fract_z
Si Si1 0.000000 0.000000 0.000000
Si Si2 0.191549 0.947170 0.824811
Si Si3 0.111804 0.061564 0.234894
Si Si4 0.902830 0.534715 0.826514
Si Si5 0.413303 0.657233 0.191026
Si Si6 0.165624 0.824688 0.560425
Si Si7 0.598051 0.941868 0.920928
Si Si8 0.311024 0.481933 0.824376
O O1 0.078056 0.973881 0.987322
O O2 0.110171 0.044558 0.611849
O O3 0.240640 0.693172 0.917479
O O4 0.287277 0.020156 0.450226
O O5 0.177422 0.061323 0.928558
O O6 0.161632 0.875881 0.366391
O O7 0.092850 0.288464 0.194464
O O8 0.000000 0.000000 0.500000
O O9 0.000000 0.500000 0.500000
O O10 0.913108 0.303009 0.059112
O O11 0.782047 0.583280 0.005670
O O12 0.289431 0.707866 0.386707
O O13 0.400246 0.552428 0.453137
O O14 0.437925 0.887879 0.989107
O O15 0.500000 0.500000 0.000000
O O16 0.626868 0.703357 0.086189
O O17 0.500000 0.000000 0.000000
#
# Coordination Sequence:
#
# PCOD9040397 Si02
#       8
#     1   2   2   2   2   2   2   2
#     4  12  18  46  72  92 138 178 222 276 342 396
#     4  11  25  43  67 100 137 174 218 285 336 398
#     4  12  25  38  60  99 137 166 218 280 338 391
#     4  11  23  39  66  95 128 179 220 268 337 409
#     4  10  23  44  67  93 130 174 225 277 326 397
#     4  11  23  41  67  96 129 173 222 272 329 401
#     4  11  25  42  66  96 131 176 225 275 333 401
#     4  10  23  43  66  95 123 179 231 262 342 399
#
# _framework density 20.91216
#
# number of rings (size 3 to 8) (size 9 to 14) (size 15 to 20)
#    0.000    1.067    5.333    2.400    1.867    8.533 
#    0.000    0.000    0.000    0.000    0.000    0.000 
#    0.000    0.000    0.000    0.000    0.000    0.000 
#
# Total GULP energy -83540.616899 kJ/mol
# GULP energy per Si atom -5569.374460 kJ/mol
# Density = 2.086456 g / cm^3
# Si number density = 20.912160 Si / 1000 Ang^3
#
#
#
# Elastic Constant Matrix: (Units=GPa)
#
#
# Indices 1 2 3 4 5 6 
#
# 1 120.9575 65.3147 26.8440 4.5575 15.7845 -18.2397
# 2 65.3147 130.4582 35.4265 9.4316 11.2476 -6.3760
# 3 26.8440 35.4265 48.8039 16.5564 2.0608 -5.6616
# 4 4.5575 9.4316 16.5564 44.5281 1.7952 7.8487
# 5 15.7845 11.2476 2.0608 1.7952 29.8922 6.3113
# 6 -18.2397 -6.3760 -5.6616 7.8487 6.3113 57.7958
#
#
#
# Elastic Compliance Matrix: (Units=1/GPa)
#
#
# Indices 1 2 3 4 5 6 
#
# 1 0.012914 -0.005043 -0.002898 0.000379 -0.005545 0.003789
# 2 -0.005043 0.011863 -0.006025 0.000434 -0.001243 -0.000796
# 3 -0.002898 -0.006025 0.030121 -0.010149 0.001791 0.002554
# 4 0.000379 0.000434 -0.010149 0.026897 -0.000341 -0.004442
# 5 -0.005545 -0.001243 0.001791 -0.000341 0.037974 -0.005812
# 6 0.003789 -0.000796 0.002554 -0.004442 -0.005812 0.019898
#
#
# Mechanical properties :
#
#
# Convention : Reuss Voigt Hill
#
# Bulk Modulus (GPa) = 37.08103 61.71002 49.39553
# Shear Modulus (GPa) = 28.31464 37.95219 33.13341
#
# Velocity S-wave (km/s) = 3.68364 4.26471 3.98478
# Velocity P-wave (km/s) = 5.98854 7.33646 6.69650
#
# Compressibility (1/GPa) = 0.02696796
#
# Stress axis : x y z
#
# Youngs Moduli (GPa) = 77.43410 84.29601 33.19944
#
# Poissons Ratio (x) = 0.42509 0.09620
# Poissons Ratio (y) = 0.39049 0.20001
# Poissons Ratio (z) = 0.22438 0.50784
#
# Static dielectric constant tensor:
#      x y z
#    x 1.776360 -0.030370 0.009720 
#    y -0.030370 1.498280 -0.019280 
#    z 0.009720 -0.019280 1.839370 
# 
# From -- ./inp_files/351609.got.cif
#   From: 2010.05.17/outbox.cif.g08.bks.cpg/sg2_176_cif.got.tgz:351609.got - 2010.06.03 11:33:40.
