data_PCOD9040243
_publ_section_title
;
Structure prediction by ZEFSAII (Michael W. Deem and Ramdas Pophale) SiO2 
 PCOD9040243
Probable space group: P -1
;
_chemical_formula_sum "Si O2"
_cell_formula_units_Z 16
_cell_length_a 12.716253
_cell_length_b 5.454579
_cell_length_c 9.749699
_cell_angle_alpha 88.031544
_cell_angle_beta 74.784410
_cell_angle_gamma 98.691140
_cell_volume 643.113083
_symmetry_space_group_name_H-M "P -1"
_symmetry_group_IT_number 2
_symmetry_cell_setting 'triclinic'
loop_
_space_group_symop_operation_xyz
x,y,z
-x,-y,-z
loop_
_atom_site_type_symbol
_atom_site_label
_atom_site_fract_x
_atom_site_fract_y
_atom_site_fract_z
Si Si1 0.415907 0.252195 0.141501
Si Si2 0.355441 0.571769 0.919755
Si Si3 0.019998 0.071607 0.708724
Si Si4 0.771095 0.848206 0.173563
Si Si5 0.081673 0.337102 0.412089
Si Si6 0.785486 0.119214 0.875003
Si Si7 0.632511 0.014687 0.449538
Si Si8 0.322028 0.485060 0.402438
O O1 0.539913 0.203810 0.126526
O O2 0.407962 0.467866 0.251675
O O3 0.310166 0.030429 0.188981
O O4 0.403962 0.361051 0.993302
O O5 0.298557 0.429715 0.810546
O O6 0.262703 0.655371 0.045303
O O7 0.907420 0.182872 0.768006
O O8 0.112372 0.138129 0.789659
O O9 0.081257 0.139003 0.541379
O O10 0.967888 0.783846 0.708776
O O11 0.695459 0.010461 0.282468
O O12 0.796059 0.949515 0.009526
O O13 0.206841 0.460978 0.362428
O O14 0.000000 0.500000 0.500000
O O15 0.671151 0.270173 0.513508
O O16 0.500000 0.000000 0.500000
O O17 0.662873 0.762756 0.512819
#
# Coordination Sequence:
#
# PCOD9040243 Si02
#       8
#     2   2   2   2   2   2   2   2
#     4  10  23  43  65 102 135 176 241 290 360 421
#     4  10  24  42  66  97 138 183 230 295 352 432
#     4  11  24  45  63 100 137 176 248 287 367 420
#     4  11  25  44  64 100 139 185 234 292 360 432
#     4  11  25  41  71  97 139 189 234 306 356 428
#     4  11  24  40  72  92 137 183 235 295 353 431
#     4  12  28  47  75 108 147 192 241 298 367 432
#     4  12  26  46  77 106 144 190 239 306 357 432
#
# _framework density 24.878983000000002
#
# number of rings (size 3 to 8) (size 9 to 14) (size 15 to 20)
#    0.000    1.000    2.500    2.625    8.750    1.500 
#    0.000    0.000    0.000    0.000    0.000    0.000 
#    0.000    0.000    0.000    0.000    0.000    0.000 
#
# Total GULP energy -89410.555668 kJ/mol
# GULP energy per Si atom -5588.159729 kJ/mol
# Density = 2.482236 g / cm^3
# Si number density = 24.878983 Si / 1000 Ang^3
#
#
#
# Elastic Constant Matrix: (Units=GPa)
#
#
# Indices 1 2 3 4 5 6 
#
# 1 186.8236 51.8182 38.4634 22.6396 -5.5554 25.4985
# 2 51.8182 95.5758 30.9302 35.2503 11.2280 8.8274
# 3 38.4634 30.9302 119.2460 25.6667 -16.2661 14.7908
# 4 22.6396 35.2503 25.6667 54.6920 0.7821 3.6077
# 5 -5.5554 11.2280 -16.2661 0.7821 51.0708 5.8115
# 6 25.4985 8.8274 14.7908 3.6077 5.8115 38.9179
#
#
#
# Elastic Compliance Matrix: (Units=1/GPa)
#
#
# Indices 1 2 3 4 5 6 
#
# 1 0.007019 -0.003377 -0.000630 -0.000205 0.001745 -0.003835
# 2 -0.003377 0.016491 -0.002146 -0.008206 -0.004635 0.000740
# 3 -0.000630 -0.002146 0.010889 -0.003292 0.004329 -0.003580
# 4 -0.000205 -0.008206 -0.003292 0.025142 0.000248 0.000879
# 5 0.001745 -0.004635 0.004329 0.000248 0.022751 -0.005158
# 6 -0.003835 0.000740 -0.003580 0.000879 -0.005158 0.030089
#
#
# Mechanical properties :
#
#
# Convention : Reuss Voigt Hill
#
# Bulk Modulus (GPa) = 45.26257 71.56323 58.41290
# Shear Modulus (GPa) = 37.86399 47.63172 42.74786
#
# Velocity S-wave (km/s) = 3.90542 4.38029 4.14965
# Velocity P-wave (km/s) = 6.21039 7.37628 6.81830
#
# Compressibility (1/GPa) = 0.02209331
#
# Stress axis : x y z
#
# Youngs Moduli (GPa) = 142.46772 60.63955 91.83481
#
# Poissons Ratio (x) = 0.20475 0.05789
# Poissons Ratio (y) = 0.48105 0.19708
# Poissons Ratio (z) = 0.08981 0.13013
#
# Static dielectric constant tensor:
#      x y z
#    x 1.966630 0.030870 0.016020 
#    y 0.030870 2.205530 -0.121780 
#    z 0.016020 -0.121780 1.992060 
# 
# From -- ./inp_files/411025.got.cif
#   From: 2010.05.17/outbox.cif.g08.bks.cpg/sg2_206_cif.got.tgz:411025.got - 2010.06.03 11:33:40.
