data_PCOD9040901
_publ_section_title
;
Structure prediction by ZEFSAII (Michael W. Deem and Ramdas Pophale) SiO2 
 PCOD9040901
Probable space group: P -1
;
_chemical_formula_sum "Si O2"
_cell_formula_units_Z 13
_cell_length_a 16.649352
_cell_length_b 15.144685
_cell_length_c 8.541764
_cell_angle_alpha 63.816935
_cell_angle_beta 43.271646
_cell_angle_gamma 30.124217
_cell_volume 619.763259
_symmetry_space_group_name_H-M "P -1"
_symmetry_group_IT_number 2
_symmetry_cell_setting 'triclinic'
loop_
_space_group_symop_operation_xyz
x,y,z
-x,-y,-z
loop_
_atom_site_type_symbol
_atom_site_label
_atom_site_fract_x
_atom_site_fract_y
_atom_site_fract_z
Si Si1 0.283780 0.805429 0.304906
Si Si2 0.352435 0.141281 0.941367
Si Si3 0.819323 0.884490 0.302073
Si Si4 0.500000 0.500000 0.000000
Si Si5 0.943231 0.573886 0.344919
Si Si6 0.010284 0.062649 0.787396
Si Si7 0.376150 0.931972 0.887112
O O1 0.444723 0.596160 0.174325
O O2 0.384861 0.830089 0.062113
O O3 0.000000 0.000000 0.500000
O O4 0.240215 0.857646 0.509826
O O5 0.551380 0.047812 0.621661
O O6 0.266917 0.105176 0.004294
O O7 0.127675 0.378657 0.122927
O O8 0.500000 0.000000 0.000000
O O9 0.966833 0.673850 0.225251
O O10 0.936954 0.866881 0.278490
O O11 0.778924 0.968780 0.128564
O O12 0.249996 0.739757 0.092698
O O13 0.656493 0.756219 0.579891
O O14 0.000000 0.500000 0.500000
O O15 0.000000 0.000000 0.000000
#
# Coordination Sequence:
#
# PCOD9040901 Si02
#       7
#     2   2   2   1   2   2   2
#     4  10  23  43  69  96 130 176 225 278 336 398
#     4  11  21  39  62  93 131 177 217 270 331 391
#     4  11  24  40  63  98 134 171 221 278 333 402
#     4  10  24  44  70  94 130 172 224 278 338 392
#     4  11  23  38  65  97 128 174 221 263 330 398
#     4  11  25  46  70 100 134 177 230 280 341 404
#     4  11  24  41  65  95 137 173 220 279 331 397
#
# _framework density 20.975750999999999
#
# number of rings (size 3 to 8) (size 9 to 14) (size 15 to 20)
#    0.000    1.231    3.077    4.615    2.154    4.308 
#    0.000    4.615    0.000    0.000    0.000    0.000 
#    0.000    0.000    0.000    0.000    0.000    0.000 
#
# Total GULP energy -72384.030223 kJ/mol
# GULP energy per Si atom -5568.002325 kJ/mol
# Density = 2.092801 g / cm^3
# Si number density = 20.975751 Si / 1000 Ang^3
#
#
#
# Elastic Constant Matrix: (Units=GPa)
#
#
# Indices 1 2 3 4 5 6 
#
# 1 81.6817 23.3137 25.4764 11.3885 21.9547 6.5318
# 2 23.3137 90.4664 53.0671 26.6236 25.9252 16.2981
# 3 25.4764 53.0671 79.8310 9.2633 34.6032 24.3489
# 4 11.3885 26.6236 9.2633 42.3630 10.3070 23.8769
# 5 21.9547 25.9252 34.6032 10.3070 41.1905 3.8173
# 6 6.5318 16.2981 24.3489 23.8769 3.8173 49.7657
#
#
#
# Elastic Compliance Matrix: (Units=1/GPa)
#
#
# Indices 1 2 3 4 5 6 
#
# 1 0.014710 -0.000579 -0.001950 -0.002266 -0.005337 0.000709
# 2 -0.000579 0.024331 -0.018503 -0.017193 0.003997 0.009103
# 3 -0.001950 -0.018503 0.040227 0.021644 -0.024497 -0.021872
# 4 -0.002266 -0.017193 0.021644 0.049508 -0.016023 -0.027186
# 5 -0.005337 0.003997 -0.024497 -0.016023 0.047768 0.015401
# 6 0.000709 0.009103 -0.021872 -0.027186 0.015401 0.039583
#
#
# Mechanical properties :
#
#
# Convention : Reuss Voigt Hill
#
# Bulk Modulus (GPa) = 26.87891 50.63261 38.75576
# Shear Modulus (GPa) = 18.47804 36.67198 27.57501
#
# Velocity S-wave (km/s) = 2.97126 4.18581 3.62969
# Velocity P-wave (km/s) = 4.96117 6.89582 6.00690
#
# Compressibility (1/GPa) = 0.03720389
#
# Stress axis : x y z
#
# Youngs Moduli (GPa) = 67.98294 41.09937 24.85919
#
# Poissons Ratio (x) = 0.02378 0.04847
# Poissons Ratio (y) = 0.03934 0.45998
# Poissons Ratio (z) = 0.13254 0.76048
#
# Static dielectric constant tensor:
#      x y z
#    x 1.798330 -0.017030 0.021220 
#    y -0.017030 1.716390 0.009270 
#    z 0.021220 0.009270 1.720340 
# 
# From -- ./inp_files/193854.got.cif
#   From: 2010.05.17/outbox.cif.g08.bks.cpg/sg2_97_cif.got.tgz:193854.got - 2010.06.03 11:33:40.
