data_PCOD9040278
_publ_section_title
;
Structure prediction by ZEFSAII (Michael W. Deem and Ramdas Pophale) SiO2 
 PCOD9040278
Probable space group: P -1
;
_chemical_formula_sum "Si O2"
_cell_formula_units_Z 12
_cell_length_a 10.505098
_cell_length_b 10.592180
_cell_length_c 8.715564
_cell_angle_alpha 43.910855
_cell_angle_beta 59.570201
_cell_angle_gamma 90.916986
_cell_volume 447.092431
_symmetry_space_group_name_H-M "P -1"
_symmetry_group_IT_number 2
_symmetry_cell_setting 'triclinic'
loop_
_space_group_symop_operation_xyz
x,y,z
-x,-y,-z
loop_
_atom_site_type_symbol
_atom_site_label
_atom_site_fract_x
_atom_site_fract_y
_atom_site_fract_z
Si Si1 0.681113 0.525808 0.195358
Si Si2 0.072356 0.153811 0.672821
Si Si3 0.223082 0.539693 0.484276
Si Si4 0.943480 0.299838 0.381423
Si Si5 0.529640 0.031054 0.717680
Si Si6 0.612109 0.749520 0.794538
O O1 0.712197 0.541735 0.345247
O O2 0.522894 0.241508 0.511028
O O3 0.631084 0.680585 0.015545
O O4 0.873444 0.609674 0.912900
O O5 0.188729 0.409723 0.460054
O O6 0.186715 0.102797 0.542971
O O7 0.925378 0.129052 0.668468
O O8 0.000000 0.000000 0.000000
O O9 0.040836 0.501830 0.702251
O O10 0.375734 0.820996 0.111213
O O11 0.749706 0.171588 0.516512
O O12 0.521289 0.875184 0.725045
O O13 0.500000 0.500000 0.000000
#
# Coordination Sequence:
#
# PCOD9040278 Si02
#       6
#     2   2   2   2   2   2
#     4  10  24  41  70  92 126 171 210 261 316 370
#     4  11  26  40  64  96 129 166 208 266 317 367
#     4  11  22  43  65  96 125 165 217 254 316 381
#     4  10  23  43  65  94 125 168 213 258 316 377
#     4  11  23  42  70  92 129 167 212 261 314 376
#     4  11  25  45  61  98 130 164 215 258 319 380
#
# _framework density 26.840085999999999
#
# number of rings (size 3 to 8) (size 9 to 14) (size 15 to 20)
#    0.000    1.333    1.667    4.500    7.000    5.333 
#    0.000    0.000    0.000    0.000    0.000    0.000 
#    0.000    0.000    0.000    0.000    0.000    0.000 
#
# Total GULP energy -67111.387844 kJ/mol
# GULP energy per Si atom -5592.615654 kJ/mol
# Density = 2.677900 g / cm^3
# Si number density = 26.840086 Si / 1000 Ang^3
#
#
#
# Elastic Constant Matrix: (Units=GPa)
#
#
# Indices 1 2 3 4 5 6 
#
# 1 55.3662 -1.2076 39.1846 8.7820 26.3557 0.0106
# 2 -1.2076 103.1405 9.6546 -1.6175 -0.6984 -5.6450
# 3 39.1846 9.6546 136.8126 -0.4680 33.7216 -3.9964
# 4 8.7820 -1.6175 -0.4680 50.1720 -0.7941 -1.2050
# 5 26.3557 -0.6984 33.7216 -0.7941 44.0675 4.2046
# 6 0.0106 -5.6450 -3.9964 -1.2050 4.2046 35.5370
#
#
#
# Elastic Compliance Matrix: (Units=1/GPa)
#
#
# Indices 1 2 3 4 5 6 
#
# 1 0.028937 0.000680 -0.004949 -0.005282 -0.013698 0.000985
# 2 0.000680 0.009875 -0.000930 0.000230 0.000329 0.001433
# 3 -0.004949 -0.000930 0.010044 0.000891 -0.004876 0.001590
# 4 -0.005282 0.000230 0.000891 0.020929 0.002809 0.000516
# 5 -0.013698 0.000329 -0.004876 0.002809 0.035106 -0.004551
# 6 0.000985 0.001433 0.001590 0.000516 -0.004551 0.029102
#
#
# Mechanical properties :
#
#
# Convention : Reuss Voigt Hill
#
# Bulk Modulus (GPa) = 26.00224 43.39803 34.70014
# Shear Modulus (GPa) = 31.80475 42.46782 37.13629
#
# Velocity S-wave (km/s) = 3.44608 3.98207 3.72373
# Velocity P-wave (km/s) = 5.05399 6.11120 5.60756
#
# Compressibility (1/GPa) = 0.03845823
#
# Stress axis : x y z
#
# Youngs Moduli (GPa) = 34.55766 101.26796 99.56424
#
# Poissons Ratio (x) = -0.06890 0.49274
# Poissons Ratio (y) = -0.02351 0.09261
# Poissons Ratio (z) = 0.17103 0.09419
#
# Static dielectric constant tensor:
#      x y z
#    x 2.130430 0.027990 -0.096020 
#    y 0.027990 2.297320 -0.065740 
#    z -0.096020 -0.065740 2.174650 
# 
# From -- ./inp_files/144579.got.cif
#   From: 2010.05.17/outbox.cif.g08.bks.cpg/sg2_73_cif.got.tgz:144579.got - 2010.06.03 11:33:40.
