data_PCOD9040206
_publ_section_title
;
Structure prediction by ZEFSAII (Michael W. Deem and Ramdas Pophale) SiO2 
 PCOD9040206
Probable space group: P -1
;
_chemical_formula_sum "Si O2"
_cell_formula_units_Z 16
_cell_length_a 18.727951
_cell_length_b 6.248742
_cell_length_c 7.898411
_cell_angle_alpha 58.150783
_cell_angle_beta 51.074963
_cell_angle_gamma 77.435232
_cell_volume 601.667622
_symmetry_space_group_name_H-M "P -1"
_symmetry_group_IT_number 2
_symmetry_cell_setting 'triclinic'
loop_
_space_group_symop_operation_xyz
x,y,z
-x,-y,-z
loop_
_atom_site_type_symbol
_atom_site_label
_atom_site_fract_x
_atom_site_fract_y
_atom_site_fract_z
Si Si1 0.100731 0.418875 0.890763
Si Si2 0.448140 0.622703 0.784069
Si Si3 0.691937 0.893784 0.865863
Si Si4 0.012476 0.111890 0.712312
Si Si5 0.569149 0.266500 0.835439
Si Si6 0.809333 0.817589 0.400948
Si Si7 0.127430 0.517854 0.162017
Si Si8 0.291603 0.926695 0.850796
O O1 0.158503 0.432807 0.626174
O O2 0.159721 0.532942 0.914163
O O3 0.000000 0.500000 0.000000
O O4 0.068649 0.120067 0.107632
O O5 0.548645 0.521833 0.662965
O O6 0.394763 0.847679 0.697522
O O7 0.386917 0.359854 0.919044
O O8 0.440289 0.673849 0.975595
O O9 0.758444 0.821523 0.651365
O O10 0.664384 0.158854 0.727054
O O11 0.713155 0.944398 0.011679
O O12 0.086773 0.035490 0.766662
O O13 0.079208 0.236384 0.409578
O O14 0.959431 0.334355 0.758277
O O15 0.500000 0.000000 0.000000
O O16 0.744826 0.915889 0.313869
O O17 0.213509 0.668395 0.075788
#
# Coordination Sequence:
#
# PCOD9040206 Si02
#       8
#     2   2   2   2   2   2   2   2
#     4  12  24  44  65  88 127 174 224 281 331 390
#     4   9  18  38  68  99 127 171 216 252 326 383
#     4  10  23  43  64  97 134 167 216 264 320 393
#     4  11  24  43  63  91 122 172 228 273 336 393
#     4   8  16  37  70  96 129 170 208 261 312 387
#     4  12  25  42  63  94 132 170 217 272 330 387
#     4  11  24  43  65  92 125 169 226 277 330 390
#     4  11  24  42  64  95 134 170 212 273 325 384
#
# _framework density 26.592756999999999
#
# number of rings (size 3 to 8) (size 9 to 14) (size 15 to 20)
#    0.000    1.500    2.500    2.250    3.500    2.000 
#   11.250    0.625    0.000   25.500    0.000    0.000 
#    0.000    0.000    0.000    0.000    0.000    0.000 
#
# Total GULP energy -89203.065543 kJ/mol
# GULP energy per Si atom -5575.191596 kJ/mol
# Density = 2.653223 g / cm^3
# Si number density = 26.592757 Si / 1000 Ang^3
#
#
#
# Elastic Constant Matrix: (Units=GPa)
#
#
# Indices 1 2 3 4 5 6 
#
# 1 142.3943 65.7325 12.5268 1.5374 14.8402 -1.9551
# 2 65.7325 140.7228 22.5528 21.7373 26.2929 9.6434
# 3 12.5268 22.5528 39.4321 9.9853 11.6362 11.1903
# 4 1.5374 21.7373 9.9853 33.8521 3.1849 3.5897
# 5 14.8402 26.2929 11.6362 3.1849 19.1222 -14.7316
# 6 -1.9551 9.6434 11.1903 3.5897 -14.7316 83.5859
#
#
#
# Elastic Compliance Matrix: (Units=1/GPa)
#
#
# Indices 1 2 3 4 5 6 
#
# 1 0.009239 -0.004630 -0.001278 0.002830 0.000137 0.000824
# 2 -0.004630 0.014139 0.002805 -0.007188 -0.020537 -0.005426
# 3 -0.001278 0.002805 0.039797 -0.009051 -0.034310 -0.011340
# 4 0.002830 -0.007188 -0.009051 0.035631 0.008916 0.002148
# 5 0.000137 -0.020537 -0.034310 0.008916 0.121370 0.027974
# 6 0.000824 -0.005426 -0.011340 0.002148 0.027974 0.018965
#
#
# Mechanical properties :
#
#
# Convention : Reuss Voigt Hill
#
# Bulk Modulus (GPa) = 17.55386 58.24149 37.89767
# Shear Modulus (GPa) = 18.91534 42.09453 30.50493
#
# Velocity S-wave (km/s) = 2.66991 3.98292 3.39058
# Velocity P-wave (km/s) = 4.01496 6.56509 5.44152
#
# Compressibility (1/GPa) = 0.05696752
#
# Stress axis : x y z
#
# Youngs Moduli (GPa) = 108.23724 70.72795 25.12783
#
# Poissons Ratio (x) = 0.32747 0.03211
# Poissons Ratio (y) = 0.50114 -0.07047
# Poissons Ratio (z) = 0.13832 -0.19837
#
# Static dielectric constant tensor:
#      x y z
#    x 2.152790 -0.067090 0.034160 
#    y -0.067090 2.216540 0.033210 
#    z 0.034160 0.033210 2.192130 
# 
# From -- ./inp_files/322177.got.cif
#   From: 2010.05.17/outbox.cif.g08.bks.cpg/sg2_162_cif.got.tgz:322177.got - 2010.06.03 11:33:40.
