data_PCOD9040373
_publ_section_title
;
Structure prediction by ZEFSAII (Michael W. Deem and Ramdas Pophale) SiO2 
 PCOD9040373
Probable space group: P -1
;
_chemical_formula_sum "Si O2"
_cell_formula_units_Z 14
_cell_length_a 11.767435
_cell_length_b 5.085684
_cell_length_c 17.392649
_cell_angle_alpha 59.434622
_cell_angle_beta 142.646813
_cell_angle_gamma 111.000538
_cell_volume 541.675006
_symmetry_space_group_name_H-M "P -1"
_symmetry_group_IT_number 2
_symmetry_cell_setting 'triclinic'
loop_
_space_group_symop_operation_xyz
x,y,z
-x,-y,-z
loop_
_atom_site_type_symbol
_atom_site_label
_atom_site_fract_x
_atom_site_fract_y
_atom_site_fract_z
Si Si1 0.880888 0.816553 0.350433
Si Si2 0.444218 0.348694 0.893104
Si Si3 0.895179 0.425747 0.218456
Si Si4 0.788474 0.727062 0.972875
Si Si5 0.870106 0.334134 0.914268
Si Si6 0.199045 0.400095 0.520100
Si Si7 0.546079 0.635147 0.589141
O O1 0.701792 0.649116 0.255010
O O2 0.822483 0.899973 0.394520
O O3 0.088026 0.652223 0.477555
O O4 0.888344 0.070660 0.249428
O O5 0.307937 0.491498 0.865547
O O6 0.613957 0.532683 0.928296
O O7 0.500000 0.000000 0.000000
O O8 0.063255 0.411983 0.371606
O O9 0.923707 0.642829 0.131037
O O10 0.718041 0.084651 0.890404
O O11 0.886437 0.536698 0.977099
O O12 0.749112 0.546964 0.753804
O O13 0.000000 0.000000 0.000000
O O14 0.395726 0.497397 0.584844
O O15 0.500000 0.500000 0.500000
O O16 0.500000 0.000000 0.500000
#
# Coordination Sequence:
#
# PCOD9040373 Si02
#       7
#     2   2   2   2   2   2   2
#     4  10  23  43  66 109 139 196 236 318 387 459
#     4  11  24  38  68 106 140 188 243 305 389 463
#     4  11  23  41  70 101 142 189 243 306 388 463
#     4  11  26  45  73 101 153 191 257 309 388 462
#     4  11  30  49  76 110 149 208 262 322 387 453
#     4  10  25  43  70 100 149 186 255 311 384 461
#     4  12  31  52  83 114 154 210 270 327 396 466
#
# _framework density 25.845753999999999
#
# number of rings (size 3 to 8) (size 9 to 14) (size 15 to 20)
#    0.000    1.143    1.429    1.714   16.000    0.000 
#    0.000    0.000    0.000    0.000    0.000    0.000 
#    0.000    0.000    0.000    0.000    0.000    0.000 
#
# Total GULP energy -77941.420892 kJ/mol
# GULP energy per Si atom -5567.244349 kJ/mol
# Density = 2.578693 g / cm^3
# Si number density = 25.845754 Si / 1000 Ang^3
#
#
#
# Elastic Constant Matrix: (Units=GPa)
#
#
# Indices 1 2 3 4 5 6 
#
# 1 139.6143 46.2159 46.9791 6.1622 -1.9741 4.8753
# 2 46.2159 156.0878 59.7597 -11.0825 1.7553 -6.5432
# 3 46.9791 59.7597 199.3529 -4.1607 -12.2189 -5.4303
# 4 6.1622 -11.0825 -4.1607 40.8876 7.8805 -6.5577
# 5 -1.9741 1.7553 -12.2189 7.8805 50.3557 3.6600
# 6 4.8753 -6.5432 -5.4303 -6.5577 3.6600 24.2572
#
#
#
# Elastic Compliance Matrix: (Units=1/GPa)
#
#
# Indices 1 2 3 4 5 6 
#
# 1 0.008699 -0.002383 -0.001445 -0.002831 0.000778 -0.003597
# 2 -0.002383 0.008205 -0.001835 0.003246 -0.001580 0.003397
# 3 -0.001445 -0.001835 0.006022 0.000232 0.001360 0.001001
# 4 -0.002831 0.003246 0.000232 0.028418 -0.005341 0.009985
# 5 0.000778 -0.001580 0.001360 -0.005341 0.021471 -0.004961
# 6 -0.003597 0.003397 0.001001 0.009985 -0.004961 0.046536
#
#
# Mechanical properties :
#
#
# Convention : Reuss Voigt Hill
#
# Bulk Modulus (GPa) = 86.19785 88.99604 87.59694
# Shear Modulus (GPa) = 37.16241 45.90677 41.53459
#
# Velocity S-wave (km/s) = 3.79602 4.21905 4.01311
# Velocity P-wave (km/s) = 7.25509 7.63165 7.44575
#
# Compressibility (1/GPa) = 0.01160122
#
# Stress axis : x y z
#
# Youngs Moduli (GPa) = 114.95208 121.87263 166.05287
#
# Poissons Ratio (x) = 0.29043 0.23996
# Poissons Ratio (y) = 0.27394 0.30464
# Poissons Ratio (z) = 0.16612 0.22359
#
# Static dielectric constant tensor:
#      x y z
#    x 1.056380 -1.369710 0.458280 
#    y -1.369710 0.352470 1.317890 
#    z 0.458280 1.317890 0.891900 
# 
# From -- ./inp_files/100902.got.cif
#   From: 2010.05.17/outbox.cif.g08.bks.cpg/sg2_51_cif.got.tgz:100902.got - 2010.06.03 11:33:40.
