data_PCOD9040613
_publ_section_title
;
Structure prediction by ZEFSAII (Michael W. Deem and Ramdas Pophale) SiO2 
 PCOD9040613
Probable space group: P -1
;
_chemical_formula_sum "Si O2"
_cell_formula_units_Z 16
_cell_length_a 13.600526
_cell_length_b 12.145697
_cell_length_c 9.045787
_cell_angle_alpha 63.984600
_cell_angle_beta 100.485881
_cell_angle_gamma 148.484009
_cell_volume 640.703668
_symmetry_space_group_name_H-M "P -1"
_symmetry_group_IT_number 2
_symmetry_cell_setting 'triclinic'
loop_
_space_group_symop_operation_xyz
x,y,z
-x,-y,-z
loop_
_atom_site_type_symbol
_atom_site_label
_atom_site_fract_x
_atom_site_fract_y
_atom_site_fract_z
Si Si1 0.805576 0.046702 0.290606
Si Si2 0.151785 0.611474 0.351127
Si Si3 0.974702 0.586752 0.102751
Si Si4 0.079654 0.204185 0.482185
Si Si5 0.082485 0.308548 0.698794
Si Si6 0.507605 0.665523 0.694546
Si Si7 0.479470 0.804687 0.883506
Si Si8 0.493688 0.376582 0.757719
O O1 0.010363 0.229086 0.327388
O O2 0.637346 0.868871 0.478841
O O3 0.715894 0.852750 0.259957
O O4 0.861749 0.216890 0.097213
O O5 0.180428 0.506991 0.485580
O O6 0.000000 0.500000 0.500000
O O7 0.020349 0.503134 0.233687
O O8 0.362999 0.913252 0.222736
O O9 0.018148 0.725489 0.173956
O O10 0.744912 0.378315 0.111471
O O11 0.966641 0.100671 0.670134
O O12 0.322469 0.443333 0.415659
O O13 0.000000 0.000000 0.500000
O O14 0.264440 0.426536 0.748886
O O15 0.554150 0.795178 0.776796
O O16 0.530411 0.542907 0.757235
O O17 0.484178 0.718689 0.075222
#
# Coordination Sequence:
#
# PCOD9040613 Si02
#       8
#     2   2   2   2   2   2   2   2
#     4  12  23  40  67  95 137 174 217 268 328 390
#     4  10  23  44  73  92 131 174 222 277 328 382
#     4  10  23  43  68 100 130 175 221 271 331 390
#     4  12  24  42  67  98 136 177 217 268 330 393
#     4  10  24  46  68  97 131 172 229 267 329 393
#     4  11  24  41  69 101 132 179 217 267 334 392
#     4  11  24  45  68  99 134 171 225 273 323 395
#     4  12  23  43  66  98 143 171 215 276 327 389
#
# _framework density 24.972545
#
# number of rings (size 3 to 8) (size 9 to 14) (size 15 to 20)
#    0.000    1.000    5.000    1.500    3.500    4.500 
#    2.250    5.000    0.000    0.000    0.000    0.000 
#    0.000    0.000    0.000    0.000    0.000    0.000 
#
# Total GULP energy -89342.954218 kJ/mol
# GULP energy per Si atom -5583.934639 kJ/mol
# Density = 2.491571 g / cm^3
# Si number density = 24.972545 Si / 1000 Ang^3
#
#
#
# Elastic Constant Matrix: (Units=GPa)
#
#
# Indices 1 2 3 4 5 6 
#
# 1 65.3635 25.5167 -20.5861 2.5924 5.6056 -6.7051
# 2 25.5167 87.1167 20.8355 22.2511 -15.7023 6.8849
# 3 -20.5861 20.8355 87.8303 12.2909 -1.8334 -4.4742
# 4 2.5924 22.2511 12.2909 34.9479 2.1402 -6.5660
# 5 5.6056 -15.7023 -1.8334 2.1402 30.2116 12.5918
# 6 -6.7051 6.8849 -4.4742 -6.5660 12.5918 34.7842
#
#
#
# Elastic Compliance Matrix: (Units=1/GPa)
#
#
# Indices 1 2 3 4 5 6 
#
# 1 0.033160 -0.024045 0.012039 0.015434 -0.030055 0.026493
# 2 -0.024045 0.037718 -0.011710 -0.026638 0.038874 -0.032707
# 3 0.012039 -0.011710 0.016821 0.003682 -0.012584 0.012052
# 4 0.015434 -0.026638 0.003682 0.050793 -0.032639 0.030124
# 5 -0.030055 0.038874 -0.012584 -0.032639 0.081606 -0.050808
# 6 0.026493 -0.032707 0.012052 0.030124 -0.050808 0.065959
#
#
# Mechanical properties :
#
#
# Convention : Reuss Voigt Hill
#
# Bulk Modulus (GPa) = 24.83442 32.42696 28.63069
# Shear Modulus (GPa) = 14.41284 34.29170 24.35227
#
# Velocity S-wave (km/s) = 2.40500 3.70966 3.12615
# Velocity P-wave (km/s) = 4.20456 5.60018 4.95178
#
# Compressibility (1/GPa) = 0.04026669
#
# Stress axis : x y z
#
# Youngs Moduli (GPa) = 30.15636 26.51248 59.44818
#
# Poissons Ratio (x) = 0.63749 -0.71569
# Poissons Ratio (y) = 0.72511 0.69616
# Poissons Ratio (z) = -0.36305 0.31047
#
# Static dielectric constant tensor:
#      x y z
#    x 2.021960 -0.082690 0.026340 
#    y -0.082690 2.150980 0.014310 
#    z 0.026340 0.014310 1.959660 
# 
# From -- ./inp_files/307074.got.cif
#   From: 2010.05.17/outbox.cif.g08.bks.cpg/sg2_154_cif.got.tgz:307074.got - 2010.06.03 11:33:40.
