data_PCOD9040747
_publ_section_title
;
Structure prediction by ZEFSAII (Michael W. Deem and Ramdas Pophale) SiO2 
 PCOD9040747
Probable space group: P -1
;
_chemical_formula_sum "Si O2"
_cell_formula_units_Z 16
_cell_length_a 5.494828
_cell_length_b 7.555498
_cell_length_c 16.862073
_cell_angle_alpha 102.026750
_cell_angle_beta 117.125515
_cell_angle_gamma 92.760186
_cell_volume 601.076893
_symmetry_space_group_name_H-M "P -1"
_symmetry_group_IT_number 2
_symmetry_cell_setting 'triclinic'
loop_
_space_group_symop_operation_xyz
x,y,z
-x,-y,-z
loop_
_atom_site_type_symbol
_atom_site_label
_atom_site_fract_x
_atom_site_fract_y
_atom_site_fract_z
Si Si1 0.665840 0.387777 0.253302
Si Si2 0.824377 0.026324 0.220565
Si Si3 0.634817 0.404386 0.082365
Si Si4 0.715358 0.787824 0.332771
Si Si5 0.236209 0.879801 0.039911
Si Si6 0.415509 0.684902 0.597043
Si Si7 0.886776 0.277894 0.836528
Si Si8 0.219578 0.258597 0.489783
O O1 0.495776 0.394126 0.147130
O O2 0.818570 0.591213 0.318986
O O3 0.493187 0.303863 0.296222
O O4 0.873813 0.245075 0.252470
O O5 0.848067 0.935025 0.302057
O O6 0.507721 0.976758 0.136580
O O7 0.996128 0.910439 0.180391
O O8 0.915069 0.546694 0.150987
O O9 0.500000 0.500000 0.000000
O O10 0.677119 0.209349 0.036537
O O11 0.728953 0.846121 0.431374
O O12 0.400642 0.739579 0.252671
O O13 0.127019 0.715937 0.069934
O O14 0.000000 0.000000 0.000000
O O15 0.359690 0.469143 0.548257
O O16 0.621540 0.786162 0.570633
O O17 0.109518 0.740290 0.560319
#
# Coordination Sequence:
#
# PCOD9040747 Si02
#       8
#     2   2   2   2   2   2   2   2
#     4  11  24  42  69  95 134 175 220 284 337 406
#     4  11  24  45  62  97 135 171 225 277 340 403
#     4  12  23  41  66  93 128 177 226 272 336 404
#     4  10  23  43  68  98 127 180 218 276 341 404
#     4  11  25  40  61  93 125 175 225 277 336 394
#     4   9  20  39  64 106 131 178 229 280 346 413
#     4  11  23  42  64  91 135 169 225 279 334 407
#     4   9  19  39  71  96 139 175 228 282 341 419
#
# _framework density 26.618891000000001
#
# number of rings (size 3 to 8) (size 9 to 14) (size 15 to 20)
#    0.000    1.500    2.500    1.875    5.250    4.000 
#    4.500    1.250    0.000    0.000    0.000    0.000 
#    0.000    0.000    0.000    0.000    0.000    0.000 
#
# Total GULP energy -89620.251943 kJ/mol
# GULP energy per Si atom -5601.265746 kJ/mol
# Density = 2.655830 g / cm^3
# Si number density = 26.618891 Si / 1000 Ang^3
#
#
#
# Elastic Constant Matrix: (Units=GPa)
#
#
# Indices 1 2 3 4 5 6 
#
# 1 99.3598 21.8869 71.9206 -10.0515 -18.5330 1.7965
# 2 21.8869 133.7956 32.9074 2.9919 -5.4328 -7.8665
# 3 71.9206 32.9074 184.2834 -41.1398 -49.7946 7.4941
# 4 -10.0515 2.9919 -41.1398 46.1366 8.4990 -7.1552
# 5 -18.5330 -5.4328 -49.7946 8.4990 47.8642 -1.1345
# 6 1.7965 -7.8665 7.4941 -7.1552 -1.1345 34.6915
#
#
#
# Elastic Compliance Matrix: (Units=1/GPa)
#
#
# Indices 1 2 3 4 5 6 
#
# 1 0.014317 -0.000833 -0.006035 -0.002137 -0.000451 -0.000082
# 2 -0.000833 0.008196 -0.001920 -0.001949 -0.000999 0.001882
# 3 -0.006035 -0.001920 0.012346 0.008061 0.008838 -0.000838
# 4 -0.002137 -0.001949 0.008061 0.028702 0.002333 0.003923
# 5 -0.000451 -0.000999 0.008838 0.002333 0.029369 -0.000671
# 6 -0.000082 0.001882 -0.000838 0.003923 -0.000671 0.030225
#
#
# Mechanical properties :
#
#
# Convention : Reuss Voigt Hill
#
# Bulk Modulus (GPa) = 57.85728 74.54095 66.19911
# Shear Modulus (GPa) = 34.13154 45.12005 39.62580
#
# Velocity S-wave (km/s) = 3.58471 4.12155 3.86247
# Velocity P-wave (km/s) = 6.23828 7.12133 6.69438
#
# Compressibility (1/GPa) = 0.01728391
#
# Stress axis : x y z
#
# Youngs Moduli (GPa) = 69.84668 122.00628 80.99682
#
# Poissons Ratio (x) = 0.10166 0.48878
# Poissons Ratio (y) = 0.05820 0.15552
# Poissons Ratio (z) = 0.42149 0.23426
#
# Static dielectric constant tensor:
#      x y z
#    x 2.058610 -0.012660 -0.002450 
#    y -0.012660 2.115900 -0.004650 
#    z -0.002450 -0.004650 2.117210 
# 
# From -- ./inp_files/54005.got.cif
#   From: 2010.05.17/outbox.cif.g08.bks.cpg/sg2_28_cif.got.tgz:54005.got - 2010.06.03 11:33:40.
