data_PCOD9040059
_publ_section_title
;
Structure prediction by ZEFSAII (Michael W. Deem and Ramdas Pophale) SiO2 
 PCOD9040059
Probable space group: P -1
;
_chemical_formula_sum "Si O2"
_cell_formula_units_Z 12
_cell_length_a 13.092157
_cell_length_b 22.628330
_cell_length_c 5.117757
_cell_angle_alpha 78.408753
_cell_angle_beta 106.279770
_cell_angle_gamma 159.925894
_cell_volume 490.499918
_symmetry_space_group_name_H-M "P -1"
_symmetry_group_IT_number 2
_symmetry_cell_setting 'triclinic'
loop_
_space_group_symop_operation_xyz
x,y,z
-x,-y,-z
loop_
_atom_site_type_symbol
_atom_site_label
_atom_site_fract_x
_atom_site_fract_y
_atom_site_fract_z
Si Si1 0.371143 0.296215 0.039064
Si Si2 0.840346 0.279944 0.385817
Si Si3 0.682985 0.260100 0.795333
Si Si4 0.803908 0.070843 0.973748
Si Si5 0.759518 0.599379 0.744031
Si Si6 0.356315 0.209940 0.603132
O O1 0.595208 0.467993 0.949068
O O2 0.001734 0.230953 0.082872
O O3 0.390553 0.253090 0.881546
O O4 0.029945 0.144175 0.929915
O O5 0.870236 0.326891 0.643613
O O6 0.060146 0.344296 0.389829
O O7 0.512698 0.932466 0.708030
O O8 0.853506 0.339589 0.121580
O O9 0.580441 0.273020 0.656462
O O10 0.363081 0.052993 0.797675
O O11 0.421797 0.297288 0.363268
O O12 0.500000 0.500000 0.500000
O O13 0.000000 0.000000 0.500000
#
# Coordination Sequence:
#
# PCOD9040059 Si02
#       6
#     2   2   2   2   2   2
#     4  12  26  42  71 110 142 183 230 298 358 405
#     4  10  24  47  72 105 139 189 242 281 354 426
#     4  10  23  42  77 103 133 184 249 286 336 413
#     4  10  24  45  74 102 143 187 242 278 351 421
#     4  12  28  48  71 107 151 184 233 300 366 419
#     4  12  22  44  72 104 141 184 238 291 341 425
#
# _framework density 24.464834
#
# number of rings (size 3 to 8) (size 9 to 14) (size 15 to 20)
#    1.000    0.000    1.667    4.500    2.333    4.667 
#    0.000    5.000    0.000    0.000    0.000    0.000 
#    0.000    0.000    0.000    0.000    0.000    0.000 
#
# Total GULP energy -67282.162670 kJ/mol
# GULP energy per Si atom -5606.846889 kJ/mol
# Density = 2.440915 g / cm^3
# Si number density = 24.464834 Si / 1000 Ang^3
#
#
#
# Elastic Constant Matrix: (Units=GPa)
#
#
# Indices 1 2 3 4 5 6 
#
# 1 114.6565 36.1523 33.4171 -6.0891 12.7597 40.4992
# 2 36.1523 97.4965 22.4532 -7.2887 10.1319 7.5015
# 3 33.4171 22.4532 92.9581 -5.5820 -5.9685 9.5282
# 4 -6.0891 -7.2887 -5.5820 30.1945 5.9156 -1.5499
# 5 12.7597 10.1319 -5.9685 5.9156 45.6610 1.2587
# 6 40.4992 7.5015 9.5282 -1.5499 1.2587 54.9148
#
#
#
# Elastic Compliance Matrix: (Units=1/GPa)
#
#
# Indices 1 2 3 4 5 6 
#
# 1 0.014781 -0.003369 -0.003649 0.001745 -0.003819 -0.009671
# 2 -0.003369 0.012276 -0.001888 0.002466 -0.002384 0.001260
# 3 -0.003649 -0.001888 0.012683 0.000601 0.002999 0.000697
# 4 0.001745 0.002466 0.000601 0.035224 -0.005503 -0.000608
# 5 -0.003819 -0.002384 0.002999 -0.005503 0.024549 0.001904
# 6 -0.009671 0.001260 0.000697 -0.000608 0.001904 0.024988
#
#
# Mechanical properties :
#
#
# Convention : Reuss Voigt Hill
#
# Bulk Modulus (GPa) = 45.60502 54.35069 49.97785
# Shear Modulus (GPa) = 33.41730 40.35998 36.88864
#
# Velocity S-wave (km/s) = 3.69986 4.06607 3.88728
# Velocity P-wave (km/s) = 6.07729 6.65643 6.37344
#
# Compressibility (1/GPa) = 0.02192741
#
# Stress axis : x y z
#
# Youngs Moduli (GPa) = 67.65339 81.45934 78.84810
#
# Poissons Ratio (x) = 0.27445 0.28772
# Poissons Ratio (y) = 0.22794 0.14887
# Poissons Ratio (z) = 0.24687 0.15380
#
# Static dielectric constant tensor:
#      x y z
#    x 1.856170 -0.007890 0.015840 
#    y -0.007890 1.980950 0.024060 
#    z 0.015840 0.024060 1.918060 
# 
# From -- ./inp_files/101471.got.cif
#   From: 2010.05.17/outbox.cif.g08.bks.cpg/sg2_51_cif.got.tgz:101471.got - 2010.06.03 11:33:40.
