data_PCOD9040550
_publ_section_title
;
Structure prediction by ZEFSAII (Michael W. Deem and Ramdas Pophale) SiO2 
 PCOD9040550
Probable space group: P -1
;
_chemical_formula_sum "Si O2"
_cell_formula_units_Z 16
_cell_length_a 23.846979
_cell_length_b 8.603745
_cell_length_c 9.688476
_cell_angle_alpha 30.809450
_cell_angle_beta 131.312124
_cell_angle_gamma 129.956060
_cell_volume 749.987890
_symmetry_space_group_name_H-M "P -1"
_symmetry_group_IT_number 2
_symmetry_cell_setting 'triclinic'
loop_
_space_group_symop_operation_xyz
x,y,z
-x,-y,-z
loop_
_atom_site_type_symbol
_atom_site_label
_atom_site_fract_x
_atom_site_fract_y
_atom_site_fract_z
Si Si1 0.089182 0.008800 0.142018
Si Si2 0.152418 0.404982 0.701205
Si Si3 0.091064 0.039658 0.617853
Si Si4 0.548411 0.476127 0.296418
Si Si5 0.686316 0.552758 0.675183
Si Si6 0.448802 0.893895 0.694603
Si Si7 0.311026 0.757536 0.789299
Si Si8 0.154212 0.435691 0.167643
O O1 0.126241 0.289717 0.086666
O O2 0.109497 0.681015 0.464577
O O3 0.124142 0.103905 0.977265
O O4 0.000000 0.000000 0.000000
O O5 0.128672 0.298025 0.590865
O O6 0.241365 0.528099 0.779180
O O7 0.128517 0.156355 0.444425
O O8 0.000000 0.000000 0.500000
O O9 0.113031 0.711042 0.933821
O O10 0.613994 0.524373 0.479523
O O11 0.570744 0.308306 0.322322
O O12 0.475814 0.244914 0.420790
O O13 0.521017 0.782099 0.966939
O O14 0.755515 0.444470 0.791120
O O15 0.713994 0.916893 0.472003
O O16 0.670651 0.380415 0.927911
O O17 0.381821 0.834332 0.741657
#
# Coordination Sequence:
#
# PCOD9040550 Si02
#       8
#     2   2   2   2   2   2   2   2
#     4  12  23  43  70  92 130 176 217 268 331 390
#     4  12  24  44  63 100 132 170 221 274 326 394
#     4  12  26  44  67  97 131 171 225 277 331 391
#     4  10  23  44  66  98 129 172 215 262 319 390
#     4  12  25  43  67  97 135 171 220 265 325 391
#     4  10  23  43  67  96 132 169 216 261 323 384
#     4  12  24  43  65  98 134 173 215 271 322 391
#     4  12  24  44  65  98 131 172 218 274 327 393
#
# _framework density 21.333679
#
# number of rings (size 3 to 8) (size 9 to 14) (size 15 to 20)
#    0.000    0.500    2.500    6.000    1.750    3.000 
#    4.500    0.000    0.000    0.000    0.000    0.000 
#    0.000    0.000    0.000    0.000    0.000    0.000 
#
# Total GULP energy -89544.108537 kJ/mol
# GULP energy per Si atom -5596.506784 kJ/mol
# Density = 2.128512 g / cm^3
# Si number density = 21.333679 Si / 1000 Ang^3
#
#
#
# Elastic Constant Matrix: (Units=GPa)
#
#
# Indices 1 2 3 4 5 6 
#
# 1 81.4517 20.3307 5.8813 21.1059 -10.0977 7.6531
# 2 20.3307 102.7012 -6.3383 21.2437 -0.6740 -3.3832
# 3 5.8813 -6.3383 93.1114 -0.1571 -4.3698 -3.5399
# 4 21.1059 21.2437 -0.1571 34.9648 -3.7136 3.5724
# 5 -10.0977 -0.6740 -4.3698 -3.7136 45.7351 -2.8546
# 6 7.6531 -3.3832 -3.5399 3.5724 -2.8546 22.0244
#
#
#
# Elastic Compliance Matrix: (Units=1/GPa)
#
#
# Indices 1 2 3 4 5 6 
#
# 1 0.015452 -0.001678 -0.001153 -0.007623 0.002391 -0.004266
# 2 -0.001678 0.011570 0.000997 -0.006414 -0.000407 0.003508
# 3 -0.001153 0.000997 0.011019 -0.000008 0.000965 0.002451
# 4 -0.007623 -0.006414 -0.000008 0.037647 0.001009 -0.004313
# 5 0.002391 -0.000407 0.000965 0.001009 0.022688 0.002039
# 6 -0.004266 0.003508 0.002451 -0.004313 0.002039 0.048783
#
#
# Mechanical properties :
#
#
# Convention : Reuss Voigt Hill
#
# Bulk Modulus (GPa) = 29.09233 35.22353 32.15793
# Shear Modulus (GPa) = 30.80991 37.70424 34.25707
#
# Velocity S-wave (km/s) = 3.80437 4.20856 4.01156
# Velocity P-wave (km/s) = 5.74144 6.33739 6.04676
#
# Compressibility (1/GPa) = 0.03437332
#
# Stress axis : x y z
#
# Youngs Moduli (GPa) = 64.71692 86.42780 90.75224
#
# Poissons Ratio (x) = 0.14503 0.10464
# Poissons Ratio (y) = 0.10860 -0.09049
# Poissons Ratio (z) = 0.07462 -0.08618
#
# Static dielectric constant tensor:
#      x y z
#    x 1.726670 -0.011300 0.015450 
#    y -0.011300 1.807130 0.025390 
#    z 0.015450 0.025390 1.731080 
# 
# From -- ./inp_files/48417.got.cif
#   From: 2010.05.17/outbox.cif.g08.bks.cpg/sg2_25_cif.got.tgz:48417.got - 2010.06.03 11:33:40.
