data_PCOD9040872
_publ_section_title
;
Structure prediction by ZEFSAII (Michael W. Deem and Ramdas Pophale) SiO2 
 PCOD9040872
Probable space group: P -1
;
_chemical_formula_sum "Si O2"
_cell_formula_units_Z 13
_cell_length_a 6.242488
_cell_length_b 11.925182
_cell_length_c 8.477701
_cell_angle_alpha 84.184987
_cell_angle_beta 114.147841
_cell_angle_gamma 105.237313
_cell_volume 555.619339
_symmetry_space_group_name_H-M "P -1"
_symmetry_group_IT_number 2
_symmetry_cell_setting 'triclinic'
loop_
_space_group_symop_operation_xyz
x,y,z
-x,-y,-z
loop_
_atom_site_type_symbol
_atom_site_label
_atom_site_fract_x
_atom_site_fract_y
_atom_site_fract_z
Si Si1 0.281564 0.707524 0.755834
Si Si2 0.181355 0.475361 0.376745
Si Si3 0.570124 0.896605 0.630722
Si Si4 0.684867 0.585566 0.928105
Si Si5 0.837331 0.242320 0.933144
Si Si6 0.470456 0.300635 0.583262
Si Si7 0.000000 0.000000 0.000000
O O1 0.318313 0.817523 0.637572
O O2 0.548152 0.686171 0.843157
O O3 0.099837 0.582531 0.690497
O O4 0.201290 0.744906 0.895018
O O5 0.265856 0.465669 0.220104
O O6 0.290983 0.385564 0.527134
O O7 0.298935 0.607590 0.438974
O O8 0.648557 0.808466 0.544184
O O9 0.500000 0.000000 0.500000
O O10 0.774586 0.940683 0.817001
O O11 0.500000 0.500000 0.000000
O O12 0.946517 0.647315 0.067931
O O13 0.588164 0.252095 0.774184
O O14 0.916473 0.124292 0.943571
#
# Coordination Sequence:
#
# PCOD9040872 Si02
#       7
#     2   2   2   2   2   2   1
#     4  11  23  46  72 101 141 187 233 295 356 423
#     4  10  23  43  69 104 149 181 233 291 354 432
#     4  12  25  48  73 101 138 190 242 293 355 414
#     4  11  21  41  69 104 140 186 228 288 362 425
#     4  11  24  44  70 104 143 186 243 287 354 423
#     4  11  22  46  68 104 149 183 230 298 349 430
#     4  12  24  50  74  94 144 186 242 306 338 422
#
# _framework density 23.397317000000001
#
# number of rings (size 3 to 8) (size 9 to 14) (size 15 to 20)
#    0.000    0.923    4.615    2.769    0.000    3.692 
#   11.077    1.538    0.000    0.000    0.000    0.000 
#    0.000    0.000    0.000    0.000    0.000    0.000 
#
# Total GULP energy -72373.394407 kJ/mol
# GULP energy per Si atom -5567.184185 kJ/mol
# Density = 2.334406 g / cm^3
# Si number density = 23.397317 Si / 1000 Ang^3
#
#
#
# Elastic Constant Matrix: (Units=GPa)
#
#
# Indices 1 2 3 4 5 6 
#
# 1 58.0131 13.0013 8.1507 -3.8107 -4.3640 8.0310
# 2 13.0013 142.8084 31.6034 1.6928 2.2605 -15.0354
# 3 8.1507 31.6034 62.3743 0.6184 31.4137 0.8735
# 4 -3.8107 1.6928 0.6184 57.1290 6.0409 5.5077
# 5 -4.3640 2.2605 31.4137 6.0409 38.3398 -7.7813
# 6 8.0310 -15.0354 0.8735 5.5077 -7.7813 28.4543
#
#
#
# Elastic Compliance Matrix: (Units=1/GPa)
#
#
# Indices 1 2 3 4 5 6 
#
# 1 0.019240 -0.001594 -0.003627 0.001472 0.003934 -0.005370
# 2 -0.001594 0.010152 -0.009795 -0.002178 0.009440 0.009118
# 3 -0.003627 -0.009795 0.040280 0.005114 -0.036992 -0.016495
# 4 0.001472 -0.002178 0.005114 0.019261 -0.008508 -0.007778
# 5 0.003934 0.009440 -0.036992 -0.008508 0.062441 0.023735
# 6 -0.005370 0.009118 -0.016495 -0.007778 0.023735 0.049980
#
#
# Mechanical properties :
#
#
# Convention : Reuss Voigt Hill
#
# Bulk Modulus (GPa) = 25.22802 40.96741 33.09772
# Shear Modulus (GPa) = 20.44141 38.81399 29.62770
#
# Velocity S-wave (km/s) = 2.95899 4.07739 3.56235
# Velocity P-wave (km/s) = 4.74131 6.30192 5.57648
#
# Compressibility (1/GPa) = 0.03963846
#
# Stress axis : x y z
#
# Youngs Moduli (GPa) = 51.97385 98.50671 24.82609
#
# Poissons Ratio (x) = 0.15702 0.09005
# Poissons Ratio (y) = 0.08285 0.24318
# Poissons Ratio (z) = 0.18853 0.96492
#
# Static dielectric constant tensor:
#      x y z
#    x 1.874270 0.005950 -0.017630 
#    y 0.005950 1.897180 -0.011750 
#    z -0.017630 -0.011750 1.965920 
# 
# From -- ./inp_files/131575.got.cif
#   From: 2010.05.17/outbox.cif.g08.bks.cpg/sg2_66_cif.got.tgz:131575.got - 2010.06.03 11:33:40.
