data_PCOD9040971
_publ_section_title
;
Structure prediction by ZEFSAII (Michael W. Deem and Ramdas Pophale) SiO2 
 PCOD9040971
Probable space group: P -1
;
_chemical_formula_sum "Si O2"
_cell_formula_units_Z 14
_cell_length_a 24.927479
_cell_length_b 24.952159
_cell_length_c 14.049026
_cell_angle_alpha 23.399336
_cell_angle_beta 157.893341
_cell_angle_gamma 168.520822
_cell_volume 648.824530
_symmetry_space_group_name_H-M "P -1"
_symmetry_group_IT_number 2
_symmetry_cell_setting 'triclinic'
loop_
_space_group_symop_operation_xyz
x,y,z
-x,-y,-z
loop_
_atom_site_type_symbol
_atom_site_label
_atom_site_fract_x
_atom_site_fract_y
_atom_site_fract_z
Si Si1 0.948294 0.849853 0.838498
Si Si2 0.452036 0.954794 0.881749
Si Si3 0.568608 0.755052 0.686657
Si Si4 0.345468 0.407322 0.495691
Si Si5 0.840222 0.749827 0.039780
Si Si6 0.190553 0.758305 0.331140
Si Si7 0.990064 0.386856 0.946149
O O1 0.613977 0.612612 0.671377
O O2 0.973202 0.848080 0.994361
O O3 0.117277 0.109481 0.641675
O O4 0.062877 0.804961 0.054207
O O5 0.170647 0.650345 0.871027
O O6 0.465781 0.121756 0.602523
O O7 0.730100 0.120345 0.018435
O O8 0.500000 0.000000 0.000000
O O9 0.608608 0.680913 0.786904
O O10 0.326405 0.511548 0.759958
O O11 0.873624 0.996060 0.844490
O O12 0.500000 0.500000 0.500000
O O13 0.206865 0.439786 0.205604
O O14 0.147452 0.688943 0.260204
O O15 0.000000 0.500000 0.500000
O O16 0.500000 0.000000 0.500000
#
# Coordination Sequence:
#
# PCOD9040971 Si02
#       7
#     2   2   2   2   2   2   2
#     4  12  26  45  74 104 139 189 240 296 365 427
#     4  12  28  48  73 106 146 195 246 296 367 434
#     4  10  23  44  68  97 141 177 242 290 361 418
#     4  12  26  47  72 102 143 184 244 293 351 434
#     4  10  23  43  70 101 129 186 234 300 350 423
#     4  12  28  46  74 109 149 186 240 289 368 448
#     4  12  28  48  75 106 145 197 238 306 364 423
#
# _framework density 21.577480999999999
#
# number of rings (size 3 to 8) (size 9 to 14) (size 15 to 20)
#    0.000    0.571    1.429    5.143   12.000    0.000 
#    0.000    0.000    0.000    0.000    0.000    0.000 
#    0.000    0.000    0.000    0.000    0.000    0.000 
#
# Total GULP energy -78127.546533 kJ/mol
# GULP energy per Si atom -5580.539038 kJ/mol
# Density = 2.152837 g / cm^3
# Si number density = 21.577481 Si / 1000 Ang^3
#
#
#
# Elastic Constant Matrix: (Units=GPa)
#
#
# Indices 1 2 3 4 5 6 
#
# 1 159.5109 87.0521 40.5117 -11.7111 -43.6346 15.7391
# 2 87.0521 358.6663 119.4545 -38.8756 -94.8352 82.7791
# 3 40.5117 119.4545 152.1419 -18.7872 -25.2708 26.0464
# 4 -11.7111 -38.8756 -18.7872 53.5521 16.7284 -18.3358
# 5 -43.6346 -94.8352 -25.2708 16.7284 57.9028 -28.0369
# 6 15.7391 82.7791 26.0464 -18.3358 -28.0369 70.0783
#
#
#
# Elastic Compliance Matrix: (Units=1/GPa)
#
#
# Indices 1 2 3 4 5 6 
#
# 1 0.008204 -0.000436 -0.001155 -0.000252 0.005668 0.001303
# 2 -0.000436 0.006935 -0.003401 0.000058 0.007726 -0.003724
# 3 -0.001155 -0.003401 0.009249 0.001423 -0.002764 0.000106
# 4 -0.000252 0.000058 0.001423 0.021616 -0.004022 0.003507
# 5 0.005668 0.007726 -0.002764 -0.004022 0.036097 0.004017
# 6 0.001303 -0.003724 0.000106 0.003507 0.004017 0.020861
#
#
# Mechanical properties :
#
#
# Convention : Reuss Voigt Hill
#
# Bulk Modulus (GPa) = 69.42428 129.37288 99.39858
# Shear Modulus (GPa) = 42.46352 64.52671 53.49512
#
# Velocity S-wave (km/s) = 4.44098 5.47445 4.98457
# Velocity P-wave (km/s) = 7.65119 10.00235 8.90471
#
# Compressibility (1/GPa) = 0.01440418
#
# Stress axis : x y z
#
# Youngs Moduli (GPa) = 121.89435 144.19001 108.11619
#
# Poissons Ratio (x) = 0.06285 0.12488
# Poissons Ratio (y) = 0.05313 0.36773
# Poissons Ratio (z) = 0.14079 0.49042
#
# Static dielectric constant tensor:
#      x y z
#    x 1.919610 -0.084150 0.059200 
#    y -0.084150 1.828400 0.049040 
#    z 0.059200 0.049040 1.714580 
# 
# From -- ./inp_files/544579.got.cif
#   From: 2010.05.17/outbox.cif.g08.bks.cpg/sg2_273_cif.got.tgz:544579.got - 2010.06.03 11:33:40.
