data_PCOD9040428
_publ_section_title
;
Structure prediction by ZEFSAII (Michael W. Deem and Ramdas Pophale) SiO2 
 PCOD9040428
Probable space group: P -1
;
_chemical_formula_sum "Si O2"
_cell_formula_units_Z 12
_cell_length_a 11.628087
_cell_length_b 8.417367
_cell_length_c 15.089112
_cell_angle_alpha 75.124128
_cell_angle_beta 150.112224
_cell_angle_gamma 123.901700
_cell_volume 510.734018
_symmetry_space_group_name_H-M "P -1"
_symmetry_group_IT_number 2
_symmetry_cell_setting 'triclinic'
loop_
_space_group_symop_operation_xyz
x,y,z
-x,-y,-z
loop_
_atom_site_type_symbol
_atom_site_label
_atom_site_fract_x
_atom_site_fract_y
_atom_site_fract_z
Si Si1 0.871493 0.188855 0.196413
Si Si2 0.186232 0.764963 0.574958
Si Si3 0.175869 0.998408 0.379575
Si Si4 0.787330 0.857872 0.963613
Si Si5 0.784045 0.466768 0.783393
Si Si6 0.711452 0.597209 0.409193
O O1 0.985337 0.054845 0.291046
O O2 0.997017 0.324492 0.168445
O O3 0.062789 0.386593 0.371439
O O4 0.500000 0.000000 0.000000
O O5 0.554852 0.899378 0.822231
O O6 0.000000 0.500000 0.500000
O O7 0.007802 0.805035 0.515302
O O8 0.149527 0.821216 0.445015
O O9 0.552796 0.233525 0.604406
O O10 0.014764 0.916115 0.187335
O O11 0.537012 0.596739 0.800712
O O12 0.000000 0.000000 0.000000
O O13 0.528622 0.440949 0.675152
O O14 0.000000 0.500000 0.000000
#
# Coordination Sequence:
#
# PCOD9040428 Si02
#       6
#     2   2   2   2   2   2
#     4  11  24  44  73 105 143 188 239 296 361 424
#     4  10  25  45  68 106 147 186 240 291 356 426
#     4  11  25  44  75 100 146 190 237 291 367 418
#     4  11  23  44  71 100 141 184 241 296 353 428
#     4  11  26  44  70 105 142 184 243 295 352 426
#     4  10  23  43  66  97 144 178 236 292 350 418
#
# _framework density 23.495594000000001
#
# number of rings (size 3 to 8) (size 9 to 14) (size 15 to 20)
#    0.000    1.333    0.000    5.000    9.333    4.667 
#    6.000    0.000    0.000    0.000    0.000    0.000 
#    0.000    0.000    0.000    0.000    0.000    0.000 
#
# Total GULP energy -66846.585945 kJ/mol
# GULP energy per Si atom -5570.548829 kJ/mol
# Density = 2.344212 g / cm^3
# Si number density = 23.495594 Si / 1000 Ang^3
#
#
#
# Elastic Constant Matrix: (Units=GPa)
#
#
# Indices 1 2 3 4 5 6 
#
# 1 121.2823 48.2925 78.6738 8.1686 -4.8391 38.5678
# 2 48.2925 122.4241 79.4915 -18.7415 -7.5267 27.0829
# 3 78.6738 79.4915 230.6013 -1.6637 -23.6659 34.7013
# 4 8.1686 -18.7415 -1.6637 24.3245 13.0073 -12.8089
# 5 -4.8391 -7.5267 -23.6659 13.0073 63.7018 6.4095
# 6 38.5678 27.0829 34.7013 -12.8089 6.4095 35.8695
#
#
#
# Elastic Compliance Matrix: (Units=1/GPa)
#
#
# Indices 1 2 3 4 5 6 
#
# 1 0.031497 -0.009395 0.001618 -0.054177 0.018069 -0.050913
# 2 -0.009395 0.015434 -0.004696 0.025676 -0.007231 0.013452
# 3 0.001618 -0.004696 0.007644 -0.012889 0.006176 -0.011295
# 4 -0.054177 0.025676 -0.012889 0.170623 -0.052958 0.121727
# 5 0.018069 -0.007231 0.006176 -0.052958 0.033842 -0.044901
# 6 -0.050913 0.013452 -0.011295 0.121727 -0.044901 0.134883
#
#
# Mechanical properties :
#
#
# Convention : Reuss Voigt Hill
#
# Bulk Modulus (GPa) = 33.75213 98.58038 66.16625
# Shear Modulus (GPa) = 11.66195 42.63582 27.14888
#
# Velocity S-wave (km/s) = 2.23030 4.26447 3.40294
# Velocity P-wave (km/s) = 4.58572 8.14221 6.60774
#
# Compressibility (1/GPa) = 0.02962776
#
# Stress axis : x y z
#
# Youngs Moduli (GPa) = 31.74931 64.79368 130.82294
#
# Poissons Ratio (x) = 0.60872 -0.21163
# Poissons Ratio (y) = 0.29828 0.61437
# Poissons Ratio (z) = -0.05136 0.30428
#
# Static dielectric constant tensor:
#      x y z
#    x 2.025690 -0.108440 -0.037730 
#    y -0.108440 1.962880 0.055420 
#    z -0.037730 0.055420 1.928960 
# 
# From -- ./inp_files/190749.got.cif
#   From: 2010.05.17/outbox.cif.g08.bks.cpg/sg2_96_cif.got.tgz:190749.got - 2010.06.03 11:33:40.
