data_PCOD9040852
_publ_section_title
;
Structure prediction by ZEFSAII (Michael W. Deem and Ramdas Pophale) SiO2 
 PCOD9040852
Probable space group: P -1
;
_chemical_formula_sum "Si O2"
_cell_formula_units_Z 14
_cell_length_a 6.620577
_cell_length_b 13.429767
_cell_length_c 21.187814
_cell_angle_alpha 158.862481
_cell_angle_beta 112.428999
_cell_angle_gamma 67.944340
_cell_volume 626.856513
_symmetry_space_group_name_H-M "P -1"
_symmetry_group_IT_number 2
_symmetry_cell_setting 'triclinic'
loop_
_space_group_symop_operation_xyz
x,y,z
-x,-y,-z
loop_
_atom_site_type_symbol
_atom_site_label
_atom_site_fract_x
_atom_site_fract_y
_atom_site_fract_z
Si Si1 0.508814 0.479611 0.913547
Si Si2 0.022514 0.539937 0.337283
Si Si3 0.233497 0.041739 0.835952
Si Si4 0.093477 0.333097 0.472834
Si Si5 0.272212 0.902027 0.387303
Si Si6 0.012172 0.557100 0.860705
Si Si7 0.503372 0.495159 0.421422
O O1 0.663488 0.239614 0.756208
O O2 0.259416 0.455265 0.846795
O O3 0.500000 0.500000 0.000000
O O4 0.607228 0.755528 0.059553
O O5 0.275726 0.532817 0.381593
O O6 0.913538 0.476715 0.353828
O O7 0.992277 0.365784 0.167919
O O8 0.903016 0.839907 0.486172
O O9 0.379228 0.808829 0.753407
O O10 0.075020 0.906927 0.685829
O O11 0.069977 0.200350 0.958843
O O12 0.343325 0.270261 0.446978
O O13 0.000000 0.500000 0.500000
O O14 0.159765 0.678026 0.285270
O O15 0.500000 0.000000 0.500000
O O16 0.500000 0.500000 0.500000
#
# Coordination Sequence:
#
# PCOD9040852 Si02
#       7
#     2   2   2   2   2   2   2
#     4  11  27  44  72 101 139 185 228 288 353 396
#     4  12  25  42  74  99 136 185 227 283 349 399
#     4  10  25  45  67 101 144 172 238 285 332 425
#     4  10  23  43  69 103 133 177 238 278 329 417
#     4  11  26  47  68 102 137 178 242 284 335 426
#     4  11  27  44  66 103 140 183 227 282 357 400
#     4  11  24  43  72 103 134 181 230 282 344 403
#
# _framework density 22.333660999999999
#
# number of rings (size 3 to 8) (size 9 to 14) (size 15 to 20)
#    0.000    1.143    4.286    0.429    8.000    1.714 
#    0.000    5.000    0.000    0.000    0.000    0.000 
#    0.000    0.000    0.000    0.000    0.000    0.000 
#
# Total GULP energy -78186.279449 kJ/mol
# GULP energy per Si atom -5584.734246 kJ/mol
# Density = 2.228283 g / cm^3
# Si number density = 22.333661 Si / 1000 Ang^3
#
#
#
# Elastic Constant Matrix: (Units=GPa)
#
#
# Indices 1 2 3 4 5 6 
#
# 1 123.0377 35.2265 29.0433 -13.0274 1.9341 -4.8110
# 2 35.2265 108.0983 13.9169 -28.0649 -2.8473 1.2363
# 3 29.0433 13.9169 48.5742 -1.7718 -3.1279 6.8522
# 4 -13.0274 -28.0649 -1.7718 40.6832 1.2157 -10.7968
# 5 1.9341 -2.8473 -3.1279 1.2157 47.5180 -4.7384
# 6 -4.8110 1.2363 6.8522 -10.7968 -4.7384 55.1302
#
#
#
# Elastic Compliance Matrix: (Units=1/GPa)
#
#
# Indices 1 2 3 4 5 6 
#
# 1 0.010454 -0.002121 -0.005904 0.002197 -0.000792 0.002056
# 2 -0.002121 0.012316 -0.002129 0.008088 0.000621 0.001441
# 3 -0.005904 -0.002129 0.025282 -0.003403 0.001450 -0.004152
# 4 0.002197 0.008088 -0.003403 0.032520 0.000018 0.006804
# 5 -0.000792 0.000621 0.001450 0.000018 0.021366 0.001577
# 6 0.002056 0.001441 -0.004152 0.006804 0.001577 0.020270
#
#
# Mechanical properties :
#
#
# Convention : Reuss Voigt Hill
#
# Bulk Modulus (GPa) = 36.04275 48.45372 42.24823
# Shear Modulus (GPa) = 32.94634 42.10117 37.52375
#
# Velocity S-wave (km/s) = 3.84498 4.34648 4.10340
# Velocity P-wave (km/s) = 5.99043 6.85067 6.43494
#
# Compressibility (1/GPa) = 0.02774483
#
# Stress axis : x y z
#
# Youngs Moduli (GPa) = 95.65925 81.19763 39.55407
#
# Poissons Ratio (x) = 0.17219 0.23352
# Poissons Ratio (y) = 0.20286 0.08420
# Poissons Ratio (z) = 0.56475 0.17285
#
# Static dielectric constant tensor:
#      x y z
#    x 2.057140 0.015330 0.172020 
#    y 0.015330 1.822070 0.002010 
#    z 0.172020 0.002010 2.036600 
# 
# From -- ./inp_files/604668.got.cif
#   From: 2010.05.17/outbox.cif.g08.bks.cpg/sg2_303_cif.got.tgz:604668.got - 2010.06.03 11:33:40.
