data_PCOD9040107
_publ_section_title
;
Structure prediction by ZEFSAII (Michael W. Deem and Ramdas Pophale) SiO2 
 PCOD9040107
Probable space group: P -1
;
_chemical_formula_sum "Si O2"
_cell_formula_units_Z 16
_cell_length_a 10.799374
_cell_length_b 11.956043
_cell_length_c 14.046920
_cell_angle_alpha 30.546799
_cell_angle_beta 117.189875
_cell_angle_gamma 96.851403
_cell_volume 651.861822
_symmetry_space_group_name_H-M "P -1"
_symmetry_group_IT_number 2
_symmetry_cell_setting 'triclinic'
loop_
_space_group_symop_operation_xyz
x,y,z
-x,-y,-z
loop_
_atom_site_type_symbol
_atom_site_label
_atom_site_fract_x
_atom_site_fract_y
_atom_site_fract_z
Si Si1 0.827999 0.631402 0.475974
Si Si2 0.275035 0.397131 0.936390
Si Si3 0.836556 0.817849 0.701204
Si Si4 0.771819 0.728096 0.178440
Si Si5 0.872888 0.941063 0.412477
Si Si6 0.640347 0.574743 0.855906
Si Si7 0.300344 0.705387 0.315246
Si Si8 0.296694 0.870863 0.399548
O O1 0.721183 0.737219 0.262734
O O2 0.779460 0.855557 0.373173
O O3 0.808025 0.403956 0.676403
O O4 0.023496 0.508236 0.601106
O O5 0.325868 0.328033 0.893876
O O6 0.080206 0.685948 0.666859
O O7 0.389298 0.395116 0.061987
O O8 0.271313 0.142386 0.150370
O O9 0.824274 0.935291 0.508198
O O10 0.684457 0.783469 0.689744
O O11 0.834035 0.998890 0.652230
O O12 0.000000 0.500000 0.000000
O O13 0.758077 0.002418 0.957077
O O14 0.802183 0.250792 0.135815
O O15 0.482072 0.658196 0.671872
O O16 0.500000 0.500000 0.500000
O O17 0.277480 0.739469 0.396897
#
# Coordination Sequence:
#
# PCOD9040107 Si02
#       8
#     2   2   2   2   2   2   2   2
#     4  10  23  43  65  97 129 166 227 271 317 381
#     4   9  18  40  65  92 130 163 211 268 322 385
#     4  11  22  41  68  93 129 169 210 268 328 381
#     4   9  21  43  67  94 125 169 217 278 320 374
#     4  11  23  38  66 100 123 168 219 260 323 393
#     4  11  23  40  64  94 135 161 211 266 324 391
#     4  11  25  43  66  92 132 178 217 261 328 390
#     4  10  23  43  62  97 128 172 215 260 330 389
#
# _framework density 24.545079000000001
#
# number of rings (size 3 to 8) (size 9 to 14) (size 15 to 20)
#    0.000    1.750    2.500    2.250    3.500    2.000 
#    4.500    0.000    0.000    0.000    0.000    0.000 
#    0.000    0.000    0.000    0.000    0.000    0.000 
#
# Total GULP energy -89417.052386 kJ/mol
# GULP energy per Si atom -5588.565774 kJ/mol
# Density = 2.448921 g / cm^3
# Si number density = 24.545079 Si / 1000 Ang^3
#
#
#
# Elastic Constant Matrix: (Units=GPa)
#
#
# Indices 1 2 3 4 5 6 
#
# 1 56.0821 22.8629 23.3015 -8.1328 -10.9500 -1.6870
# 2 22.8629 133.0414 37.4578 -29.2857 -22.9010 -11.7504
# 3 23.3015 37.4578 110.2013 2.0386 -9.1497 -7.3117
# 4 -8.1328 -29.2857 2.0386 19.6602 1.8184 -6.8174
# 5 -10.9500 -22.9010 -9.1497 1.8184 40.2221 -5.4546
# 6 -1.6870 -11.7504 -7.3117 -6.8174 -5.4546 38.8081
#
#
#
# Elastic Compliance Matrix: (Units=1/GPa)
#
#
# Indices 1 2 3 4 5 6 
#
# 1 0.022268 0.001731 -0.004805 0.013029 0.005867 0.003700
# 2 0.001731 0.018676 -0.005708 0.032272 0.009936 0.011720
# 3 -0.004805 -0.005708 0.011993 -0.012304 -0.001553 -0.002057
# 4 0.013029 0.032272 -0.012304 0.114570 0.018105 0.030691
# 5 0.005867 0.009936 -0.001553 0.018105 0.032397 0.010705
# 6 0.003700 0.011720 -0.002057 0.030691 0.010705 0.035986
#
#
# Mechanical properties :
#
#
# Convention : Reuss Voigt Hill
#
# Bulk Modulus (GPa) = 28.27148 51.84103 40.05625
# Shear Modulus (GPa) = 18.85054 34.11827 26.48440
#
# Velocity S-wave (km/s) = 2.77428 3.73235 3.28839
# Velocity P-wave (km/s) = 4.66962 6.30401 5.54734
#
# Compressibility (1/GPa) = 0.03537134
#
# Stress axis : x y z
#
# Youngs Moduli (GPa) = 44.90717 53.54586 83.38355
#
# Poissons Ratio (x) = -0.09268 0.40067
# Poissons Ratio (y) = -0.07773 0.47598
# Poissons Ratio (z) = 0.21579 0.30566
#
# Static dielectric constant tensor:
#      x y z
#    x 2.038740 0.018740 0.049580 
#    y 0.018740 1.997110 0.025150 
#    z 0.049580 0.025150 1.973580 
# 
# From -- ./inp_files/519507.got.cif
#   From: 2010.05.17/outbox.cif.g08.bks.cpg/sg2_260_cif.got.tgz:519507.got - 2010.06.03 11:33:40.
