data_PCOD9040947
_publ_section_title
;
Structure prediction by ZEFSAII (Michael W. Deem and Ramdas Pophale) SiO2 
 PCOD9040947
Probable space group: P -1
;
_chemical_formula_sum "Si O2"
_cell_formula_units_Z 16
_cell_length_a 8.558867
_cell_length_b 5.272141
_cell_length_c 19.195958
_cell_angle_alpha 68.631396
_cell_angle_beta 60.220684
_cell_angle_gamma 88.078572
_cell_volume 688.376415
_symmetry_space_group_name_H-M "P -1"
_symmetry_group_IT_number 2
_symmetry_cell_setting 'triclinic'
loop_
_space_group_symop_operation_xyz
x,y,z
-x,-y,-z
loop_
_atom_site_type_symbol
_atom_site_label
_atom_site_fract_x
_atom_site_fract_y
_atom_site_fract_z
Si Si1 0.570626 0.907269 0.067239
Si Si2 0.305979 0.983718 0.355322
Si Si3 0.600053 0.419280 0.392577
Si Si4 0.233251 0.047679 0.515909
Si Si5 0.216472 0.593870 0.935356
Si Si6 0.745263 0.396753 0.729725
Si Si7 0.278025 0.775160 0.744878
Si Si8 0.094007 0.166309 0.666376
O O1 0.688773 0.671434 0.049693
O O2 0.400522 0.767080 0.167582
O O3 0.691238 0.162370 0.057287
O O4 0.500000 0.000000 0.000000
O O5 0.199670 0.925560 0.458303
O O6 0.277377 0.285081 0.302722
O O7 0.522315 0.028051 0.323275
O O8 0.284722 0.756593 0.322638
O O9 0.383922 0.327098 0.444401
O O10 0.689404 0.466392 0.291281
O O11 0.699162 0.664124 0.393467
O O12 0.675713 0.162222 0.436204
O O13 0.068338 0.097456 0.596941
O O14 0.250309 0.692902 0.838440
O O15 0.000000 0.500000 0.000000
O O16 0.950189 0.347841 0.706721
O O17 0.111521 0.907874 0.737370
#
# Coordination Sequence:
#
# PCOD9040947 Si02
#       8
#     2   2   2   2   2   2   2   2
#     4  12  27  52  75 107 150 189 224 291 372 436
#     4  11  25  45  71  95 142 190 232 287 349 412
#     4   9  20  39  63  98 135 183 234 292 346 397
#     4   9  21  39  63  97 134 186 239 291 343 397
#     4  12  27  48  79 113 139 181 246 294 348 427
#     4  12  27  46  68 103 143 187 225 285 362 424
#     4  10  23  43  69  99 136 181 237 283 340 415
#     4  11  25  38  70  99 141 183 240 287 345 415
#
# _framework density 23.243096999999999
#
# number of rings (size 3 to 8) (size 9 to 14) (size 15 to 20)
#    0.000    1.250    2.500    1.875   12.250    2.000 
#    0.000    0.000    0.000    0.000    0.000    0.000 
#    0.000    0.000    0.000    0.000    0.000    0.000 
#
# Total GULP energy -89470.417511 kJ/mol
# GULP energy per Si atom -5591.901094 kJ/mol
# Density = 2.319019 g / cm^3
# Si number density = 23.243097 Si / 1000 Ang^3
#
#
#
# Elastic Constant Matrix: (Units=GPa)
#
#
# Indices 1 2 3 4 5 6 
#
# 1 100.5952 49.0114 49.6760 -5.3815 5.5196 -8.7361
# 2 49.0114 122.1168 39.5374 -8.3163 0.9263 -3.9365
# 3 49.6760 39.5374 101.8230 1.6373 6.3827 0.5185
# 4 -5.3815 -8.3163 1.6373 18.4020 1.2688 5.4898
# 5 5.5196 0.9263 6.3827 1.2688 35.2304 7.9755
# 6 -8.7361 -3.9365 0.5185 5.4898 7.9755 58.9066
#
#
#
# Elastic Compliance Matrix: (Units=1/GPa)
#
#
# Indices 1 2 3 4 5 6 
#
# 1 0.015140 -0.003937 -0.005800 0.002683 -0.001772 0.002023
# 2 -0.003937 0.010795 -0.002376 0.003982 0.000689 -0.000306
# 3 -0.005800 -0.002376 0.013714 -0.003718 -0.001238 -0.000626
# 4 0.002683 0.003982 -0.003718 0.058707 -0.000913 -0.004651
# 5 -0.001772 0.000689 -0.001238 -0.000913 0.029843 -0.004161
# 6 0.002023 -0.000306 -0.000626 -0.004651 -0.004161 0.018258
#
#
# Mechanical properties :
#
#
# Convention : Reuss Voigt Hill
#
# Bulk Modulus (GPa) = 64.84453 66.77606 65.81030
# Shear Modulus (GPa) = 28.43770 34.92849 31.68310
#
# Velocity S-wave (km/s) = 3.50164 3.88073 3.69605
# Velocity P-wave (km/s) = 6.65639 6.99084 6.82567
#
# Compressibility (1/GPa) = 0.01542150
#
# Stress axis : x y z
#
# Youngs Moduli (GPa) = 66.05236 92.63958 72.91981
#
# Poissons Ratio (x) = 0.36473 0.42291
# Poissons Ratio (y) = 0.26006 0.17328
# Poissons Ratio (z) = 0.38308 0.22014
#
# Static dielectric constant tensor:
#      x y z
#    x 1.937660 0.018130 -0.000790 
#    y 0.018130 1.891420 -0.006700 
#    z -0.000790 -0.006700 1.853870 
# 
# From -- ./inp_files/141579.got.cif
#   From: 2010.05.17/outbox.cif.g08.bks.cpg/sg2_71_cif.got.tgz:141579.got - 2010.06.03 11:33:40.
