data_PCOD9040530
_publ_section_title
;
Structure prediction by ZEFSAII (Michael W. Deem and Ramdas Pophale) SiO2 
 PCOD9040530
Probable space group: P -1
;
_chemical_formula_sum "Si O2"
_cell_formula_units_Z 14
_cell_length_a 5.249702
_cell_length_b 11.474628
_cell_length_c 9.064768
_cell_angle_alpha 100.034295
_cell_angle_beta 87.862010
_cell_angle_gamma 97.692819
_cell_volume 532.800425
_symmetry_space_group_name_H-M "P -1"
_symmetry_group_IT_number 2
_symmetry_cell_setting 'triclinic'
loop_
_space_group_symop_operation_xyz
x,y,z
-x,-y,-z
loop_
_atom_site_type_symbol
_atom_site_label
_atom_site_fract_x
_atom_site_fract_y
_atom_site_fract_z
Si Si1 0.980205 0.141429 0.026373
Si Si2 0.839750 0.570413 0.698206
Si Si3 0.336341 0.495907 0.846807
Si Si4 0.776974 0.323601 0.498991
Si Si5 0.454558 0.109773 0.134089
Si Si6 0.637379 0.895264 0.544504
Si Si7 0.072281 0.236494 0.726056
O O1 0.263689 0.192174 0.084753
O O2 0.748158 0.169807 0.138911
O O3 0.965249 0.186632 0.872009
O O4 0.000000 0.000000 0.000000
O O5 0.553995 0.573331 0.763705
O O6 0.766951 0.461556 0.558483
O O7 0.055763 0.540692 0.813652
O O8 0.983471 0.675003 0.617096
O O9 0.277371 0.354861 0.774496
O O10 0.500000 0.500000 0.000000
O O11 0.535974 0.230478 0.444570
O O12 0.845430 0.279956 0.649019
O O13 0.315948 0.063677 0.278367
O O14 0.500000 0.000000 0.000000
O O15 0.830138 0.861623 0.406587
O O16 0.500000 0.000000 0.500000
#
# Coordination Sequence:
#
# PCOD9040530 Si02
#       7
#     2   2   2   2   2   2   2
#     4  10  23  43  67  93 139 186 230 289 352 422
#     4  10  23  46  72 103 146 182 240 296 362 429
#     4  11  24  44  74 109 144 185 234 302 365 433
#     4  10  25  42  72 102 141 187 238 301 363 420
#     4  10  24  44  64  93 134 186 233 288 353 409
#     4  12  26  43  72 104 144 193 248 301 354 433
#     4  11  26  44  73 104 147 189 248 299 361 434
#
# _framework density 26.276257000000001
#
# number of rings (size 3 to 8) (size 9 to 14) (size 15 to 20)
#    0.000    1.429    1.429    2.143   10.000    4.571 
#    0.000    0.000    0.000    0.000    0.000    0.000 
#    0.000    0.000    0.000    0.000    0.000    0.000 
#
# Total GULP energy -78086.156845 kJ/mol
# GULP energy per Si atom -5577.582632 kJ/mol
# Density = 2.621645 g / cm^3
# Si number density = 26.276257 Si / 1000 Ang^3
#
#
#
# Elastic Constant Matrix: (Units=GPa)
#
#
# Indices 1 2 3 4 5 6 
#
# 1 141.0497 0.3284 6.8569 5.6565 0.4029 -4.0377
# 2 0.3284 78.9969 14.7542 5.1039 9.2218 18.4376
# 3 6.8569 14.7542 108.4636 -5.2043 15.6473 -8.5407
# 4 5.6565 5.1039 -5.2043 54.9603 3.1663 13.5277
# 5 0.4029 9.2218 15.6473 3.1663 45.3727 -3.1834
# 6 -4.0377 18.4376 -8.5407 13.5277 -3.1834 23.4238
#
#
#
# Elastic Compliance Matrix: (Units=1/GPa)
#
#
# Indices 1 2 3 4 5 6 
#
# 1 0.007225 -0.000469 -0.000332 -0.001324 0.000400 0.002312
# 2 -0.000469 0.017452 -0.002995 0.002525 -0.003872 -0.016894
# 3 -0.000332 -0.002995 0.010478 0.000041 -0.002602 0.005743
# 4 -0.001324 0.002525 0.000041 0.022064 -0.003134 -0.015369
# 5 0.000400 -0.003872 -0.002602 -0.003134 0.024451 0.007301
# 6 0.002312 -0.016894 0.005743 -0.015369 0.007301 0.068351
#
#
# Mechanical properties :
#
#
# Convention : Reuss Voigt Hill
#
# Bulk Modulus (GPa) = 36.28103 41.37660 38.82881
# Shear Modulus (GPa) = 29.97598 45.18938 37.58268
#
# Velocity S-wave (km/s) = 3.38124 4.15152 3.78602
# Velocity P-wave (km/s) = 5.39270 6.22584 5.82419
#
# Compressibility (1/GPa) = 0.02756261
#
# Stress axis : x y z
#
# Youngs Moduli (GPa) = 138.40692 57.30026 95.44184
#
# Poissons Ratio (x) = 0.02687 0.03170
# Poissons Ratio (y) = 0.06490 0.28584
# Poissons Ratio (z) = 0.04597 0.17161
#
# Static dielectric constant tensor:
#      x y z
#    x 2.178150 0.061870 0.098820 
#    y 0.061870 2.123500 0.154170 
#    z 0.098820 0.154170 2.272440 
# 
# From -- ./inp_files/40427.got.cif
#   From: 2010.05.17/outbox.cif.g08.bks.cpg/sg2_21_cif.got.tgz:40427.got - 2010.06.03 11:33:40.
