data_PCOD9040701
_publ_section_title
;
Structure prediction by ZEFSAII (Michael W. Deem and Ramdas Pophale) SiO2 
 PCOD9040701
Probable space group: P -1
;
_chemical_formula_sum "Si O2"
_cell_formula_units_Z 16
_cell_length_a 8.659125
_cell_length_b 17.154384
_cell_length_c 21.001021
_cell_angle_alpha 20.162445
_cell_angle_beta 46.995033
_cell_angle_gamma 56.471237
_cell_volume 736.954109
_symmetry_space_group_name_H-M "P -1"
_symmetry_group_IT_number 2
_symmetry_cell_setting 'triclinic'
loop_
_space_group_symop_operation_xyz
x,y,z
-x,-y,-z
loop_
_atom_site_type_symbol
_atom_site_label
_atom_site_fract_x
_atom_site_fract_y
_atom_site_fract_z
Si Si1 0.751483 0.621516 0.499686
Si Si2 0.513699 0.289989 0.022594
Si Si3 0.546566 0.812415 0.584080
Si Si4 0.512881 0.864243 0.999233
Si Si5 0.371263 0.807316 0.494240
Si Si6 0.023990 0.431599 0.799445
Si Si7 0.888382 0.000709 0.963243
Si Si8 0.003555 0.802771 0.418254
O O1 0.589071 0.779533 0.418579
O O2 0.863698 0.658672 0.508942
O O3 0.962039 0.733851 0.308421
O O4 0.579946 0.350249 0.759165
O O5 0.537368 0.224755 0.991839
O O6 0.347663 0.053461 0.285802
O O7 0.461448 0.537106 0.845307
O O8 0.754630 0.350079 0.943465
O O9 0.432720 0.814375 0.545802
O O10 0.817277 0.884656 0.443548
O O11 0.500000 0.000000 0.500000
O O12 0.369952 0.032050 0.927536
O O13 0.778851 0.992242 0.826909
O O14 0.160857 0.573244 0.712901
O O15 0.082649 0.631056 0.573551
O O16 0.082196 0.203274 0.934166
O O17 0.000000 0.000000 0.000000
#
# Coordination Sequence:
#
# PCOD9040701 Si02
#       8
#     2   2   2   2   2   2   2   2
#     4  11  23  42  62  92 136 184 229 275 334 392
#     4  11  21  44  67  96 142 176 219 279 348 402
#     4  10  24  48  75 102 134 171 226 286 343 424
#     4  12  22  41  65  92 138 184 225 279 324 397
#     4  11  22  41  72  97 132 184 219 270 357 403
#     4  11  22  40  66  97 134 180 225 275 333 400
#     4  12  24  40  62  99 138 181 243 280 317 385
#     4  10  23  43  68  93 132 181 216 274 360 391
#
# _framework density 21.710985000000001
#
# number of rings (size 3 to 8) (size 9 to 14) (size 15 to 20)
#    0.000    1.000    7.500    0.375    1.750    1.500 
#    2.250    3.125    0.000    0.000    0.000    0.000 
#    0.000    0.000    0.000    0.000    0.000    0.000 
#
# Total GULP energy -89429.594946 kJ/mol
# GULP energy per Si atom -5589.349684 kJ/mol
# Density = 2.166157 g / cm^3
# Si number density = 21.710985 Si / 1000 Ang^3
#
#
#
# Elastic Constant Matrix: (Units=GPa)
#
#
# Indices 1 2 3 4 5 6 
#
# 1 72.2513 20.4089 37.4519 -8.3981 0.2688 9.9698
# 2 20.4089 75.5181 33.4506 -23.7584 7.2646 -6.3310
# 3 37.4519 33.4506 123.5452 -15.4407 -0.1492 -4.0439
# 4 -8.3981 -23.7584 -15.4407 24.6864 -4.1013 0.2748
# 5 0.2688 7.2646 -0.1492 -4.1013 38.1061 -6.2050
# 6 9.9698 -6.3310 -4.0439 0.2748 -6.2050 16.8152
#
#
#
# Elastic Compliance Matrix: (Units=1/GPa)
#
#
# Indices 1 2 3 4 5 6 
#
# 1 0.019963 -0.004396 -0.005501 -0.001034 -0.001963 -0.015521
# 2 -0.004396 0.021905 -0.002012 0.018118 -0.000598 0.009853
# 3 -0.005501 -0.002012 0.010900 0.003236 0.001744 0.005716
# 4 -0.001034 0.018118 0.003236 0.060267 0.004500 0.008888
# 5 -0.001963 -0.000598 0.001744 0.004500 0.028801 0.011913
# 6 -0.015521 0.009853 0.005716 0.008888 0.011913 0.078008
#
#
# Mechanical properties :
#
#
# Convention : Reuss Voigt Hill
#
# Bulk Modulus (GPa) = 34.54234 50.43749 42.48992
# Shear Modulus (GPa) = 19.73861 27.92175 23.83018
#
# Velocity S-wave (km/s) = 3.01849 3.59007 3.31661
# Velocity P-wave (km/s) = 5.30028 6.36133 5.85489
#
# Compressibility (1/GPa) = 0.02894998
#
# Stress axis : x y z
#
# Youngs Moduli (GPa) = 50.09364 45.65207 91.74145
#
# Poissons Ratio (x) = 0.20068 0.50466
# Poissons Ratio (y) = 0.22020 0.18459
# Poissons Ratio (z) = 0.27556 0.09186
#
# Static dielectric constant tensor:
#      x y z
#    x 1.825020 -0.025990 -0.016370 
#    y -0.025990 1.771870 -0.008730 
#    z -0.016370 -0.008730 1.892420 
# 
# From -- ./inp_files/590874.got.cif
#   From: 2010.05.17/outbox.cif.g08.bks.cpg/sg2_296_cif.got.tgz:590874.got - 2010.06.03 11:33:40.
