data_PCOD9040247
_publ_section_title
;
Structure prediction by ZEFSAII (Michael W. Deem and Ramdas Pophale) SiO2 
 PCOD9040247
Probable space group: P -1
;
_chemical_formula_sum "Si O2"
_cell_formula_units_Z 14
_cell_length_a 8.114482
_cell_length_b 14.639874
_cell_length_c 10.261750
_cell_angle_alpha 41.994557
_cell_angle_beta 79.940638
_cell_angle_gamma 109.220864
_cell_volume 576.028833
_symmetry_space_group_name_H-M "P -1"
_symmetry_group_IT_number 2
_symmetry_cell_setting 'triclinic'
loop_
_space_group_symop_operation_xyz
x,y,z
-x,-y,-z
loop_
_atom_site_type_symbol
_atom_site_label
_atom_site_fract_x
_atom_site_fract_y
_atom_site_fract_z
Si Si1 0.114653 0.878012 0.509955
Si Si2 0.242240 0.325139 0.436467
Si Si3 0.563894 0.000104 0.208465
Si Si4 0.559707 0.875651 0.592809
Si Si5 0.721455 0.495801 0.114563
Si Si6 0.507324 0.719867 0.368247
Si Si7 0.770665 0.407972 0.706951
O O1 0.296471 0.881621 0.407900
O O2 0.948346 0.840570 0.460788
O O3 0.268990 0.068816 0.373784
O O4 0.952558 0.702922 0.819271
O O5 0.493733 0.463486 0.184405
O O6 0.287851 0.261390 0.627410
O O7 0.184155 0.446378 0.353109
O O8 0.668532 0.955873 0.348942
O O9 0.576859 0.918464 0.162835
O O10 0.317330 0.786708 0.022875
O O11 0.342845 0.655533 0.824110
O O12 0.500000 0.000000 0.500000
O O13 0.699283 0.422634 0.342868
O O14 0.418993 0.644945 0.315505
O O15 0.000000 0.500000 0.500000
#
# Coordination Sequence:
#
# PCOD9040247 Si02
#       7
#     2   2   2   2   2   2   2
#     4  11  22  41  70  98 138 175 214 267 336 400
#     4  10  24  43  64 103 130 177 216 274 339 390
#     4  10  23  43  65 103 128 172 228 270 325 403
#     4   9  21  38  63 100 136 169 220 264 323 402
#     4   9  22  42  65  97 141 167 216 265 339 388
#     4   9  22  45  66  94 137 168 226 276 324 390
#     4  12  25  44  71  92 132 176 231 276 331 387
#
# _framework density 24.30434
#
# number of rings (size 3 to 8) (size 9 to 14) (size 15 to 20)
#    0.857    1.143    0.000    2.143    6.000    5.714 
#    2.571    4.286    0.000    0.000    0.000    0.000 
#    0.000    0.000    0.000    0.000    0.000    0.000 
#
# Total GULP energy -78153.380316 kJ/mol
# GULP energy per Si atom -5582.384308 kJ/mol
# Density = 2.424902 g / cm^3
# Si number density = 24.304340 Si / 1000 Ang^3
#
#
#
# Elastic Constant Matrix: (Units=GPa)
#
#
# Indices 1 2 3 4 5 6 
#
# 1 78.0330 1.0074 18.0818 1.8008 4.4057 2.4536
# 2 1.0074 70.4791 -14.1283 -12.1797 -0.1327 12.7307
# 3 18.0818 -14.1283 37.8225 -4.9009 -4.2631 1.3812
# 4 1.8008 -12.1797 -4.9009 21.2783 2.2863 -2.6577
# 5 4.4057 -0.1327 -4.2631 2.2863 28.3228 8.1154
# 6 2.4536 12.7307 1.3812 -2.6577 8.1154 52.8988
#
#
#
# Elastic Compliance Matrix: (Units=1/GPa)
#
#
# Indices 1 2 3 4 5 6 
#
# 1 0.015363 -0.003075 -0.009545 -0.004796 -0.003623 0.000592
# 2 -0.003075 0.019510 0.010900 0.013105 0.002458 -0.004556
# 3 -0.009545 0.010900 0.037888 0.014573 0.007072 -0.003522
# 4 -0.004796 0.013105 0.014573 0.058426 -0.001681 -0.000119
# 5 -0.003623 0.002458 0.007072 -0.001681 0.038995 -0.006675
# 6 0.000592 -0.004556 -0.003522 -0.000119 -0.006675 0.021083
#
#
# Mechanical properties :
#
#
# Convention : Reuss Voigt Hill
#
# Bulk Modulus (GPa) = 14.42602 21.80626 18.11614
# Shear Modulus (GPa) = 22.95548 32.59157 27.77352
#
# Velocity S-wave (km/s) = 3.07661 3.66591 3.38411
# Velocity P-wave (km/s) = 4.30919 5.18750 4.76861
#
# Compressibility (1/GPa) = 0.06931918
#
# Stress axis : x y z
#
# Youngs Moduli (GPa) = 65.09070 51.25639 26.39362
#
# Poissons Ratio (x) = 0.15764 0.25192
# Poissons Ratio (y) = 0.20018 -0.28768
# Poissons Ratio (z) = 0.62129 -0.55867
#
# Static dielectric constant tensor:
#      x y z
#    x 2.007920 0.055530 0.017530 
#    y 0.055530 2.004640 0.017630 
#    z 0.017530 0.017630 1.952150 
# 
# From -- ./inp_files/397029.got.cif
#   From: 2010.05.17/outbox.cif.g08.bks.cpg/sg2_199_cif.got.tgz:397029.got - 2010.06.03 11:33:40.
