data_PCOD9040254
_publ_section_title
;
Structure prediction by ZEFSAII (Michael W. Deem and Ramdas Pophale) SiO2 
 PCOD9040254
Probable space group: P -1
;
_chemical_formula_sum "Si O2"
_cell_formula_units_Z 16
_cell_length_a 11.392520
_cell_length_b 13.894876
_cell_length_c 7.706352
_cell_angle_alpha 83.361066
_cell_angle_beta 120.057239
_cell_angle_gamma 49.870369
_cell_volume 604.705163
_symmetry_space_group_name_H-M "P -1"
_symmetry_group_IT_number 2
_symmetry_cell_setting 'triclinic'
loop_
_space_group_symop_operation_xyz
x,y,z
-x,-y,-z
loop_
_atom_site_type_symbol
_atom_site_label
_atom_site_fract_x
_atom_site_fract_y
_atom_site_fract_z
Si Si1 0.715965 0.599403 0.110222
Si Si2 0.200186 0.245323 0.727104
Si Si3 0.310470 0.151571 0.462706
Si Si4 0.541046 0.195610 0.551827
Si Si5 0.400768 0.684791 0.149491
Si Si6 0.910455 0.046891 0.618812
Si Si7 0.201833 0.604589 0.052944
Si Si8 0.961654 0.834929 0.143043
O O1 0.705887 0.721346 0.092649
O O2 0.722328 0.542555 0.940083
O O3 0.961719 0.424660 0.421097
O O4 0.519074 0.667208 0.075634
O O5 0.365555 0.122381 0.713009
O O6 0.132146 0.189967 0.790175
O O7 0.308654 0.265489 0.378365
O O8 0.067795 0.234777 0.252727
O O9 0.500000 0.000000 0.500000
O O10 0.673532 0.131320 0.480167
O O11 0.505846 0.315394 0.609102
O O12 0.741705 0.017450 0.847941
O O13 0.391722 0.574604 0.143794
O O14 0.123005 0.870376 0.912224
O O15 0.899173 0.161737 0.658109
O O16 0.000000 0.000000 0.500000
O O17 0.139957 0.671311 0.187958
#
# Coordination Sequence:
#
# PCOD9040254 Si02
#       8
#     2   2   2   2   2   2   2   2
#     4  10  23  43  65  86 124 179 215 257 311 367
#     4  10  24  42  62  94 130 165 219 265 304 375
#     4  11  21  38  65  95 125 168 205 257 326 371
#     4  11  21  43  67  94 133 165 198 264 334 378
#     4  11  20  44  67  93 124 170 210 259 323 378
#     4  11  24  40  68  97 133 159 206 267 327 381
#     4  11  22  40  65  89 131 165 212 263 311 372
#     4  11  22  40  65  94 130 164 206 267 323 371
#
# _framework density 26.459177
#
# number of rings (size 3 to 8) (size 9 to 14) (size 15 to 20)
#    0.000    1.250    5.000    1.125    5.250    1.000 
#    2.250    1.875    0.000    0.000    0.000    0.000 
#    0.000    0.000    0.000    0.000    0.000    0.000 
#
# Total GULP energy -89539.800182 kJ/mol
# GULP energy per Si atom -5596.237511 kJ/mol
# Density = 2.639895 g / cm^3
# Si number density = 26.459177 Si / 1000 Ang^3
#
#
#
# Elastic Constant Matrix: (Units=GPa)
#
#
# Indices 1 2 3 4 5 6 
#
# 1 144.8247 28.4302 10.7730 29.6139 8.5652 -10.5101
# 2 28.4302 142.7013 36.3840 33.1178 -7.5305 7.5065
# 3 10.7730 36.3840 65.0492 14.8310 15.2123 11.9090
# 4 29.6139 33.1178 14.8310 59.1119 3.0426 -1.5603
# 5 8.5652 -7.5305 15.2123 3.0426 37.3136 12.8617
# 6 -10.5101 7.5065 11.9090 -1.5603 12.8617 46.1359
#
#
#
# Elastic Compliance Matrix: (Units=1/GPa)
#
#
# Indices 1 2 3 4 5 6 
#
# 1 0.008156 -0.001233 0.000262 -0.003241 -0.002890 0.002687
# 2 -0.001233 0.009944 -0.005352 -0.003955 0.005553 -0.002199
# 3 0.000262 -0.005352 0.021270 -0.002068 -0.008903 -0.002148
# 4 -0.003241 -0.003955 -0.002068 0.021394 -0.001500 0.001581
# 5 -0.002890 0.005553 -0.008903 -0.001500 0.035512 -0.009214
# 6 0.002687 -0.002199 -0.002148 0.001581 -0.009214 0.025822
#
#
# Mechanical properties :
#
#
# Convention : Reuss Voigt Hill
#
# Bulk Modulus (GPa) = 37.42075 55.97218 46.69646
# Shear Modulus (GPa) = 34.80597 46.97814 40.89206
#
# Velocity S-wave (km/s) = 3.63086 4.21823 3.93552
# Velocity P-wave (km/s) = 5.63481 6.70259 6.19176
#
# Compressibility (1/GPa) = 0.02672314
#
# Stress axis : x y z
#
# Youngs Moduli (GPa) = 122.60594 100.55835 47.01474
#
# Poissons Ratio (x) = 0.12403 -0.01232
# Poissons Ratio (y) = 0.15122 0.25164
# Poissons Ratio (z) = -0.03212 0.53822
#
# Static dielectric constant tensor:
#      x y z
#    x 2.086020 0.034980 -0.040170 
#    y 0.034980 2.049270 -0.030980 
#    z -0.040170 -0.030980 2.205000 
# 
# From -- ./inp_files/202079.got.cif
#   From: 2010.05.17/outbox.cif.g08.bks.cpg/sg2_102_cif.got.tgz:202079.got - 2010.06.03 11:33:40.
