data_PCOD9040235
_publ_section_title
;
Structure prediction by ZEFSAII (Michael W. Deem and Ramdas Pophale) SiO2 
 PCOD9040235
Probable space group: P -1
;
_chemical_formula_sum "Si O2"
_cell_formula_units_Z 16
_cell_length_a 24.571091
_cell_length_b 12.308213
_cell_length_c 12.590524
_cell_angle_alpha 57.646811
_cell_angle_beta 151.674564
_cell_angle_gamma 142.670785
_cell_volume 897.987692
_symmetry_space_group_name_H-M "P -1"
_symmetry_group_IT_number 2
_symmetry_cell_setting 'triclinic'
loop_
_space_group_symop_operation_xyz
x,y,z
-x,-y,-z
loop_
_atom_site_type_symbol
_atom_site_label
_atom_site_fract_x
_atom_site_fract_y
_atom_site_fract_z
Si Si1 0.663852 0.302387 0.565443
Si Si2 0.699413 0.586497 0.200789
Si Si3 0.491462 0.938720 0.191037
Si Si4 0.873461 0.263675 0.217589
Si Si5 0.354278 0.187047 0.958948
Si Si6 0.707689 0.344819 0.212062
Si Si7 0.992887 0.276785 0.194842
Si Si8 0.384949 0.041147 0.399285
O O1 0.501933 0.230736 0.255117
O O2 0.588997 0.260485 0.577944
O O3 0.873285 0.539071 0.762308
O O4 0.649172 0.139307 0.596771
O O5 0.484645 0.362437 0.996733
O O6 0.710996 0.497124 0.171115
O O7 0.863777 0.691497 0.513792
O O8 0.716737 0.754228 0.127442
O O9 0.609002 0.954724 0.465565
O O10 0.612794 0.171505 0.233746
O O11 0.311525 0.827084 0.010798
O O12 0.409212 0.792445 0.023066
O O13 0.925562 0.312777 0.155511
O O14 0.064580 0.482883 0.492584
O O15 0.816673 0.061907 0.242352
O O16 0.795817 0.050272 0.918669
#
# Coordination Sequence:
#
# PCOD9040235 Si02
#       8
#     2   2   2   2   2   2   2   2
#     4  10  19  32  47  77 107 131 168 212 263 307
#     4   9  19  34  54  79 106 133 171 212 264 303
#     4  11  21  36  51  73 111 140 173 210 253 306
#     4  11  18  33  53  79 105 130 172 212 263 304
#     4  10  17  33  56  79 105 134 163 222 266 300
#     4  10  22  35  52  75 106 140 175 213 249 309
#     4  10  20  30  49  79 105 131 166 212 259 311
#     4  11  18  31  50  72 105 139 166 207 258 309
#
# _framework density 17.817613999999999
#
# number of rings (size 3 to 8) (size 9 to 14) (size 15 to 20)
#    0.000    1.750    3.750    3.000    0.000    3.000 
#    0.000    0.000    0.000    0.750    0.000    2.625 
#    0.000    0.000    0.000    0.000    0.000    0.000 
#
# Total GULP energy -89147.842484 kJ/mol
# GULP energy per Si atom -5571.740155 kJ/mol
# Density = 1.777706 g / cm^3
# Si number density = 17.817614 Si / 1000 Ang^3
#
#
#
# Elastic Constant Matrix: (Units=GPa)
#
#
# Indices 1 2 3 4 5 6 
#
# 1 57.6030 18.2655 30.4190 4.9959 -1.4715 11.9678
# 2 18.2655 49.3885 26.8271 5.1788 7.0490 3.5613
# 3 30.4190 26.8271 74.1271 11.5368 -5.2192 0.8009
# 4 4.9959 5.1788 11.5368 22.0913 5.0560 9.1861
# 5 -1.4715 7.0490 -5.2192 5.0560 30.9723 2.3281
# 6 11.9678 3.5613 0.8009 9.1861 2.3281 32.1424
#
#
#
# Elastic Compliance Matrix: (Units=1/GPa)
#
#
# Indices 1 2 3 4 5 6 
#
# 1 0.025359 -0.004057 -0.009434 0.004157 0.000611 -0.009990
# 2 -0.004057 0.027864 -0.009237 0.001602 -0.008262 -0.001206
# 3 -0.009434 -0.009237 0.023025 -0.012217 0.007006 0.006947
# 4 0.004157 0.001602 -0.012217 0.060206 -0.010712 -0.017852
# 5 0.000611 -0.008262 0.007006 -0.010712 0.037059 0.000891
# 6 -0.009990 -0.001206 0.006947 -0.017852 0.000891 0.039829
#
#
# Mechanical properties :
#
#
# Convention : Reuss Voigt Hill
#
# Bulk Modulus (GPa) = 32.47745 36.90466 34.69106
# Shear Modulus (GPa) = 18.58308 24.08166 21.33237
#
# Velocity S-wave (km/s) = 3.23299 3.68035 3.46390
# Velocity P-wave (km/s) = 5.67482 6.23036 5.95907
#
# Compressibility (1/GPa) = 0.03079059
#
# Stress axis : x y z
#
# Youngs Moduli (GPa) = 39.43319 35.88906 43.43179
#
# Poissons Ratio (x) = 0.14559 0.40976
# Poissons Ratio (y) = 0.15997 0.40119
# Poissons Ratio (z) = 0.37203 0.33152
#
# Static dielectric constant tensor:
#      x y z
#    x 1.636270 0.039270 0.018670 
#    y 0.039270 1.633910 -0.004490 
#    z 0.018670 -0.004490 1.661810 
# 
# From -- ./inp_files/423707.got.cif
#   From: 2010.05.17/outbox.cif.g08.bks.cpg/sg2_212_cif.got.tgz:423707.got - 2010.06.03 11:33:40.
