data_PCOD9040317
_publ_section_title
;
Structure prediction by ZEFSAII (Michael W. Deem and Ramdas Pophale) SiO2 
 PCOD9040317
Probable space group: P -1
;
_chemical_formula_sum "Si O2"
_cell_formula_units_Z 14
_cell_length_a 12.281057
_cell_length_b 12.265026
_cell_length_c 11.908660
_cell_angle_alpha 143.125317
_cell_angle_beta 142.726065
_cell_angle_gamma 34.000881
_cell_volume 552.955752
_symmetry_space_group_name_H-M "P -1"
_symmetry_group_IT_number 2
_symmetry_cell_setting 'triclinic'
loop_
_space_group_symop_operation_xyz
x,y,z
-x,-y,-z
loop_
_atom_site_type_symbol
_atom_site_label
_atom_site_fract_x
_atom_site_fract_y
_atom_site_fract_z
Si Si1 0.512504 0.012816 0.870218
Si Si2 0.094206 0.970343 0.840780
Si Si3 0.447444 0.125079 0.444675
Si Si4 0.961475 0.360349 0.180710
Si Si5 0.356195 0.512321 0.790545
Si Si6 0.194215 0.873788 0.468340
Si Si7 0.811036 0.528591 0.945186
O O1 0.472916 0.045719 0.730169
O O2 0.402209 0.873416 0.677221
O O3 0.755633 0.952968 0.030711
O O4 0.374736 0.224682 0.003509
O O5 0.248709 0.730230 0.811521
O O6 0.918553 0.993677 0.629546
O O7 0.980491 0.133318 0.984707
O O8 0.201926 0.283837 0.340307
O O9 0.498111 0.308806 0.659883
O O10 0.500000 0.000000 0.500000
O O11 0.827119 0.481540 0.279261
O O12 0.877484 0.478821 0.090154
O O13 0.500000 0.500000 0.000000
O O14 0.246129 0.637044 0.288589
O O15 0.000000 0.000000 0.500000
O O16 0.000000 0.500000 0.000000
#
# Coordination Sequence:
#
# PCOD9040317 Si02
#       7
#     2   2   2   2   2   2   2
#     4  11  25  46  69  99 146 172 239 283 343 412
#     4  10  25  43  68 104 139 181 227 289 347 410
#     4  11  25  41  65 101 134 184 228 276 346 413
#     4  10  23  43  65  97 140 177 227 285 341 410
#     4  12  24  40  70 100 139 180 228 282 353 413
#     4  11  25  46  72 103 136 186 230 285 352 406
#     4  11  23  45  73  99 137 181 231 288 341 406
#
# _framework density 25.318480999999998
#
# number of rings (size 3 to 8) (size 9 to 14) (size 15 to 20)
#    0.000    1.143    1.429    4.286   10.000    0.571 
#    2.571    0.714    0.000    0.000    0.000    0.000 
#    0.000    0.000    0.000    0.000    0.000    0.000 
#
# Total GULP energy -78225.557330 kJ/mol
# GULP energy per Si atom -5587.539809 kJ/mol
# Density = 2.526085 g / cm^3
# Si number density = 25.318481 Si / 1000 Ang^3
#
#
#
# Elastic Constant Matrix: (Units=GPa)
#
#
# Indices 1 2 3 4 5 6 
#
# 1 108.7967 4.7716 37.2924 2.0690 -2.3224 -13.9226
# 2 4.7716 79.8725 60.6088 14.0372 3.9776 -1.1859
# 3 37.2924 60.6088 141.9222 -8.4997 -9.8146 -2.2208
# 4 2.0690 14.0372 -8.4997 40.8707 -11.0723 -5.0397
# 5 -2.3224 3.9776 -9.8146 -11.0723 46.6271 0.3235
# 6 -13.9226 -1.1859 -2.2208 -5.0397 0.3235 44.4908
#
#
#
# Elastic Compliance Matrix: (Units=1/GPa)
#
#
# Indices 1 2 3 4 5 6 
#
# 1 0.011004 0.003354 -0.004527 -0.002641 -0.001339 0.003017
# 2 0.003354 0.024841 -0.012853 -0.013558 -0.007874 -0.000409
# 3 -0.004527 -0.012853 0.014715 0.009381 0.006196 -0.000007
# 4 -0.002641 -0.013558 0.009381 0.034628 0.011201 0.003121
# 5 -0.001339 -0.007874 0.006196 0.011201 0.026011 0.000760
# 6 0.003017 -0.000409 -0.000007 0.003121 0.000760 0.023758
#
#
# Mechanical properties :
#
#
# Convention : Reuss Voigt Hill
#
# Bulk Modulus (GPa) = 44.43008 59.54858 51.98933
# Shear Modulus (GPa) = 29.32350 41.59230 35.45790
#
# Velocity S-wave (km/s) = 3.40690 4.05750 3.74635
# Velocity P-wave (km/s) = 5.75001 6.74700 6.26835
#
# Compressibility (1/GPa) = 0.02250728
#
# Stress axis : x y z
#
# Youngs Moduli (GPa) = 90.87652 40.25536 67.95873
#
# Poissons Ratio (x) = -0.13500 0.30766
# Poissons Ratio (y) = -0.30476 0.87346
# Poissons Ratio (z) = 0.41141 0.51740
#
# Static dielectric constant tensor:
#      x y z
#    x 2.135390 -0.004670 0.067180 
#    y -0.004670 2.010370 0.010640 
#    z 0.067180 0.010640 2.034730 
# 
# From -- ./inp_files/379597.got.cif
#   From: 2010.05.17/outbox.cif.g08.bks.cpg/sg2_190_cif.got.tgz:379597.got - 2010.06.03 11:33:40.
