data_PCOD9040748
_publ_section_title
;
Structure prediction by ZEFSAII (Michael W. Deem and Ramdas Pophale) SiO2 
 PCOD9040748
Probable space group: P -1
;
_chemical_formula_sum "Si O2"
_cell_formula_units_Z 16
_cell_length_a 11.998476
_cell_length_b 9.206915
_cell_length_c 18.574441
_cell_angle_alpha 50.711288
_cell_angle_beta 31.171364
_cell_angle_gamma 46.603587
_cell_volume 766.074749
_symmetry_space_group_name_H-M "P -1"
_symmetry_group_IT_number 2
_symmetry_cell_setting 'triclinic'
loop_
_space_group_symop_operation_xyz
x,y,z
-x,-y,-z
loop_
_atom_site_type_symbol
_atom_site_label
_atom_site_fract_x
_atom_site_fract_y
_atom_site_fract_z
Si Si1 0.583531 0.894446 0.198242
Si Si2 0.120570 0.658745 0.398779
Si Si3 0.609058 0.269241 0.034019
Si Si4 0.705422 0.081890 0.884262
Si Si5 0.591609 0.521730 0.239521
Si Si6 0.888879 0.337076 0.990954
Si Si7 0.160236 0.928008 0.504588
Si Si8 0.924695 0.318231 0.247081
O O1 0.582541 0.752678 0.175882
O O2 0.427500 0.851684 0.359188
O O3 0.854195 0.825996 0.087677
O O4 0.460129 0.134072 0.180681
O O5 0.265913 0.733192 0.235215
O O6 0.326053 0.546946 0.375854
O O7 0.000000 0.500000 0.500000
O O8 0.926245 0.866770 0.465921
O O9 0.500000 0.500000 0.000000
O O10 0.709721 0.150009 0.942512
O O11 0.761885 0.265861 0.020494
O O12 0.929293 0.887905 0.807650
O O13 0.500000 0.000000 0.000000
O O14 0.711888 0.425520 0.277790
O O15 0.743251 0.400867 0.125903
O O16 0.929554 0.536435 0.878022
O O17 0.122345 0.751406 0.626705
O O18 0.000000 0.000000 0.500000
#
# Coordination Sequence:
#
# PCOD9040748 Si02
#       8
#     2   2   2   2   2   2   2   2
#     4  11  24  44  65  96 138 177 224 278 343 402
#     4  11  25  43  66  97 135 183 218 285 345 405
#     4  12  25  38  66 103 130 173 223 290 340 391
#     4  11  23  44  68  96 134 177 236 275 337 415
#     4  11  22  45  70  97 133 182 228 277 339 416
#     4  11  24  41  71 101 135 170 225 295 339 393
#     4  11  25  44  67  95 136 180 226 275 336 416
#     4  10  23  43  68  98 128 182 231 268 342 414
#
# _framework density 20.885691999999999
#
# number of rings (size 3 to 8) (size 9 to 14) (size 15 to 20)
#    0.000    1.000    1.250    6.375    7.000    2.000 
#    2.250    1.250    0.000    0.000    0.000    0.000 
#    0.000    0.000    0.000    0.000    0.000    0.000 
#
# Total GULP energy -89223.218527 kJ/mol
# GULP energy per Si atom -5576.451158 kJ/mol
# Density = 2.083816 g / cm^3
# Si number density = 20.885692 Si / 1000 Ang^3
#
#
#
# Elastic Constant Matrix: (Units=GPa)
#
#
# Indices 1 2 3 4 5 6 
#
# 1 121.7966 35.2513 43.3926 -8.7506 -5.0084 13.6354
# 2 35.2513 104.6230 48.8420 -17.9889 -4.1016 5.6641
# 3 43.3926 48.8420 76.0076 -1.9929 9.0831 1.9466
# 4 -8.7506 -17.9889 -1.9929 44.5425 -2.0710 -1.2293
# 5 -5.0084 -4.1016 9.0831 -2.0710 37.4999 1.1586
# 6 13.6354 5.6641 1.9466 -1.2293 1.1586 32.0813
#
#
#
# Elastic Compliance Matrix: (Units=1/GPa)
#
#
# Indices 1 2 3 4 5 6 
#
# 1 0.011398 0.000041 -0.006774 0.001988 0.003416 -0.004488
# 2 0.000041 0.015799 -0.010522 0.006077 0.004683 -0.002104
# 3 -0.006774 -0.010522 0.024575 -0.004777 -0.008376 0.003365
# 4 0.001988 0.006077 -0.004777 0.025223 0.003505 -0.000788
# 5 0.003416 0.004683 -0.008376 0.003505 0.029941 -0.002717
# 6 -0.004488 -0.002104 0.003365 -0.000788 -0.002717 0.033313
#
#
# Mechanical properties :
#
#
# Convention : Reuss Voigt Hill
#
# Bulk Modulus (GPa) = 57.93549 61.93323 59.93436
# Shear Modulus (GPa) = 27.69871 34.48750 31.09311
#
# Velocity S-wave (km/s) = 3.64566 4.06797 3.86259
# Velocity P-wave (km/s) = 6.74690 7.19599 6.97506
#
# Compressibility (1/GPa) = 0.01726058
#
# Stress axis : x y z
#
# Youngs Moduli (GPa) = 87.73628 63.29562 40.69192
#
# Poissons Ratio (x) = -0.00258 0.27566
# Poissons Ratio (y) = -0.00358 0.42816
# Poissons Ratio (z) = 0.59436 0.66599
#
# Static dielectric constant tensor:
#      x y z
#    x 1.828480 -0.042550 0.047940 
#    y -0.042550 1.794330 -0.027860 
#    z 0.047940 -0.027860 1.811690 
# 
# From -- ./inp_files/566490.got.cif
#   From: 2010.05.17/outbox.cif.g08.bks.cpg/sg2_284_cif.got.tgz:566490.got - 2010.06.03 11:33:40.
