data_PCOD9040319
_publ_section_title
;
Structure prediction by ZEFSAII (Michael W. Deem and Ramdas Pophale) SiO2 
 PCOD9040319
Probable space group: P -1
;
_chemical_formula_sum "Si O2"
_cell_formula_units_Z 14
_cell_length_a 9.635228
_cell_length_b 9.889846
_cell_length_c 7.140965
_cell_angle_alpha 72.364444
_cell_angle_beta 87.644113
_cell_angle_gamma 63.636252
_cell_volume 577.552969
_symmetry_space_group_name_H-M "P -1"
_symmetry_group_IT_number 2
_symmetry_cell_setting 'triclinic'
loop_
_space_group_symop_operation_xyz
x,y,z
-x,-y,-z
loop_
_atom_site_type_symbol
_atom_site_label
_atom_site_fract_x
_atom_site_fract_y
_atom_site_fract_z
Si Si1 0.849031 0.671949 0.666626
Si Si2 0.176100 0.410942 0.730827
Si Si3 0.259896 0.969817 0.579835
Si Si4 0.098955 0.134459 0.893385
Si Si5 0.170133 0.863553 0.289200
Si Si6 0.514249 0.378965 0.792080
Si Si7 0.546248 0.672139 0.767630
O O1 0.837737 0.618114 0.477073
O O2 0.723920 0.636536 0.800497
O O3 0.030248 0.569790 0.746191
O O4 0.787541 0.860766 0.584582
O O5 0.160701 0.261182 0.884039
O O6 0.341080 0.408767 0.744772
O O7 0.172813 0.887037 0.501145
O O8 0.441947 0.847023 0.617809
O O9 0.205694 0.013031 0.778189
O O10 0.931937 0.216088 0.760806
O O11 0.099452 0.032994 0.114950
O O12 0.348580 0.764206 0.261872
O O13 0.535626 0.537016 0.698829
O O14 0.532253 0.335068 0.029553
#
# Coordination Sequence:
#
# PCOD9040319 Si02
#       7
#     2   2   2   2   2   2   2
#     4  10  23  43  65  98 128 169 220 267 321 388
#     4  10  23  43  66  93 131 172 215 269 324 383
#     4  11  23  42  69 100 129 171 212 276 317 384
#     4  10  23  43  65  99 135 164 221 267 314 398
#     4  11  23  42  69  96 130 178 210 264 334 375
#     4  11  25  42  65  96 129 178 214 267 325 382
#     4  11  24  43  64  95 136 165 223 270 314 392
#
# _framework density 24.240199
#
# number of rings (size 3 to 8) (size 9 to 14) (size 15 to 20)
#    0.000    1.429    1.429    2.571    2.000    9.143 
#    2.571    0.000    0.000    0.000    0.000    0.000 
#    0.000    0.000    0.000    0.000    0.000    0.000 
#
# Total GULP energy -78362.422050 kJ/mol
# GULP energy per Si atom -5597.315861 kJ/mol
# Density = 2.418503 g / cm^3
# Si number density = 24.240199 Si / 1000 Ang^3
#
#
#
# Elastic Constant Matrix: (Units=GPa)
#
#
# Indices 1 2 3 4 5 6 
#
# 1 165.7661 58.1960 -2.4369 -19.3412 18.5654 -6.3148
# 2 58.1960 98.5598 24.2596 -19.1601 12.3891 -7.8539
# 3 -2.4369 24.2596 29.7922 -5.9330 4.0248 9.0681
# 4 -19.3412 -19.1601 -5.9330 28.7489 3.1248 7.0047
# 5 18.5654 12.3891 4.0248 3.1248 39.4587 -2.5126
# 6 -6.3148 -7.8539 9.0681 7.0047 -2.5126 37.7810
#
#
#
# Elastic Compliance Matrix: (Units=1/GPa)
#
#
# Indices 1 2 3 4 5 6 
#
# 1 0.009243 -0.006302 0.008240 0.004834 -0.003778 -0.002890
# 2 -0.006302 0.019580 -0.017491 0.003774 -0.001288 0.006430
# 3 0.008240 -0.017491 0.057074 0.010820 -0.006234 -0.018378
# 4 0.004834 0.003774 0.010820 0.046225 -0.008871 -0.010165
# 5 -0.003778 -0.001288 -0.006234 -0.008871 0.029129 0.004179
# 6 -0.002890 0.006430 -0.018378 -0.010165 0.004179 0.033896
#
#
# Mechanical properties :
#
#
# Convention : Reuss Voigt Hill
#
# Bulk Modulus (GPa) = 18.25088 50.46170 34.35629
# Shear Modulus (GPa) = 20.44858 35.47102 27.95980
#
# Velocity S-wave (km/s) = 2.90760 3.82948 3.39993
# Velocity P-wave (km/s) = 4.33794 6.35734 5.44213
#
# Compressibility (1/GPa) = 0.05479189
#
# Stress axis : x y z
#
# Youngs Moduli (GPa) = 108.18876 51.07192 17.52120
#
# Poissons Ratio (x) = 0.32184 -0.14438
# Poissons Ratio (y) = 0.68178 0.30647
# Poissons Ratio (z) = -0.89151 0.89331
#
# Static dielectric constant tensor:
#      x y z
#    x 1.913920 0.017630 0.013690 
#    y 0.017630 1.899240 -0.000690 
#    z 0.013690 -0.000690 1.953930 
# 
# From -- ./inp_files/156985.got.cif
#   From: 2010.05.17/outbox.cif.g08.bks.cpg/sg2_79_cif.got.tgz:156985.got - 2010.06.03 11:33:40.
