data_PCOD9040943
_publ_section_title
;
Structure prediction by ZEFSAII (Michael W. Deem and Ramdas Pophale) SiO2 
 PCOD9040943
Probable space group: P -1
;
_chemical_formula_sum "Si O2"
_cell_formula_units_Z 12
_cell_length_a 13.700237
_cell_length_b 9.994541
_cell_length_c 11.284273
_cell_angle_alpha 66.113020
_cell_angle_beta 159.135420
_cell_angle_gamma 116.825835
_cell_volume 490.407365
_symmetry_space_group_name_H-M "P -1"
_symmetry_group_IT_number 2
_symmetry_cell_setting 'triclinic'
loop_
_space_group_symop_operation_xyz
x,y,z
-x,-y,-z
loop_
_atom_site_type_symbol
_atom_site_label
_atom_site_fract_x
_atom_site_fract_y
_atom_site_fract_z
Si Si1 0.965335 0.888368 0.892376
Si Si2 0.730214 0.915933 0.151927
Si Si3 0.379647 0.696082 0.376487
Si Si4 0.866047 0.582156 0.660296
Si Si5 0.389679 0.138198 0.706621
Si Si6 0.184236 0.402367 0.674292
O O1 0.699100 0.754018 0.677641
O O2 0.886611 0.947313 0.652931
O O3 0.249493 0.832913 0.221036
O O4 0.000000 0.000000 0.000000
O O5 0.535054 0.858450 0.068311
O O6 0.786652 0.769446 0.202255
O O7 0.000000 0.000000 0.500000
O O8 0.606499 0.055686 0.916420
O O9 0.321984 0.578095 0.460162
O O10 0.159611 0.617709 0.052621
O O11 0.675705 0.698458 0.436208
O O12 0.928783 0.605631 0.585368
O O13 0.000000 0.500000 0.500000
O O14 0.500000 0.500000 0.000000
#
# Coordination Sequence:
#
# PCOD9040943 Si02
#       6
#     2   2   2   2   2   2
#     4  11  24  42  65  99 140 174 225 283 352 405
#     4  10  23  43  71  95 130 188 236 271 338 420
#     4  10  23  43  69  99 129 184 231 281 334 418
#     4   9  22  44  71  99 136 180 235 283 345 413
#     4   9  22  40  68  95 130 176 233 277 329 414
#     4  11  27  44  67 105 144 175 224 293 352 400
#
# _framework density 24.469452
#
# number of rings (size 3 to 8) (size 9 to 14) (size 15 to 20)
#    0.000    2.000    0.000    0.500   14.000   10.000 
#    3.000    0.000    0.000    0.000    0.000    0.000 
#    0.000    0.000    0.000    0.000    0.000    0.000 
#
# Total GULP energy -66863.062716 kJ/mol
# GULP energy per Si atom -5571.921893 kJ/mol
# Density = 2.441376 g / cm^3
# Si number density = 24.469452 Si / 1000 Ang^3
#
#
#
# Elastic Constant Matrix: (Units=GPa)
#
#
# Indices 1 2 3 4 5 6 
#
# 1 93.9814 39.1897 -2.6853 -15.1349 16.6187 -23.7513
# 2 39.1897 127.5053 29.4654 -16.0307 17.5009 -28.5846
# 3 -2.6853 29.4654 54.9059 -23.2365 21.9947 -6.9143
# 4 -15.1349 -16.0307 -23.2365 39.4442 -8.7782 14.1400
# 5 16.6187 17.5009 21.9947 -8.7782 42.3498 -0.0959
# 6 -23.7513 -28.5846 -6.9143 14.1400 -0.0959 49.6468
#
#
#
# Elastic Compliance Matrix: (Units=1/GPa)
#
#
# Indices 1 2 3 4 5 6 
#
# 1 0.016560 -0.004285 0.010047 0.006891 -0.008507 0.004876
# 2 -0.004285 0.011382 -0.006893 -0.002610 0.000027 0.004287
# 3 0.010047 -0.006893 0.037121 0.019073 -0.016419 0.000544
# 4 0.006891 -0.002610 0.019073 0.039927 -0.003271 -0.006928
# 5 -0.008507 0.000027 -0.016419 -0.003271 0.034777 -0.005342
# 6 0.004876 0.004287 0.000544 -0.006928 -0.005342 0.026982
#
#
# Mechanical properties :
#
#
# Convention : Reuss Voigt Hill
#
# Bulk Modulus (GPa) = 15.92305 45.37025 30.64665
# Shear Modulus (GPa) = 26.32358 40.31633 33.31996
#
# Velocity S-wave (km/s) = 3.28346 4.06349 3.69412
# Velocity P-wave (km/s) = 4.57124 6.37164 5.54500
#
# Compressibility (1/GPa) = 0.06280205
#
# Stress axis : x y z
#
# Youngs Moduli (GPa) = 60.38517 87.85850 26.93909
#
# Poissons Ratio (x) = 0.37645 -0.27066
# Poissons Ratio (y) = 0.25874 0.18569
# Poissons Ratio (z) = -0.60670 0.60561
#
# Static dielectric constant tensor:
#      x y z
#    x 1.760830 -0.183430 -0.163910 
#    y -0.183430 1.783970 -0.072930 
#    z -0.163910 -0.072930 1.953650 
# 
# From -- ./inp_files/93459.got.cif
#   From: 2010.05.17/outbox.cif.g08.bks.cpg/sg2_47_cif.got.tgz:93459.got - 2010.06.03 11:33:40.
