data_PCOD9040551
_publ_section_title
;
Structure prediction by ZEFSAII (Michael W. Deem and Ramdas Pophale) SiO2 
 PCOD9040551
Probable space group: P -1
;
_chemical_formula_sum "Si O2"
_cell_formula_units_Z 16
_cell_length_a 9.441380
_cell_length_b 12.223559
_cell_length_c 8.223976
_cell_angle_alpha 121.552572
_cell_angle_beta 112.093879
_cell_angle_gamma 59.242103
_cell_volume 687.350070
_symmetry_space_group_name_H-M "P -1"
_symmetry_group_IT_number 2
_symmetry_cell_setting 'triclinic'
loop_
_space_group_symop_operation_xyz
x,y,z
-x,-y,-z
loop_
_atom_site_type_symbol
_atom_site_label
_atom_site_fract_x
_atom_site_fract_y
_atom_site_fract_z
Si Si1 0.205441 0.954586 0.896954
Si Si2 0.766671 0.813500 0.692227
Si Si3 0.558691 0.371639 0.750214
Si Si4 0.474455 0.685038 0.954525
Si Si5 0.081174 0.101456 0.448332
Si Si6 0.605244 0.105355 0.396782
Si Si7 0.200219 0.381445 0.164074
Si Si8 0.914828 0.325911 0.806246
O O1 0.309280 0.817317 0.940728
O O2 0.323888 0.950526 0.792732
O O3 0.040489 0.946914 0.745555
O O4 0.170734 0.091972 0.092794
O O5 0.865655 0.793106 0.552790
O O6 0.569877 0.903218 0.652599
O O7 0.784046 0.676961 0.693466
O O8 0.464386 0.535256 0.798764
O O9 0.571167 0.268797 0.527909
O O10 0.749985 0.347212 0.852877
O O11 0.488745 0.324616 0.843513
O O12 0.627575 0.688807 0.917391
O O13 0.984726 0.180835 0.627971
O O14 0.252224 0.977518 0.477983
O O15 0.147456 0.546606 0.250731
O O16 0.059029 0.343620 0.985878
#
# Coordination Sequence:
#
# PCOD9040551 Si02
#       8
#     2   2   2   2   2   2   2   2
#     4  12  25  44  67  96 128 173 215 270 322 378
#     4  12  27  43  67  96 132 171 216 268 320 383
#     4  10  23  43  68  96 130 171 215 263 321 386
#     4  10  23  43  68  96 130 171 215 263 321 386
#     4  12  27  43  67  96 132 171 216 268 320 383
#     4  12  25  44  67  96 128 173 215 270 322 378
#     4  10  23  43  67  96 132 172 212 263 325 383
#     4  10  23  43  67  96 132 172 212 263 325 383
#
# _framework density 23.277805000000001
#
# number of rings (size 3 to 8) (size 9 to 14) (size 15 to 20)
#    0.000    1.000    2.500    3.000    7.000    2.000 
#    0.000    0.000    0.000    0.000    0.000    0.000 
#    0.000    0.000    0.000    0.000    0.000    0.000 
#
# Total GULP energy -89601.205183 kJ/mol
# GULP energy per Si atom -5600.075324 kJ/mol
# Density = 2.322482 g / cm^3
# Si number density = 23.277805 Si / 1000 Ang^3
#
#
#
# Elastic Constant Matrix: (Units=GPa)
#
#
# Indices 1 2 3 4 5 6 
#
# 1 90.8835 8.4642 -6.8655 -17.3027 -2.7619 10.3492
# 2 8.4642 102.1320 -11.1760 -13.5713 1.4655 1.4045
# 3 -6.8655 -11.1760 14.3556 10.9444 6.0376 -5.6942
# 4 -17.3027 -13.5713 10.9444 25.6835 -3.7530 -2.9919
# 5 -2.7619 1.4655 6.0376 -3.7530 38.2821 -9.5281
# 6 10.3492 1.4045 -5.6942 -2.9919 -9.5281 28.1032
#
#
#
# Elastic Compliance Matrix: (Units=1/GPa)
#
#
# Indices 1 2 3 4 5 6 
#
# 1 0.013170 -0.000121 -0.003811 0.010194 0.001559 -0.004002
# 2 -0.000121 0.010945 0.007387 0.002491 -0.001130 0.000876
# 3 -0.003811 0.007387 0.132358 -0.056902 -0.023576 0.013801
# 4 0.010194 0.002491 -0.056902 0.073511 0.016310 -0.002052
# 5 0.001559 -0.001130 -0.023576 0.016310 0.033539 0.007813
# 6 -0.004002 0.000876 0.013801 -0.002052 0.007813 0.042240
#
#
# Mechanical properties :
#
#
# Convention : Reuss Voigt Hill
#
# Bulk Modulus (GPa) = 6.12059 20.91294 13.51676
# Shear Modulus (GPa) = 14.15166 32.87698 23.51432
#
# Velocity S-wave (km/s) = 2.46833 3.76223 3.18175
# Velocity P-wave (km/s) = 3.28003 5.27978 4.39515
#
# Compressibility (1/GPa) = 0.16338297
#
# Stress axis : x y z
#
# Youngs Moduli (GPa) = 75.92755 91.36797 7.55526
#
# Poissons Ratio (x) = 0.01108 0.02879
# Poissons Ratio (y) = 0.00920 -0.05581
# Poissons Ratio (z) = 0.28933 -0.67491
#
# Static dielectric constant tensor:
#      x y z
#    x 1.861870 0.024240 0.007530 
#    y 0.024240 1.879570 -0.011280 
#    z 0.007530 -0.011280 1.839270 
# 
# From -- ./inp_files/185278.got.cif
#   From: 2010.05.17/outbox.cif.g08.bks.cpg/sg2_93_cif.got.tgz:185278.got - 2010.06.03 11:33:40.
