data_PCOD9040352
_publ_section_title
;
Structure prediction by ZEFSAII (Michael W. Deem and Ramdas Pophale) SiO2 
 PCOD9040352
Probable space group: P -1
;
_chemical_formula_sum "Si O2"
_cell_formula_units_Z 14
_cell_length_a 11.406270
_cell_length_b 7.602791
_cell_length_c 11.033182
_cell_angle_alpha 120.972927
_cell_angle_beta 61.852410
_cell_angle_gamma 139.244312
_cell_volume 529.796793
_symmetry_space_group_name_H-M "P -1"
_symmetry_group_IT_number 2
_symmetry_cell_setting 'triclinic'
loop_
_space_group_symop_operation_xyz
x,y,z
-x,-y,-z
loop_
_atom_site_type_symbol
_atom_site_label
_atom_site_fract_x
_atom_site_fract_y
_atom_site_fract_z
Si Si1 0.981090 0.722430 0.611864
Si Si2 0.839641 0.139182 0.656851
Si Si3 0.344277 0.555209 0.967097
Si Si4 0.638884 0.610146 0.716374
Si Si5 0.975995 0.236225 0.136185
Si Si6 0.485554 0.831893 0.560570
Si Si7 0.671701 0.134233 0.129008
O O1 0.778117 0.586778 0.688648
O O2 0.089047 0.892506 0.741586
O O3 0.000000 0.500000 0.500000
O O4 0.041684 0.862785 0.500108
O O5 0.935359 0.443819 0.766945
O O6 0.761527 0.933255 0.735697
O O7 0.667025 0.012346 0.613170
O O8 0.471598 0.503579 0.841816
O O9 0.301288 0.665460 0.915807
O O10 0.151616 0.294496 0.026063
O O11 0.480126 0.824505 0.083475
O O12 0.561831 0.435948 0.568065
O O13 0.825969 0.125620 0.069030
O O14 0.337583 0.760666 0.700448
O O15 0.500000 0.000000 0.500000
#
# Coordination Sequence:
#
# PCOD9040352 Si02
#       7
#     2   2   2   2   2   2   2
#     4  10  23  43  66 101 137 186 235 289 358 414
#     4  11  21  42  69 104 143 179 244 295 337 419
#     4  11  24  44  69 108 145 182 236 289 350 433
#     4  12  25  43  70 105 144 182 240 304 349 413
#     4  11  22  45  73 100 145 193 230 282 359 427
#     4  12  23  43  72 103 139 188 237 291 358 419
#     4  11  23  45  73 101 144 190 234 281 360 426
#
# _framework density 26.425225999999999
#
# number of rings (size 3 to 8) (size 9 to 14) (size 15 to 20)
#    0.000    0.857    2.857    6.429    0.000    0.571 
#    2.571    0.714    0.000    0.000    0.000    0.000 
#    0.000    0.000    0.000    0.000    0.000    0.000 
#
# Total GULP energy -78472.588447 kJ/mol
# GULP energy per Si atom -5605.184889 kJ/mol
# Density = 2.636508 g / cm^3
# Si number density = 26.425226 Si / 1000 Ang^3
#
#
#
# Elastic Constant Matrix: (Units=GPa)
#
#
# Indices 1 2 3 4 5 6 
#
# 1 155.1077 10.1653 39.4732 -15.6652 -8.8543 11.2959
# 2 10.1653 42.5671 6.7721 -16.4754 -2.7919 3.4683
# 3 39.4732 6.7721 145.3073 -16.0338 -14.5274 8.0065
# 4 -15.6652 -16.4754 -16.0338 42.3179 11.9018 -3.2927
# 5 -8.8543 -2.7919 -14.5274 11.9018 45.3783 -6.5723
# 6 11.2959 3.4683 8.0065 -3.2927 -6.5723 43.0793
#
#
#
# Elastic Compliance Matrix: (Units=1/GPa)
#
#
# Indices 1 2 3 4 5 6 
#
# 1 0.007185 -0.000712 -0.001646 0.001592 0.000216 -0.001366
# 2 -0.000712 0.027904 0.000029 0.010916 -0.001487 -0.001458
# 3 -0.001646 0.000029 0.007723 0.001835 0.001581 -0.000625
# 4 0.001592 0.010916 0.001835 0.031000 -0.006601 -0.000275
# 5 0.000216 -0.001487 0.001581 -0.006601 0.024664 0.003027
# 6 -0.001366 -0.001458 -0.000625 -0.000275 0.003027 0.024246
#
#
# Mechanical properties :
#
#
# Convention : Reuss Voigt Hill
#
# Bulk Modulus (GPa) = 26.21016 50.64480 38.42748
# Shear Modulus (GPa) = 35.68935 45.25986 40.47461
#
# Velocity S-wave (km/s) = 3.67901 4.14303 3.91790
# Velocity P-wave (km/s) = 5.29027 6.48793 5.91947
#
# Compressibility (1/GPa) = 0.03815315
#
# Stress axis : x y z
#
# Youngs Moduli (GPa) = 139.17224 35.83719 129.48738
#
# Poissons Ratio (x) = 0.02553 0.21316
# Poissons Ratio (y) = 0.09915 -0.00378
# Poissons Ratio (z) = 0.22911 -0.00105
#
# Static dielectric constant tensor:
#      x y z
#    x 2.075270 -0.024210 -0.055950 
#    y -0.024210 2.122800 -0.045370 
#    z -0.055950 -0.045370 2.159190 
# 
# From -- ./inp_files/418074.got.cif
#   From: 2010.05.17/outbox.cif.g08.bks.cpg/sg2_210_cif.got.tgz:418074.got - 2010.06.03 11:33:40.
