data_PCOD9040978
_publ_section_title
;
Structure prediction by ZEFSAII (Michael W. Deem and Ramdas Pophale) SiO2 
 PCOD9040978
Probable space group: P -1
;
_chemical_formula_sum "Si O2"
_cell_formula_units_Z 16
_cell_length_a 29.106965
_cell_length_b 6.918173
_cell_length_c 12.639448
_cell_angle_alpha 132.575109
_cell_angle_beta 23.926779
_cell_angle_gamma 138.348644
_cell_volume 685.827808
_symmetry_space_group_name_H-M "P -1"
_symmetry_group_IT_number 2
_symmetry_cell_setting 'triclinic'
loop_
_space_group_symop_operation_xyz
x,y,z
-x,-y,-z
loop_
_atom_site_type_symbol
_atom_site_label
_atom_site_fract_x
_atom_site_fract_y
_atom_site_fract_z
Si Si1 0.759635 0.721433 0.043613
Si Si2 0.586669 0.346046 0.663765
Si Si3 0.954746 0.210690 0.237948
Si Si4 0.187915 0.418314 0.348677
Si Si5 0.978511 0.167421 0.399797
Si Si6 0.401542 0.842691 0.741842
Si Si7 0.424925 0.687248 0.091998
Si Si8 0.778257 0.278131 0.094591
O O1 0.789855 0.576708 0.822257
O O2 0.881081 0.815322 0.896937
O O3 0.635441 0.489530 0.275018
O O4 0.745520 0.994276 0.128338
O O5 0.634457 0.324641 0.671697
O O6 0.694629 0.419569 0.376831
O O7 0.466428 0.041830 0.778224
O O8 0.529490 0.574429 0.854580
O O9 0.907994 0.072185 0.400689
O O10 0.862420 0.337113 0.429352
O O11 0.078454 0.505850 0.114317
O O12 0.000000 0.000000 0.000000
O O13 0.316994 0.496165 0.167343
O O14 0.090416 0.090318 0.465734
O O15 0.000000 0.500000 0.500000
O O16 0.271825 0.818247 0.954748
O O17 0.500000 0.000000 0.500000
O O18 0.500000 0.000000 0.000000
#
# Coordination Sequence:
#
# PCOD9040978 Si02
#       8
#     2   2   2   2   2   2   2   2
#     4  12  23  42  75 104 143 183 242 301 359 426
#     4  10  25  44  67  97 138 178 241 287 352 421
#     4  12  28  45  71 108 151 192 235 299 372 432
#     4  12  27  45  74 109 143 189 250 293 364 444
#     4  12  25  45  74 104 145 189 242 301 363 430
#     4  10  23  43  70 101 137 184 235 297 358 417
#     4  11  26  45  68  96 138 190 234 288 353 428
#     4  11  24  44  70 105 141 183 236 296 361 433
#
# _framework density 23.329471000000002
#
# number of rings (size 3 to 8) (size 9 to 14) (size 15 to 20)
#    0.000    0.750    3.750    2.625    5.250    6.500 
#    0.000    0.000    0.000    0.000    0.000    0.000 
#    0.000    0.000    0.000    0.000    0.000    0.000 
#
# Total GULP energy -89438.074889 kJ/mol
# GULP energy per Si atom -5589.879681 kJ/mol
# Density = 2.327637 g / cm^3
# Si number density = 23.329471 Si / 1000 Ang^3
#
#
#
# Elastic Constant Matrix: (Units=GPa)
#
#
# Indices 1 2 3 4 5 6 
#
# 1 81.1353 13.3219 -3.5843 1.3775 1.1159 -15.1078
# 2 13.3219 95.5892 12.8433 -12.2681 1.0899 -14.5574
# 3 -3.5843 12.8433 57.6487 -2.1833 7.7140 -6.9776
# 4 1.3775 -12.2681 -2.1833 50.5513 4.1247 -2.0406
# 5 1.1159 1.0899 7.7140 4.1247 27.5721 1.7838
# 6 -15.1078 -14.5574 -6.9776 -2.0406 1.7838 30.5554
#
#
#
# Elastic Compliance Matrix: (Units=1/GPa)
#
#
# Indices 1 2 3 4 5 6 
#
# 1 0.013923 -0.001186 0.002164 -0.000170 -0.001543 0.006892
# 2 -0.001186 0.012053 -0.001950 0.003128 -0.000672 0.004959
# 3 0.002164 -0.001950 0.019342 0.000984 -0.005891 0.004967
# 4 -0.000170 0.003128 0.000984 0.021025 -0.003748 0.003254
# 5 -0.001543 -0.000672 -0.005891 -0.003748 0.038886 -0.004948
# 6 0.006892 0.004959 0.004967 0.003254 -0.004948 0.040138
#
#
# Mechanical properties :
#
#
# Convention : Reuss Voigt Hill
#
# Bulk Modulus (GPa) = 23.05541 31.05942 27.05742
# Shear Modulus (GPa) = 30.90802 35.85523 33.38162
#
# Velocity S-wave (km/s) = 3.64380 3.92459 3.78680
# Velocity P-wave (km/s) = 5.25423 5.82056 5.54463
#
# Compressibility (1/GPa) = 0.04337377
#
# Stress axis : x y z
#
# Youngs Moduli (GPa) = 71.82466 82.96643 51.70029
#
# Poissons Ratio (x) = 0.09837 -0.11188
# Poissons Ratio (y) = 0.08516 0.10084
# Poissons Ratio (z) = -0.15543 0.16182
#
# Static dielectric constant tensor:
#      x y z
#    x 1.920200 0.005960 0.045060 
#    y 0.005960 1.877780 0.018410 
#    z 0.045060 0.018410 1.953310 
# 
# From -- ./inp_files/476023.got.cif
#   From: 2010.05.17/outbox.cif.g08.bks.cpg/sg2_239_cif.got.tgz:476023.got - 2010.06.03 11:33:40.
