data_PCOD9040259
_publ_section_title
;
Structure prediction by ZEFSAII (Michael W. Deem and Ramdas Pophale) SiO2 
 PCOD9040259
Probable space group: P -1
;
_chemical_formula_sum "Si O2"
_cell_formula_units_Z 16
_cell_length_a 9.538798
_cell_length_b 17.861999
_cell_length_c 21.294779
_cell_angle_alpha 19.839075
_cell_angle_beta 36.784598
_cell_angle_gamma 36.809877
_cell_volume 717.121318
_symmetry_space_group_name_H-M "P -1"
_symmetry_group_IT_number 2
_symmetry_cell_setting 'triclinic'
loop_
_space_group_symop_operation_xyz
x,y,z
-x,-y,-z
loop_
_atom_site_type_symbol
_atom_site_label
_atom_site_fract_x
_atom_site_fract_y
_atom_site_fract_z
Si Si1 0.450478 0.122976 0.487770
Si Si2 0.082499 0.345309 0.653846
Si Si3 0.686375 0.090164 0.022442
Si Si4 0.880573 0.772230 0.083164
Si Si5 0.558958 0.287056 0.098778
Si Si6 0.205002 0.574641 0.906505
Si Si7 0.890090 0.349390 0.491138
Si Si8 0.209769 0.125164 0.105976
O O1 0.632473 0.286436 0.298874
O O2 0.171395 0.251579 0.483683
O O3 0.500000 0.000000 0.500000
O O4 0.490329 0.932856 0.676530
O O5 0.202793 0.500828 0.532821
O O6 0.000000 0.500000 0.500000
O O7 0.259053 0.092230 0.795985
O O8 0.843062 0.278720 0.821258
O O9 0.409599 0.189392 0.027964
O O10 0.778925 0.945484 0.039279
O O11 0.758368 0.831452 0.013031
O O12 0.161866 0.763419 0.979857
O O13 0.862306 0.523687 0.306851
O O14 0.500000 0.500000 0.000000
O O15 0.387639 0.368679 0.037067
O O16 0.053969 0.740796 0.882995
O O17 0.000000 0.500000 0.000000
O O18 0.773074 0.141919 0.683533
#
# Coordination Sequence:
#
# PCOD9040259 Si02
#       8
#     2   2   2   2   2   2   2   2
#     4  12  21  41  69  96 122 167 225 267 314 397
#     4  10  23  43  65  90 129 174 215 252 324 393
#     4  10  25  41  63  97 133 166 208 268 324 378
#     4  11  21  39  69  96 124 168 220 263 315 389
#     4  12  21  41  72  94 124 176 222 263 320 390
#     4  12  28  42  64  99 137 168 216 280 334 374
#     4  11  22  38  68  95 119 168 217 264 315 380
#     4  12  24  42  63  97 131 165 215 271 323 381
#
# _framework density 22.311426000000001
#
# number of rings (size 3 to 8) (size 9 to 14) (size 15 to 20)
#    0.000    0.750    6.250    1.125    1.750    4.500 
#    0.000    0.000    0.000    0.000    0.000    0.000 
#    0.000    0.000    0.000    0.000    0.000    0.000 
#
# Total GULP energy -89519.372278 kJ/mol
# GULP energy per Si atom -5594.960767 kJ/mol
# Density = 2.226064 g / cm^3
# Si number density = 22.311426 Si / 1000 Ang^3
#
#
#
# Elastic Constant Matrix: (Units=GPa)
#
#
# Indices 1 2 3 4 5 6 
#
# 1 104.7429 5.5536 45.8810 6.8839 9.6389 -13.9460
# 2 5.5536 62.3396 8.3135 -6.4654 10.2362 -12.1324
# 3 45.8810 8.3135 146.3927 3.5385 28.9287 1.8236
# 4 6.8839 -6.4654 3.5385 21.7189 3.2314 -5.0743
# 5 9.6389 10.2362 28.9287 3.2314 48.0253 0.1846
# 6 -13.9460 -12.1324 1.8236 -5.0743 0.1846 38.8451
#
#
#
# Elastic Compliance Matrix: (Units=1/GPa)
#
#
# Indices 1 2 3 4 5 6 
#
# 1 0.011873 0.000025 -0.003718 -0.002175 -0.000018 0.004161
# 2 0.000025 0.019019 -0.000517 0.008025 -0.004314 0.007042
# 3 -0.003718 -0.000517 0.008946 -0.000211 -0.004511 -0.001923
# 4 -0.002175 0.008025 -0.000211 0.051843 -0.004668 0.008530
# 5 -0.000018 -0.004314 -0.004511 -0.004668 0.024784 -0.001870
# 6 0.004161 0.007042 -0.001923 0.008530 -0.001870 0.030650
#
#
# Mechanical properties :
#
#
# Convention : Reuss Voigt Hill
#
# Bulk Modulus (GPa) = 31.82851 48.10793 39.96822
# Shear Modulus (GPa) = 30.11891 38.63300 34.37596
#
# Velocity S-wave (km/s) = 3.67813 4.16568 3.92948
# Velocity P-wave (km/s) = 5.68636 6.68925 6.20809
#
# Compressibility (1/GPa) = 0.03141838
#
# Stress axis : x y z
#
# Youngs Moduli (GPa) = 84.22299 52.57841 111.78093
#
# Poissons Ratio (x) = -0.00133 0.41563
# Poissons Ratio (y) = -0.00214 0.05781
# Poissons Ratio (z) = 0.31316 0.02719
#
# Static dielectric constant tensor:
#      x y z
#    x 1.787820 0.008250 0.007030 
#    y 0.008250 1.866870 -0.012230 
#    z 0.007030 -0.012230 1.800780 
# 
# From -- ./inp_files/187956.got.cif
#   From: 2010.05.17/outbox.cif.g08.bks.cpg/sg2_94_cif.got.tgz:187956.got - 2010.06.03 11:33:40.
