data_PCOD9040936
_publ_section_title
;
Structure prediction by ZEFSAII (Michael W. Deem and Ramdas Pophale) SiO2 
 PCOD9040936
Probable space group: P -1
;
_chemical_formula_sum "Si O2"
_cell_formula_units_Z 14
_cell_length_a 7.575605
_cell_length_b 20.608803
_cell_length_c 5.259547
_cell_angle_alpha 83.163136
_cell_angle_beta 106.728228
_cell_angle_gamma 131.537777
_cell_volume 585.667276
_symmetry_space_group_name_H-M "P -1"
_symmetry_group_IT_number 2
_symmetry_cell_setting 'triclinic'
loop_
_space_group_symop_operation_xyz
x,y,z
-x,-y,-z
loop_
_atom_site_type_symbol
_atom_site_label
_atom_site_fract_x
_atom_site_fract_y
_atom_site_fract_z
Si Si1 0.954444 0.837157 0.800579
Si Si2 0.368618 0.783898 0.175823
Si Si3 0.783159 0.065814 0.657386
Si Si4 0.439978 0.318105 0.592133
Si Si5 0.642839 0.891245 0.741913
Si Si6 0.368501 0.518154 0.630229
Si Si7 0.185366 0.356094 0.858637
O O1 0.732856 0.735929 0.699541
O O2 0.816765 0.870183 0.809859
O O3 0.074484 0.876287 0.557472
O O4 0.147230 0.876849 0.090625
O O5 0.467146 0.730853 0.247417
O O6 0.465029 0.839839 0.449093
O O7 0.073526 0.716118 0.077878
O O8 0.486026 0.848381 0.954107
O O9 0.500000 0.000000 0.500000
O O10 0.809628 0.994503 0.744805
O O11 0.658325 0.418810 0.552516
O O12 0.264370 0.318063 0.710313
O O13 0.500000 0.500000 0.500000
O O14 0.152599 0.421117 0.686950
O O15 0.571450 0.578478 0.901899
#
# Coordination Sequence:
#
# PCOD9040936 Si02
#       7
#     2   2   2   2   2   2   2
#     4  11  24  44  70  94 138 180 219 284 335 397
#     4  11  26  43  71 102 136 180 231 279 333 403
#     4  12  26  43  68 103 134 176 230 276 340 403
#     4  10  24  42  70 100 132 181 230 272 346 407
#     4  11  25  47  65  99 136 178 228 275 341 402
#     4   9  21  42  67 100 136 179 223 274 346 402
#     4  10  23  43  69  98 140 179 220 287 337 399
#
# _framework density 23.904357999999998
#
# number of rings (size 3 to 8) (size 9 to 14) (size 15 to 20)
#    0.000    1.429    0.000    3.857   12.000    0.571 
#    0.000    6.429    0.000    0.000    0.000    0.000 
#    0.000    0.000    0.000    0.000    0.000    0.000 
#
# Total GULP energy -78264.913352 kJ/mol
# GULP energy per Si atom -5590.350954 kJ/mol
# Density = 2.384995 g / cm^3
# Si number density = 23.904358 Si / 1000 Ang^3
#
#
#
# Elastic Constant Matrix: (Units=GPa)
#
#
# Indices 1 2 3 4 5 6 
#
# 1 75.2229 6.3074 27.4236 9.2393 4.0135 -15.2015
# 2 6.3074 96.0529 19.1268 -12.3541 -22.2604 -26.6287
# 3 27.4236 19.1268 125.5928 5.5673 -24.5694 -11.1756
# 4 9.2393 -12.3541 5.5673 47.5251 0.8737 -9.5465
# 5 4.0135 -22.2604 -24.5694 0.8737 29.2008 1.5830
# 6 -15.2015 -26.6287 -11.1756 -9.5465 1.5830 32.6496
#
#
#
# Elastic Compliance Matrix: (Units=1/GPa)
#
#
# Indices 1 2 3 4 5 6 
#
# 1 0.016571 -0.000253 -0.004217 -0.001485 -0.006296 0.005937
# 2 -0.000253 0.019739 0.001195 0.008409 0.014854 0.018129
# 3 -0.004217 0.001195 0.010972 0.000110 0.010596 0.002285
# 4 -0.001485 0.008409 0.000110 0.026139 0.005187 0.013596
# 5 -0.006296 0.014854 0.010596 0.005187 0.054561 0.011682
# 6 0.005937 0.018129 0.002285 0.013596 0.011682 0.052370
#
#
# Mechanical properties :
#
#
# Convention : Reuss Voigt Hill
#
# Bulk Modulus (GPa) = 24.55007 44.73158 34.64083
# Shear Modulus (GPa) = 24.94026 38.14247 31.54136
#
# Velocity S-wave (km/s) = 3.23357 3.99887 3.63641
# Velocity P-wave (km/s) = 4.92278 6.33045 5.67046
#
# Compressibility (1/GPa) = 0.04073308
#
# Stress axis : x y z
#
# Youngs Moduli (GPa) = 60.34817 50.66004 91.13773
#
# Poissons Ratio (x) = 0.01279 0.38436
# Poissons Ratio (y) = 0.01524 -0.10893
# Poissons Ratio (z) = 0.25451 -0.06055
#
# Static dielectric constant tensor:
#      x y z
#    x 1.681940 0.518080 -0.283010 
#    y 0.518080 0.676130 0.796200 
#    z -0.283010 0.796200 1.617830 
# 
# From -- ./inp_files/51573.got.cif
#   From: 2010.05.17/outbox.cif.g08.bks.cpg/sg2_26_cif.got.tgz:51573.got - 2010.06.03 11:33:40.
