data_PCOD9040240
_publ_section_title
;
Structure prediction by ZEFSAII (Michael W. Deem and Ramdas Pophale) SiO2 
 PCOD9040240
Probable space group: P -1
;
_chemical_formula_sum "Si O2"
_cell_formula_units_Z 10
_cell_length_a 14.117899
_cell_length_b 7.429645
_cell_length_c 14.107784
_cell_angle_alpha 43.831715
_cell_angle_beta 159.611004
_cell_angle_gamma 136.066212
_cell_volume 351.059557
_symmetry_space_group_name_H-M "P -1"
_symmetry_group_IT_number 2
_symmetry_cell_setting 'triclinic'
loop_
_space_group_symop_operation_xyz
x,y,z
-x,-y,-z
loop_
_atom_site_type_symbol
_atom_site_label
_atom_site_fract_x
_atom_site_fract_y
_atom_site_fract_z
Si Si1 0.623319 0.579315 0.812497
Si Si2 0.299837 0.681109 0.201703
Si Si3 0.345422 0.796291 0.857460
Si Si4 0.918152 0.786611 0.316068
Si Si5 0.709325 0.043438 0.570792
O O1 0.632893 0.338647 0.839473
O O2 0.733812 0.476510 0.053045
O O3 0.337966 0.676455 0.537012
O O4 0.752233 0.840715 0.772131
O O5 0.500000 0.500000 0.500000
O O6 0.421836 0.934626 0.284844
O O7 0.000000 0.500000 0.000000
O O8 0.593756 0.765264 0.030299
O O9 0.095226 0.897625 0.532167
O O10 0.500000 0.000000 0.000000
O O11 0.057531 0.941426 0.296803
O O12 0.000000 0.500000 0.500000
#
# Coordination Sequence:
#
# PCOD9040240 Si02
#       5
#     2   2   2   2   2
#     4  10  23  45  72 110 139 190 251 299 364 436
#     4  10  23  43  65 101 142 180 229 298 363 421
#     4  12  27  48  75 109 150 197 249 310 371 449
#     4  12  26  49  73 106 153 197 245 302 380 446
#     4  10  23  46  76 104 148 192 246 305 366 439
#
# _framework density 28.485195999999998
#
# number of rings (size 3 to 8) (size 9 to 14) (size 15 to 20)
#    0.000    1.200    2.000    2.400    0.000   10.400 
#    0.000    0.000    0.000    0.000    0.000    0.000 
#    0.000    0.000    0.000    0.000    0.000    0.000 
#
# Total GULP energy -55922.166642 kJ/mol
# GULP energy per Si atom -5592.216664 kJ/mol
# Density = 2.842036 g / cm^3
# Si number density = 28.485196 Si / 1000 Ang^3
#
#
#
# Elastic Constant Matrix: (Units=GPa)
#
#
# Indices 1 2 3 4 5 6 
#
# 1 199.0642 51.5524 38.2895 11.6465 -2.3744 40.3582
# 2 51.5524 113.7107 45.1935 4.4544 -8.0759 9.6062
# 3 38.2895 45.1935 143.5681 28.9504 -4.4909 40.1447
# 4 11.6465 4.4544 28.9504 56.3393 12.5881 -17.3414
# 5 -2.3744 -8.0759 -4.4909 12.5881 41.2388 -20.0376
# 6 40.3582 9.6062 40.1447 -17.3414 -20.0376 70.9744
#
#
#
# Elastic Compliance Matrix: (Units=1/GPa)
#
#
# Indices 1 2 3 4 5 6 
#
# 1 0.006863 -0.003155 0.001251 -0.003088 -0.001788 -0.005442
# 2 -0.003155 0.011749 -0.004483 0.002682 0.002853 0.004201
# 3 0.001251 -0.004483 0.012582 -0.009077 -0.001450 -0.009849
# 4 -0.003088 0.002682 -0.009077 0.027308 -0.002971 0.012360
# 5 -0.001788 0.002853 -0.001450 -0.002971 0.029909 0.009169
# 6 -0.005442 0.004201 -0.009849 0.012360 0.009169 0.027795
#
#
# Mechanical properties :
#
#
# Convention : Reuss Voigt Hill
#
# Bulk Modulus (GPa) = 54.28924 80.71264 67.50094
# Shear Modulus (GPa) = 37.00435 55.13099 46.06767
#
# Velocity S-wave (km/s) = 3.60818 4.40412 4.02587
# Velocity P-wave (km/s) = 6.03810 7.36601 6.73487
#
# Compressibility (1/GPa) = 0.01841986
#
# Stress axis : x y z
#
# Youngs Moduli (GPa) = 145.71831 85.11282 79.48063
#
# Poissons Ratio (x) = 0.26852 -0.09946
# Poissons Ratio (y) = 0.45972 0.35634
# Poissons Ratio (z) = -0.18236 0.38159
#
# Static dielectric constant tensor:
#      x y z
#    x 2.369690 -0.134080 -0.036000 
#    y -0.134080 2.446990 0.007040 
#    z -0.036000 0.007040 2.194170 
# 
# From -- ./inp_files/20243.got.cif
#   From: 2010.05.17/outbox.cif.g08.bks.cpg/sg2_11_cif.got.tgz:20243.got - 2010.06.03 11:33:40.
