data_PCOD9040574
_publ_section_title
;
Structure prediction by ZEFSAII (Michael W. Deem and Ramdas Pophale) SiO2 
 PCOD9040574
Probable space group: P -1
;
_chemical_formula_sum "Si O2"
_cell_formula_units_Z 16
_cell_length_a 11.627784
_cell_length_b 17.872285
_cell_length_c 6.911048
_cell_angle_alpha 59.839865
_cell_angle_beta 43.133472
_cell_angle_gamma 43.956010
_cell_volume 680.777747
_symmetry_space_group_name_H-M "P -1"
_symmetry_group_IT_number 2
_symmetry_cell_setting 'triclinic'
loop_
_space_group_symop_operation_xyz
x,y,z
-x,-y,-z
loop_
_atom_site_type_symbol
_atom_site_label
_atom_site_fract_x
_atom_site_fract_y
_atom_site_fract_z
Si Si1 0.793802 0.906162 0.213195
Si Si2 0.762188 0.726085 0.386382
Si Si3 0.358829 0.296345 0.822037
Si Si4 0.241169 0.719262 0.801055
Si Si5 0.186355 0.574736 0.293848
Si Si6 0.536817 0.927958 0.861963
Si Si7 0.406275 0.357606 0.071159
Si Si8 0.706420 0.392537 0.482630
O O1 0.724036 0.838870 0.277212
O O2 0.713713 0.915434 0.518353
O O3 0.666863 0.014850 0.103536
O O4 0.044299 0.831467 0.982575
O O5 0.793021 0.670893 0.215128
O O6 0.571588 0.736352 0.713417
O O7 0.954029 0.655829 0.389551
O O8 0.567412 0.279795 0.502473
O O9 0.405905 0.185777 0.988538
O O10 0.291320 0.374103 0.986950
O O11 0.164271 0.686755 0.750221
O O12 0.305106 0.622159 0.994474
O O13 0.278377 0.461997 0.227278
O O14 0.197786 0.576857 0.508524
O O15 0.500000 0.000000 0.000000
O O16 0.621568 0.334769 0.774581
O O17 0.500000 0.500000 0.500000
#
# Coordination Sequence:
#
# PCOD9040574 Si02
#       8
#     2   2   2   2   2   2   2   2
#     4  10  23  43  67  97 130 172 220 272 349 389
#     4  11  23  40  63  95 134 170 224 276 330 391
#     4  11  24  41  68 100 130 174 227 273 332 396
#     4  10  24  43  65 100 136 176 221 277 320 402
#     4  11  24  40  62  94 138 180 222 273 327 386
#     4  11  22  44  73  95 128 173 216 281 343 404
#     4  11  23  39  62  92 136 177 221 276 321 388
#     4  11  23  41  65  91 131 186 226 264 326 391
#
# _framework density 23.502531000000001
#
# number of rings (size 3 to 8) (size 9 to 14) (size 15 to 20)
#    0.000    1.250    3.750    1.500    3.500    5.000 
#    0.000    0.625    0.000    0.000    0.000    0.000 
#    0.000    0.000    0.000    0.000    0.000    0.000 
#
# Total GULP energy -89427.673599 kJ/mol
# GULP energy per Si atom -5589.229600 kJ/mol
# Density = 2.344904 g / cm^3
# Si number density = 23.502531 Si / 1000 Ang^3
#
#
#
# Elastic Constant Matrix: (Units=GPa)
#
#
# Indices 1 2 3 4 5 6 
#
# 1 142.6534 27.1176 48.7414 8.9884 47.3835 9.0739
# 2 27.1176 65.2237 20.9106 0.9952 9.0860 -6.4519
# 3 48.7414 20.9106 110.4055 2.7474 23.8567 1.8355
# 4 8.9884 0.9952 2.7474 44.9447 13.1533 8.2172
# 5 47.3835 9.0860 23.8567 13.1533 50.9264 7.0490
# 6 9.0739 -6.4519 1.8355 8.2172 7.0490 24.6036
#
#
#
# Elastic Compliance Matrix: (Units=1/GPa)
#
#
# Indices 1 2 3 4 5 6 
#
# 1 0.011508 -0.003000 -0.002580 0.000996 -0.008857 -0.002634
# 2 -0.003000 0.017902 -0.002137 -0.000789 -0.000062 0.006242
# 3 -0.002580 -0.002137 0.011150 0.000630 -0.002618 0.000099
# 4 0.000996 -0.000789 0.000630 0.025276 -0.006617 -0.007167
# 5 -0.008857 -0.000062 -0.002618 -0.006617 0.031281 -0.003307
# 6 -0.002634 0.006242 0.000099 -0.007167 -0.003307 0.046586
#
#
# Mechanical properties :
#
#
# Convention : Reuss Voigt Hill
#
# Bulk Modulus (GPa) = 39.79758 56.86910 48.33334
# Shear Modulus (GPa) = 29.84865 38.86250 34.35558
#
# Velocity S-wave (km/s) = 3.56760 4.07079 3.82747
# Velocity P-wave (km/s) = 5.82584 6.80769 6.33581
#
# Compressibility (1/GPa) = 0.02512716
#
# Stress axis : x y z
#
# Youngs Moduli (GPa) = 86.89466 55.85903 89.68994
#
# Poissons Ratio (x) = 0.16755 0.23137
# Poissons Ratio (y) = 0.26064 0.19168
# Poissons Ratio (z) = 0.22416 0.11938
#
# Static dielectric constant tensor:
#      x y z
#    x 1.956740 0.016070 -0.010420 
#    y 0.016070 1.894270 -0.011830 
#    z -0.010420 -0.011830 1.931490 
# 
# From -- ./inp_files/81289.got.cif
#   From: 2010.05.17/outbox.cif.g08.bks.cpg/sg2_41_cif.got.tgz:81289.got - 2010.06.03 11:33:40.
