data_PCOD9040290
_publ_section_title
;
Structure prediction by ZEFSAII (Michael W. Deem and Ramdas Pophale) SiO2 
 PCOD9040290
Probable space group: P -1
;
_chemical_formula_sum "Si O2"
_cell_formula_units_Z 16
_cell_length_a 12.734190
_cell_length_b 13.482803
_cell_length_c 9.200374
_cell_angle_alpha 54.973548
_cell_angle_beta 62.815916
_cell_angle_gamma 108.044700
_cell_volume 712.533391
_symmetry_space_group_name_H-M "P -1"
_symmetry_group_IT_number 2
_symmetry_cell_setting 'triclinic'
loop_
_space_group_symop_operation_xyz
x,y,z
-x,-y,-z
loop_
_atom_site_type_symbol
_atom_site_label
_atom_site_fract_x
_atom_site_fract_y
_atom_site_fract_z
Si Si1 0.613844 0.265849 0.654083
Si Si2 0.826055 0.793001 0.350998
Si Si3 0.057561 0.382614 0.646320
Si Si4 0.279395 0.852725 0.734067
Si Si5 0.896909 0.541700 0.779038
Si Si6 0.306524 0.380009 0.139687
Si Si7 0.707204 0.077366 0.649314
Si Si8 0.548249 0.456859 0.369202
O O1 0.803477 0.430689 0.492834
O O2 0.619687 0.142581 0.670965
O O3 0.610083 0.376081 0.455430
O O4 0.433250 0.119393 0.001417
O O5 0.840222 0.665250 0.397403
O O6 0.842752 0.804661 0.505162
O O7 0.637985 0.702299 0.480512
O O8 0.000000 0.000000 0.000000
O O9 0.055392 0.434982 0.441512
O O10 0.849213 0.200833 0.005713
O O11 0.277654 0.933337 0.523061
O O12 0.500000 0.000000 0.500000
O O13 0.173574 0.638944 0.952892
O O14 0.729675 0.505772 0.922008
O O15 0.081709 0.746111 0.567067
O O16 0.500000 0.500000 0.000000
O O17 0.307565 0.358328 0.986438
O O18 0.500000 0.500000 0.500000
#
# Coordination Sequence:
#
# PCOD9040290 Si02
#       8
#     2   2   2   2   2   2   2   2
#     4  11  24  43  67  93 136 171 224 269 335 397
#     4  10  23  43  65  95 129 174 221 274 330 393
#     4  11  24  43  65  94 134 172 219 275 330 395
#     4  12  26  41  65 101 132 171 220 270 333 392
#     4  11  23  42  69  91 134 175 217 270 332 393
#     4   9  22  41  64  92 128 170 219 264 330 394
#     4  11  26  41  67  99 131 174 219 273 331 397
#     4  11  22  41  68  94 127 174 220 274 333 384
#
# _framework density 22.455086000000001
#
# number of rings (size 3 to 8) (size 9 to 14) (size 15 to 20)
#    0.000    1.250    2.500    2.250    8.750    2.000 
#    2.250    0.625    0.000    0.000    0.000    0.000 
#    0.000    0.000    0.000    0.000    0.000    0.000 
#
# Total GULP energy -89398.191067 kJ/mol
# GULP energy per Si atom -5587.386942 kJ/mol
# Density = 2.240398 g / cm^3
# Si number density = 22.455086 Si / 1000 Ang^3
#
#
#
# Elastic Constant Matrix: (Units=GPa)
#
#
# Indices 1 2 3 4 5 6 
#
# 1 99.7346 5.6689 17.2698 8.6938 -0.3265 12.2329
# 2 5.6689 45.2254 24.6838 26.8193 5.6360 17.1472
# 3 17.2698 24.6838 135.1589 26.7628 11.4352 25.1257
# 4 8.6938 26.8193 26.7628 46.4915 10.6922 0.4636
# 5 -0.3265 5.6360 11.4352 10.6922 43.8517 6.7860
# 6 12.2329 17.1472 25.1257 0.4636 6.7860 28.8406
#
#
#
# Elastic Compliance Matrix: (Units=1/GPa)
#
#
# Indices 1 2 3 4 5 6 
#
# 1 0.011138 0.004047 0.000024 -0.004791 0.001888 -0.007519
# 2 0.004047 0.053865 0.002865 -0.034617 0.006561 -0.037226
# 3 0.000024 0.002865 0.010327 -0.007598 0.000446 -0.010693
# 4 -0.004791 -0.034617 -0.007598 0.048805 -0.010282 0.030868
# 5 0.001888 0.006561 0.000446 -0.010282 0.026077 -0.011061
# 6 -0.007519 -0.037226 -0.010693 0.030868 -0.011061 0.071418
#
#
# Mechanical properties :
#
#
# Convention : Reuss Voigt Hill
#
# Bulk Modulus (GPa) = 11.21034 41.70709 26.45871
# Shear Modulus (GPa) = 21.05338 39.33652 30.19495
#
# Velocity S-wave (km/s) = 3.06531 4.18998 3.67097
# Velocity P-wave (km/s) = 4.18704 6.48242 5.45679
#
# Compressibility (1/GPa) = 0.08920337
#
# Stress axis : x y z
#
# Youngs Moduli (GPa) = 89.77947 18.56494 96.83407
#
# Poissons Ratio (x) = -0.07513 -0.00236
# Poissons Ratio (y) = -0.36334 -0.27744
# Poissons Ratio (z) = -0.00219 -0.05319
#
# Static dielectric constant tensor:
#      x y z
#    x 1.794690 -0.008770 -0.033020 
#    y -0.008770 1.817060 0.057130 
#    z -0.033020 0.057130 1.901610 
# 
# From -- ./inp_files/222644.got.cif
#   From: 2010.05.17/outbox.cif.g08.bks.cpg/sg2_112_cif.got.tgz:222644.got - 2010.06.03 11:33:40.
