data_PCOD9040604
_publ_section_title
;
Structure prediction by ZEFSAII (Michael W. Deem and Ramdas Pophale) SiO2 
 PCOD9040604
Probable space group: P -1
;
_chemical_formula_sum "Si O2"
_cell_formula_units_Z 16
_cell_length_a 13.966751
_cell_length_b 5.848873
_cell_length_c 16.210195
_cell_angle_alpha 113.226791
_cell_angle_beta 33.239367
_cell_angle_gamma 102.289341
_cell_volume 648.776214
_symmetry_space_group_name_H-M "P -1"
_symmetry_group_IT_number 2
_symmetry_cell_setting 'triclinic'
loop_
_space_group_symop_operation_xyz
x,y,z
-x,-y,-z
loop_
_atom_site_type_symbol
_atom_site_label
_atom_site_fract_x
_atom_site_fract_y
_atom_site_fract_z
Si Si1 0.002175 0.405941 0.390551
Si Si2 0.426502 0.582273 0.653880
Si Si3 0.408696 0.537227 0.871728
Si Si4 0.049008 0.501151 0.199466
Si Si5 0.821603 0.775251 0.248103
Si Si6 0.836422 0.076985 0.024196
Si Si7 0.674137 0.238964 0.535767
Si Si8 0.585936 0.700347 0.910101
O O1 0.968860 0.590014 0.359713
O O2 0.213556 0.293924 0.207267
O O3 0.000000 0.500000 0.500000
O O4 0.860347 0.233133 0.448353
O O5 0.500000 0.500000 0.500000
O O6 0.297152 0.387381 0.735531
O O7 0.290931 0.860261 0.795136
O O8 0.598005 0.507312 0.579775
O O9 0.305796 0.746811 0.910875
O O10 0.507433 0.264055 0.722563
O O11 0.572517 0.600635 0.812654
O O12 0.246582 0.548256 0.052874
O O13 0.922733 0.625293 0.233496
O O14 0.089534 0.197931 0.108066
O O15 0.704327 0.026963 0.413056
O O16 0.983889 0.820780 0.081663
O O17 0.500000 0.500000 0.000000
O O18 0.500000 0.000000 0.000000
#
# Coordination Sequence:
#
# PCOD9040604 Si02
#       8
#     2   2   2   2   2   2   2   2
#     4  12  24  45  71 104 145 185 241 299 362 434
#     4  11  25  44  68 104 135 183 235 287 364 434
#     4  10  23  43  67  99 137 192 235 290 365 429
#     4  11  23  44  70 101 137 188 240 292 359 431
#     4  11  24  44  71  98 139 182 233 294 358 430
#     4  10  23  44  72  94 141 180 235 296 355 434
#     4  11  24  46  67 100 148 181 234 301 362 431
#     4  12  26  46  74 106 145 192 251 304 368 439
#
# _framework density 24.661816999999999
#
# number of rings (size 3 to 8) (size 9 to 14) (size 15 to 20)
#    0.000    1.000    3.750    2.250    3.500    0.500 
#    4.500    1.250    0.000    0.000    0.000    0.000 
#    0.000    0.000    0.000    0.000    0.000    0.000 
#
# Total GULP energy -89155.843991 kJ/mol
# GULP energy per Si atom -5572.240249 kJ/mol
# Density = 2.460569 g / cm^3
# Si number density = 24.661817 Si / 1000 Ang^3
#
#
#
# Elastic Constant Matrix: (Units=GPa)
#
#
# Indices 1 2 3 4 5 6 
#
# 1 124.6762 14.8191 33.4226 1.4186 -24.5767 3.9404
# 2 14.8191 68.7303 33.3716 14.9190 -10.3361 0.7704
# 3 33.4226 33.3716 100.1136 24.8906 7.2733 -13.6378
# 4 1.4186 14.9190 24.8906 15.1627 1.8605 -0.7486
# 5 -24.5767 -10.3361 7.2733 1.8605 56.7942 2.9032
# 6 3.9404 0.7704 -13.6378 -0.7486 2.9032 27.8105
#
#
#
# Elastic Compliance Matrix: (Units=1/GPa)
#
#
# Indices 1 2 3 4 5 6 
#
# 1 0.011218 -0.000118 -0.007441 0.010303 0.005732 -0.005556
# 2 -0.000118 0.020375 -0.004050 -0.014147 0.004814 -0.003417
# 3 -0.007441 -0.004050 0.024583 -0.034216 -0.006648 0.012994
# 4 0.010303 -0.014147 -0.034216 0.134037 0.002617 -0.014512
# 5 0.005732 0.004814 -0.006648 0.002617 0.022059 -0.006438
# 6 -0.005556 -0.003417 0.012994 -0.014512 -0.006438 0.043493
#
#
# Mechanical properties :
#
#
# Convention : Reuss Voigt Hill
#
# Bulk Modulus (GPa) = 30.34211 50.74963 40.54587
# Shear Modulus (GPa) = 17.24333 34.08059 25.66196
#
# Velocity S-wave (km/s) = 2.64709 3.72145 3.22926
# Velocity P-wave (km/s) = 4.65540 6.25208 5.51186
#
# Compressibility (1/GPa) = 0.03295749
#
# Stress axis : x y z
#
# Youngs Moduli (GPa) = 89.14445 49.08050 40.67905
#
# Poissons Ratio (x) = 0.00580 0.30267
# Poissons Ratio (y) = 0.01053 0.16476
# Poissons Ratio (z) = 0.66328 0.19878
#
# Static dielectric constant tensor:
#      x y z
#    x 2.071250 -0.006020 0.115350 
#    y -0.006020 2.219140 -0.045350 
#    z 0.115350 -0.045350 2.115180 
# 
# From -- ./inp_files/39511.got.cif
#   From: 2010.05.17/outbox.cif.g08.bks.cpg/sg2_20_cif.got.tgz:39511.got - 2010.06.03 11:33:40.
