data_PCOD9040124
_publ_section_title
;
Structure prediction by ZEFSAII (Michael W. Deem and Ramdas Pophale) SiO2 
 PCOD9040124
Probable space group: P -1
;
_chemical_formula_sum "Si O2"
_cell_formula_units_Z 14
_cell_length_a 16.435740
_cell_length_b 11.178706
_cell_length_c 19.206431
_cell_angle_alpha 32.574421
_cell_angle_beta 29.441009
_cell_angle_gamma 22.249532
_cell_volume 643.878411
_symmetry_space_group_name_H-M "P -1"
_symmetry_group_IT_number 2
_symmetry_cell_setting 'triclinic'
loop_
_space_group_symop_operation_xyz
x,y,z
-x,-y,-z
loop_
_atom_site_type_symbol
_atom_site_label
_atom_site_fract_x
_atom_site_fract_y
_atom_site_fract_z
Si Si1 0.794409 0.789096 0.187804
Si Si2 0.100113 0.164596 0.501815
Si Si3 0.787020 0.241392 0.903908
Si Si4 0.164265 0.595528 0.767928
Si Si5 0.304633 0.359809 0.344005
Si Si6 0.807895 0.622298 0.797999
Si Si7 0.642608 0.879919 0.025697
O O1 0.717486 0.670625 0.250610
O O2 0.013408 0.499754 0.213149
O O3 0.585334 0.079950 0.252694
O O4 0.881188 0.908719 0.015961
O O5 0.216092 0.212814 0.449916
O O6 0.182522 0.183822 0.357715
O O7 0.811822 0.486143 0.569682
O O8 0.172320 0.842637 0.619095
O O9 0.815029 0.325018 0.767023
O O10 0.883561 0.329333 0.843054
O O11 0.500000 0.500000 0.000000
O O12 0.282746 0.415960 0.841969
O O13 0.886493 0.782799 0.884797
O O14 0.547624 0.825729 0.923938
O O15 0.500000 0.000000 0.000000
#
# Coordination Sequence:
#
# PCOD9040124 Si02
#       7
#     2   2   2   2   2   2   2
#     4  11  22  39  64 100 127 168 217 271 327 377
#     4  10  23  43  63  93 126 178 212 261 328 386
#     4   9  19  36  64  89 121 166 215 265 317 370
#     4  11  25  42  71  93 133 171 213 269 331 379
#     4   9  21  40  65  89 126 167 223 261 321 391
#     4  11  23  41  63  94 136 165 220 270 315 391
#     4  11  24  44  65 100 128 167 222 269 320 387
#
# _framework density 21.743234999999999
#
# number of rings (size 3 to 8) (size 9 to 14) (size 15 to 20)
#    0.000    1.714    1.429    3.000    8.000    3.429 
#    2.571    0.000    0.000    0.000    0.000    0.000 
#    0.000    0.000    0.000    0.000    0.000    0.000 
#
# Total GULP energy -78158.536220 kJ/mol
# GULP energy per Si atom -5582.752587 kJ/mol
# Density = 2.169375 g / cm^3
# Si number density = 21.743235 Si / 1000 Ang^3
#
#
#
# Elastic Constant Matrix: (Units=GPa)
#
#
# Indices 1 2 3 4 5 6 
#
# 1 89.8364 29.4386 36.3653 -18.3914 12.9696 -13.1164
# 2 29.4386 72.4989 29.3446 0.5537 13.3346 -3.2221
# 3 36.3653 29.3446 116.0168 -33.9867 -3.7016 1.8208
# 4 -18.3914 0.5537 -33.9867 52.0471 10.2102 1.4388
# 5 12.9696 13.3346 -3.7016 10.2102 16.2488 0.9454
# 6 -13.1164 -3.2221 1.8208 1.4388 0.9454 29.1908
#
#
#
# Elastic Compliance Matrix: (Units=1/GPa)
#
#
# Indices 1 2 3 4 5 6 
#
# 1 0.019249 -0.002227 -0.003924 0.007927 -0.019930 0.008903
# 2 -0.002227 0.019605 -0.005227 -0.001598 -0.014616 0.002041
# 3 -0.003924 -0.005227 0.013224 0.006065 0.006837 -0.003685
# 4 0.007927 -0.001598 0.006065 0.030418 -0.022878 0.002249
# 5 -0.019930 -0.014616 0.006837 -0.022878 0.106153 -0.013305
# 6 0.008903 0.002041 -0.003685 0.002249 -0.013305 0.039033
#
#
# Mechanical properties :
#
#
# Convention : Reuss Voigt Hill
#
# Bulk Modulus (GPa) = 34.10411 52.07210 43.08810
# Shear Modulus (GPa) = 19.21507 31.71093 25.46300
#
# Velocity S-wave (km/s) = 2.97598 3.82308 3.42581
# Velocity P-wave (km/s) = 5.24667 6.59458 5.95886
#
# Compressibility (1/GPa) = 0.02932198
#
# Stress axis : x y z
#
# Youngs Moduli (GPa) = 51.94942 51.00819 75.61935
#
# Poissons Ratio (x) = 0.11362 0.29671
# Poissons Ratio (y) = 0.11571 0.39526
# Poissons Ratio (z) = 0.20384 0.26662
#
# Static dielectric constant tensor:
#      x y z
#    x 1.776870 0.030010 0.018550 
#    y 0.030010 1.865940 0.034160 
#    z 0.018550 0.034160 1.802150 
# 
# From -- ./inp_files/404638.got.cif
#   From: 2010.05.17/outbox.cif.g08.bks.cpg/sg2_203_cif.got.tgz:404638.got - 2010.06.03 11:33:40.
