data_PCOD9040528
_publ_section_title
;
Structure prediction by ZEFSAII (Michael W. Deem and Ramdas Pophale) SiO2 
 PCOD9040528
Probable space group: P -1
;
_chemical_formula_sum "Si O2"
_cell_formula_units_Z 16
_cell_length_a 5.826768
_cell_length_b 9.880088
_cell_length_c 18.973923
_cell_angle_alpha 61.360892
_cell_angle_beta 124.640496
_cell_angle_gamma 128.281459
_cell_volume 691.639489
_symmetry_space_group_name_H-M "P -1"
_symmetry_group_IT_number 2
_symmetry_cell_setting 'triclinic'
loop_
_space_group_symop_operation_xyz
x,y,z
-x,-y,-z
loop_
_atom_site_type_symbol
_atom_site_label
_atom_site_fract_x
_atom_site_fract_y
_atom_site_fract_z
Si Si1 0.768763 0.941401 0.067513
Si Si2 0.185226 0.189640 0.523434
Si Si3 0.630826 0.349358 0.825235
Si Si4 0.100218 0.527607 0.428501
Si Si5 0.352739 0.552122 0.758905
Si Si6 0.754992 0.637010 0.062518
Si Si7 0.704679 0.932682 0.769626
Si Si8 0.270680 0.103923 0.708270
O O1 0.668087 0.790896 0.147612
O O2 0.760414 0.821852 0.029964
O O3 0.105404 0.082517 0.124385
O O4 0.500000 0.000000 0.000000
O O5 0.117839 0.350811 0.453202
O O6 0.569010 0.290778 0.559378
O O7 0.117293 0.146022 0.604495
O O8 0.000000 0.000000 0.500000
O O9 0.669477 0.539302 0.797051
O O10 0.537537 0.282170 0.747081
O O11 0.904317 0.323618 0.914378
O O12 0.000000 0.500000 0.500000
O O13 0.874660 0.536398 0.325701
O O14 0.255145 0.459287 0.841077
O O15 0.440231 0.749590 0.737698
O O16 0.500000 0.500000 0.000000
O O17 0.491609 0.020185 0.739600
O O18 0.976844 0.004929 0.736781
#
# Coordination Sequence:
#
# PCOD9040528 Si02
#       8
#     2   2   2   2   2   2   2   2
#     4  10  24  42  63  96 137 182 243 303 364 441
#     4  11  26  45  74 105 149 190 252 312 378 458
#     4  10  23  43  67  93 137 190 233 296 372 434
#     4  11  26  46  73 110 145 198 250 313 385 450
#     4  11  26  44  69 103 147 184 249 306 371 455
#     4  11  25  42  69  97 138 192 239 301 374 443
#     4  11  26  44  73 107 141 198 248 307 377 446
#     4  11  24  47  72 102 145 194 246 303 376 448
#
# _framework density 23.133441000000001
#
# number of rings (size 3 to 8) (size 9 to 14) (size 15 to 20)
#    0.000    1.250    1.250    2.250   12.250    4.000 
#    0.000    0.000    0.000    0.000    0.000    0.000 
#    0.000    0.000    0.000    0.000    0.000    0.000 
#
# Total GULP energy -89112.925374 kJ/mol
# GULP energy per Si atom -5569.557836 kJ/mol
# Density = 2.308079 g / cm^3
# Si number density = 23.133441 Si / 1000 Ang^3
#
#
#
# Elastic Constant Matrix: (Units=GPa)
#
#
# Indices 1 2 3 4 5 6 
#
# 1 93.6065 38.8917 30.0724 -3.7504 -1.2088 -7.8964
# 2 38.8917 120.1415 32.8187 24.9041 0.3474 -4.9816
# 3 30.0724 32.8187 123.3883 16.4808 -10.0511 8.5048
# 4 -3.7504 24.9041 16.4808 34.0074 -2.3504 7.5017
# 5 -1.2088 0.3474 -10.0511 -2.3504 41.6699 -12.4801
# 6 -7.8964 -4.9816 8.5048 7.5017 -12.4801 36.6991
#
#
#
# Elastic Compliance Matrix: (Units=1/GPa)
#
#
# Indices 1 2 3 4 5 6 
#
# 1 0.014160 -0.004970 -0.003053 0.006280 0.000677 0.002026
# 2 -0.004970 0.012329 -0.000975 -0.009724 -0.000208 0.002747
# 3 -0.003053 -0.000975 0.009878 -0.003916 0.001558 -0.001748
# 4 0.006280 -0.009724 -0.003916 0.040752 -0.000664 -0.007617
# 5 0.000677 -0.000208 0.001558 -0.000664 0.027084 0.009102
# 6 0.002026 0.002747 -0.001748 -0.007617 0.009102 0.033115
#
#
# Mechanical properties :
#
#
# Convention : Reuss Voigt Hill
#
# Bulk Modulus (GPa) = 54.43096 60.07797 57.25446
# Shear Modulus (GPa) = 30.97181 38.16552 34.56867
#
# Velocity S-wave (km/s) = 3.66298 4.06618 3.86983
# Velocity P-wave (km/s) = 6.43973 6.93337 6.69110
#
# Compressibility (1/GPa) = 0.01837190
#
# Stress axis : x y z
#
# Youngs Moduli (GPa) = 70.62278 81.10935 101.23074
#
# Poissons Ratio (x) = 0.40308 0.30901
# Poissons Ratio (y) = 0.35097 0.09875
# Poissons Ratio (z) = 0.21558 0.07912
#
# Static dielectric constant tensor:
#      x y z
#    x 2.030880 -0.151310 -0.089560 
#    y -0.151310 0.180020 -0.376820 
#    z -0.089560 -0.376820 1.851740 
# 
# From -- ./inp_files/128844.got.cif
#   From: 2010.05.17/outbox.cif.g08.bks.cpg/sg2_65_cif.got.tgz:128844.got - 2010.06.03 11:33:40.
