data_PCOD9040237
_publ_section_title
;
Structure prediction by ZEFSAII (Michael W. Deem and Ramdas Pophale) SiO2 
 PCOD9040237
Probable space group: P -1
;
_chemical_formula_sum "Si O2"
_cell_formula_units_Z 12
_cell_length_a 9.457783
_cell_length_b 10.659135
_cell_length_c 8.653274
_cell_angle_alpha 103.514930
_cell_angle_beta 46.436111
_cell_angle_gamma 129.191231
_cell_volume 457.194701
_symmetry_space_group_name_H-M "P -1"
_symmetry_group_IT_number 2
_symmetry_cell_setting 'triclinic'
loop_
_space_group_symop_operation_xyz
x,y,z
-x,-y,-z
loop_
_atom_site_type_symbol
_atom_site_label
_atom_site_fract_x
_atom_site_fract_y
_atom_site_fract_z
Si Si1 0.573603 0.813634 0.588052
Si Si2 0.569857 0.503978 0.270739
Si Si3 0.862453 0.627739 0.673219
Si Si4 0.891995 0.926667 0.888811
Si Si5 0.970471 0.404254 0.153119
Si Si6 0.416416 0.904635 0.198416
O O1 0.502079 0.681707 0.740563
O O2 0.334842 0.702510 0.613099
O O3 0.867821 0.910720 0.348136
O O4 0.552978 0.955647 0.678329
O O5 0.500000 0.500000 0.500000
O O6 0.392921 0.495801 0.276267
O O7 0.878995 0.655093 0.048819
O O8 0.895259 0.541215 0.763944
O O9 0.864771 0.769947 0.795287
O O10 0.114297 0.734489 0.401759
O O11 0.619832 0.881711 0.071044
O O12 0.000000 0.000000 0.000000
O O13 0.000000 0.500000 0.000000
O O14 0.500000 0.000000 0.000000
#
# Coordination Sequence:
#
# PCOD9040237 Si02
#       6
#     2   2   2   2   2   2
#     4  10  23  43  65 101 139 176 237 283 350 420
#     4  11  25  43  70  97 138 197 233 284 347 412
#     4  11  24  45  68 107 142 177 245 285 344 427
#     4  11  23  40  72 103 136 182 222 296 357 415
#     4  10  23  45  68  94 141 187 228 293 337 408
#     4  11  23  40  72 102 140 181 222 298 355 412
#
# _framework density 26.247024
#
# number of rings (size 3 to 8) (size 9 to 14) (size 15 to 20)
#    0.000    1.333    0.000    4.500    7.000    5.333 
#    3.000    3.333    0.000    0.000    0.000    0.000 
#    0.000    0.000    0.000    0.000    0.000    0.000 
#
# Total GULP energy -66952.083087 kJ/mol
# GULP energy per Si atom -5579.340257 kJ/mol
# Density = 2.618729 g / cm^3
# Si number density = 26.247024 Si / 1000 Ang^3
#
#
#
# Elastic Constant Matrix: (Units=GPa)
#
#
# Indices 1 2 3 4 5 6 
#
# 1 178.2720 27.5801 46.7102 -9.0561 -10.8520 2.4504
# 2 27.5801 87.7007 24.9783 22.9250 -11.5289 -17.3292
# 3 46.7102 24.9783 157.1746 -14.5904 -22.3237 -9.4165
# 4 -9.0561 22.9250 -14.5904 41.0086 -3.8897 0.1116
# 5 -10.8520 -11.5289 -22.3237 -3.8897 53.9709 -0.3654
# 6 2.4504 -17.3292 -9.4165 0.1116 -0.3654 27.6511
#
#
#
# Elastic Compliance Matrix: (Units=1/GPa)
#
#
# Indices 1 2 3 4 5 6 
#
# 1 0.006614 -0.002899 -0.001391 0.002623 0.000305 -0.002883
# 2 -0.002899 0.018390 -0.002237 -0.011589 0.001660 0.011089
# 3 -0.001391 -0.002237 0.008001 0.004057 0.002854 0.001468
# 4 0.002623 -0.011589 0.004057 0.033100 0.002073 -0.006220
# 5 0.000305 0.001660 0.002854 0.002073 0.020290 0.002245
# 6 -0.002883 0.011089 0.001468 -0.006220 0.002245 0.043925
#
#
# Mechanical properties :
#
#
# Convention : Reuss Voigt Hill
#
# Bulk Modulus (GPa) = 50.12086 69.07606 59.59846
# Shear Modulus (GPa) = 33.32831 46.11805 39.72318
#
# Velocity S-wave (km/s) = 3.56728 4.19630 3.89451
# Velocity P-wave (km/s) = 6.00871 7.06069 6.55584
#
# Compressibility (1/GPa) = 0.01995177
#
# Stress axis : x y z
#
# Youngs Moduli (GPa) = 151.20001 54.37738 124.98432
#
# Poissons Ratio (x) = 0.15765 0.17382
# Poissons Ratio (y) = 0.43835 0.27955
# Poissons Ratio (z) = 0.21028 0.12162
#
# Static dielectric constant tensor:
#      x y z
#    x 2.061920 -0.012430 0.018130 
#    y -0.012430 2.248430 -0.060120 
#    z 0.018130 -0.060120 2.131090 
# 
# From -- ./inp_files/188119.got.cif
#   From: 2010.05.17/outbox.cif.g08.bks.cpg/sg2_95_cif.got.tgz:188119.got - 2010.06.03 11:33:40.
