data_PCOD9040616
_publ_section_title
;
Structure prediction by ZEFSAII (Michael W. Deem and Ramdas Pophale) SiO2 
 PCOD9040616
Probable space group: P -1
;
_chemical_formula_sum "Si O2"
_cell_formula_units_Z 12
_cell_length_a 8.070661
_cell_length_b 14.400979
_cell_length_c 6.972892
_cell_angle_alpha 44.662538
_cell_angle_beta 57.182733
_cell_angle_gamma 78.320648
_cell_volume 455.194153
_symmetry_space_group_name_H-M "P -1"
_symmetry_group_IT_number 2
_symmetry_cell_setting 'triclinic'
loop_
_space_group_symop_operation_xyz
x,y,z
-x,-y,-z
loop_
_atom_site_type_symbol
_atom_site_label
_atom_site_fract_x
_atom_site_fract_y
_atom_site_fract_z
Si Si1 0.330474 0.245213 0.222555
Si Si2 0.246170 0.226699 0.851359
Si Si3 0.918812 0.295547 0.477714
Si Si4 0.812313 0.067993 0.207149
Si Si5 0.314007 0.523190 0.451713
Si Si6 0.396066 0.861629 0.394507
O O1 0.162293 0.319616 0.277665
O O2 0.259316 0.091073 0.578155
O O3 0.303000 0.213096 0.057491
O O4 0.559740 0.350800 0.948791
O O5 0.208915 0.375984 0.635657
O O6 0.441778 0.223884 0.607460
O O7 0.041737 0.106695 0.096735
O O8 0.844634 0.423777 0.402611
O O9 0.814288 0.232436 0.436157
O O10 0.826537 0.172337 0.870345
O O11 0.335741 0.906880 0.571106
O O12 0.500000 0.500000 0.500000
O O13 0.500000 0.000000 0.000000
#
# Coordination Sequence:
#
# PCOD9040616 Si02
#       6
#     2   2   2   2   2   2
#     4  11  22  43  70  97 139 175 223 277 334 396
#     4  11  23  44  69  98 137 180 223 274 338 397
#     4  12  25  42  72 101 133 180 225 275 339 394
#     4  12  26  43  69 107 134 171 230 281 328 401
#     4  10  23  43  68 100 133 181 226 269 337 404
#     4  12  23  43  70  96 137 179 219 275 338 393
#
# _framework density 26.362379000000001
#
# number of rings (size 3 to 8) (size 9 to 14) (size 15 to 20)
#    0.000    0.667    6.667    2.000    0.000    8.667 
#    0.000    1.667    0.000    0.000    0.000    0.000 
#    0.000    0.000    0.000    0.000    0.000    0.000 
#
# Total GULP energy -67381.868166 kJ/mol
# GULP energy per Si atom -5615.155680 kJ/mol
# Density = 2.630238 g / cm^3
# Si number density = 26.362379 Si / 1000 Ang^3
#
#
#
# Elastic Constant Matrix: (Units=GPa)
#
#
# Indices 1 2 3 4 5 6 
#
# 1 40.6413 16.9753 -3.7547 8.8875 -3.9468 -3.1238
# 2 16.9753 164.4202 27.5331 18.1747 5.8208 -26.9605
# 3 -3.7547 27.5331 93.8018 1.4352 -0.3281 0.1257
# 4 8.8875 18.1747 1.4352 52.7785 -4.6538 -1.4370
# 5 -3.9468 5.8208 -0.3281 -4.6538 41.7604 6.3191
# 6 -3.1238 -26.9605 0.1257 -1.4370 6.3191 48.6609
#
#
#
# Elastic Compliance Matrix: (Units=1/GPa)
#
#
# Indices 1 2 3 4 5 6 
#
# 1 0.026966 -0.002889 0.001989 -0.003376 0.002639 -0.000317
# 2 -0.002889 0.007828 -0.002393 -0.002227 -0.002296 0.004390
# 3 0.001989 -0.002393 0.011444 0.000216 0.000837 -0.001330
# 4 -0.003376 -0.002227 0.000216 0.020461 0.002450 -0.001165
# 5 0.002639 -0.002296 0.000837 0.002450 0.025451 -0.004337
# 6 -0.000317 0.004390 -0.001330 -0.001165 -0.004337 0.023495
#
#
# Mechanical properties :
#
#
# Convention : Reuss Voigt Hill
#
# Bulk Modulus (GPa) = 25.21994 42.26340 33.74167
# Shear Modulus (GPa) = 36.91380 45.84728 41.38054
#
# Velocity S-wave (km/s) = 3.74604 4.17480 3.96622
# Velocity P-wave (km/s) = 5.31958 6.26938 5.81390
#
# Compressibility (1/GPa) = 0.03965116
#
# Stress axis : x y z
#
# Youngs Moduli (GPa) = 37.08343 127.74014 87.37980
#
# Poissons Ratio (x) = 0.36909 -0.17378
# Poissons Ratio (y) = 0.10715 0.20913
# Poissons Ratio (z) = -0.07375 0.30572
#
# Static dielectric constant tensor:
#      x y z
#    x 2.130420 -0.036150 0.096400 
#    y -0.036150 2.001200 -0.011410 
#    z 0.096400 -0.011410 2.100280 
# 
# From -- ./inp_files/198891.got.cif
#   From: 2010.05.17/outbox.cif.g08.bks.cpg/sg2_100_cif.got.tgz:198891.got - 2010.06.03 11:33:40.
