data_PCOD9040080
_publ_section_title
;
Structure prediction by ZEFSAII (Michael W. Deem and Ramdas Pophale) SiO2 
 PCOD9040080
Probable space group: P -1
;
_chemical_formula_sum "Si O2"
_cell_formula_units_Z 16
_cell_length_a 11.580360
_cell_length_b 9.037126
_cell_length_c 18.188203
_cell_angle_alpha 71.903746
_cell_angle_beta 133.812717
_cell_angle_gamma 142.646344
_cell_volume 697.380601
_symmetry_space_group_name_H-M "P -1"
_symmetry_group_IT_number 2
_symmetry_cell_setting 'triclinic'
loop_
_space_group_symop_operation_xyz
x,y,z
-x,-y,-z
loop_
_atom_site_type_symbol
_atom_site_label
_atom_site_fract_x
_atom_site_fract_y
_atom_site_fract_z
Si Si1 0.098032 0.165292 0.190367
Si Si2 0.409344 0.735762 0.376826
Si Si3 0.638615 0.222379 0.330231
Si Si4 0.770352 0.448031 0.925306
Si Si5 0.721871 0.695827 0.467190
Si Si6 0.261216 0.905527 0.861481
Si Si7 0.971688 0.123927 0.915279
Si Si8 0.779974 0.394935 0.535328
O O1 0.171811 0.365328 0.134583
O O2 0.415837 0.405433 0.332971
O O3 0.846424 0.028935 0.153034
O O4 0.988451 0.918016 0.140868
O O5 0.595840 0.728136 0.459835
O O6 0.418740 0.817152 0.449401
O O7 0.060201 0.437054 0.244853
O O8 0.560913 0.977950 0.348708
O O9 0.688463 0.327961 0.418977
O O10 0.921548 0.461915 0.364506
O O11 0.362200 0.084627 0.195945
O O12 0.442287 0.105259 0.838085
O O13 0.827552 0.572721 0.011308
O O14 0.000000 0.500000 0.000000
O O15 0.836244 0.620080 0.551960
O O16 0.000000 0.000000 0.500000
O O17 0.500000 0.000000 0.000000
O O18 0.000000 0.000000 0.000000
#
# Coordination Sequence:
#
# PCOD9040080 Si02
#       8
#     2   2   2   2   2   2   2   2
#     4  10  23  43  61  93 131 166 214 267 325 392
#     4  11  25  39  68  98 130 172 220 270 325 392
#     4  11  23  44  66  96 132 172 218 269 325 392
#     4  11  23  39  68  92 123 166 217 269 324 386
#     4  11  22  42  66  93 135 169 212 269 329 378
#     4  11  23  39  63  96 125 166 214 269 325 381
#     4  10  23  43  67  93 131 174 213 269 330 387
#     4  11  24  42  68  95 132 173 216 271 329 389
#
# _framework density 22.942995
#
# number of rings (size 3 to 8) (size 9 to 14) (size 15 to 20)
#    0.000    1.250    3.750    1.500    5.250    0.500 
#    0.000    2.500    0.000    0.000    0.000    0.000 
#    0.000    0.000    0.000    0.000    0.000    0.000 
#
# Total GULP energy -89301.407745 kJ/mol
# GULP energy per Si atom -5581.337984 kJ/mol
# Density = 2.289078 g / cm^3
# Si number density = 22.942995 Si / 1000 Ang^3
#
#
#
# Elastic Constant Matrix: (Units=GPa)
#
#
# Indices 1 2 3 4 5 6 
#
# 1 137.8602 13.4483 34.2769 13.3705 10.4338 -4.6513
# 2 13.4483 28.8172 -0.5379 3.9884 6.9064 4.0761
# 3 34.2769 -0.5379 95.8672 2.4696 18.9053 -7.5723
# 4 13.3705 3.9884 2.4696 35.1461 -4.1618 6.3796
# 5 10.4338 6.9064 18.9053 -4.1618 36.2889 7.2198
# 6 -4.6513 4.0761 -7.5723 6.3796 7.2198 42.6204
#
#
#
# Elastic Compliance Matrix: (Units=1/GPa)
#
#
# Indices 1 2 3 4 5 6 
#
# 1 0.008718 -0.003650 -0.002741 -0.003095 -0.001028 0.001451
# 2 -0.003650 0.039195 0.003108 -0.003949 -0.008159 -0.001621
# 3 -0.002741 0.003108 0.013220 -0.001729 -0.007544 0.003289
# 4 -0.003095 -0.003949 -0.001729 0.032244 0.007507 -0.006365
# 5 -0.001028 -0.008159 -0.007544 0.007507 0.035758 -0.007853
# 6 0.001451 -0.001621 0.003289 -0.006365 -0.007853 0.026644
#
#
# Mechanical properties :
#
#
# Convention : Reuss Voigt Hill
#
# Bulk Modulus (GPa) = 18.32614 39.65770 28.99192
# Shear Modulus (GPa) = 27.69555 37.16824 32.43190
#
# Velocity S-wave (km/s) = 3.47817 4.02932 3.76385
# Velocity P-wave (km/s) = 4.91276 6.24260 5.61718
#
# Compressibility (1/GPa) = 0.05456686
#
# Stress axis : x y z
#
# Youngs Moduli (GPa) = 114.70366 25.51378 75.64061
#
# Poissons Ratio (x) = 0.09313 0.20730
# Poissons Ratio (y) = 0.41870 -0.23508
# Poissons Ratio (z) = 0.31436 -0.07929
#
# Static dielectric constant tensor:
#      x y z
#    x 1.873890 -0.008170 -0.089630 
#    y -0.008170 1.900630 -0.011240 
#    z -0.089630 -0.011240 1.852220 
# 
# From -- ./inp_files/279055.got.cif
#   From: 2010.05.17/outbox.cif.g08.bks.cpg/sg2_140_cif.got.tgz:279055.got - 2010.06.03 11:33:40.
