data_PCOD9040032
_publ_section_title
;
Structure prediction by ZEFSAII (Michael W. Deem and Ramdas Pophale) SiO2 
 PCOD9040032
Probable space group: P -1
;
_chemical_formula_sum "Si O2"
_cell_formula_units_Z 15
_cell_length_a 9.693610
_cell_length_b 11.519626
_cell_length_c 12.796323
_cell_angle_alpha 85.448042
_cell_angle_beta 118.711391
_cell_angle_gamma 44.476256
_cell_volume 638.027113
_symmetry_space_group_name_H-M "P -1"
_symmetry_group_IT_number 2
_symmetry_cell_setting 'triclinic'
loop_
_space_group_symop_operation_xyz
x,y,z
-x,-y,-z
loop_
_atom_site_type_symbol
_atom_site_label
_atom_site_fract_x
_atom_site_fract_y
_atom_site_fract_z
Si Si1 0.455098 0.533237 0.820258
Si Si2 0.654881 0.950790 0.322797
Si Si3 0.202904 0.950611 0.396649
Si Si4 0.749110 0.571061 0.859328
Si Si5 0.748682 0.887398 0.019382
Si Si6 0.298584 0.635930 0.521985
Si Si7 0.889078 0.063831 0.073229
Si Si8 0.500000 0.000000 0.500000
O O1 0.651186 0.527381 0.902117
O O2 0.461364 0.502053 0.700551
O O3 0.105664 0.782538 0.703711
O O4 0.601777 0.335799 0.953091
O O5 0.415404 0.029603 0.158763
O O6 0.987978 0.755541 0.403446
O O7 0.535098 0.160869 0.275051
O O8 0.639650 0.908775 0.436166
O O9 0.470355 0.875072 0.499135
O O10 0.135690 0.948269 0.255346
O O11 0.225608 0.820881 0.484526
O O12 0.000000 0.500000 0.000000
O O13 0.934456 0.388110 0.847174
O O14 0.803812 0.984769 0.063598
O O15 0.500000 0.000000 0.000000
O O16 0.500000 0.500000 0.500000
O O17 0.000000 0.000000 0.000000
#
# Coordination Sequence:
#
# PCOD9040032 Si02
#       8
#     2   2   2   2   2   2   2   1
#     4  12  24  46  71 104 139 195 246 296 370 441
#     4  11  24  49  75 105 148 192 251 298 366 448
#     4  12  26  48  74 101 144 196 248 299 362 449
#     4  10  23  42  75 101 138 186 245 300 355 439
#     4  11  25  45  74 111 143 186 241 309 372 433
#     4  12  26  48  74 105 144 195 243 305 375 444
#     4  12  25  45  71 104 144 183 234 308 371 422
#     4  12  26  46  72 104 142 190 246 302 352 434
#
# _framework density 23.509972999999999
#
# number of rings (size 3 to 8) (size 9 to 14) (size 15 to 20)
#    0.000    0.533    4.000    4.000    5.600    1.067 
#    2.400    1.333    0.000    0.000    0.000    0.000 
#    0.000    0.000    0.000    0.000    0.000    0.000 
#
# Total GULP energy -83615.574925 kJ/mol
# GULP energy per Si atom -5574.371662 kJ/mol
# Density = 2.345646 g / cm^3
# Si number density = 23.509973 Si / 1000 Ang^3
#
#
#
# Elastic Constant Matrix: (Units=GPa)
#
#
# Indices 1 2 3 4 5 6 
#
# 1 83.7425 20.9584 2.9314 1.3776 -4.4075 0.6933
# 2 20.9584 82.1449 6.5024 4.2104 -8.1640 -3.9837
# 3 2.9314 6.5024 54.2046 7.4268 -3.8923 3.5013
# 4 1.3776 4.2104 7.4268 53.5749 3.7762 -0.3678
# 5 -4.4075 -8.1640 -3.8923 3.7762 29.1594 1.8737
# 6 0.6933 -3.9837 3.5013 -0.3678 1.8737 61.3088
#
#
#
# Elastic Compliance Matrix: (Units=1/GPa)
#
#
# Indices 1 2 3 4 5 6 
#
# 1 0.012799 -0.003155 -0.000195 -0.000132 0.001066 -0.000372
# 2 -0.003155 0.013484 -0.001129 -0.001044 0.003227 0.000871
# 3 -0.000195 -0.001129 0.019247 -0.002771 0.002664 -0.001268
# 4 -0.000132 -0.001044 -0.002771 0.019363 -0.003209 0.000306
# 5 0.001066 0.003227 0.002664 -0.003209 0.036199 -0.001080
# 6 -0.000372 0.000871 -0.001268 0.000306 -0.001080 0.016479
#
#
# Mechanical properties :
#
#
# Convention : Reuss Voigt Hill
#
# Bulk Modulus (GPa) = 27.34248 31.20849 29.27548
# Shear Modulus (GPa) = 36.04330 41.45529 38.74929
#
# Velocity S-wave (km/s) = 3.91974 4.20373 4.06422
# Velocity P-wave (km/s) = 5.66932 6.07167 5.87394
#
# Compressibility (1/GPa) = 0.03657313
#
# Stress axis : x y z
#
# Youngs Moduli (GPa) = 78.12938 74.15928 51.95502
#
# Poissons Ratio (x) = 0.23401 0.01013
# Poissons Ratio (y) = 0.24654 0.05863
# Poissons Ratio (z) = 0.01524 0.08369
#
# Static dielectric constant tensor:
#      x y z
#    x 1.777190 -0.046630 0.033270 
#    y -0.046630 1.919910 0.020870 
#    z 0.033270 0.020870 1.989950 
# 
# From -- ./inp_files/499066.got.cif
#   From: 2010.05.17/outbox.cif.g08.bks.cpg/sg2_250_cif.got.tgz:499066.got - 2010.06.03 11:33:40.
