data_PCOD9040191
_publ_section_title
;
Structure prediction by ZEFSAII (Michael W. Deem and Ramdas Pophale) SiO2 
 PCOD9040191
Probable space group: P -1
;
_chemical_formula_sum "Si O2"
_cell_formula_units_Z 16
_cell_length_a 8.184013
_cell_length_b 9.731930
_cell_length_c 17.864147
_cell_angle_alpha 125.618146
_cell_angle_beta 38.836717
_cell_angle_gamma 106.593085
_cell_volume 684.773906
_symmetry_space_group_name_H-M "P -1"
_symmetry_group_IT_number 2
_symmetry_cell_setting 'triclinic'
loop_
_space_group_symop_operation_xyz
x,y,z
-x,-y,-z
loop_
_atom_site_type_symbol
_atom_site_label
_atom_site_fract_x
_atom_site_fract_y
_atom_site_fract_z
Si Si1 0.289197 0.594566 0.543627
Si Si2 0.330110 0.288318 0.775819
Si Si3 0.271657 0.331170 0.366037
Si Si4 0.033365 0.896691 0.531916
Si Si5 0.937571 0.647931 0.957268
Si Si6 0.765933 0.733028 0.872910
Si Si7 0.689770 0.146534 0.036850
Si Si8 0.227354 0.987974 0.633905
O O1 0.500000 0.500000 0.500000
O O2 0.431952 0.451105 0.382054
O O3 0.994805 0.613473 0.694697
O O4 0.270220 0.791886 0.588348
O O5 0.649877 0.234190 0.622241
O O6 0.149750 0.454950 0.843996
O O7 0.198055 0.132302 0.754776
O O8 0.303731 0.323123 0.885156
O O9 0.426619 0.204963 0.205342
O O10 0.000000 0.500000 0.500000
O O11 0.179484 0.210408 0.419549
O O12 0.006761 0.015153 0.654331
O O13 0.000000 0.000000 0.500000
O O14 0.092819 0.785808 0.973639
O O15 0.834827 0.670716 0.915080
O O16 0.459461 0.757316 0.956375
O O17 0.786651 0.933709 0.924854
O O18 0.500000 0.000000 0.500000
#
# Coordination Sequence:
#
# PCOD9040191 Si02
#       8
#     2   2   2   2   2   2   2   2
#     4  12  26  42  72 105 137 184 240 293 352 422
#     4  10  25  46  67  96 140 186 234 276 361 421
#     4  12  23  43  70 102 141 175 228 296 352 405
#     4  11  25  42  69 100 137 183 229 287 349 420
#     4  11  24  46  70  97 139 189 230 295 341 430
#     4  11  25  42  71 103 139 183 238 291 359 415
#     4  11  24  44  71 103 142 179 236 295 355 423
#     4  10  23  43  64  94 140 177 219 284 349 411
#
# _framework density 23.365375
#
# number of rings (size 3 to 8) (size 9 to 14) (size 15 to 20)
#    0.000    1.000    2.500    2.625   10.500    1.000 
#    0.000    1.250    0.000    0.000    0.000    0.000 
#    0.000    0.000    0.000    0.000    0.000    0.000 
#
# Total GULP energy -89243.107042 kJ/mol
# GULP energy per Si atom -5577.694190 kJ/mol
# Density = 2.331219 g / cm^3
# Si number density = 23.365375 Si / 1000 Ang^3
#
#
#
# Elastic Constant Matrix: (Units=GPa)
#
#
# Indices 1 2 3 4 5 6 
#
# 1 76.2664 31.7918 17.3851 -3.7498 21.6036 -29.4835
# 2 31.7918 97.2216 6.7969 -9.6858 24.3433 -20.7017
# 3 17.3851 6.7969 95.0782 -7.7835 24.4289 -8.9090
# 4 -3.7498 -9.6858 -7.7835 30.4784 3.4850 7.3470
# 5 21.6036 24.3433 24.4289 3.4850 31.9303 -1.5035
# 6 -29.4835 -20.7017 -8.9090 7.3470 -1.5035 44.8755
#
#
#
# Elastic Compliance Matrix: (Units=1/GPa)
#
#
# Indices 1 2 3 4 5 6 
#
# 1 0.023152 -0.000498 0.001318 0.001334 -0.015756 0.014497
# 2 -0.000498 0.015949 0.003968 0.006249 -0.015244 0.006284
# 3 0.001318 0.003968 0.014939 0.006047 -0.015811 0.004142
# 4 0.001334 0.006249 0.006047 0.038620 -0.014595 -0.001852
# 5 -0.015756 -0.015244 -0.015811 -0.014595 0.066541 -0.015904
# 6 0.014497 0.006284 0.004142 -0.001852 -0.015904 0.035300
#
#
# Mechanical properties :
#
#
# Convention : Reuss Voigt Hill
#
# Bulk Modulus (GPa) = 15.71938 42.27932 28.99935
# Shear Modulus (GPa) = 24.25656 35.62966 29.94311
#
# Velocity S-wave (km/s) = 3.22552 3.90922 3.58371
# Velocity P-wave (km/s) = 4.54028 6.20566 5.43711
#
# Compressibility (1/GPa) = 0.06361572
#
# Stress axis : x y z
#
# Youngs Moduli (GPa) = 43.19274 62.70036 66.94052
#
# Poissons Ratio (x) = 0.03123 -0.08823
# Poissons Ratio (y) = 0.02151 -0.26563
# Poissons Ratio (z) = -0.05693 -0.24880
#
# Static dielectric constant tensor:
#      x y z
#    x 1.939130 0.082470 -0.017250 
#    y 0.082470 1.873640 -0.021300 
#    z -0.017250 -0.021300 1.914990 
# 
# From -- ./inp_files/557416.got.cif
#   From: 2010.05.17/outbox.cif.g08.bks.cpg/sg2_279_cif.got.tgz:557416.got - 2010.06.03 11:33:40.
