data_PCOD9040145
_publ_section_title
;
Structure prediction by ZEFSAII (Michael W. Deem and Ramdas Pophale) SiO2 
 PCOD9040145
Probable space group: P -1
;
_chemical_formula_sum "Si O2"
_cell_formula_units_Z 9
_cell_length_a 5.472715
_cell_length_b 8.726797
_cell_length_c 12.878719
_cell_angle_alpha 130.710497
_cell_angle_beta 123.870629
_cell_angle_gamma 53.368293
_cell_volume 359.571696
_symmetry_space_group_name_H-M "P -1"
_symmetry_group_IT_number 2
_symmetry_cell_setting 'triclinic'
loop_
_space_group_symop_operation_xyz
x,y,z
-x,-y,-z
loop_
_atom_site_type_symbol
_atom_site_label
_atom_site_fract_x
_atom_site_fract_y
_atom_site_fract_z
Si Si1 0.693382 0.769147 0.493860
Si Si2 0.056450 0.698011 0.047158
Si Si3 0.728674 0.481635 0.198083
Si Si4 0.282575 0.819792 0.762858
Si Si5 0.500000 0.500000 0.500000
O O1 0.874790 0.609474 0.369774
O O2 0.513686 0.640918 0.457531
O O3 0.950955 0.800276 0.642351
O O4 0.500000 0.000000 0.500000
O O5 0.415480 0.663694 0.153791
O O6 0.066000 0.656536 0.908161
O O7 0.804909 0.927480 0.124783
O O8 0.000000 0.500000 0.000000
O O9 0.624160 0.319112 0.171773
O O10 0.485349 0.710497 0.662568
#
# Coordination Sequence:
#
# PCOD9040145 Si02
#       5
#     2   2   2   2   1
#     4  11  23  44  70  98 136 171 221 284 332 390
#     4  11  25  41  66  96 131 180 220 264 334 401
#     4  10  23  43  63  97 131 172 220 274 334 391
#     4  11  24  45  67  98 136 171 221 283 326 398
#     4  10  24  38  68 102 126 176 216 264 346 388
#
# _framework density 25.029776999999999
#
# number of rings (size 3 to 8) (size 9 to 14) (size 15 to 20)
#    0.000    1.333    2.222    3.333    3.111    8.889 
#    0.000    0.000    0.000    0.000    0.000    0.000 
#    0.000    0.000    0.000    0.000    0.000    0.000 
#
# Total GULP energy -50160.239562 kJ/mol
# GULP energy per Si atom -5573.359951 kJ/mol
# Density = 2.497281 g / cm^3
# Si number density = 25.029777 Si / 1000 Ang^3
#
#
#
# Elastic Constant Matrix: (Units=GPa)
#
#
# Indices 1 2 3 4 5 6 
#
# 1 84.3327 29.4848 52.4442 11.2574 -37.3010 16.7222
# 2 29.4848 162.2273 72.1017 24.2093 -27.3466 4.5630
# 3 52.4442 72.1017 186.8697 40.9989 -47.9990 14.5951
# 4 11.2574 24.2093 40.9989 57.3776 -14.9019 -6.8613
# 5 -37.3010 -27.3466 -47.9990 -14.9019 67.2917 -2.5157
# 6 16.7222 4.5630 14.5951 -6.8613 -2.5157 30.1040
#
#
#
# Elastic Compliance Matrix: (Units=1/GPa)
#
#
# Indices 1 2 3 4 5 6 
#
# 1 0.018887 -0.000777 -0.002006 -0.000883 0.008194 -0.008918
# 2 -0.000777 0.007623 -0.002266 -0.001221 0.000786 0.000162
# 3 -0.002006 -0.002266 0.008898 -0.004626 0.003154 -0.003647
# 4 -0.000883 -0.001221 -0.004626 0.022670 0.001041 0.008172
# 5 0.008194 0.000786 0.003154 0.001041 0.022048 -0.004120
# 6 -0.008918 0.000162 -0.003647 0.008172 -0.004120 0.041434
#
#
# Mechanical properties :
#
#
# Convention : Reuss Voigt Hill
#
# Bulk Modulus (GPa) = 39.50970 82.38791 60.94880
# Shear Modulus (GPa) = 35.69015 49.58127 42.63571
#
# Velocity S-wave (km/s) = 3.78022 4.45555 4.13170
# Velocity P-wave (km/s) = 5.90531 7.71081 6.86765
#
# Compressibility (1/GPa) = 0.02531024
#
# Stress axis : x y z
#
# Youngs Moduli (GPa) = 52.94545 131.18691 112.38150
#
# Poissons Ratio (x) = 0.10200 0.22542
# Poissons Ratio (y) = 0.04116 0.25463
# Poissons Ratio (z) = 0.10620 0.29724
#
# Static dielectric constant tensor:
#      x y z
#    x 2.007450 -0.043620 0.076860 
#    y -0.043620 1.913800 -0.018870 
#    z 0.076860 -0.018870 1.990360 
# 
# From -- ./inp_files/15122.got.cif
#   From: 2010.05.17/outbox.cif.g08.bks.cpg/sg2_8_cif.got.tgz:15122.got - 2010.06.03 11:33:40.
