data_PCOD9040921
_publ_section_title
;
Structure prediction by ZEFSAII (Michael W. Deem and Ramdas Pophale) SiO2 
 PCOD9040921
Probable space group: P -1
;
_chemical_formula_sum "Si O2"
_cell_formula_units_Z 12
_cell_length_a 12.014902
_cell_length_b 6.588512
_cell_length_c 11.191380
_cell_angle_alpha 117.953315
_cell_angle_beta 135.724618
_cell_angle_gamma 51.439702
_cell_volume 483.199650
_symmetry_space_group_name_H-M "P -1"
_symmetry_group_IT_number 2
_symmetry_cell_setting 'triclinic'
loop_
_space_group_symop_operation_xyz
x,y,z
-x,-y,-z
loop_
_atom_site_type_symbol
_atom_site_label
_atom_site_fract_x
_atom_site_fract_y
_atom_site_fract_z
Si Si1 0.389005 0.758387 0.737131
Si Si2 0.907392 0.237288 0.656247
Si Si3 0.123104 0.874995 0.942226
Si Si4 0.221029 0.287225 0.805417
Si Si5 0.477486 0.206171 0.753712
Si Si6 0.406569 0.323521 0.345282
O O1 0.225185 0.841615 0.539959
O O2 0.413872 0.487794 0.728645
O O3 0.567402 0.705489 0.785514
O O4 0.337347 0.984723 0.856132
O O5 0.791648 0.509615 0.712057
O O6 0.027000 0.295930 0.669387
O O7 0.013039 0.023471 0.779792
O O8 0.184374 0.567309 0.901690
O O9 0.309181 0.894710 0.088311
O O10 0.000000 0.000000 0.000000
O O11 0.335362 0.255395 0.763862
O O12 0.483765 0.974110 0.612741
O O13 0.500000 0.500000 0.500000
#
# Coordination Sequence:
#
# PCOD9040921 Si02
#       6
#     2   2   2   2   2   2
#     4  10  23  43  69  98 130 172 220 273 326 383
#     4  11  24  42  66  99 132 169 220 273 326 385
#     4  12  27  44  66  97 133 176 221 269 327 392
#     4  11  25  43  69  96 135 175 218 271 328 392
#     4  11  24  43  66  98 134 172 219 267 328 395
#     4   9  21  40  66  95 129 170 215 267 322 381
#
# _framework density 24.834457
#
# number of rings (size 3 to 8) (size 9 to 14) (size 15 to 20)
#    0.000    1.333    0.000    4.000    0.000   14.667 
#    0.000    0.000    0.000    0.000    0.000    0.000 
#    0.000    0.000    0.000    0.000    0.000    0.000 
#
# Total GULP energy -66945.886600 kJ/mol
# GULP energy per Si atom -5578.823883 kJ/mol
# Density = 2.477793 g / cm^3
# Si number density = 24.834457 Si / 1000 Ang^3
#
#
#
# Elastic Constant Matrix: (Units=GPa)
#
#
# Indices 1 2 3 4 5 6 
#
# 1 213.0175 77.1761 55.8556 3.5807 6.7201 -20.9748
# 2 77.1761 216.2272 44.0301 50.0518 -19.7993 -20.9567
# 3 55.8556 44.0301 98.8993 -2.6532 9.5696 -3.8558
# 4 3.5807 50.0518 -2.6532 50.5962 1.9385 -7.6482
# 5 6.7201 -19.7993 9.5696 1.9385 33.1919 4.6819
# 6 -20.9748 -20.9567 -3.8558 -7.6482 4.6819 51.2619
#
#
#
# Elastic Compliance Matrix: (Units=1/GPa)
#
#
# Indices 1 2 3 4 5 6 
#
# 1 0.006359 -0.002366 -0.002160 0.002178 -0.002489 0.002025
# 2 -0.002366 0.009063 -0.003648 -0.009212 0.007417 0.000411
# 3 -0.002160 -0.003648 0.013651 0.004688 -0.005933 -0.000107
# 4 0.002178 -0.009212 0.004688 0.029749 -0.009417 0.002777
# 5 -0.002489 0.007417 -0.005933 -0.009417 0.037780 -0.003288
# 6 0.002025 0.000411 -0.000107 0.002777 -0.003288 0.021211
#
#
# Mechanical properties :
#
#
# Convention : Reuss Voigt Hill
#
# Bulk Modulus (GPa) = 78.57710 98.02975 88.30343
# Shear Modulus (GPa) = 36.12665 50.41547 43.27106
#
# Velocity S-wave (km/s) = 3.81819 4.51051 4.17871
# Velocity P-wave (km/s) = 7.15172 8.16610 7.67569
#
# Compressibility (1/GPa) = 0.01272635
#
# Stress axis : x y z
#
# Youngs Moduli (GPa) = 157.25168 110.33672 73.25586
#
# Poissons Ratio (x) = 0.26104 0.15824
# Poissons Ratio (y) = 0.37203 0.26720
# Poissons Ratio (z) = 0.33967 0.40246
#
# Static dielectric constant tensor:
#      x y z
#    x 2.006800 -0.005670 -0.037130 
#    y -0.005670 2.040310 -0.008090 
#    z -0.037130 -0.008090 2.056870 
# 
# From -- ./inp_files/411354.got.cif
#   From: 2010.05.17/outbox.cif.g08.bks.cpg/sg2_206_cif.got.tgz:411354.got - 2010.06.03 11:33:40.
