data_PCOD9040333
_publ_section_title
;
Structure prediction by ZEFSAII (Michael W. Deem and Ramdas Pophale) SiO2 
 PCOD9040333
Probable space group: P -1
;
_chemical_formula_sum "Si O2"
_cell_formula_units_Z 16
_cell_length_a 11.456489
_cell_length_b 11.314032
_cell_length_c 14.891726
_cell_angle_alpha 46.046854
_cell_angle_beta 39.575060
_cell_angle_gamma 33.845824
_cell_volume 676.969255
_symmetry_space_group_name_H-M "P -1"
_symmetry_group_IT_number 2
_symmetry_cell_setting 'triclinic'
loop_
_space_group_symop_operation_xyz
x,y,z
-x,-y,-z
loop_
_atom_site_type_symbol
_atom_site_label
_atom_site_fract_x
_atom_site_fract_y
_atom_site_fract_z
Si Si1 0.094944 0.010903 0.218264
Si Si2 0.809340 0.724020 0.883596
Si Si3 0.749958 0.371328 0.782919
Si Si4 0.325738 0.444229 0.627062
Si Si5 0.954382 0.834182 0.114604
Si Si6 0.237919 0.608379 0.896348
Si Si7 0.558848 0.964388 0.725509
Si Si8 0.946190 0.307111 0.516582
O O1 0.836332 0.225615 0.225803
O O2 0.228918 0.095270 0.126711
O O3 0.195349 0.851503 0.157826
O O4 0.093423 0.869511 0.368600
O O5 0.087564 0.580813 0.759515
O O6 0.646878 0.824688 0.837546
O O7 0.746900 0.588594 0.040491
O O8 0.466449 0.543771 0.848510
O O9 0.871173 0.395013 0.615389
O O10 0.875500 0.340141 0.817758
O O11 0.500000 0.500000 0.500000
O O12 0.485801 0.190667 0.677505
O O13 0.215313 0.512275 0.556381
O O14 0.674263 0.970221 0.219496
O O15 0.027293 0.721110 0.034851
O O16 0.000000 0.000000 0.000000
O O17 0.779787 0.827373 0.599117
#
# Coordination Sequence:
#
# PCOD9040333 Si02
#       8
#     2   2   2   2   2   2   2   2
#     4  10  23  43  65  99 138 175 214 273 337 393
#     4  11  24  40  66 106 133 173 225 270 337 400
#     4  10  25  42  66  94 132 175 222 274 321 396
#     4  11  22  40  70  96 137 180 216 276 326 402
#     4  12  23  48  70  93 131 182 227 275 335 380
#     4  12  24  43  68  99 133 177 226 273 336 392
#     4  11  24  42  71  97 137 173 222 282 319 406
#     4   9  23  43  63 103 128 173 225 259 346 385
#
# _framework density 23.634753
#
# number of rings (size 3 to 8) (size 9 to 14) (size 15 to 20)
#    0.750    0.500    2.500    3.000    3.500    3.000 
#    0.000    0.625    0.000    0.000    0.000    0.000 
#    0.000    0.000    0.000    0.000    0.000    0.000 
#
# Total GULP energy -89461.708248 kJ/mol
# GULP energy per Si atom -5591.356766 kJ/mol
# Density = 2.358096 g / cm^3
# Si number density = 23.634753 Si / 1000 Ang^3
#
#
#
# Elastic Constant Matrix: (Units=GPa)
#
#
# Indices 1 2 3 4 5 6 
#
# 1 56.4163 -9.6513 12.9331 1.3236 -3.4131 -13.4782
# 2 -9.6513 60.7911 22.8113 -6.4397 0.5409 -16.4319
# 3 12.9331 22.8113 50.5344 11.8905 -12.4253 -7.0897
# 4 1.3236 -6.4397 11.8905 30.0886 -7.4708 -8.8971
# 5 -3.4131 0.5409 -12.4253 -7.4708 45.0403 -2.8583
# 6 -13.4782 -16.4319 -7.0897 -8.8971 -2.8583 43.4139
#
#
#
# Elastic Compliance Matrix: (Units=1/GPa)
#
#
# Indices 1 2 3 4 5 6 
#
# 1 0.026440 0.014367 -0.013858 0.011683 0.000824 0.013832
# 2 0.014367 0.033649 -0.021268 0.020053 -0.000728 0.017785
# 3 -0.013858 -0.021268 0.037709 -0.020417 0.005586 -0.010011
# 4 0.011683 0.020053 -0.020417 0.051841 0.004805 0.018823
# 5 0.000824 -0.000728 0.005586 0.004805 0.024834 0.003512
# 6 0.013832 0.017785 -0.010011 0.018823 0.003512 0.036514
#
#
# Mechanical properties :
#
#
# Convention : Reuss Voigt Hill
#
# Bulk Modulus (GPa) = 17.76851 24.43643 21.10247
# Shear Modulus (GPa) = 18.43206 33.15180 25.79193
#
# Velocity S-wave (km/s) = 2.79565 3.74929 3.30702
# Velocity P-wave (km/s) = 4.23735 5.39486 4.85076
#
# Compressibility (1/GPa) = 0.05627933
#
# Stress axis : x y z
#
# Youngs Moduli (GPa) = 37.82133 29.71818 26.51892
#
# Poissons Ratio (x) = -0.42695 0.36749
# Poissons Ratio (y) = -0.54336 0.56402
# Poissons Ratio (z) = 0.52412 0.63206
#
# Static dielectric constant tensor:
#      x y z
#    x 1.877340 0.014500 -0.017040 
#    y 0.014500 1.929740 -0.011990 
#    z -0.017040 -0.011990 1.884260 
# 
# From -- ./inp_files/442252.got.cif
#   From: 2010.05.17/outbox.cif.g08.bks.cpg/sg2_222_cif.got.tgz:442252.got - 2010.06.03 11:33:40.
