data_PCOD9040200
_publ_section_title
;
Structure prediction by ZEFSAII (Michael W. Deem and Ramdas Pophale) SiO2 
 PCOD9040200
Probable space group: P -1
;
_chemical_formula_sum "Si O2"
_cell_formula_units_Z 16
_cell_length_a 8.832323
_cell_length_b 8.756655
_cell_length_c 16.026654
_cell_angle_alpha 59.416189
_cell_angle_beta 127.202227
_cell_angle_gamma 84.920391
_cell_volume 693.727525
_symmetry_space_group_name_H-M "P -1"
_symmetry_group_IT_number 2
_symmetry_cell_setting 'triclinic'
loop_
_space_group_symop_operation_xyz
x,y,z
-x,-y,-z
loop_
_atom_site_type_symbol
_atom_site_label
_atom_site_fract_x
_atom_site_fract_y
_atom_site_fract_z
Si Si1 0.229233 0.512539 0.665382
Si Si2 0.829839 0.957361 0.405441
Si Si3 0.264098 0.085541 0.795957
Si Si4 0.454647 0.653408 0.563070
Si Si5 0.957526 0.237557 0.052770
Si Si6 0.850949 0.207649 0.737450
Si Si7 0.484046 0.641326 0.032034
Si Si8 0.655323 0.721083 0.754521
O O1 0.294944 0.275165 0.732400
O O2 0.325465 0.592114 0.603470
O O3 0.953787 0.699063 0.531966
O O4 0.344737 0.495033 0.797554
O O5 0.827157 0.970103 0.300906
O O6 0.567623 0.128802 0.301577
O O7 0.000000 0.000000 0.500000
O O8 0.077254 0.181249 0.781827
O O9 0.493399 0.847002 0.960023
O O10 0.678868 0.431983 0.663793
O O11 0.289748 0.783223 0.394088
O O12 0.544756 0.772367 0.612087
O O13 0.151022 0.243875 0.164383
O O14 0.775644 0.249867 0.052175
O O15 0.082913 0.995767 0.126213
O O16 0.797131 0.458159 0.885469
O O17 0.500000 0.500000 0.000000
#
# Coordination Sequence:
#
# PCOD9040200 Si02
#       8
#     2   2   2   2   2   2   2   2
#     4  12  24  42  70 102 132 178 230 276 335 410
#     4  12  22  41  70  99 131 176 225 279 332 396
#     4  11  24  41  66 102 137 175 227 274 340 401
#     4  11  23  43  66  96 137 174 225 270 341 398
#     4  10  23  43  64  96 131 172 226 270 340 393
#     4  10  24  42  64  94 138 178 212 283 334 397
#     4  11  23  45  69  98 138 179 221 286 336 399
#     4  11  23  42  67  99 128 175 229 275 330 408
#
# _framework density 23.063808999999999
#
# number of rings (size 3 to 8) (size 9 to 14) (size 15 to 20)
#    0.000    1.000    3.750    2.250    1.750    4.000 
#    0.000    0.000    0.000    0.000    0.000    0.000 
#    0.000    0.000    0.000    0.000    0.000    0.000 
#
# Total GULP energy -89356.538888 kJ/mol
# GULP energy per Si atom -5584.783680 kJ/mol
# Density = 2.301131 g / cm^3
# Si number density = 23.063809 Si / 1000 Ang^3
#
#
#
# Elastic Constant Matrix: (Units=GPa)
#
#
# Indices 1 2 3 4 5 6 
#
# 1 18.6948 13.1259 41.5195 2.0448 10.8947 0.4756
# 2 13.1259 63.8162 47.3289 4.2692 -8.1004 -9.0765
# 3 41.5195 47.3289 115.7357 -14.4002 -0.8879 -3.3507
# 4 2.0448 4.2692 -14.4002 50.1406 1.7283 0.6764
# 5 10.8947 -8.1004 -0.8879 1.7283 30.1984 -2.0608
# 6 0.4756 -9.0765 -3.3507 0.6764 -2.0608 29.8996
#
#
#
# Elastic Compliance Matrix: (Units=1/GPa)
#
#
# Indices 1 2 3 4 5 6 
#
# 1 -0.646958 -0.029989 0.259198 0.094838 0.230554 0.043979
# 2 -0.029989 0.025046 0.000750 -0.001452 0.018288 0.009457
# 3 0.259198 0.000750 -0.090056 -0.032942 -0.095425 -0.019819
# 4 0.094838 -0.001452 -0.032942 0.008114 -0.036607 -0.008348
# 5 0.230554 0.018288 -0.095425 -0.036607 -0.046632 -0.011195
# 6 0.043979 0.009457 -0.019819 -0.008348 -0.011195 0.032813
#
#
# Mechanical properties :
#
#
# Convention : Reuss Voigt Hill
#
# Bulk Modulus (GPa) = -3.96744 44.68837 20.36046
# Shear Modulus (GPa) = -3.96320 28.46587 12.25134
#
# Velocity S-wave (km/s) = -1.31229 3.51696 2.30726
# Velocity P-wave (km/s) = 2.00501 5.99250 3.99312
#
# Compressibility (1/GPa) = -0.25205179
#
# Stress axis : x y z
#
# Youngs Moduli (GPa) = -1.54570 39.92652 -11.10414
#
# Poissons Ratio (x) = 1.19737 2.87817
# Poissons Ratio (y) = -0.04635 0.00832
# Poissons Ratio (z) = 0.40064 -0.02993
#
# Static dielectric constant tensor:
#      x y z
#    x 1.840060 0.036160 -0.025920 
#    y 0.036160 1.877930 -0.057710 
#    z -0.025920 -0.057710 1.962820 
# 
# From -- ./inp_files/494526.got.cif
#   From: 2010.05.17/outbox.cif.g08.bks.cpg/sg2_248_cif.got.tgz:494526.got - 2010.06.03 11:33:40.
