data_PCOD9040762
_publ_section_title
;
Structure prediction by ZEFSAII (Michael W. Deem and Ramdas Pophale) SiO2 
 PCOD9040762
Probable space group: P -1
;
_chemical_formula_sum "Si O2"
_cell_formula_units_Z 16
_cell_length_a 8.284224
_cell_length_b 9.356200
_cell_length_c 25.836371
_cell_angle_alpha 143.153714
_cell_angle_beta 138.937462
_cell_angle_gamma 63.841963
_cell_volume 718.550803
_symmetry_space_group_name_H-M "P -1"
_symmetry_group_IT_number 2
_symmetry_cell_setting 'triclinic'
loop_
_space_group_symop_operation_xyz
x,y,z
-x,-y,-z
loop_
_atom_site_type_symbol
_atom_site_label
_atom_site_fract_x
_atom_site_fract_y
_atom_site_fract_z
Si Si1 0.857153 0.697428 0.520724
Si Si2 0.279022 0.731389 0.227283
Si Si3 0.989404 0.717098 0.669607
Si Si4 0.642027 0.296836 0.640323
Si Si5 0.870224 0.113545 0.456864
Si Si6 0.938008 0.289422 0.204265
Si Si7 0.690982 0.728598 0.075701
Si Si8 0.627372 0.724291 0.938410
O O1 0.833705 0.755199 0.592374
O O2 0.566743 0.579466 0.390097
O O3 0.000000 0.500000 0.500000
O O4 0.037763 0.924039 0.589924
O O5 0.311360 0.698586 0.286579
O O6 0.287108 0.484495 0.127638
O O7 0.993901 0.743269 0.152773
O O8 0.548293 0.978324 0.345855
O O9 0.980992 0.427083 0.580515
O O10 0.896304 0.720061 0.707263
O O11 0.266303 0.981373 0.810888
O O12 0.907917 0.460834 0.720556
O O13 0.500000 0.000000 0.500000
O O14 0.000000 0.000000 0.500000
O O15 0.658113 0.295885 0.157328
O O16 0.849823 0.021178 0.073442
O O17 0.500000 0.500000 0.000000
O O18 0.589810 0.682382 0.979027
#
# Coordination Sequence:
#
# PCOD9040762 Si02
#       8
#     2   2   2   2   2   2   2   2
#     4  10  24  41  63 106 138 173 229 286 349 414
#     4  12  25  41  72 100 138 184 238 283 350 421
#     4  10  23  43  68  98 138 179 227 280 358 409
#     4  12  25  41  68 106 137 184 234 281 364 427
#     4  11  22  42  69 103 137 179 225 291 349 417
#     4  10  23  44  69  93 138 181 230 292 347 416
#     4  11  25  46  67  99 141 188 234 292 348 413
#     4  10  24  44  67  97 131 187 238 283 346 407
#
# _framework density 22.267040999999999
#
# number of rings (size 3 to 8) (size 9 to 14) (size 15 to 20)
#    0.000    1.250    1.250    3.375    5.250    5.500 
#    4.500    0.000    0.000    0.000    0.000    0.000 
#    0.000    0.000    0.000    0.000    0.000    0.000 
#
# Total GULP energy -89378.187147 kJ/mol
# GULP energy per Si atom -5586.136697 kJ/mol
# Density = 2.221636 g / cm^3
# Si number density = 22.267041 Si / 1000 Ang^3
#
#
#
# Elastic Constant Matrix: (Units=GPa)
#
#
# Indices 1 2 3 4 5 6 
#
# 1 60.4997 42.6927 53.2207 9.0274 4.9754 8.4050
# 2 42.6927 131.7956 54.1900 1.5266 1.0854 13.2051
# 3 53.2207 54.1900 117.8937 30.8321 3.7551 8.1936
# 4 9.0274 1.5266 30.8321 56.0467 -0.6641 -0.3118
# 5 4.9754 1.0854 3.7551 -0.6641 31.8637 0.0818
# 6 8.4050 13.2051 8.1936 -0.3118 0.0818 52.8151
#
#
#
# Elastic Compliance Matrix: (Units=1/GPa)
#
#
# Indices 1 2 3 4 5 6 
#
# 1 0.030596 -0.004885 -0.011766 0.001630 -0.003186 -0.001808
# 2 -0.004885 0.010580 -0.003178 0.002249 0.000827 -0.001363
# 3 -0.011766 -0.003178 0.017226 -0.007498 -0.000241 -0.000049
# 4 0.001630 0.002249 -0.007498 0.021658 0.001003 0.000468
# 5 -0.003186 0.000827 -0.000241 0.001003 0.031901 0.000294
# 6 -0.001808 -0.001363 -0.000049 0.000468 0.000294 0.019572
#
#
# Mechanical properties :
#
#
# Convention : Reuss Voigt Hill
#
# Bulk Modulus (GPa) = 53.34524 67.82175 60.58349
# Shear Modulus (GPa) = 28.17855 38.81750 33.49803
#
# Velocity S-wave (km/s) = 3.56122 4.17978 3.88284
# Velocity P-wave (km/s) = 6.39678 7.33611 6.88249
#
# Compressibility (1/GPa) = 0.01874582
#
# Stress axis : x y z
#
# Youngs Moduli (GPa) = 32.68371 94.51644 58.05071
#
# Poissons Ratio (x) = 0.46170 0.68301
# Poissons Ratio (y) = 0.15966 0.18447
# Poissons Ratio (z) = 0.38455 0.30035
#
# Static dielectric constant tensor:
#      x y z
#    x 1.872490 -0.035570 -0.031500 
#    y -0.035570 1.864100 0.003850 
#    z -0.031500 0.003850 1.832040 
# 
# From -- ./inp_files/616793.got.cif
#   From: 2010.05.17/outbox.cif.g08.bks.cpg/sg2_309_cif.got.tgz:616793.got - 2010.06.03 11:33:40.
