data_PCOD9040476
_publ_section_title
;
Structure prediction by ZEFSAII (Michael W. Deem and Ramdas Pophale) SiO2 
 PCOD9040476
Probable space group: P -1
;
_chemical_formula_sum "Si O2"
_cell_formula_units_Z 14
_cell_length_a 9.216724
_cell_length_b 9.502345
_cell_length_c 11.624587
_cell_angle_alpha 61.783522
_cell_angle_beta 102.948666
_cell_angle_gamma 134.098787
_cell_volume 635.326725
_symmetry_space_group_name_H-M "P -1"
_symmetry_group_IT_number 2
_symmetry_cell_setting 'triclinic'
loop_
_space_group_symop_operation_xyz
x,y,z
-x,-y,-z
loop_
_atom_site_type_symbol
_atom_site_label
_atom_site_fract_x
_atom_site_fract_y
_atom_site_fract_z
Si Si1 0.875605 0.028397 0.746159
Si Si2 0.562327 0.424098 0.769179
Si Si3 0.412898 0.042195 0.725748
Si Si4 0.774370 0.267083 0.521364
Si Si5 0.729598 0.510341 0.255325
Si Si6 0.546697 0.289527 0.076332
Si Si7 0.008713 0.139396 0.350157
O O1 0.797988 0.094396 0.607293
O O2 0.057486 0.251180 0.761099
O O3 0.683612 0.855393 0.861146
O O4 0.953246 0.927222 0.736867
O O5 0.442885 0.205500 0.759269
O O6 0.447460 0.509746 0.712788
O O7 0.791598 0.607090 0.691561
O O8 0.571272 0.378416 0.920858
O O9 0.603698 0.187335 0.615919
O O10 0.414513 0.871594 0.852870
O O11 0.198899 0.915685 0.673881
O O12 0.714128 0.318956 0.376064
O O13 0.000000 0.500000 0.500000
O O14 0.694023 0.475948 0.126252
O O15 0.000000 0.000000 0.500000
#
# Coordination Sequence:
#
# PCOD9040476 Si02
#       7
#     2   2   2   2   2   2   2
#     4  10  23  43  67 102 133 176 224 279 332 401
#     4  12  26  45  68  99 140 177 228 275 329 400
#     4  11  26  45  69  99 138 178 219 284 338 388
#     4   9  22  41  69  97 130 172 223 270 338 393
#     4  11  22  41  71  98 134 176 223 278 331 390
#     4  11  26  45  68  99 133 184 230 269 326 405
#     4  12  27  41  70 104 137 174 224 277 344 398
#
# _framework density 22.035906000000001
#
# number of rings (size 3 to 8) (size 9 to 14) (size 15 to 20)
#    0.000    1.143    2.857    1.714    6.000    6.857 
#    0.000    0.000    0.000    0.000    0.000    0.000 
#    0.000    0.000    0.000    0.000    0.000    0.000 
#
# Total GULP energy -78385.738954 kJ/mol
# GULP energy per Si atom -5598.981354 kJ/mol
# Density = 2.198575 g / cm^3
# Si number density = 22.035906 Si / 1000 Ang^3
#
#
#
# Elastic Constant Matrix: (Units=GPa)
#
#
# Indices 1 2 3 4 5 6 
#
# 1 134.4421 31.7259 29.1799 -4.5915 12.8205 12.3018
# 2 31.7259 97.9755 10.4140 1.9902 6.0953 10.5166
# 3 29.1799 10.4140 82.5285 -8.7147 8.7061 22.3316
# 4 -4.5915 1.9902 -8.7147 25.4122 -0.8845 0.1682
# 5 12.8205 6.0953 8.7061 -0.8845 17.0781 0.7733
# 6 12.3018 10.5166 22.3316 0.1682 0.7733 43.1086
#
#
#
# Elastic Compliance Matrix: (Units=1/GPa)
#
#
# Indices 1 2 3 4 5 6 
#
# 1 0.009000 -0.002325 -0.002052 0.000943 -0.004793 -0.000856
# 2 -0.002325 0.011349 0.000055 -0.001357 -0.002309 -0.002087
# 3 -0.002052 0.000055 0.016076 0.004977 -0.006070 -0.007666
# 4 0.000943 -0.001357 0.004977 0.041335 -0.000500 -0.002669
# 5 -0.004793 -0.002309 -0.006070 -0.000500 0.065868 0.003896
# 6 -0.000856 -0.002087 -0.007666 -0.002669 0.003896 0.027862
#
#
# Mechanical properties :
#
#
# Convention : Reuss Voigt Hill
#
# Bulk Modulus (GPa) = 35.99666 50.84285 43.41976
# Shear Modulus (GPa) = 26.39987 33.36152 29.88069
#
# Velocity S-wave (km/s) = 3.46502 3.89519 3.68639
# Velocity P-wave (km/s) = 5.69029 6.58428 6.15355
#
# Compressibility (1/GPa) = 0.02778035
#
# Stress axis : x y z
#
# Youngs Moduli (GPa) = 111.11387 88.11395 62.20489
#
# Poissons Ratio (x) = 0.20489 0.12764
# Poissons Ratio (y) = 0.25837 -0.00343
# Poissons Ratio (z) = 0.22800 -0.00485
#
# Static dielectric constant tensor:
#      x y z
#    x 1.804080 -0.006470 0.003540 
#    y -0.006470 1.803020 0.012370 
#    z 0.003540 0.012370 1.776330 
# 
# From -- ./inp_files/185550.got.cif
#   From: 2010.05.17/outbox.cif.g08.bks.cpg/sg2_93_cif.got.tgz:185550.got - 2010.06.03 11:33:40.
