data_PCOD9040969
_publ_section_title
;
Structure prediction by ZEFSAII (Michael W. Deem and Ramdas Pophale) SiO2 
 PCOD9040969
Probable space group: P -1
;
_chemical_formula_sum "Si O2"
_cell_formula_units_Z 15
_cell_length_a 5.486029
_cell_length_b 11.909320
_cell_length_c 15.602908
_cell_angle_alpha 36.941240
_cell_angle_beta 71.605674
_cell_angle_gamma 76.180060
_cell_volume 581.201774
_symmetry_space_group_name_H-M "P -1"
_symmetry_group_IT_number 2
_symmetry_cell_setting 'triclinic'
loop_
_space_group_symop_operation_xyz
x,y,z
-x,-y,-z
loop_
_atom_site_type_symbol
_atom_site_label
_atom_site_fract_x
_atom_site_fract_y
_atom_site_fract_z
Si Si1 0.955330 0.795307 0.805525
Si Si2 0.712912 0.603423 0.255181
Si Si3 0.120997 0.106170 0.814058
Si Si4 0.245752 0.567189 0.030356
Si Si5 0.752061 0.594121 0.511330
Si Si6 0.846395 0.627277 0.680005
Si Si7 0.000000 0.000000 0.500000
Si Si8 0.385947 0.117313 0.056509
O O1 0.958008 0.598686 0.873206
O O2 0.703029 0.825136 0.873088
O O3 0.160255 0.759146 0.880959
O O4 0.000075 0.951703 0.634182
O O5 0.910339 0.734316 0.207112
O O6 0.486922 0.550287 0.378058
O O7 0.847852 0.411553 0.331637
O O8 0.630643 0.717222 0.112029
O O9 0.256934 0.209312 0.655439
O O10 0.336429 0.973820 0.911586
O O11 0.844833 0.023684 0.865733
O O12 0.259531 0.541768 0.145792
O O13 0.500000 0.500000 0.000000
O O14 0.000000 0.500000 0.500000
O O15 0.765687 0.626237 0.591995
O O16 0.801468 0.821458 0.613383
#
# Coordination Sequence:
#
# PCOD9040969 Si02
#       8
#     2   2   2   2   2   2   1   2
#     4  10  23  43  70 100 145 189 254 313 389 454
#     4  12  27  46  78 108 156 208 261 320 392 468
#     4  12  28  48  75 114 161 201 262 323 391 464
#     4  10  23  44  72 104 140 197 257 321 380 463
#     4  12  27  47  78 114 155 209 261 317 399 474
#     4  11  25  47  75 104 153 198 263 315 395 464
#     4  10  24  46  68 106 146 194 252 322 390 460
#     4  12  28  48  78 114 155 206 262 328 385 469
#
# _framework density 25.808589999999999
#
# number of rings (size 3 to 8) (size 9 to 14) (size 15 to 20)
#    0.000    0.800    2.667    2.800    9.333    0.000 
#    0.000    2.000    0.000    0.000    0.000    0.000 
#    0.000    0.000    0.000    0.000    0.000    0.000 
#
# Total GULP energy -83686.903838 kJ/mol
# GULP energy per Si atom -5579.126923 kJ/mol
# Density = 2.574985 g / cm^3
# Si number density = 25.808590 Si / 1000 Ang^3
#
#
#
# Elastic Constant Matrix: (Units=GPa)
#
#
# Indices 1 2 3 4 5 6 
#
# 1 82.7657 14.4142 24.5975 0.1675 -8.7479 15.6406
# 2 14.4142 77.1477 5.1872 19.5635 -2.6426 29.1799
# 3 24.5975 5.1872 193.9815 47.0381 18.0809 18.5658
# 4 0.1675 19.5635 47.0381 50.0762 9.3176 -0.5059
# 5 -8.7479 -2.6426 18.0809 9.3176 41.7198 7.7262
# 6 15.6406 29.1799 18.5658 -0.5059 7.7262 50.3620
#
#
#
# Elastic Compliance Matrix: (Units=1/GPa)
#
#
# Indices 1 2 3 4 5 6 
#
# 1 0.014062 -0.001638 -0.002284 0.001965 0.003982 -0.003168
# 2 -0.001638 0.022048 0.003743 -0.013216 0.005079 -0.014558
# 3 -0.002284 0.003743 0.007989 -0.008830 -0.000926 -0.004351
# 4 0.001965 -0.013216 -0.008830 0.034751 -0.006517 0.011651
# 5 0.003982 0.005079 -0.000926 -0.006517 0.028516 -0.008278
# 6 -0.003168 -0.014558 -0.004351 0.011651 -0.008278 0.032266
#
#
# Mechanical properties :
#
#
# Convention : Reuss Voigt Hill
#
# Bulk Modulus (GPa) = 22.86189 49.14364 36.00276
# Shear Modulus (GPa) = 32.34815 49.07800 40.71308
#
# Velocity S-wave (km/s) = 3.54416 4.36548 3.97609
# Velocity P-wave (km/s) = 5.06217 6.67029 5.92108
#
# Compressibility (1/GPa) = 0.04374092
#
# Stress axis : x y z
#
# Youngs Moduli (GPa) = 71.11499 45.35567 125.17919
#
# Poissons Ratio (x) = 0.07427 0.28588
# Poissons Ratio (y) = 0.11645 -0.46850
# Poissons Ratio (z) = 0.16241 -0.16975
#
# Static dielectric constant tensor:
#      x y z
#    x 2.122310 0.073710 -0.009160 
#    y 0.073710 2.184010 -0.065600 
#    z -0.009160 -0.065600 2.018460 
# 
# From -- ./inp_files/482534.got.cif
#   From: 2010.05.17/outbox.cif.g08.bks.cpg/sg2_242_cif.got.tgz:482534.got - 2010.06.03 11:33:40.
