data_PCOD9040498
_publ_section_title
;
Structure prediction by ZEFSAII (Michael W. Deem and Ramdas Pophale) SiO2 
 PCOD9040498
Probable space group: P -1
;
_chemical_formula_sum "Si O2"
_cell_formula_units_Z 15
_cell_length_a 9.089428
_cell_length_b 10.118400
_cell_length_c 11.850959
_cell_angle_alpha 57.942104
_cell_angle_beta 121.032403
_cell_angle_gamma 140.849620
_cell_volume 572.105476
_symmetry_space_group_name_H-M "P -1"
_symmetry_group_IT_number 2
_symmetry_cell_setting 'triclinic'
loop_
_space_group_symop_operation_xyz
x,y,z
-x,-y,-z
loop_
_atom_site_type_symbol
_atom_site_label
_atom_site_fract_x
_atom_site_fract_y
_atom_site_fract_z
Si Si1 0.746984 0.468199 0.461695
Si Si2 0.558929 0.651383 0.060436
Si Si3 0.795958 0.379111 0.750272
Si Si4 0.025181 0.915074 0.273636
Si Si5 0.729608 0.663373 0.699003
Si Si6 0.000000 0.500000 0.000000
Si Si7 0.385504 0.892630 0.845740
Si Si8 0.453975 0.857771 0.650053
O O1 0.802086 0.373821 0.620670
O O2 0.486357 0.375964 0.423634
O O3 0.707362 0.375772 0.362809
O O4 0.940845 0.723266 0.409466
O O5 0.374745 0.489790 0.161457
O O6 0.821632 0.799880 0.150746
O O7 0.500000 0.500000 0.000000
O O8 0.517202 0.808241 0.951302
O O9 0.792813 0.562146 0.688703
O O10 0.556138 0.148398 0.805975
O O11 0.990427 0.440120 0.887407
O O12 0.069654 0.093044 0.289686
O O13 0.283957 0.044971 0.263828
O O14 0.822443 0.246992 0.082727
O O15 0.327864 0.855150 0.706896
O O16 0.500000 0.000000 0.500000
#
# Coordination Sequence:
#
# PCOD9040498 Si02
#       8
#     2   2   2   2   2   1   2   2
#     4  10  23  45  74 108 143 191 247 309 370 432
#     4  11  24  46  73 106 146 190 253 305 364 441
#     4  12  26  45  70 105 150 195 248 299 364 448
#     4  10  24  43  74 108 145 192 245 305 378 427
#     4  10  23  43  67 104 144 189 253 297 362 443
#     4  12  30  44  68 106 144 204 238 288 386 434
#     4  12  27  48  74 103 156 191 245 312 362 452
#     4  11  24  47  74 113 147 184 248 313 375 435
#
# _framework density 26.21894
#
# number of rings (size 3 to 8) (size 9 to 14) (size 15 to 20)
#    0.000    1.067    2.667    3.200    3.733    6.400 
#    0.000    0.000    0.000    0.000    0.000    0.000 
#    0.000    0.000    0.000    0.000    0.000    0.000 
#
# Total GULP energy -83744.577573 kJ/mol
# GULP energy per Si atom -5582.971838 kJ/mol
# Density = 2.615926 g / cm^3
# Si number density = 26.218940 Si / 1000 Ang^3
#
#
#
# Elastic Constant Matrix: (Units=GPa)
#
#
# Indices 1 2 3 4 5 6 
#
# 1 63.0505 35.2349 14.7483 9.6624 3.6318 2.4539
# 2 35.2349 194.1442 50.4863 -2.9499 -4.1356 -2.1947
# 3 14.7483 50.4863 142.2984 11.7451 -5.8808 17.2505
# 4 9.6624 -2.9499 11.7451 54.9839 -5.0553 -4.4995
# 5 3.6318 -4.1356 -5.8808 -5.0553 36.2848 -0.1597
# 6 2.4539 -2.1947 17.2505 -4.4995 -0.1597 44.0840
#
#
#
# Elastic Compliance Matrix: (Units=1/GPa)
#
#
# Indices 1 2 3 4 5 6 
#
# 1 0.018657 -0.003431 -0.000345 -0.003771 -0.002846 -0.001470
# 2 -0.003431 0.006408 -0.002200 0.001630 0.000951 0.001541
# 3 -0.000345 -0.002200 0.008491 -0.002089 0.000853 -0.003623
# 4 -0.003771 0.001630 -0.002089 0.019919 0.003014 0.003153
# 5 -0.002846 0.000951 0.000853 0.003014 0.028512 0.000283
# 6 -0.001470 0.001541 -0.003623 0.003153 0.000283 0.024583
#
#
# Mechanical properties :
#
#
# Convention : Reuss Voigt Hill
#
# Bulk Modulus (GPa) = 46.28587 66.71467 56.50027
# Shear Modulus (GPa) = 39.77005 47.00544 43.38774
#
# Velocity S-wave (km/s) = 3.89889 4.23875 4.07237
# Velocity P-wave (km/s) = 6.16120 7.03253 6.61123
#
# Compressibility (1/GPa) = 0.02160486
#
# Stress axis : x y z
#
# Youngs Moduli (GPa) = 53.59820 156.05416 117.77717
#
# Poissons Ratio (x) = 0.53543 0.04059
# Poissons Ratio (y) = 0.18390 0.25910
# Poissons Ratio (z) = 0.01847 0.34331
#
# Static dielectric constant tensor:
#      x y z
#    x 2.638030 0.068150 0.153110 
#    y 0.068150 2.118140 0.085900 
#    z 0.153110 0.085900 2.127870 
# 
# From -- ./inp_files/69995.got.cif
#   From: 2010.05.17/outbox.cif.g08.bks.cpg/sg2_35_cif.got.tgz:69995.got - 2010.06.03 11:33:40.
