data_PCOD9040618
_publ_section_title
;
Structure prediction by ZEFSAII (Michael W. Deem and Ramdas Pophale) SiO2 
 PCOD9040618
Probable space group: P -1
;
_chemical_formula_sum "Si O2"
_cell_formula_units_Z 14
_cell_length_a 7.462452
_cell_length_b 12.497662
_cell_length_c 7.218962
_cell_angle_alpha 120.908753
_cell_angle_beta 79.672645
_cell_angle_gamma 118.042429
_cell_volume 508.110783
_symmetry_space_group_name_H-M "P -1"
_symmetry_group_IT_number 2
_symmetry_cell_setting 'triclinic'
loop_
_space_group_symop_operation_xyz
x,y,z
-x,-y,-z
loop_
_atom_site_type_symbol
_atom_site_label
_atom_site_fract_x
_atom_site_fract_y
_atom_site_fract_z
Si Si1 0.227240 0.518602 0.698342
Si Si2 0.362815 0.491234 0.253700
Si Si3 0.153976 0.184604 0.087602
Si Si4 0.507636 0.212457 0.613303
Si Si5 0.442439 0.829732 0.019300
Si Si6 0.915107 0.221004 0.515321
Si Si7 0.823821 0.029794 0.728327
O O1 0.243850 0.516704 0.471098
O O2 0.421791 0.497540 0.708804
O O3 0.031350 0.385844 0.689088
O O4 0.266495 0.671700 0.885973
O O5 0.233122 0.329849 0.085844
O O6 0.421023 0.623326 0.230095
O O7 0.991101 0.932159 0.131005
O O8 0.037093 0.202608 0.302999
O O9 0.353000 0.168453 0.101259
O O10 0.489789 0.147015 0.758598
O O11 0.689957 0.191885 0.465664
O O12 0.300771 0.125892 0.465499
O O13 0.333892 0.927414 0.096594
O O14 0.894298 0.128076 0.618193
#
# Coordination Sequence:
#
# PCOD9040618 Si02
#       7
#     2   2   2   2   2   2   2
#     4   9  20  39  68 100 128 172 222 288 332 386
#     4   9  21  41  66 100 134 165 226 280 338 399
#     4  10  24  45  72 101 127 184 230 275 337 400
#     4  11  25  43  64  99 140 175 218 283 335 400
#     4  10  23  43  68 100 135 172 229 280 329 408
#     4  10  23  43  68 100 135 172 229 280 329 408
#     4  11  26  47  65  98 145 179 220 280 339 397
#
# _framework density 27.553048
#
# number of rings (size 3 to 8) (size 9 to 14) (size 15 to 20)
#    0.000    2.000    0.000    2.571    8.000    4.571 
#    5.143    2.857    0.000    0.000    0.000    0.000 
#    0.000    0.000    0.000    0.000    0.000    0.000 
#
# Total GULP energy -78534.486839 kJ/mol
# GULP energy per Si atom -5609.606203 kJ/mol
# Density = 2.749034 g / cm^3
# Si number density = 27.553048 Si / 1000 Ang^3
#
#
#
# Elastic Constant Matrix: (Units=GPa)
#
#
# Indices 1 2 3 4 5 6 
#
# 1 98.6729 45.4115 25.3570 10.7852 -8.6504 14.9133
# 2 45.4115 121.4662 40.0337 21.3736 7.0312 10.3348
# 3 25.3570 40.0337 98.2701 8.7660 -4.4506 19.4424
# 4 10.7852 21.3736 8.7660 58.1512 13.1072 0.2809
# 5 -8.6504 7.0312 -4.4506 13.1072 54.7691 3.4581
# 6 14.9133 10.3348 19.4424 0.2809 3.4581 49.3010
#
#
#
# Elastic Compliance Matrix: (Units=1/GPa)
#
#
# Indices 1 2 3 4 5 6 
#
# 1 0.013222 -0.004364 -0.000775 -0.001419 0.003114 -0.002990
# 2 -0.004364 0.011533 -0.003524 -0.002474 -0.001892 0.000439
# 3 -0.000775 -0.003524 0.012806 -0.000888 0.001848 -0.004202
# 4 -0.001419 -0.002474 -0.000888 0.019568 -0.004758 0.001520
# 5 0.003114 -0.001892 0.001848 -0.004758 0.020451 -0.002682
# 6 -0.002990 0.000439 -0.004202 0.001520 -0.002682 0.022932
#
#
# Mechanical properties :
#
#
# Convention : Reuss Voigt Hill
#
# Bulk Modulus (GPa) = 49.41948 60.00150 54.71049
# Shear Modulus (GPa) = 40.13361 46.28470 43.20915
#
# Velocity S-wave (km/s) = 3.82068 4.10303 3.96437
# Velocity P-wave (km/s) = 6.11870 6.65361 6.39175
#
# Compressibility (1/GPa) = 0.02023493
#
# Stress axis : x y z
#
# Youngs Moduli (GPa) = 75.63183 86.70494 78.08920
#
# Poissons Ratio (x) = 0.37838 0.06050
# Poissons Ratio (y) = 0.33006 0.27521
# Poissons Ratio (z) = 0.05860 0.30557
#
# Static dielectric constant tensor:
#      x y z
#    x 2.095710 0.027410 -0.050110 
#    y 0.027410 2.215700 -0.028720 
#    z -0.050110 -0.028720 2.100420 
# 
# From -- ./inp_files/189893.got.cif
#   From: 2010.05.17/outbox.cif.g08.bks.cpg/sg2_95_cif.got.tgz:189893.got - 2010.06.03 11:33:40.
