data_PCOD9040628
_publ_section_title
;
Structure prediction by ZEFSAII (Michael W. Deem and Ramdas Pophale) SiO2 
 PCOD9040628
Probable space group: P -1
;
_chemical_formula_sum "Si O2"
_cell_formula_units_Z 16
_cell_length_a 19.383953
_cell_length_b 16.260741
_cell_length_c 9.839851
_cell_angle_alpha 35.184535
_cell_angle_beta 33.446611
_cell_angle_gamma 22.219268
_cell_volume 631.269635
_symmetry_space_group_name_H-M "P -1"
_symmetry_group_IT_number 2
_symmetry_cell_setting 'triclinic'
loop_
_space_group_symop_operation_xyz
x,y,z
-x,-y,-z
loop_
_atom_site_type_symbol
_atom_site_label
_atom_site_fract_x
_atom_site_fract_y
_atom_site_fract_z
Si Si1 0.971547 0.985667 0.406387
Si Si2 0.035695 0.827729 0.087514
Si Si3 0.237750 0.119830 0.122191
Si Si4 0.454017 0.402413 0.968035
Si Si5 0.374094 0.922129 0.640714
Si Si6 0.075964 0.500226 0.062786
Si Si7 0.366983 0.228668 0.161161
Si Si8 0.343799 0.486520 0.477909
O O1 0.809946 0.005230 0.625295
O O2 0.929167 0.155489 0.149861
O O3 0.000000 0.000000 0.500000
O O4 0.168842 0.735336 0.367932
O O5 0.234702 0.585231 0.140736
O O6 0.837731 0.913666 0.299133
O O7 0.000000 0.000000 0.000000
O O8 0.138265 0.262844 0.951167
O O9 0.122916 0.309925 0.168083
O O10 0.466228 0.951289 0.981420
O O11 0.600953 0.195602 0.108176
O O12 0.438090 0.316629 0.980851
O O13 0.515174 0.512654 0.696757
O O14 0.533614 0.717735 0.550461
O O15 0.390524 0.075913 0.430445
O O16 0.225215 0.487840 0.772031
O O17 0.148040 0.427113 0.196503
#
# Coordination Sequence:
#
# PCOD9040628 Si02
#       8
#     2   2   2   2   2   2   2   2
#     4  11  25  44  73 109 148 181 232 306 357 409
#     4  12  27  45  75 105 137 194 242 287 352 428
#     4  10  23  43  68 100 146 181 226 288 357 415
#     4  12  27  44  69 104 136 186 234 291 355 410
#     4  12  26  49  69 100 146 187 237 288 346 434
#     4  10  24  42  68 108 133 187 233 285 346 427
#     4  12  27  43  72 102 144 180 234 289 359 419
#     4  11  22  46  73  99 143 180 236 289 343 427
#
# _framework density 25.345745000000001
#
# number of rings (size 3 to 8) (size 9 to 14) (size 15 to 20)
#    0.000    0.750    3.750    2.625    7.000    2.000 
#    0.000    0.000    0.000    0.000    0.000    0.000 
#    0.000    0.000    0.000    0.000    0.000    0.000 
#
# Total GULP energy -89547.345449 kJ/mol
# GULP energy per Si atom -5596.709091 kJ/mol
# Density = 2.528806 g / cm^3
# Si number density = 25.345745 Si / 1000 Ang^3
#
#
#
# Elastic Constant Matrix: (Units=GPa)
#
#
# Indices 1 2 3 4 5 6 
#
# 1 89.2416 6.4102 24.3262 -10.9170 -6.0882 -4.2589
# 2 6.4102 93.3998 8.7455 2.2274 -6.9141 -18.5281
# 3 24.3262 8.7455 46.1234 -18.5099 2.7279 -9.1217
# 4 -10.9170 2.2274 -18.5099 33.2164 -3.5350 -4.7567
# 5 -6.0882 -6.9141 2.7279 -3.5350 23.2000 0.8437
# 6 -4.2589 -18.5281 -9.1217 -4.7567 0.8437 37.7494
#
#
#
# Elastic Compliance Matrix: (Units=1/GPa)
#
#
# Indices 1 2 3 4 5 6 
#
# 1 0.013550 0.000014 -0.007051 0.000986 0.004545 -0.000145
# 2 0.000014 0.012221 -0.001705 -0.000609 0.003556 0.005431
# 3 -0.007051 -0.001705 0.035119 0.018261 -0.004042 0.009245
# 4 0.000986 -0.000609 0.018261 0.042435 0.004051 0.009481
# 5 0.004545 0.003556 -0.004042 0.004051 0.046421 0.000754
# 6 -0.000145 0.005431 0.009245 0.009481 0.000754 0.032552
#
#
# Mechanical properties :
#
#
# Convention : Reuss Voigt Hill
#
# Bulk Modulus (GPa) = 23.03850 34.19207 28.61528
# Shear Modulus (GPa) = 23.33724 31.45205 27.39465
#
# Velocity S-wave (km/s) = 3.03769 3.52649 3.29118
# Velocity P-wave (km/s) = 4.62740 5.48644 5.07513
#
# Compressibility (1/GPa) = 0.04340561
#
# Stress axis : x y z
#
# Youngs Moduli (GPa) = 73.79895 81.82941 28.47485
#
# Poissons Ratio (x) = -0.00117 0.20078
# Poissons Ratio (y) = -0.00106 0.04855
# Poissons Ratio (z) = 0.52037 0.13953
#
# Static dielectric constant tensor:
#      x y z
#    x 2.031540 0.008730 0.050350 
#    y 0.008730 2.017720 0.019020 
#    z 0.050350 0.019020 2.027090 
# 
# From -- ./inp_files/405643.got.cif
#   From: 2010.05.17/outbox.cif.g08.bks.cpg/sg2_203_cif.got.tgz:405643.got - 2010.06.03 11:33:40.
