data_PCOD9040844
_publ_section_title
;
Structure prediction by ZEFSAII (Michael W. Deem and Ramdas Pophale) SiO2 
 PCOD9040844
Probable space group: P -1
;
_chemical_formula_sum "Si O2"
_cell_formula_units_Z 14
_cell_length_a 15.823680
_cell_length_b 7.514991
_cell_length_c 9.636805
_cell_angle_alpha 82.173324
_cell_angle_beta 115.150400
_cell_angle_gamma 143.844960
_cell_volume 564.156706
_symmetry_space_group_name_H-M "P -1"
_symmetry_group_IT_number 2
_symmetry_cell_setting 'triclinic'
loop_
_space_group_symop_operation_xyz
x,y,z
-x,-y,-z
loop_
_atom_site_type_symbol
_atom_site_label
_atom_site_fract_x
_atom_site_fract_y
_atom_site_fract_z
Si Si1 0.675990 0.372461 0.029608
Si Si2 0.184167 0.915971 0.698860
Si Si3 0.309523 0.649307 0.448606
Si Si4 0.923242 0.680137 0.941414
Si Si5 0.570297 0.540491 0.400331
Si Si6 0.278233 0.143905 0.052469
Si Si7 0.871261 0.556086 0.389332
O O1 0.804711 0.590621 0.227316
O O2 0.776316 0.415454 0.980983
O O3 0.659232 0.546074 0.937745
O O4 0.500000 0.000000 0.000000
O O5 0.109571 0.596408 0.668848
O O6 0.043779 0.838894 0.567874
O O7 0.321161 0.148791 0.647990
O O8 0.261265 0.068018 0.887594
O O9 0.171586 0.475952 0.255326
O O10 0.310927 0.437763 0.490625
O O11 0.269364 0.674909 0.564210
O O12 0.500000 0.000000 0.500000
O O13 0.000000 0.000000 0.000000
O O14 0.093968 0.837974 0.029745
O O15 0.500000 0.500000 0.500000
O O16 0.411103 0.241013 0.221626
#
# Coordination Sequence:
#
# PCOD9040844 Si02
#       7
#     2   2   2   2   2   2   2
#     4  11  23  42  72 103 142 183 238 292 358 420
#     4  11  25  45  67 101 143 182 237 290 355 414
#     4  12  25  46  72 104 139 185 238 291 358 426
#     4  10  23  43  69 102 139 182 235 288 351 431
#     4  12  26  43  73 103 143 180 232 290 360 421
#     4  11  24  46  70 103 140 189 235 287 358 428
#     4  11  25  43  69 101 138 185 235 295 343 418
#
# _framework density 24.815799999999999
#
# number of rings (size 3 to 8) (size 9 to 14) (size 15 to 20)
#    0.000    0.857    1.429    5.571    6.000    3.429 
#    0.000    1.429    0.000    0.000    0.000    0.000 
#    0.000    0.000    0.000    0.000    0.000    0.000 
#
# Total GULP energy -78379.848148 kJ/mol
# GULP energy per Si atom -5598.560582 kJ/mol
# Density = 2.475932 g / cm^3
# Si number density = 24.815800 Si / 1000 Ang^3
#
#
#
# Elastic Constant Matrix: (Units=GPa)
#
#
# Indices 1 2 3 4 5 6 
#
# 1 45.9603 18.3758 0.8149 -11.3142 -12.9535 17.8849
# 2 18.3758 83.7020 -1.2574 -9.2938 -2.2125 18.6453
# 3 0.8149 -1.2574 109.1365 -0.8361 -4.1999 14.6209
# 4 -11.3142 -9.2938 -0.8361 27.3392 13.0687 -10.3840
# 5 -12.9535 -2.2125 -4.1999 13.0687 47.6607 -0.7068
# 6 17.8849 18.6453 14.6209 -10.3840 -0.7068 45.5733
#
#
#
# Elastic Compliance Matrix: (Units=1/GPa)
#
#
# Indices 1 2 3 4 5 6 
#
# 1 0.029909 -0.003769 0.001303 0.004289 0.006751 -0.009532
# 2 -0.003769 0.013877 0.000696 0.002140 -0.000964 -0.003949
# 3 0.001303 0.000696 0.009772 -0.001248 0.001527 -0.004192
# 4 0.004289 0.002140 -0.001248 0.047980 -0.011874 0.008590
# 5 0.006751 -0.000964 0.001527 -0.011874 0.026087 -0.005046
# 6 -0.009532 -0.003949 -0.004192 0.008590 -0.005046 0.030523
#
#
# Mechanical properties :
#
#
# Convention : Reuss Voigt Hill
#
# Bulk Modulus (GPa) = 19.99226 30.51837 25.25531
# Shear Modulus (GPa) = 28.03306 38.83903 33.43604
#
# Velocity S-wave (km/s) = 3.36467 3.96042 3.67463
# Velocity P-wave (km/s) = 4.81336 5.76523 5.31066
#
# Compressibility (1/GPa) = 0.05001937
#
# Stress axis : x y z
#
# Youngs Moduli (GPa) = 33.43423 72.06266 102.33384
#
# Poissons Ratio (x) = 0.27158 -0.13333
# Poissons Ratio (y) = 0.12600 -0.07126
# Poissons Ratio (z) = -0.04356 -0.05018
#
# Static dielectric constant tensor:
#      x y z
#    x 2.032910 -0.132770 0.043780 
#    y -0.132770 2.204090 -0.013160 
#    z 0.043780 -0.013160 1.931750 
# 
# From -- ./inp_files/328748.got.cif
#   From: 2010.05.17/outbox.cif.g08.bks.cpg/sg2_165_cif.got.tgz:328748.got - 2010.06.03 11:33:40.
