data_PCOD9040357
_publ_section_title
;
Structure prediction by ZEFSAII (Michael W. Deem and Ramdas Pophale) SiO2 
 PCOD9040357
Probable space group: P -1
;
_chemical_formula_sum "Si O2"
_cell_formula_units_Z 14
_cell_length_a 9.007511
_cell_length_b 20.497230
_cell_length_c 6.691076
_cell_angle_alpha 69.836114
_cell_angle_beta 91.015943
_cell_angle_gamma 142.810686
_cell_volume 625.004541
_symmetry_space_group_name_H-M "P -1"
_symmetry_group_IT_number 2
_symmetry_cell_setting 'triclinic'
loop_
_space_group_symop_operation_xyz
x,y,z
-x,-y,-z
loop_
_atom_site_type_symbol
_atom_site_label
_atom_site_fract_x
_atom_site_fract_y
_atom_site_fract_z
Si Si1 0.732140 0.029822 0.219093
Si Si2 0.124900 0.617535 0.270812
Si Si3 0.817102 0.768698 0.312279
Si Si4 0.054920 0.633794 0.818414
Si Si5 0.338862 0.501005 0.400577
Si Si6 0.138970 0.823341 0.569504
Si Si7 0.425589 0.186771 0.636972
O O1 0.844253 0.108431 0.342229
O O2 0.414071 0.929320 0.327478
O O3 0.721965 0.942459 0.290741
O O4 0.926851 0.130040 0.938638
O O5 0.435787 0.757184 0.197218
O O6 0.000000 0.500000 0.500000
O O7 0.942496 0.607645 0.366574
O O8 0.060825 0.591438 0.063367
O O9 0.542878 0.643689 0.314619
O O10 0.769445 0.823520 0.361304
O O11 0.879960 0.735536 0.514982
O O12 0.771798 0.529244 0.795033
O O13 0.124554 0.742004 0.755912
O O14 0.303889 0.703450 0.613395
O O15 0.500000 0.500000 0.500000
#
# Coordination Sequence:
#
# PCOD9040357 Si02
#       7
#     2   2   2   2   2   2   2
#     4  10  24  42  66  94 136 177 222 273 329 389
#     4  11  24  46  67  97 133 176 220 269 335 397
#     4  12  23  42  68  98 137 172 223 275 326 393
#     4  10  24  43  71  94 139 174 216 277 332 392
#     4  11  24  42  65 104 134 169 223 269 333 398
#     4  10  23  43  66 102 126 176 224 270 337 395
#     4  10  24  44  64 101 130 177 225 271 329 395
#
# _framework density 22.399837999999999
#
# number of rings (size 3 to 8) (size 9 to 14) (size 15 to 20)
#    0.000    1.429    2.857    0.857    2.000    9.143 
#    0.000    0.000    0.000    0.000    0.000    0.000 
#    0.000    0.000    0.000    0.000    0.000    0.000 
#
# Total GULP energy -78131.792384 kJ/mol
# GULP energy per Si atom -5580.842313 kJ/mol
# Density = 2.234886 g / cm^3
# Si number density = 22.399838 Si / 1000 Ang^3
#
#
#
# Elastic Constant Matrix: (Units=GPa)
#
#
# Indices 1 2 3 4 5 6 
#
# 1 91.2480 18.4814 42.5926 15.7770 -3.7218 -5.6958
# 2 18.4814 100.7989 30.2642 12.8596 9.6457 -13.4523
# 3 42.5926 30.2642 91.9913 16.0198 19.4708 2.8187
# 4 15.7770 12.8596 16.0198 23.9997 1.6444 3.8385
# 5 -3.7218 9.6457 19.4708 1.6444 11.0465 9.7497
# 6 -5.6958 -13.4523 2.8187 3.8385 9.7497 35.7525
#
#
#
# Elastic Compliance Matrix: (Units=1/GPa)
#
#
# Indices 1 2 3 4 5 6 
#
# 1 0.025290 -0.006270 -0.024130 0.000529 0.070255 -0.015643
# 2 -0.006270 0.016707 0.008376 -0.010188 -0.046090 0.018289
# 3 -0.024130 0.008376 0.047625 -0.016893 -0.124519 0.031323
# 4 0.000529 -0.010188 -0.016893 0.058199 0.049828 -0.022254
# 5 0.070255 -0.046090 -0.124519 0.049828 0.484635 -0.133842
# 6 -0.015643 0.018289 0.031323 -0.022254 -0.133842 0.068778
#
#
# Mechanical properties :
#
#
# Convention : Reuss Voigt Hill
#
# Bulk Modulus (GPa) = 21.94249 51.85718 36.89983
# Shear Modulus (GPa) = 6.57486 27.00639 16.79063
#
# Velocity S-wave (km/s) = 1.71511 3.47602 2.74083
# Velocity P-wave (km/s) = 3.70665 6.26986 5.15026
#
# Compressibility (1/GPa) = 0.04557369
#
# Stress axis : x y z
#
# Youngs Moduli (GPa) = 39.54144 59.85631 20.99753
#
# Poissons Ratio (x) = 0.37532 0.50666
# Poissons Ratio (y) = 0.24794 -0.17588
# Poissons Ratio (z) = 0.95412 -0.50136
#
# Static dielectric constant tensor:
#      x y z
#    x 1.852690 -0.023620 0.014770 
#    y -0.023620 1.883700 0.033060 
#    z 0.014770 0.033060 1.824890 
# 
# From -- ./inp_files/37502.got.cif
#   From: 2010.05.17/outbox.cif.g08.bks.cpg/sg2_19_cif.got.tgz:37502.got - 2010.06.03 11:33:40.
