data_PCOD9040682
_publ_section_title
;
Structure prediction by ZEFSAII (Michael W. Deem and Ramdas Pophale) SiO2 
 PCOD9040682
Probable space group: P -1
;
_chemical_formula_sum "Si O2"
_cell_formula_units_Z 16
_cell_length_a 12.026867
_cell_length_b 16.244904
_cell_length_c 8.789573
_cell_angle_alpha 82.246821
_cell_angle_beta 44.151726
_cell_angle_gamma 47.707475
_cell_volume 652.675674
_symmetry_space_group_name_H-M "P -1"
_symmetry_group_IT_number 2
_symmetry_cell_setting 'triclinic'
loop_
_space_group_symop_operation_xyz
x,y,z
-x,-y,-z
loop_
_atom_site_type_symbol
_atom_site_label
_atom_site_fract_x
_atom_site_fract_y
_atom_site_fract_z
Si Si1 0.777853 0.269357 0.394764
Si Si2 0.912045 0.589487 0.340606
Si Si3 0.153483 0.319579 0.282737
Si Si4 0.401107 0.530320 0.260193
Si Si5 0.770497 0.948274 0.425468
Si Si6 0.861232 0.761656 0.152629
Si Si7 0.173638 0.011102 0.309355
Si Si8 0.341071 0.750849 0.783613
O O1 0.560052 0.404516 0.694884
O O2 0.640001 0.265606 0.412035
O O3 0.035087 0.115675 0.274540
O O4 0.910518 0.285853 0.158101
O O5 0.956029 0.610833 0.457420
O O6 0.964941 0.627971 0.140934
O O7 0.568875 0.716266 0.634974
O O8 0.091020 0.426533 0.211392
O O9 0.941581 0.339753 0.430138
O O10 0.487508 0.152965 0.001799
O O11 0.558158 0.381500 0.210857
O O12 0.500000 0.500000 0.000000
O O13 0.801848 0.844135 0.341559
O O14 0.439943 0.116166 0.673503
O O15 0.848847 0.923592 0.531557
O O16 0.005377 0.904781 0.120778
O O17 0.000000 0.000000 0.500000
#
# Coordination Sequence:
#
# PCOD9040682 Si02
#       8
#     2   2   2   2   2   2   2   2
#     4  11  26  44  69 107 139 183 237 292 353 415
#     4  10  23  45  73  99 143 187 235 286 357 413
#     4  10  25  45  72 106 138 189 237 291 347 424
#     4  11  24  44  75 102 141 188 235 291 351 419
#     4  10  23  43  68 106 136 184 238 281 362 412
#     4  10  24  43  73 104 138 187 228 302 350 415
#     4  12  27  46  71 103 145 186 235 292 354 427
#     4  10  23  44  67 106 140 185 231 290 350 423
#
# _framework density 24.514472000000001
#
# number of rings (size 3 to 8) (size 9 to 14) (size 15 to 20)
#    0.000    1.500    0.000    2.625   12.250    3.500 
#    2.250    1.875    0.000    0.000    0.000    0.000 
#    0.000    0.000    0.000    0.000    0.000    0.000 
#
# Total GULP energy -89687.864706 kJ/mol
# GULP energy per Si atom -5605.491544 kJ/mol
# Density = 2.445868 g / cm^3
# Si number density = 24.514472 Si / 1000 Ang^3
#
#
#
# Elastic Constant Matrix: (Units=GPa)
#
#
# Indices 1 2 3 4 5 6 
#
# 1 105.7237 24.1427 5.1984 0.3315 -3.7268 -31.3303
# 2 24.1427 122.4962 14.6194 -21.8707 -5.5272 -12.0546
# 3 5.1984 14.6194 72.7612 9.9940 -11.3398 -4.8770
# 4 0.3315 -21.8707 9.9940 14.8828 -11.9862 1.0200
# 5 -3.7268 -5.5272 -11.3398 -11.9862 49.6810 0.9390
# 6 -31.3303 -12.0546 -4.8770 1.0200 0.9390 29.5501
#
#
#
# Elastic Compliance Matrix: (Units=1/GPa)
#
#
# Indices 1 2 3 4 5 6 
#
# 1 0.014354 -0.002911 0.001387 -0.007306 -0.000968 0.014542
# 2 -0.002911 0.016281 -0.006493 0.035196 0.008584 0.000996
# 3 0.001387 -0.006493 0.018030 -0.023692 -0.002270 0.002687
# 4 -0.007306 0.035196 -0.023692 0.165940 0.038075 -0.004236
# 5 -0.000968 0.008584 -0.002270 0.038075 0.029682 -0.000157
# 6 0.014542 0.000996 0.002687 -0.004236 -0.000157 0.050260
#
#
# Mechanical properties :
#
#
# Convention : Reuss Voigt Hill
#
# Bulk Modulus (GPa) = 30.64732 43.21135 36.92933
# Shear Modulus (GPa) = 15.55410 35.95748 25.75579
#
# Velocity S-wave (km/s) = 2.52163 3.83402 3.24487
# Velocity P-wave (km/s) = 4.58334 6.10449 5.39777
#
# Compressibility (1/GPa) = 0.03262928
#
# Stress axis : x y z
#
# Youngs Moduli (GPa) = 69.66898 61.41955 55.46412
#
# Poissons Ratio (x) = 0.17882 -0.07692
# Poissons Ratio (y) = 0.20284 0.36013
# Poissons Ratio (z) = -0.09662 0.39880
#
# Static dielectric constant tensor:
#      x y z
#    x 1.926320 0.012800 0.015890 
#    y 0.012800 1.914630 0.004190 
#    z 0.015890 0.004190 1.930480 
# 
# From -- ./inp_files/279372.got.cif
#   From: 2010.05.17/outbox.cif.g08.bks.cpg/sg2_140_cif.got.tgz:279372.got - 2010.06.03 11:33:40.
