data_PCOD9040862
_publ_section_title
;
Structure prediction by ZEFSAII (Michael W. Deem and Ramdas Pophale) SiO2 
 PCOD9040862
Probable space group: P -1
;
_chemical_formula_sum "Si O2"
_cell_formula_units_Z 14
_cell_length_a 11.978102
_cell_length_b 17.227496
_cell_length_c 7.903088
_cell_angle_alpha 33.583144
_cell_angle_beta 123.892391
_cell_angle_gamma 138.930476
_cell_volume 581.406941
_symmetry_space_group_name_H-M "P -1"
_symmetry_group_IT_number 2
_symmetry_cell_setting 'triclinic'
loop_
_space_group_symop_operation_xyz
x,y,z
-x,-y,-z
loop_
_atom_site_type_symbol
_atom_site_label
_atom_site_fract_x
_atom_site_fract_y
_atom_site_fract_z
Si Si1 0.502649 0.478936 0.740483
Si Si2 0.455376 0.219260 0.571798
Si Si3 0.093223 0.270944 0.364216
Si Si4 0.102410 0.628543 0.188893
Si Si5 0.680846 0.136888 0.767451
Si Si6 0.177243 0.140586 0.233642
Si Si7 0.043819 0.307429 0.632493
O O1 0.500000 0.500000 0.500000
O O2 0.461668 0.588308 0.624511
O O3 0.702896 0.582919 0.767140
O O4 0.350098 0.268044 0.031732
O O5 0.572001 0.209951 0.549418
O O6 0.273278 0.153761 0.460667
O O7 0.419569 0.075762 0.942320
O O8 0.073737 0.248097 0.591503
O O9 0.973409 0.066886 0.562876
O O10 0.007167 0.352858 0.065239
O O11 0.245490 0.814948 0.064013
O O12 0.159019 0.523576 0.336596
O O13 0.000000 0.500000 0.500000
O O14 0.845637 0.231322 0.614269
O O15 0.088735 0.235291 0.958725
#
# Coordination Sequence:
#
# PCOD9040862 Si02
#       7
#     2   2   2   2   2   2   2
#     4  12  28  46  75 110 154 192 244 312 376 443
#     4  11  25  46  72 108 152 192 252 312 365 441
#     4  12  26  48  74 112 152 196 248 309 378 440
#     4  10  23  43  69 103 145 196 246 299 367 443
#     4  10  23  44  71 106 146 198 246 307 369 443
#     4  12  26  47  76 114 143 200 250 305 376 441
#     4  11  24  43  74 105 151 194 247 305 373 447
#
# _framework density 24.079519000000001
#
# number of rings (size 3 to 8) (size 9 to 14) (size 15 to 20)
#    0.000    0.857    2.857    3.000   10.000    1.143 
#    0.000    0.714    0.000    0.000    0.000    0.000 
#    0.000    0.000    0.000    0.000    0.000    0.000 
#
# Total GULP energy -78129.321981 kJ/mol
# GULP energy per Si atom -5580.665856 kJ/mol
# Density = 2.402471 g / cm^3
# Si number density = 24.079519 Si / 1000 Ang^3
#
#
#
# Elastic Constant Matrix: (Units=GPa)
#
#
# Indices 1 2 3 4 5 6 
#
# 1 98.0049 30.6384 25.1686 5.8421 3.4505 31.1956
# 2 30.6384 99.6352 35.1091 8.2743 14.6305 25.2284
# 3 25.1686 35.1091 114.2534 5.4746 19.8506 15.0479
# 4 5.8421 8.2743 5.4746 29.1721 15.0340 -1.0337
# 5 3.4505 14.6305 19.8506 15.0340 41.3047 -2.3559
# 6 31.1956 25.2284 15.0479 -1.0337 -2.3559 37.9409
#
#
#
# Elastic Compliance Matrix: (Units=1/GPa)
#
#
# Indices 1 2 3 4 5 6 
#
# 1 0.014450 -0.001055 -0.001355 -0.002845 0.000242 -0.010704
# 2 -0.001055 0.013761 -0.002303 -0.001735 -0.003483 -0.007633
# 3 -0.001355 -0.002303 0.010787 0.001331 -0.004848 -0.001898
# 4 -0.002845 -0.001735 0.001331 0.043082 -0.015287 0.003189
# 5 0.000242 -0.003483 -0.004848 -0.015287 0.033644 0.005712
# 6 -0.010704 -0.007633 -0.001898 0.003189 0.005712 0.041428
#
#
# Mechanical properties :
#
#
# Convention : Reuss Voigt Hill
#
# Bulk Modulus (GPa) = 33.81499 54.85841 44.33670
# Shear Modulus (GPa) = 28.33931 36.41537 32.37734
#
# Velocity S-wave (km/s) = 3.43433 3.89304 3.67086
# Velocity P-wave (km/s) = 5.45891 6.56044 6.03486
#
# Compressibility (1/GPa) = 0.02957268
#
# Stress axis : x y z
#
# Youngs Moduli (GPa) = 69.20620 72.67090 92.70417
#
# Poissons Ratio (x) = 0.07666 0.12561
# Poissons Ratio (y) = 0.07300 0.21345
# Poissons Ratio (z) = 0.09377 0.16733
#
# Static dielectric constant tensor:
#      x y z
#    x 2.000120 0.003850 0.028390 
#    y 0.003850 1.999750 -0.062180 
#    z 0.028390 -0.062180 1.930350 
# 
# From -- ./inp_files/278714.got.cif
#   From: 2010.05.17/outbox.cif.g08.bks.cpg/sg2_140_cif.got.tgz:278714.got - 2010.06.03 11:33:40.
