data_PCOD9040631
_publ_section_title
;
Structure prediction by ZEFSAII (Michael W. Deem and Ramdas Pophale) SiO2 
 PCOD9040631
Probable space group: P -1
;
_chemical_formula_sum "Si O2"
_cell_formula_units_Z 16
_cell_length_a 21.678080
_cell_length_b 13.053553
_cell_length_c 8.697091
_cell_angle_alpha 34.455964
_cell_angle_beta 57.439651
_cell_angle_gamma 33.895678
_cell_volume 688.073354
_symmetry_space_group_name_H-M "P -1"
_symmetry_group_IT_number 2
_symmetry_cell_setting 'triclinic'
loop_
_space_group_symop_operation_xyz
x,y,z
-x,-y,-z
loop_
_atom_site_type_symbol
_atom_site_label
_atom_site_fract_x
_atom_site_fract_y
_atom_site_fract_z
Si Si1 0.207611 0.164687 0.203855
Si Si2 0.491913 0.750359 0.848133
Si Si3 0.732418 0.739940 0.275264
Si Si4 0.545269 0.218085 0.480856
Si Si5 0.724505 0.386069 0.150248
Si Si6 0.092701 0.703159 0.136654
Si Si7 0.980323 0.838775 0.807411
Si Si8 0.301027 0.528599 0.577537
O O1 0.321250 0.040505 0.293970
O O2 0.222673 0.923804 0.519970
O O3 0.236906 0.150040 0.006424
O O4 0.073670 0.516949 0.991295
O O5 0.595348 0.014375 0.188403
O O6 0.441160 0.888971 0.575527
O O7 0.508430 0.502362 0.154918
O O8 0.624499 0.575588 0.913558
O O9 0.819811 0.568693 0.520096
O O10 0.738418 0.556924 0.377454
O O11 0.426544 0.367004 0.541149
O O12 0.669118 0.563332 0.168266
O O13 0.829362 0.311005 0.049683
O O14 0.022337 0.737963 0.054038
O O15 0.000000 0.000000 0.000000
O O16 0.000000 0.000000 0.500000
O O17 0.832156 0.101738 0.684389
#
# Coordination Sequence:
#
# PCOD9040631 Si02
#       8
#     2   2   2   2   2   2   2   2
#     4  11  24  46  72  99 133 183 226 272 338 404
#     4  10  23  43  68 101 135 174 226 282 337 396
#     4  12  24  41  71 101 134 176 226 275 339 394
#     4  10  23  45  68  98 141 174 224 284 335 399
#     4  11  25  44  70  97 136 177 227 276 334 401
#     4  12  24  44  66  95 137 176 218 279 331 395
#     4  12  23  47  67 100 137 177 221 282 332 403
#     4  12  24  41  67 101 135 177 221 281 330 399
#
# _framework density 23.253333000000001
#
# number of rings (size 3 to 8) (size 9 to 14) (size 15 to 20)
#    0.000    0.750    3.750    3.000    0.000    7.500 
#    2.250    1.875    0.000    0.000    0.000    0.000 
#    0.000    0.000    0.000    0.000    0.000    0.000 
#
# Total GULP energy -89505.284391 kJ/mol
# GULP energy per Si atom -5594.080274 kJ/mol
# Density = 2.320041 g / cm^3
# Si number density = 23.253333 Si / 1000 Ang^3
#
#
#
# Elastic Constant Matrix: (Units=GPa)
#
#
# Indices 1 2 3 4 5 6 
#
# 1 91.7012 12.7629 37.3174 3.3330 27.0006 17.0122
# 2 12.7629 129.7867 13.4816 -0.2344 3.9954 15.5215
# 3 37.3174 13.4816 89.0128 2.7474 11.3464 9.4726
# 4 3.3330 -0.2344 2.7474 36.7928 6.2802 8.9220
# 5 27.0006 3.9954 11.3464 6.2802 31.2388 -1.8999
# 6 17.0122 15.5215 9.4726 8.9220 -1.8999 25.4553
#
#
#
# Elastic Compliance Matrix: (Units=1/GPa)
#
#
# Indices 1 2 3 4 5 6 
#
# 1 0.021119 0.000967 -0.005077 0.005571 -0.018636 -0.016158
# 2 0.000967 0.008540 -0.000762 0.002007 -0.002447 -0.006456
# 3 -0.005077 -0.000762 0.013678 -0.000185 -0.000519 -0.001206
# 4 0.005571 0.002007 -0.000185 0.033098 -0.012719 -0.017428
# 5 -0.018636 -0.002447 -0.000519 -0.012719 0.052547 0.022520
# 6 -0.016158 -0.006456 -0.001206 -0.017428 0.022520 0.062258
#
#
# Mechanical properties :
#
#
# Convention : Reuss Voigt Hill
#
# Bulk Modulus (GPa) = 29.76803 48.62494 39.19648
# Shear Modulus (GPa) = 23.56461 35.15997 29.36229
#
# Velocity S-wave (km/s) = 3.18683 3.89271 3.55732
# Velocity P-wave (km/s) = 5.13523 6.41566 5.81082
#
# Compressibility (1/GPa) = 0.03359309
#
# Stress axis : x y z
#
# Youngs Moduli (GPa) = 47.35118 117.09507 73.10786
#
# Poissons Ratio (x) = -0.11320 0.37118
# Poissons Ratio (y) = -0.04578 0.05568
# Poissons Ratio (z) = 0.24041 0.08919
#
# Static dielectric constant tensor:
#      x y z
#    x 1.841170 -0.017130 0.009800 
#    y -0.017130 1.821220 -0.058410 
#    z 0.009800 -0.058410 1.937960 
# 
# From -- ./inp_files/354487.got.cif
#   From: 2010.05.17/outbox.cif.g08.bks.cpg/sg2_178_cif.got.tgz:354487.got - 2010.06.03 11:33:40.
