data_PCOD9040973
_publ_section_title
;
Structure prediction by ZEFSAII (Michael W. Deem and Ramdas Pophale) SiO2 
 PCOD9040973
Probable space group: P -1
;
_chemical_formula_sum "Si O2"
_cell_formula_units_Z 16
_cell_length_a 8.570471
_cell_length_b 19.772242
_cell_length_c 10.581589
_cell_angle_alpha 140.240566
_cell_angle_beta 139.354118
_cell_angle_gamma 43.644726
_cell_volume 703.348798
_symmetry_space_group_name_H-M "P -1"
_symmetry_group_IT_number 2
_symmetry_cell_setting 'triclinic'
loop_
_space_group_symop_operation_xyz
x,y,z
-x,-y,-z
loop_
_atom_site_type_symbol
_atom_site_label
_atom_site_fract_x
_atom_site_fract_y
_atom_site_fract_z
Si Si1 0.107485 0.530582 0.402583
Si Si2 0.726967 0.856737 0.178989
Si Si3 0.153495 0.640259 0.049095
Si Si4 0.217593 0.833373 0.725941
Si Si5 0.322064 0.577585 0.343883
Si Si6 0.638403 0.064716 0.267798
Si Si7 0.604463 0.727199 0.410228
Si Si8 0.681764 0.875426 0.461469
O O1 0.178238 0.533039 0.300321
O O2 0.381859 0.499183 0.590959
O O3 0.896123 0.647511 0.477198
O O4 0.973660 0.438262 0.214036
O O5 0.761058 0.822613 0.296860
O O6 0.943582 0.763936 0.101904
O O7 0.736487 0.978083 0.318542
O O8 0.446456 0.856141 0.970981
O O9 0.204934 0.592406 0.154640
O O10 0.416545 0.654589 0.188198
O O11 0.307063 0.701148 0.561013
O O12 0.178121 0.902498 0.669334
O O13 0.946373 0.871812 0.683382
O O14 0.466793 0.183988 0.391086
O O15 0.500000 0.000000 0.000000
O O16 0.561251 0.802659 0.366566
O O17 0.500000 0.000000 0.500000
#
# Coordination Sequence:
#
# PCOD9040973 Si02
#       8
#     2   2   2   2   2   2   2   2
#     4  11  25  44  68  99 139 178 228 285 337 399
#     4  11  23  43  71  97 135 180 227 272 341 411
#     4  12  24  42  71  98 137 180 230 275 339 410
#     4  11  22  45  69  98 133 181 226 273 342 409
#     4  11  22  44  72  97 133 183 228 276 341 405
#     4  10  23  43  70 101 133 179 227 277 339 413
#     4  12  24  44  67 104 141 177 228 284 340 403
#     4  12  25  42  66 102 140 176 222 284 339 397
#
# _framework density 22.748314000000001
#
# number of rings (size 3 to 8) (size 9 to 14) (size 15 to 20)
#    0.000    0.750    6.250    0.750    1.750    2.000 
#    0.000    2.500    0.000    0.000    0.000    0.000 
#    0.000    0.000    0.000    0.000    0.000    0.000 
#
# Total GULP energy -89479.579732 kJ/mol
# GULP energy per Si atom -5592.473733 kJ/mol
# Density = 2.269654 g / cm^3
# Si number density = 22.748314 Si / 1000 Ang^3
#
#
#
# Elastic Constant Matrix: (Units=GPa)
#
#
# Indices 1 2 3 4 5 6 
#
# 1 76.6507 12.4557 31.2322 -2.0050 24.9118 9.0434
# 2 12.4557 105.0671 18.4257 0.9216 18.4109 -13.2525
# 3 31.2322 18.4257 67.3262 -2.9566 25.4263 -2.1915
# 4 -2.0050 0.9216 -2.9566 35.0018 -1.4366 4.2738
# 5 24.9118 18.4109 25.4263 -1.4366 29.0954 -1.3848
# 6 9.0434 -13.2525 -2.1915 4.2738 -1.3848 33.8155
#
#
#
# Elastic Compliance Matrix: (Units=1/GPa)
#
#
# Indices 1 2 3 4 5 6 
#
# 1 0.019991 -0.000042 -0.004291 0.000998 -0.013592 -0.006324
# 2 -0.000042 0.011306 -0.000526 -0.001135 -0.006510 0.004285
# 3 -0.004291 -0.000526 0.023166 0.000859 -0.016115 0.001674
# 4 0.000998 -0.001135 0.000859 0.029274 0.000352 -0.004341
# 5 -0.013592 -0.006510 -0.016115 0.000352 0.064352 0.002630
# 6 -0.006324 0.004285 0.001674 -0.004341 0.002630 0.033708
#
#
# Mechanical properties :
#
#
# Convention : Reuss Voigt Hill
#
# Bulk Modulus (GPa) = 22.34945 41.47457 31.91201
# Shear Modulus (GPa) = 24.22113 32.04457 28.13285
#
# Velocity S-wave (km/s) = 3.26658 3.75728 3.52049
# Velocity P-wave (km/s) = 4.90646 6.09052 5.53027
#
# Compressibility (1/GPa) = 0.04474382
#
# Stress axis : x y z
#
# Youngs Moduli (GPa) = 50.02240 88.44637 43.16652
#
# Poissons Ratio (x) = 0.00372 0.18524
# Poissons Ratio (y) = 0.00211 0.02272
# Poissons Ratio (z) = 0.21466 0.04656
#
# Static dielectric constant tensor:
#      x y z
#    x 1.863770 -0.004440 -0.016410 
#    y -0.004440 1.853950 -0.020870 
#    z -0.016410 -0.020870 1.881790 
# 
# From -- ./inp_files/283325.got.cif
#   From: 2010.05.17/outbox.cif.g08.bks.cpg/sg2_142_cif.got.tgz:283325.got - 2010.06.03 11:33:40.
