data_PCOD9040909
_publ_section_title
;
Structure prediction by ZEFSAII (Michael W. Deem and Ramdas Pophale) SiO2 
 PCOD9040909
Probable space group: P -1
;
_chemical_formula_sum "Si O2"
_cell_formula_units_Z 16
_cell_length_a 14.526759
_cell_length_b 12.092410
_cell_length_c 8.802025
_cell_angle_alpha 77.692181
_cell_angle_beta 112.944702
_cell_angle_gamma 148.120199
_cell_volume 729.576815
_symmetry_space_group_name_H-M "P -1"
_symmetry_group_IT_number 2
_symmetry_cell_setting 'triclinic'
loop_
_space_group_symop_operation_xyz
x,y,z
-x,-y,-z
loop_
_atom_site_type_symbol
_atom_site_label
_atom_site_fract_x
_atom_site_fract_y
_atom_site_fract_z
Si Si1 0.355882 0.177943 0.408300
Si Si2 0.672003 0.816242 0.086368
Si Si3 0.305854 0.327587 0.101781
Si Si4 0.859386 0.453350 0.491313
Si Si5 0.566635 0.920741 0.771175
Si Si6 0.052059 0.875494 0.550703
Si Si7 0.761104 0.583156 0.705370
Si Si8 0.185127 0.630428 0.165910
O O1 0.385557 0.303510 0.265242
O O2 0.362696 0.064857 0.351743
O O3 0.537974 0.362220 0.582302
O O4 0.162975 0.018574 0.425957
O O5 0.472483 0.568288 0.076947
O O6 0.787670 0.961978 0.265495
O O7 0.775496 0.818132 0.052419
O O8 0.633232 0.889559 0.940894
O O9 0.191618 0.294673 0.155013
O O10 0.660843 0.287298 0.329605
O O11 0.818182 0.366797 0.656049
O O12 0.000000 0.500000 0.500000
O O13 0.978577 0.681837 0.517168
O O14 0.645338 0.116449 0.827395
O O15 0.868331 0.735568 0.577925
O O16 0.806928 0.497985 0.810813
O O17 0.000000 0.500000 0.000000
#
# Coordination Sequence:
#
# PCOD9040909 Si02
#       8
#     2   2   2   2   2   2   2   2
#     4  11  22  43  71  96 137 179 220 282 335 403
#     4  10  23  43  69  96 139 176 226 280 337 407
#     4  10  23  44  67  98 134 181 224 277 344 400
#     4  11  24  40  63 101 136 175 231 273 327 414
#     4  11  22  43  70  97 139 186 215 278 348 391
#     4  11  23  41  67 101 131 172 231 276 331 405
#     4  11  23  41  68 100 135 171 229 275 334 401
#     4  11  24  43  67  98 137 176 223 280 332 402
#
# _framework density 21.930523000000001
#
# number of rings (size 3 to 8) (size 9 to 14) (size 15 to 20)
#    0.000    1.250    3.750    3.000    1.750    2.000 
#    0.000    4.375    0.000    0.000    0.000    0.000 
#    0.000    0.000    0.000    0.000    0.000    0.000 
#
# Total GULP energy -89156.757791 kJ/mol
# GULP energy per Si atom -5572.297362 kJ/mol
# Density = 2.188061 g / cm^3
# Si number density = 21.930523 Si / 1000 Ang^3
#
#
#
# Elastic Constant Matrix: (Units=GPa)
#
#
# Indices 1 2 3 4 5 6 
#
# 1 124.6014 32.6609 2.4279 8.0490 -47.2067 -37.2682
# 2 32.6609 104.7550 15.5744 10.1838 -29.2750 -35.9037
# 3 2.4279 15.5744 29.8602 12.8556 -24.9493 -31.6103
# 4 8.0490 10.1838 12.8556 36.8020 -1.6484 -9.8102
# 5 -47.2067 -29.2750 -24.9493 -1.6484 46.1504 23.6731
# 6 -37.2682 -35.9037 -31.6103 -9.8102 23.6731 59.6121
#
#
#
# Elastic Compliance Matrix: (Units=1/GPa)
#
#
# Indices 1 2 3 4 5 6 
#
# 1 -0.011937 -0.008610 -0.062734 0.017659 -0.036286 -0.028598
# 2 -0.008610 0.009822 -0.022529 0.004909 -0.011479 -0.006047
# 3 -0.062734 -0.022529 -0.152525 0.046919 -0.118846 -0.078751
# 4 0.017659 0.004909 0.046919 0.014579 0.032513 0.028364
# 5 -0.036286 -0.011479 -0.118846 0.032513 -0.051555 -0.066795
# 6 -0.028598 -0.006047 -0.078751 0.028364 -0.066795 -0.015312
#
#
# Mechanical properties :
#
#
# Convention : Reuss Voigt Hill
#
# Bulk Modulus (GPa) = -2.92068 40.06036 18.56984
# Shear Modulus (GPa) = -37.50681 42.41644 2.45482
#
# Velocity S-wave (km/s) = -4.14001 4.40264 1.05915
# Velocity P-wave (km/s) = 4.91809 6.64462 3.15938
#
# Compressibility (1/GPa) = -0.34238653
#
# Stress axis : x y z
#
# Youngs Moduli (GPa) = -83.77372 101.80753 -6.55629
#
# Poissons Ratio (x) = 0.87660 -0.41130
# Poissons Ratio (y) = -0.72133 -0.14771
# Poissons Ratio (z) = -5.25545 2.29362
#
# Static dielectric constant tensor:
#      x y z
#    x 1.485000 0.346060 0.236750 
#    y 0.346060 1.516960 -0.265490 
#    z 0.236750 -0.265490 1.543720 
# 
# From -- ./inp_files/224024.got.cif
#   From: 2010.05.17/outbox.cif.g08.bks.cpg/sg2_113_cif.got.tgz:224024.got - 2010.06.03 11:33:40.
