data_PCOD9040662
_publ_section_title
;
Structure prediction by ZEFSAII (Michael W. Deem and Ramdas Pophale) SiO2 
 PCOD9040662
Probable space group: P -1
;
_chemical_formula_sum "Si O2"
_cell_formula_units_Z 12
_cell_length_a 16.617123
_cell_length_b 9.463044
_cell_length_c 18.211934
_cell_angle_alpha 38.618112
_cell_angle_beta 163.294935
_cell_angle_gamma 143.965754
_cell_volume 483.864297
_symmetry_space_group_name_H-M "P -1"
_symmetry_group_IT_number 2
_symmetry_cell_setting 'triclinic'
loop_
_space_group_symop_operation_xyz
x,y,z
-x,-y,-z
loop_
_atom_site_type_symbol
_atom_site_label
_atom_site_fract_x
_atom_site_fract_y
_atom_site_fract_z
Si Si1 0.596701 0.780247 0.914870
Si Si2 0.325837 0.985942 0.966480
Si Si3 0.809849 0.319950 0.529547
Si Si4 0.724121 0.774774 0.325314
Si Si5 0.845729 0.549934 0.769216
Si Si6 0.230377 0.902696 0.196465
O O1 0.323282 0.641159 0.681148
O O2 0.759836 0.013845 0.913503
O O3 0.855044 0.666771 0.192559
O O4 0.511677 0.858505 0.886205
O O5 0.995120 0.831298 0.764665
O O6 0.349669 0.154030 0.849412
O O7 0.464498 0.782088 0.149239
O O8 0.785347 0.527183 0.477160
O O9 0.571271 0.062452 0.451999
O O10 0.000000 0.000000 0.500000
O O11 0.500000 0.500000 0.500000
O O12 0.858711 0.381056 0.778712
O O13 0.000000 0.500000 0.000000
O O14 0.000000 0.000000 0.000000
#
# Coordination Sequence:
#
# PCOD9040662 Si02
#       6
#     2   2   2   2   2   2
#     4  10  24  44  70  98 139 181 232 286 353 414
#     4  11  26  48  69 108 143 189 240 290 358 425
#     4  10  24  46  67 102 136 184 235 286 352 414
#     4  11  28  45  74 101 146 191 238 299 350 423
#     4  12  25  45  75 106 141 185 233 291 354 425
#     4  10  23  43  68 103 138 182 231 291 350 417
#
# _framework density 24.800342000000001
#
# number of rings (size 3 to 8) (size 9 to 14) (size 15 to 20)
#    1.000    0.333    1.667    2.000    9.333    2.000 
#    0.000    0.000    0.000    0.000    0.000    0.000 
#    0.000    0.000    0.000    0.000    0.000    0.000 
#
# Total GULP energy -67095.364372 kJ/mol
# GULP energy per Si atom -5591.280364 kJ/mol
# Density = 2.474390 g / cm^3
# Si number density = 24.800342 Si / 1000 Ang^3
#
#
#
# Elastic Constant Matrix: (Units=GPa)
#
#
# Indices 1 2 3 4 5 6 
#
# 1 99.8909 0.9138 22.1095 -0.5875 -4.8947 -21.4754
# 2 0.9138 104.0450 7.2845 10.4445 -3.2453 -23.1010
# 3 22.1095 7.2845 111.5698 5.5578 -13.3599 -11.8790
# 4 -0.5875 10.4445 5.5578 32.8888 -1.8892 11.4258
# 5 -4.8947 -3.2453 -13.3599 -1.8892 24.9409 7.2557
# 6 -21.4754 -23.1010 -11.8790 11.4258 7.2557 33.7920
#
#
#
# Elastic Compliance Matrix: (Units=1/GPa)
#
#
# Indices 1 2 3 4 5 6 
#
# 1 0.012649 0.002921 -0.001449 -0.004502 -0.001567 0.011385
# 2 0.002921 0.013893 0.000327 -0.009918 -0.002674 0.015397
# 3 -0.001449 0.000327 0.010162 -0.002600 0.004173 0.002859
# 4 -0.004502 -0.009918 -0.002600 0.043719 0.007590 -0.026967
# 5 -0.001567 -0.002674 0.004173 0.007590 0.046282 -0.013861
# 6 0.011385 0.015397 0.002859 -0.026967 -0.013861 0.060453
#
#
# Mechanical properties :
#
#
# Convention : Reuss Voigt Hill
#
# Bulk Modulus (GPa) = 24.81082 41.79125 33.30103
# Shear Modulus (GPa) = 25.38146 37.33755 31.35950
#
# Velocity S-wave (km/s) = 3.20258 3.88432 3.55981
# Velocity P-wave (km/s) = 4.86840 6.08317 5.50937
#
# Compressibility (1/GPa) = 0.04030500
#
# Stress axis : x y z
#
# Youngs Moduli (GPa) = 79.05574 71.97644 98.40276
#
# Poissons Ratio (x) = -0.21027 0.14254
# Poissons Ratio (y) = -0.23095 -0.03219
# Poissons Ratio (z) = 0.11451 -0.02355
#
# Static dielectric constant tensor:
#      x y z
#    x 1.983690 0.055770 -0.006970 
#    y 0.055770 2.071900 -0.023480 
#    z -0.006970 -0.023480 1.986860 
# 
# From -- ./inp_files/59570.got.cif
#   From: 2010.05.17/outbox.cif.g08.bks.cpg/sg2_30_cif.got.tgz:59570.got - 2010.06.03 11:33:40.
