data_PCOD9040553
_publ_section_title
;
Structure prediction by ZEFSAII (Michael W. Deem and Ramdas Pophale) SiO2 
 PCOD9040553
Probable space group: P -1
;
_chemical_formula_sum "Si O2"
_cell_formula_units_Z 12
_cell_length_a 19.779159
_cell_length_b 22.845300
_cell_length_c 8.902631
_cell_angle_alpha 139.923559
_cell_angle_beta 39.948987
_cell_angle_gamma 169.504864
_cell_volume 468.265813
_symmetry_space_group_name_H-M "P -1"
_symmetry_group_IT_number 2
_symmetry_cell_setting 'triclinic'
loop_
_space_group_symop_operation_xyz
x,y,z
-x,-y,-z
loop_
_atom_site_type_symbol
_atom_site_label
_atom_site_fract_x
_atom_site_fract_y
_atom_site_fract_z
Si Si1 0.682458 0.275369 0.995933
Si Si2 0.874823 0.447273 0.461160
Si Si3 0.355811 0.546856 0.032039
Si Si4 0.131256 0.822494 0.292831
Si Si5 0.830556 0.780261 0.105574
Si Si6 0.578828 0.481804 0.445822
O O1 0.780369 0.463843 0.206675
O O2 0.311309 0.945330 0.067850
O O3 0.000000 0.500000 0.000000
O O4 0.776503 0.296423 0.731249
O O5 0.819809 0.506893 0.712701
O O6 0.000000 0.500000 0.500000
O O7 0.469805 0.092117 0.367472
O O8 0.147563 0.293703 0.977434
O O9 0.376506 0.557721 0.836443
O O10 0.798147 0.899556 0.995422
O O11 0.962530 0.783823 0.480208
O O12 0.725237 0.765610 0.387676
O O13 0.500000 0.500000 0.000000
O O14 0.500000 0.500000 0.500000
#
# Coordination Sequence:
#
# PCOD9040553 Si02
#       6
#     2   2   2   2   2   2
#     4  10  23  43  67  96 132 175 219 265 324 388
#     4  11  24  43  68  99 133 171 219 272 325 387
#     4  11  25  42  64  99 132 172 217 268 325 388
#     4  11  24  45  68  96 131 175 218 268 326 386
#     4  11  24  44  69  98 131 171 219 271 326 386
#     4  10  24  45  69  96 133 174 218 268 325 389
#
# _framework density 25.626469
#
# number of rings (size 3 to 8) (size 9 to 14) (size 15 to 20)
#    0.000    1.333    0.000    5.000    0.000   16.000 
#    0.000   10.833    0.000    0.000    0.000    0.000 
#    0.000    0.000    0.000    0.000    0.000    0.000 
#
# Total GULP energy -66894.488864 kJ/mol
# GULP energy per Si atom -5574.540739 kJ/mol
# Density = 2.556814 g / cm^3
# Si number density = 25.626469 Si / 1000 Ang^3
#
#
#
# Elastic Constant Matrix: (Units=GPa)
#
#
# Indices 1 2 3 4 5 6 
#
# 1 124.3925 23.8440 32.6061 -0.0838 -0.9738 22.8897
# 2 23.8440 57.5596 -3.1595 0.7629 -4.2974 22.5624
# 3 32.6061 -3.1595 135.2147 -4.6817 13.4667 7.2011
# 4 -0.0838 0.7629 -4.6817 28.5068 4.4700 1.3806
# 5 -0.9738 -4.2974 13.4667 4.4700 43.4417 -7.1605
# 6 22.8897 22.5624 7.2011 1.3806 -7.1605 45.7741
#
#
#
# Elastic Compliance Matrix: (Units=1/GPa)
#
#
# Indices 1 2 3 4 5 6 
#
# 1 0.009766 -0.002969 -0.002282 -0.000143 0.000147 -0.003034
# 2 -0.002969 0.022594 0.001783 0.000167 -0.000041 -0.009944
# 3 -0.002282 0.001783 0.008429 0.001868 -0.002940 -0.001580
# 4 -0.000143 0.000167 0.001868 0.036212 -0.004642 -0.002123
# 5 0.000147 -0.000041 -0.002940 -0.004642 0.025147 0.004483
# 6 -0.003034 -0.009944 -0.001580 -0.002123 0.004483 0.029279
#
#
# Mechanical properties :
#
#
# Convention : Reuss Voigt Hill
#
# Bulk Modulus (GPa) = 29.53946 47.08311 38.31128
# Shear Modulus (GPa) = 33.41230 41.13628 37.27429
#
# Velocity S-wave (km/s) = 3.61476 4.01087 3.81796
# Velocity P-wave (km/s) = 5.38275 6.31365 5.86669
#
# Compressibility (1/GPa) = 0.03385303
#
# Stress axis : x y z
#
# Youngs Moduli (GPa) = 102.39959 44.26043 118.63309
#
# Poissons Ratio (x) = 0.13139 0.27076
# Poissons Ratio (y) = 0.30399 -0.21155
# Poissons Ratio (z) = 0.23371 -0.07893
#
# Static dielectric constant tensor:
#      x y z
#    x 2.143500 -0.232550 0.118250 
#    y -0.232550 2.804850 -0.406420 
#    z 0.118250 -0.406420 2.345480 
# 
# From -- ./inp_files/105575.got.cif
#   From: 2010.05.17/outbox.cif.g08.bks.cpg/sg2_53_cif.got.tgz:105575.got - 2010.06.03 11:33:40.
