data_PCOD9040014
_publ_section_title
;
Structure prediction by ZEFSAII (Michael W. Deem and Ramdas Pophale) SiO2 
 PCOD9040014
Probable space group: P -1
;
_chemical_formula_sum "Si O2"
_cell_formula_units_Z 16
_cell_length_a 8.914178
_cell_length_b 11.977758
_cell_length_c 17.640472
_cell_angle_alpha 51.287635
_cell_angle_beta 151.086411
_cell_angle_gamma 120.625122
_cell_volume 706.960622
_symmetry_space_group_name_H-M "P -1"
_symmetry_group_IT_number 2
_symmetry_cell_setting 'triclinic'
loop_
_space_group_symop_operation_xyz
x,y,z
-x,-y,-z
loop_
_atom_site_type_symbol
_atom_site_label
_atom_site_fract_x
_atom_site_fract_y
_atom_site_fract_z
Si Si1 0.771337 0.832160 0.337158
Si Si2 0.503517 0.716634 0.509423
Si Si3 0.195703 0.849906 0.175150
Si Si4 0.243722 0.601197 0.597115
Si Si5 0.386469 0.841455 0.018880
Si Si6 0.493441 0.571987 0.084992
Si Si7 0.987724 0.462649 0.794729
Si Si8 0.834120 0.925090 0.655320
O O1 0.545262 0.861092 0.294906
O O2 0.546709 0.782135 0.191952
O O3 0.053078 0.710544 0.523325
O O4 0.938989 0.966707 0.325071
O O5 0.250677 0.807089 0.306079
O O6 0.358101 0.681367 0.540789
O O7 0.774795 0.813048 0.611513
O O8 0.668399 0.569374 0.609098
O O9 0.070533 0.704483 0.147649
O O10 0.000000 0.000000 0.000000
O O11 0.505273 0.511747 0.799397
O O12 0.000000 0.500000 0.500000
O O13 0.485297 0.738658 0.035339
O O14 0.013449 0.858075 0.837475
O O15 0.500000 0.000000 0.000000
O O16 0.813167 0.534718 0.195732
O O17 0.211709 0.524173 0.930750
O O18 0.500000 0.000000 0.500000
#
# Coordination Sequence:
#
# PCOD9040014 Si02
#       8
#     2   2   2   2   2   2   2   2
#     4  11  25  44  70 103 141 189 242 298 362 437
#     4  12  26  47  72 102 147 192 241 310 366 438
#     4  12  30  46  71 105 149 195 249 300 373 444
#     4  12  23  41  73 103 139 189 247 294 361 431
#     4  10  23  42  74 102 142 185 246 293 361 424
#     4  11  24  44  75 106 142 195 243 299 362 440
#     4  11  26  47  71 106 154 190 240 302 374 436
#     4  11  24  43  73 107 139 185 244 307 367 426
#
# _framework density 22.632093999999999
#
# number of rings (size 3 to 8) (size 9 to 14) (size 15 to 20)
#    0.000    0.750    3.750    2.625    5.250    3.000 
#    0.000    0.000    0.000    0.000    0.000    0.000 
#    0.000    0.000    0.000    0.000    0.000    0.000 
#
# Total GULP energy -89379.345853 kJ/mol
# GULP energy per Si atom -5586.209116 kJ/mol
# Density = 2.258058 g / cm^3
# Si number density = 22.632094 Si / 1000 Ang^3
#
#
#
# Elastic Constant Matrix: (Units=GPa)
#
#
# Indices 1 2 3 4 5 6 
#
# 1 98.5041 31.9161 38.6620 -7.6626 1.6670 8.0380
# 2 31.9161 146.3732 53.6453 -5.5547 -10.5369 -8.2402
# 3 38.6620 53.6453 117.0066 -15.9958 -4.8722 -4.5869
# 4 -7.6626 -5.5547 -15.9958 41.7968 -5.7365 2.9574
# 5 1.6670 -10.5369 -4.8722 -5.7365 34.7238 -0.1283
# 6 8.0380 -8.2402 -4.5869 2.9574 -0.1283 31.3881
#
#
#
# Elastic Compliance Matrix: (Units=1/GPa)
#
#
# Indices 1 2 3 4 5 6 
#
# 1 0.012516 -0.001788 -0.003431 0.000839 -0.001502 -0.004261
# 2 -0.001788 0.008692 -0.003249 -0.000272 0.002231 0.002300
# 3 -0.003431 -0.003249 0.011768 0.003537 0.001420 0.001418
# 4 0.000839 -0.000272 0.003537 0.026198 0.004693 -0.002219
# 5 -0.001502 0.002231 0.001420 0.004693 0.030526 0.000860
# 6 -0.004261 0.002300 0.001418 -0.002219 0.000860 0.033974
#
#
# Mechanical properties :
#
#
# Convention : Reuss Voigt Hill
#
# Bulk Modulus (GPa) = 62.33793 67.81452 65.07622
# Shear Modulus (GPa) = 34.25717 37.42578 35.84147
#
# Velocity S-wave (km/s) = 3.89479 4.07093 3.98384
# Velocity P-wave (km/s) = 6.91590 7.21980 7.06949
#
# Compressibility (1/GPa) = 0.01604160
#
# Stress axis : x y z
#
# Youngs Moduli (GPa) = 79.89704 115.04818 84.97736
#
# Poissons Ratio (x) = 0.20569 0.29154
# Poissons Ratio (y) = 0.14284 0.27605
# Poissons Ratio (z) = 0.27411 0.37374
#
# Static dielectric constant tensor:
#      x y z
#    x 1.881000 0.005890 -0.027650 
#    y 0.005890 1.899110 -0.063790 
#    z -0.027650 -0.063790 1.935900 
# 
# From -- ./inp_files/559818.got.cif
#   From: 2010.05.17/outbox.cif.g08.bks.cpg/sg2_280_cif.got.tgz:559818.got - 2010.06.03 11:33:40.
