data_PCOD9040040
_publ_section_title
;
Structure prediction by ZEFSAII (Michael W. Deem and Ramdas Pophale) SiO2 
 PCOD9040040
Probable space group: P -1
;
_chemical_formula_sum "Si O2"
_cell_formula_units_Z 14
_cell_length_a 9.857952
_cell_length_b 9.972389
_cell_length_c 7.960434
_cell_angle_alpha 109.444759
_cell_angle_beta 45.709546
_cell_angle_gamma 107.557272
_cell_volume 525.436434
_symmetry_space_group_name_H-M "P -1"
_symmetry_group_IT_number 2
_symmetry_cell_setting 'triclinic'
loop_
_space_group_symop_operation_xyz
x,y,z
-x,-y,-z
loop_
_atom_site_type_symbol
_atom_site_label
_atom_site_fract_x
_atom_site_fract_y
_atom_site_fract_z
Si Si1 0.473982 0.546204 0.238052
Si Si2 0.433999 0.875228 0.373311
Si Si3 0.074736 0.797808 0.176627
Si Si4 0.916736 0.614132 0.499741
Si Si5 0.839929 0.594064 0.110085
Si Si6 0.770582 0.906703 0.881940
Si Si7 0.051003 0.820364 0.838765
O O1 0.489863 0.717826 0.304022
O O2 0.270112 0.478800 0.451320
O O3 0.500000 0.500000 0.000000
O O4 0.640774 0.510447 0.203847
O O5 0.206086 0.852405 0.573588
O O6 0.500000 0.000000 0.500000
O O7 0.548733 0.908926 0.115633
O O8 0.090619 0.684509 0.261967
O O9 0.141456 0.956995 0.241160
O O10 0.162453 0.804453 0.913921
O O11 0.859276 0.737189 0.272890
O O12 0.825561 0.758038 0.698847
O O13 0.075889 0.332899 0.103840
O O14 0.000000 0.500000 0.500000
O O15 0.000000 0.500000 0.000000
O O16 0.883684 0.917205 0.969694
#
# Coordination Sequence:
#
# PCOD9040040 Si02
#       7
#     2   2   2   2   2   2   2
#     4  12  26  46  78 117 158 208 269 333 403 485
#     4  12  23  41  78 118 152 211 267 326 395 487
#     4  10  25  44  78 113 155 210 270 329 400 478
#     4  12  28  50  82 114 165 218 263 338 423 476
#     4  10  24  46  72 110 160 205 266 333 389 477
#     4  12  23  50  77 114 162 208 272 332 401 493
#     4  10  23  42  75 107 154 199 266 324 395 464
#
# _framework density 26.644515999999999
#
# number of rings (size 3 to 8) (size 9 to 14) (size 15 to 20)
#    0.857    0.000    4.286    1.714    8.000    0.571 
#    2.571    1.429    0.000    3.429    0.000    0.000 
#    0.000    0.000    0.000    0.000    0.000    0.000 
#
# Total GULP energy -77979.508124 kJ/mol
# GULP energy per Si atom -5569.964866 kJ/mol
# Density = 2.658387 g / cm^3
# Si number density = 26.644516 Si / 1000 Ang^3
#
#
#
# Elastic Constant Matrix: (Units=GPa)
#
#
# Indices 1 2 3 4 5 6 
#
# 1 95.9242 63.0562 24.3623 -12.4629 -21.0207 -4.1523
# 2 63.0562 219.4560 51.4506 -11.9602 -7.2079 -25.2914
# 3 24.3623 51.4506 125.6434 -11.4775 -4.7445 -1.9933
# 4 -12.4629 -11.9602 -11.4775 48.4769 13.3824 4.6945
# 5 -21.0207 -7.2079 -4.7445 13.3824 40.0630 -6.0156
# 6 -4.1523 -25.2914 -1.9933 4.6945 -6.0156 49.9753
#
#
#
# Elastic Compliance Matrix: (Units=1/GPa)
#
#
# Indices 1 2 3 4 5 6 
#
# 1 0.014688 -0.003721 -0.001001 0.000779 0.006662 0.000026
# 2 -0.003721 0.006362 -0.001856 0.000084 -0.000643 0.002751
# 3 -0.001001 -0.001856 0.009031 0.001636 -0.000467 -0.000872
# 4 0.000779 0.000084 0.001636 0.023660 -0.007733 -0.002981
# 5 0.006662 -0.000643 -0.000467 -0.007733 0.031580 0.004737
# 6 0.000026 0.002751 -0.000872 -0.002981 0.004737 0.022220
#
#
# Mechanical properties :
#
#
# Convention : Reuss Voigt Hill
#
# Bulk Modulus (GPa) = 59.09004 79.86245 69.47624
# Shear Modulus (GPa) = 39.57617 47.84667 43.71142
#
# Velocity S-wave (km/s) = 3.85819 4.24222 4.05475
# Velocity P-wave (km/s) = 6.48636 7.35075 6.93204
#
# Compressibility (1/GPa) = 0.01692333
#
# Stress axis : x y z
#
# Youngs Moduli (GPa) = 68.08482 157.19043 110.72565
#
# Poissons Ratio (x) = 0.58494 0.11083
# Poissons Ratio (y) = 0.25336 0.20556
# Poissons Ratio (z) = 0.06815 0.29182
#
# Static dielectric constant tensor:
#      x y z
#    x 2.332250 0.037030 0.221760 
#    y 0.037030 2.158290 0.069340 
#    z 0.221760 0.069340 2.339380 
# 
# From -- ./inp_files/426605.got.cif
#   From: 2010.05.17/outbox.cif.g08.bks.cpg/sg2_214_cif.got.tgz:426605.got - 2010.06.03 11:33:40.
