data_PCOD9040830
_publ_section_title
;
Structure prediction by ZEFSAII (Michael W. Deem and Ramdas Pophale) SiO2 
 PCOD9040830
Probable space group: P -1
;
_chemical_formula_sum "Si O2"
_cell_formula_units_Z 10
_cell_length_a 6.651553
_cell_length_b 11.385157
_cell_length_c 7.955814
_cell_angle_alpha 55.700316
_cell_angle_beta 121.065276
_cell_angle_gamma 126.413301
_cell_volume 385.321703
_symmetry_space_group_name_H-M "P -1"
_symmetry_group_IT_number 2
_symmetry_cell_setting 'triclinic'
loop_
_space_group_symop_operation_xyz
x,y,z
-x,-y,-z
loop_
_atom_site_type_symbol
_atom_site_label
_atom_site_fract_x
_atom_site_fract_y
_atom_site_fract_z
Si Si1 0.437199 0.368988 0.723797
Si Si2 0.856043 0.164838 0.600143
Si Si3 0.266430 0.828955 0.067138
Si Si4 0.182265 0.127181 0.343917
Si Si5 0.285046 0.589675 0.643228
O O1 0.500000 0.500000 0.500000
O O2 0.653031 0.303991 0.862023
O O3 0.376204 0.447569 0.801175
O O4 0.164712 0.223247 0.682913
O O5 0.781311 0.181390 0.745842
O O6 0.794072 0.294956 0.365862
O O7 0.732246 0.983325 0.645157
O O8 0.004890 0.814636 0.879971
O O9 0.500000 0.000000 0.000000
O O10 0.433580 0.272357 0.402901
O O11 0.000000 0.000000 0.500000
O O12 0.000000 0.500000 0.500000
#
# Coordination Sequence:
#
# PCOD9040830 Si02
#       5
#     2   2   2   2   2
#     4  11  22  44  74 103 150 192 241 300 380 435
#     4  11  23  46  75 104 148 194 245 304 368 443
#     4  12  25  44  77 110 146 192 249 308 366 443
#     4  12  25  45  73 110 146 195 251 302 369 445
#     4  10  23  43  69 101 145 196 232 300 369 431
#
# _framework density 25.952338999999998
#
# number of rings (size 3 to 8) (size 9 to 14) (size 15 to 20)
#    0.000    0.800    4.000    3.600    0.000    0.800 
#    0.000    4.000    0.000    0.000    0.000    0.000 
#    0.000    0.000    0.000    0.000    0.000    0.000 
#
# Total GULP energy -55763.139131 kJ/mol
# GULP energy per Si atom -5576.313913 kJ/mol
# Density = 2.589327 g / cm^3
# Si number density = 25.952339 Si / 1000 Ang^3
#
#
#
# Elastic Constant Matrix: (Units=GPa)
#
#
# Indices 1 2 3 4 5 6 
#
# 1 157.8663 57.6534 76.2332 2.9927 56.6787 -15.6775
# 2 57.6534 205.6647 34.8148 -19.4277 10.9687 10.2823
# 3 76.2332 34.8148 100.5897 -4.6034 31.9272 -9.1299
# 4 2.9927 -19.4277 -4.6034 32.3578 -3.7958 8.2532
# 5 56.6787 10.9687 31.9272 -3.7958 63.4614 -27.5531
# 6 -15.6775 10.2823 -9.1299 8.2532 -27.5531 68.9501
#
#
#
# Elastic Compliance Matrix: (Units=1/GPa)
#
#
# Indices 1 2 3 4 5 6 
#
# 1 0.014009 -0.002693 -0.007112 -0.004885 -0.008902 -0.000328
# 2 -0.002693 0.006125 -0.000367 0.004427 0.001068 -0.001677
# 3 -0.007112 -0.000367 0.016081 0.002635 -0.001703 -0.000429
# 4 -0.004885 0.004427 0.002635 0.035884 0.002343 -0.004781
# 5 -0.008902 0.001068 -0.001703 0.002343 0.028256 0.008602
# 6 -0.000328 -0.001677 -0.000429 -0.004781 0.008602 0.018632
#
#
# Mechanical properties :
#
#
# Convention : Reuss Voigt Hill
#
# Bulk Modulus (GPa) = 63.01802 89.05817 76.03809
# Shear Modulus (GPa) = 34.57316 52.64848 43.61082
#
# Velocity S-wave (km/s) = 3.65386 4.50895 4.10374
# Velocity P-wave (km/s) = 6.49121 7.84207 7.19840
#
# Compressibility (1/GPa) = 0.01586848
#
# Stress axis : x y z
#
# Youngs Moduli (GPa) = 71.38271 163.27617 62.18552
#
# Poissons Ratio (x) = 0.43978 0.44229
# Poissons Ratio (y) = 0.19227 0.02283
# Poissons Ratio (z) = 0.50770 0.05996
#
# Static dielectric constant tensor:
#      x y z
#    x 2.241540 -0.226480 0.056200 
#    y -0.226480 2.230130 -0.211190 
#    z 0.056200 -0.211190 2.339480 
# 
# From -- ./inp_files/130036.got.cif
#   From: 2010.05.17/outbox.cif.g08.bks.cpg/sg2_66_cif.got.tgz:130036.got - 2010.06.03 11:33:40.
