data_PCOD9040330
_publ_section_title
;
Structure prediction by ZEFSAII (Michael W. Deem and Ramdas Pophale) SiO2 
 PCOD9040330
Probable space group: P -1
;
_chemical_formula_sum "Si O2"
_cell_formula_units_Z 14
_cell_length_a 22.672900
_cell_length_b 5.702126
_cell_length_c 16.996108
_cell_angle_alpha 70.358480
_cell_angle_beta 158.503152
_cell_angle_gamma 119.873386
_cell_volume 639.736700
_symmetry_space_group_name_H-M "P -1"
_symmetry_group_IT_number 2
_symmetry_cell_setting 'triclinic'
loop_
_space_group_symop_operation_xyz
x,y,z
-x,-y,-z
loop_
_atom_site_type_symbol
_atom_site_label
_atom_site_fract_x
_atom_site_fract_y
_atom_site_fract_z
Si Si1 0.576184 0.772074 0.125820
Si Si2 0.834503 0.686202 0.798152
Si Si3 0.412247 0.424374 0.276542
Si Si4 0.906857 0.227368 0.025610
Si Si5 0.377950 0.323472 0.066134
Si Si6 0.988772 0.308456 0.581557
Si Si7 0.838786 0.309853 0.104747
O O1 0.802451 0.988212 0.376928
O O2 0.500000 0.500000 0.000000
O O3 0.517763 0.595782 0.155045
O O4 0.500000 0.000000 0.000000
O O5 0.621975 0.614974 0.551041
O O6 0.849567 0.442911 0.892538
O O7 0.901178 0.693412 0.789974
O O8 0.000000 0.000000 0.000000
O O9 0.267906 0.105153 0.170386
O O10 0.446566 0.365715 0.235861
O O11 0.292234 0.576842 0.103674
O O12 0.924258 0.254627 0.138684
O O13 0.179641 0.307324 0.819788
O O14 0.307706 0.988115 0.995003
O O15 0.000000 0.500000 0.500000
O O16 0.999020 0.462781 0.659933
#
# Coordination Sequence:
#
# PCOD9040330 Si02
#       7
#     2   2   2   2   2   2   2
#     4  12  27  44  69 104 137 182 236 293 358 425
#     4  11  24  41  68  99 135 176 229 283 346 418
#     4  10  23  44  64  95 136 177 227 280 350 414
#     4  10  23  43  65  99 132 177 228 279 353 410
#     4  10  24  43  66  97 132 180 227 289 351 414
#     4  11  23  44  71  96 135 177 230 287 351 415
#     4  10  23  43  70  96 136 183 229 288 350 414
#
# _framework density 21.884004999999998
#
# number of rings (size 3 to 8) (size 9 to 14) (size 15 to 20)
#    0.000    1.429    1.429    2.143    4.000   12.571 
#    0.000    1.429    0.000    0.000    0.000    0.000 
#    0.000    0.000    0.000    0.000    0.000    0.000 
#
# Total GULP energy -78219.507675 kJ/mol
# GULP energy per Si atom -5587.107691 kJ/mol
# Density = 2.183420 g / cm^3
# Si number density = 21.884005 Si / 1000 Ang^3
#
#
#
# Elastic Constant Matrix: (Units=GPa)
#
#
# Indices 1 2 3 4 5 6 
#
# 1 90.2291 32.0842 35.9423 16.0499 -4.2949 11.9001
# 2 32.0842 154.6417 36.8380 25.3975 -5.7040 21.4248
# 3 35.9423 36.8380 114.9618 25.6015 -9.8801 5.6208
# 4 16.0499 25.3975 25.6015 34.6952 2.8973 7.0275
# 5 -4.2949 -5.7040 -9.8801 2.8973 20.4347 11.7717
# 6 11.9001 21.4248 5.6208 7.0275 11.7717 38.1920
#
#
#
# Elastic Compliance Matrix: (Units=1/GPa)
#
#
# Indices 1 2 3 4 5 6 
#
# 1 0.013816 -0.000985 -0.002754 -0.003164 0.004059 -0.004016
# 2 -0.000985 0.008526 -0.000643 -0.004717 0.005539 -0.005221
# 3 -0.002754 -0.000643 0.012091 -0.007488 0.006904 -0.001311
# 4 -0.003164 -0.004717 -0.007488 0.040048 -0.011870 0.001023
# 5 0.004059 0.005539 0.006904 -0.011870 0.070768 -0.025016
# 6 -0.004016 -0.005221 -0.001311 0.001023 -0.025016 0.038079
#
#
# Mechanical properties :
#
#
# Convention : Reuss Voigt Hill
#
# Bulk Modulus (GPa) = 38.95629 63.28462 51.12045
# Shear Modulus (GPa) = 24.91941 35.66226 30.29083
#
# Velocity S-wave (km/s) = 3.37813 4.04121 3.72446
# Velocity P-wave (km/s) = 5.74940 7.12434 6.47348
#
# Compressibility (1/GPa) = 0.02566980
#
# Stress axis : x y z
#
# Youngs Moduli (GPa) = 72.38098 117.28568 82.70879
#
# Poissons Ratio (x) = 0.11548 0.22780
# Poissons Ratio (y) = 0.07127 0.05315
# Poissons Ratio (z) = 0.19935 0.07537
#
# Static dielectric constant tensor:
#      x y z
#    x 1.881550 -0.056140 -0.018000 
#    y -0.056140 1.781580 -0.006600 
#    z -0.018000 -0.006600 1.759190 
# 
# From -- ./inp_files/10420.got.cif
#   From: 2010.05.17/outbox.cif.g08.bks.cpg/sg2_6_cif.got.tgz:10420.got - 2010.06.03 11:33:40.
