data_PCOD9040915
_publ_section_title
;
Structure prediction by ZEFSAII (Michael W. Deem and Ramdas Pophale) SiO2 
 PCOD9040915
Probable space group: P -1
;
_chemical_formula_sum "Si O2"
_cell_formula_units_Z 12
_cell_length_a 12.792047
_cell_length_b 6.945914
_cell_length_c 7.510200
_cell_angle_alpha 64.749047
_cell_angle_beta 49.083785
_cell_angle_gamma 90.220981
_cell_volume 415.063973
_symmetry_space_group_name_H-M "P -1"
_symmetry_group_IT_number 2
_symmetry_cell_setting 'triclinic'
loop_
_space_group_symop_operation_xyz
x,y,z
-x,-y,-z
loop_
_atom_site_type_symbol
_atom_site_label
_atom_site_fract_x
_atom_site_fract_y
_atom_site_fract_z
Si Si1 0.251094 0.566296 0.602416
Si Si2 0.799245 0.055492 0.252106
Si Si3 0.429343 0.084848 0.882201
Si Si4 0.805965 0.714582 0.898409
Si Si5 0.939304 0.723404 0.379714
Si Si6 0.521340 0.321734 0.196677
O O1 0.161665 0.342262 0.916120
O O2 0.182309 0.500273 0.506414
O O3 0.224448 0.775552 0.643494
O O4 0.358605 0.166635 0.527679
O O5 0.897790 0.208127 0.918891
O O6 0.889174 0.926540 0.300231
O O7 0.571500 0.112904 0.172144
O O8 0.270089 0.099558 0.088278
O O9 0.566889 0.344976 0.613366
O O10 0.500000 0.000000 0.000000
O O11 0.660477 0.485645 0.092028
O O12 0.926458 0.729307 0.605366
O O13 0.500000 0.500000 0.000000
#
# Coordination Sequence:
#
# PCOD9040915 Si02
#       6
#     2   2   2   2   2   2
#     4  11  25  42  67 103 136 173 227 275 332 401
#     4  10  23  43  69  97 133 181 226 269 335 401
#     4  11  21  38  66 101 134 173 223 273 333 398
#     4  12  24  41  70 103 136 171 222 278 339 396
#     4  11  23  45  69  93 140 179 218 276 334 399
#     4  11  20  40  69  97 129 175 224 273 329 389
#
# _framework density 28.911207000000001
#
# number of rings (size 3 to 8) (size 9 to 14) (size 15 to 20)
#    0.000    1.000    3.333    4.000    0.000    4.667 
#    0.000    3.333    0.000    0.000    0.000    0.000 
#    0.000    0.000    0.000    0.000    0.000    0.000 
#
# Total GULP energy -67233.910269 kJ/mol
# GULP energy per Si atom -5602.825856 kJ/mol
# Density = 2.884540 g / cm^3
# Si number density = 28.911207 Si / 1000 Ang^3
#
#
#
# Elastic Constant Matrix: (Units=GPa)
#
#
# Indices 1 2 3 4 5 6 
#
# 1 69.3200 39.0492 36.0758 -16.7442 -8.3664 2.7049
# 2 39.0492 182.5320 40.8949 1.5873 -20.6488 3.9694
# 3 36.0758 40.8949 180.0376 18.6626 -14.7682 -4.9672
# 4 -16.7442 1.5873 18.6626 49.5403 4.1714 -2.8692
# 5 -8.3664 -20.6488 -14.7682 4.1714 66.5004 -11.6894
# 6 2.7049 3.9694 -4.9672 -2.8692 -11.6894 47.9679
#
#
#
# Elastic Compliance Matrix: (Units=1/GPa)
#
#
# Indices 1 2 3 4 5 6 
#
# 1 0.020789 -0.003558 -0.004296 0.008722 -0.000137 -0.000834
# 2 -0.003558 0.006542 -0.000509 -0.001356 0.001538 -0.000100
# 3 -0.004296 -0.000509 0.007101 -0.004160 0.001332 0.001096
# 4 0.008722 -0.001356 -0.004160 0.024907 -0.001766 0.000249
# 5 -0.000137 0.001538 0.001332 -0.001766 0.016600 0.003958
# 6 -0.000834 -0.000100 0.001096 0.000249 0.003958 0.021995
#
#
# Mechanical properties :
#
#
# Convention : Reuss Voigt Hill
#
# Bulk Modulus (GPa) = 56.47809 73.76993 65.12401
# Shear Modulus (GPa) = 41.47240 53.85971 47.66605
#
# Velocity S-wave (km/s) = 3.79156 4.32086 4.06483
# Velocity P-wave (km/s) = 6.22457 7.10384 6.67869
#
# Compressibility (1/GPa) = 0.01770598
#
# Stress axis : x y z
#
# Youngs Moduli (GPa) = 48.10337 152.86631 140.81595
#
# Poissons Ratio (x) = 0.54391 0.60491
# Poissons Ratio (y) = 0.17116 0.07168
# Poissons Ratio (z) = 0.20664 0.07781
#
# Static dielectric constant tensor:
#      x y z
#    x 1.934340 -0.295780 0.369900 
#    y -0.295780 2.028880 0.161850 
#    z 0.369900 0.161850 2.468670 
# 
# From -- ./inp_files/340234.got.cif
#   From: 2010.05.17/outbox.cif.g08.bks.cpg/sg2_171_cif.got.tgz:340234.got - 2010.06.03 11:33:40.
