data_PCOD9040044
_publ_section_title
;
Structure prediction by ZEFSAII (Michael W. Deem and Ramdas Pophale) SiO2 
 PCOD9040044
Probable space group: P -1
;
_chemical_formula_sum "Si O2"
_cell_formula_units_Z 16
_cell_length_a 8.850976
_cell_length_b 9.256172
_cell_length_c 11.706553
_cell_angle_alpha 97.371095
_cell_angle_beta 78.941313
_cell_angle_gamma 47.782638
_cell_volume 652.004389
_symmetry_space_group_name_H-M "P -1"
_symmetry_group_IT_number 2
_symmetry_cell_setting 'triclinic'
loop_
_space_group_symop_operation_xyz
x,y,z
-x,-y,-z
loop_
_atom_site_type_symbol
_atom_site_label
_atom_site_fract_x
_atom_site_fract_y
_atom_site_fract_z
Si Si1 0.654413 0.036854 0.010855
Si Si2 0.248426 0.725041 0.305714
Si Si3 0.384862 0.427280 0.940841
Si Si4 0.244186 0.032903 0.422414
Si Si5 0.962781 0.830727 0.157771
Si Si6 0.952677 0.711535 0.743438
Si Si7 0.726360 0.707555 0.242594
Si Si8 0.072362 0.553528 0.387127
O O1 0.860316 0.861538 0.878845
O O2 0.527771 0.264406 0.006482
O O3 0.759231 0.993362 0.116606
O O4 0.500000 0.000000 0.000000
O O5 0.459267 0.609025 0.182212
O O6 0.044089 0.870219 0.258327
O O7 0.241320 0.573486 0.353422
O O8 0.245658 0.857597 0.411264
O O9 0.287047 0.350629 0.886740
O O10 0.184232 0.660472 0.034522
O O11 0.084193 0.170308 0.351509
O O12 0.153259 0.194549 0.552362
O O13 0.486287 0.918114 0.337387
O O14 0.904092 0.713257 0.207610
O O15 0.191128 0.480834 0.708714
O O16 0.831187 0.638733 0.728562
O O17 0.000000 0.500000 0.500000
#
# Coordination Sequence:
#
# PCOD9040044 Si02
#       8
#     2   2   2   2   2   2   2   2
#     4  12  22  37  67  99 136 178 225 264 321 397
#     4  11  23  43  66 100 137 176 218 278 338 397
#     4  11  23  40  64  96 142 182 215 266 331 392
#     4  10  23  44  67  95 130 174 221 282 342 373
#     4  12  23  39  65 101 139 181 217 261 326 405
#     4  11  20  40  66  96 128 167 230 267 317 396
#     4  11  20  37  68  94 129 179 222 271 317 393
#     4  10  23  42  75  96 123 175 229 283 335 390
#
# _framework density 24.539712000000002
#
# number of rings (size 3 to 8) (size 9 to 14) (size 15 to 20)
#    0.000    1.000    6.250    1.875    0.000    1.000 
#    0.000    0.000    0.000    6.750    0.000    0.000 
#    0.000    0.000    0.000    0.000    0.000    0.000 
#
# Total GULP energy -89174.378298 kJ/mol
# GULP energy per Si atom -5573.398644 kJ/mol
# Density = 2.448386 g / cm^3
# Si number density = 24.539712 Si / 1000 Ang^3
#
#
#
# Elastic Constant Matrix: (Units=GPa)
#
#
# Indices 1 2 3 4 5 6 
#
# 1 107.4562 22.2095 6.9067 -3.5059 5.8728 17.6594
# 2 22.2095 92.5357 6.1089 -17.2563 -7.1634 -8.7967
# 3 6.9067 6.1089 47.6397 -6.6792 -5.8622 -5.2353
# 4 -3.5059 -17.2563 -6.6792 35.7336 3.3485 1.7206
# 5 5.8728 -7.1634 -5.8622 3.3485 33.5378 -0.2914
# 6 17.6594 -8.7967 -5.2353 1.7206 -0.2914 43.3109
#
#
#
# Elastic Compliance Matrix: (Units=1/GPa)
#
#
# Indices 1 2 3 4 5 6 
#
# 1 0.011214 -0.003383 -0.002235 -0.000396 -0.003086 -0.005535
# 2 -0.003383 0.013252 0.000380 0.005673 0.002957 0.003911
# 3 -0.002235 0.000380 0.022679 0.003645 0.004104 0.003613
# 4 -0.000396 0.005673 0.003645 0.031457 -0.001218 0.000496
# 5 -0.003086 0.002957 0.004104 -0.001218 0.031851 0.002617
# 6 -0.005535 0.003911 0.003613 0.000496 0.002617 0.026575
#
#
# Mechanical properties :
#
#
# Convention : Reuss Voigt Hill
#
# Bulk Modulus (GPa) = 27.27038 35.34243 31.30640
# Shear Modulus (GPa) = 31.30327 36.67691 33.99009
#
# Velocity S-wave (km/s) = 3.57545 3.87019 3.72574
# Velocity P-wave (km/s) = 5.30867 5.86554 5.59404
#
# Compressibility (1/GPa) = 0.03666983
#
# Stress axis : x y z
#
# Youngs Moduli (GPa) = 89.17202 75.45952 44.09296
#
# Poissons Ratio (x) = 0.25526 0.09857
# Poissons Ratio (y) = 0.30165 -0.01676
# Poissons Ratio (z) = 0.19934 -0.02869
#
# Static dielectric constant tensor:
#      x y z
#    x 2.061550 -0.080610 0.078630 
#    y -0.080610 2.045770 -0.095480 
#    z 0.078630 -0.095480 2.022120 
# 
# From -- ./inp_files/493181.got.cif
#   From: 2010.05.17/outbox.cif.g08.bks.cpg/sg2_247_cif.got.tgz:493181.got - 2010.06.03 11:33:40.
