data_PCOD9040905
_publ_section_title
;
Structure prediction by ZEFSAII (Michael W. Deem and Ramdas Pophale) SiO2 
 PCOD9040905
Probable space group: P -1
;
_chemical_formula_sum "Si O2"
_cell_formula_units_Z 10
_cell_length_a 9.865085
_cell_length_b 11.941653
_cell_length_c 5.652058
_cell_angle_alpha 129.152235
_cell_angle_beta 84.433310
_cell_angle_gamma 68.748177
_cell_volume 429.539891
_symmetry_space_group_name_H-M "P -1"
_symmetry_group_IT_number 2
_symmetry_cell_setting 'triclinic'
loop_
_space_group_symop_operation_xyz
x,y,z
-x,-y,-z
loop_
_atom_site_type_symbol
_atom_site_label
_atom_site_fract_x
_atom_site_fract_y
_atom_site_fract_z
Si Si1 0.824591 0.058922 0.520342
Si Si2 0.428110 0.822891 0.607546
Si Si3 0.100852 0.447381 0.660087
Si Si4 0.335987 0.084506 0.358982
Si Si5 0.635737 0.454433 0.221703
O O1 0.762296 0.084722 0.295991
O O2 0.780627 0.928393 0.457369
O O3 0.711004 0.256829 0.886290
O O4 0.000000 0.000000 0.500000
O O5 0.533613 0.876883 0.512559
O O6 0.528096 0.618539 0.287980
O O7 0.429084 0.900146 0.964197
O O8 0.224511 0.240569 0.401691
O O9 0.212012 0.527011 0.727683
O O10 0.000000 0.500000 0.500000
O O11 0.000000 0.500000 0.000000
O O12 0.500000 0.500000 0.500000
#
# Coordination Sequence:
#
# PCOD9040905 Si02
#       5
#     2   2   2   2   2
#     4  12  25  40  69 104 140 177 237 305 365 416
#     4  10  23  44  68  95 135 186 239 284 353 442
#     4  11  27  48  73 106 149 191 242 302 371 433
#     4  10  23  43  69  96 131 189 238 285 350 434
#     4  11  24  46  69 107 140 193 237 298 366 434
#
# _framework density 23.280725
#
# number of rings (size 3 to 8) (size 9 to 14) (size 15 to 20)
#    0.000    1.200    2.000    2.400    5.600    7.200 
#    0.000    0.000    0.000    0.000    0.000    0.000 
#    0.000    0.000    0.000    0.000    0.000    0.000 
#
# Total GULP energy -55709.605096 kJ/mol
# GULP energy per Si atom -5570.960510 kJ/mol
# Density = 2.322774 g / cm^3
# Si number density = 23.280725 Si / 1000 Ang^3
#
#
#
# Elastic Constant Matrix: (Units=GPa)
#
#
# Indices 1 2 3 4 5 6 
#
# 1 166.0552 54.8993 14.4214 -18.7494 1.2447 -8.6917
# 2 54.8993 116.7357 21.2301 11.1122 10.1506 -8.5731
# 3 14.4214 21.2301 81.9051 13.1539 -2.2725 0.4552
# 4 -18.7494 11.1122 13.1539 32.4661 5.2054 2.6165
# 5 1.2447 10.1506 -2.2725 5.2054 30.6970 9.0363
# 6 -8.6917 -8.5731 0.4552 2.6165 9.0363 56.9278
#
#
#
# Elastic Compliance Matrix: (Units=1/GPa)
#
#
# Indices 1 2 3 4 5 6 
#
# 1 0.008365 -0.004265 -0.001489 0.006915 -0.000324 0.000380
# 2 -0.004265 0.011821 -0.001540 -0.005482 -0.003494 0.001948
# 3 -0.001489 -0.001540 0.013984 -0.006405 0.002909 -0.000738
# 4 0.006915 -0.005482 -0.006405 0.040213 -0.005560 -0.000684
# 5 -0.000324 -0.003494 0.002909 -0.005560 0.036720 -0.006172
# 6 0.000380 0.001948 -0.000738 -0.000684 -0.006172 0.018935
#
#
# Mechanical properties :
#
#
# Convention : Reuss Voigt Hill
#
# Bulk Modulus (GPa) = 51.07036 60.64419 55.85727
# Shear Modulus (GPa) = 33.07909 42.29451 37.68680
#
# Velocity S-wave (km/s) = 3.77354 4.26692 4.02779
# Velocity P-wave (km/s) = 6.40082 7.09797 6.75839
#
# Compressibility (1/GPa) = 0.01958083
#
# Stress axis : x y z
#
# Youngs Moduli (GPa) = 119.55147 84.59491 71.50937
#
# Poissons Ratio (x) = 0.36081 0.10647
# Poissons Ratio (y) = 0.50991 0.11016
# Poissons Ratio (z) = 0.17800 0.13031
#
# Static dielectric constant tensor:
#      x y z
#    x 1.966260 -0.273760 0.089420 
#    y -0.273760 0.786570 0.331340 
#    z 0.089420 0.331340 1.786170 
# 
# From -- ./inp_files/15523.got.cif
#   From: 2010.05.17/outbox.cif.g08.bks.cpg/sg2_8_cif.got.tgz:15523.got - 2010.06.03 11:33:40.
