data_PCOD9040985
_publ_section_title
;
Structure prediction by ZEFSAII (Michael W. Deem and Ramdas Pophale) SiO2 
 PCOD9040985
Probable space group: P -1
;
_chemical_formula_sum "Si O2"
_cell_formula_units_Z 14
_cell_length_a 11.983243
_cell_length_b 5.691215
_cell_length_c 11.971632
_cell_angle_alpha 98.745666
_cell_angle_beta 46.700689
_cell_angle_gamma 105.826857
_cell_volume 570.960698
_symmetry_space_group_name_H-M "P -1"
_symmetry_group_IT_number 2
_symmetry_cell_setting 'triclinic'
loop_
_space_group_symop_operation_xyz
x,y,z
-x,-y,-z
loop_
_atom_site_type_symbol
_atom_site_label
_atom_site_fract_x
_atom_site_fract_y
_atom_site_fract_z
Si Si1 0.501831 0.499455 0.864392
Si Si2 0.073620 0.635580 0.795304
Si Si3 0.337751 0.937097 0.245366
Si Si4 0.784629 0.813142 0.078319
Si Si5 0.679420 0.635674 0.364659
Si Si6 0.830391 0.141774 0.866584
Si Si7 0.873862 0.027944 0.415996
O O1 0.580314 0.773040 0.787801
O O2 0.331145 0.417465 0.919299
O O3 0.582263 0.268446 0.769961
O O4 0.500000 0.500000 0.000000
O O5 0.211863 0.549497 0.757504
O O6 0.150585 0.775153 0.643106
O O7 0.947571 0.399898 0.821320
O O8 0.964278 0.779135 0.948787
O O9 0.303094 0.870788 0.134324
O O10 0.176289 0.912962 0.423417
O O11 0.712541 0.822752 0.251046
O O12 0.776003 0.031676 0.016169
O O13 0.500000 0.500000 0.500000
O O14 0.759807 0.778126 0.429434
O O15 0.944625 0.977798 0.725592
#
# Coordination Sequence:
#
# PCOD9040985 Si02
#       7
#     2   2   2   2   2   2   2
#     4  12  26  45  71 107 144 190 239 297 355 424
#     4  10  24  44  69 100 141 184 241 290 359 430
#     4  12  26  44  74 105 151 185 241 298 358 419
#     4  11  24  43  71 101 139 189 238 294 359 423
#     4  11  25  46  69 101 140 181 242 299 361 425
#     4  10  23  43  70 101 141 185 236 292 357 432
#     4  10  25  44  67 103 138 189 234 292 360 432
#
# _framework density 24.520074999999999
#
# number of rings (size 3 to 8) (size 9 to 14) (size 15 to 20)
#    0.000    1.143    1.429    3.000   10.000    7.429 
#    0.000    0.000    0.000    0.000    0.000    0.000 
#    0.000    0.000    0.000    0.000    0.000    0.000 
#
# Total GULP energy -78326.361391 kJ/mol
# GULP energy per Si atom -5594.740099 kJ/mol
# Density = 2.446427 g / cm^3
# Si number density = 24.520075 Si / 1000 Ang^3
#
#
#
# Elastic Constant Matrix: (Units=GPa)
#
#
# Indices 1 2 3 4 5 6 
#
# 1 105.8577 25.7158 37.4834 -0.1200 -11.4644 -6.6057
# 2 25.7158 126.6325 28.3801 -15.6712 -6.3557 -9.7922
# 3 37.4834 28.3801 110.0466 -12.8243 12.4600 -14.7695
# 4 -0.1200 -15.6712 -12.8243 31.3007 5.4105 -1.1170
# 5 -11.4644 -6.3557 12.4600 5.4105 37.5662 1.1244
# 6 -6.6057 -9.7922 -14.7695 -1.1170 1.1244 33.7737
#
#
#
# Elastic Compliance Matrix: (Units=1/GPa)
#
#
# Indices 1 2 3 4 5 6 
#
# 1 0.012122 -0.001595 -0.004856 -0.003727 0.005593 -0.000524
# 2 -0.001595 0.009176 -0.001187 0.004029 0.000821 0.001935
# 3 -0.004856 -0.001187 0.013241 0.006218 -0.007118 0.004939
# 4 -0.003727 0.004029 0.006218 0.038073 -0.008142 0.004689
# 5 0.005593 0.000821 -0.007118 -0.008142 0.032092 -0.003118
# 6 -0.000524 0.001935 0.004939 0.004689 -0.003118 0.032486
#
#
# Mechanical properties :
#
#
# Convention : Reuss Voigt Hill
#
# Bulk Modulus (GPa) = 51.90935 58.41061 55.15998
# Shear Modulus (GPa) = 31.46899 37.25860 34.36379
#
# Velocity S-wave (km/s) = 3.58634 3.90232 3.74766
# Velocity P-wave (km/s) = 6.19397 6.64661 6.42428
#
# Compressibility (1/GPa) = 0.01926435
#
# Stress axis : x y z
#
# Youngs Moduli (GPa) = 82.49419 108.97774 75.52570
#
# Poissons Ratio (x) = 0.17377 0.36672
# Poissons Ratio (y) = 0.13154 0.08966
# Poissons Ratio (z) = 0.40056 0.12937
#
# Static dielectric constant tensor:
#      x y z
#    x 1.968600 -0.028930 -0.018370 
#    y -0.028930 2.005910 0.062310 
#    z -0.018370 0.062310 1.921100 
# 
# From -- ./inp_files/48688.got.cif
#   From: 2010.05.17/outbox.cif.g08.bks.cpg/sg2_25_cif.got.tgz:48688.got - 2010.06.03 11:33:40.
