data_PCOD9040496
_publ_section_title
;
Structure prediction by ZEFSAII (Michael W. Deem and Ramdas Pophale) SiO2 
 PCOD9040496
Probable space group: P -1
;
_chemical_formula_sum "Si O2"
_cell_formula_units_Z 12
_cell_length_a 21.958473
_cell_length_b 5.846001
_cell_length_c 13.753825
_cell_angle_alpha 107.529989
_cell_angle_beta 161.539373
_cell_angle_gamma 69.034274
_cell_volume 517.685622
_symmetry_space_group_name_H-M "P -1"
_symmetry_group_IT_number 2
_symmetry_cell_setting 'triclinic'
loop_
_space_group_symop_operation_xyz
x,y,z
-x,-y,-z
loop_
_atom_site_type_symbol
_atom_site_label
_atom_site_fract_x
_atom_site_fract_y
_atom_site_fract_z
Si Si1 0.449914 0.148912 0.792203
Si Si2 0.120305 0.767852 0.594162
Si Si3 0.810944 0.712779 0.769894
Si Si4 0.287861 0.264923 0.756432
Si Si5 0.060683 0.997842 0.826871
Si Si6 0.476425 0.713121 0.408268
O O1 0.301109 0.167529 0.480874
O O2 0.355197 0.329171 0.759834
O O3 0.657458 0.198106 0.078679
O O4 0.519647 0.880303 0.913251
O O5 0.165110 0.489652 0.661888
O O6 0.000000 0.000000 0.500000
O O7 0.991850 0.780319 0.302027
O O8 0.644335 0.621717 0.569718
O O9 0.000000 0.500000 0.000000
O O10 0.885012 0.907597 0.975256
O O11 0.138001 0.095417 0.484930
O O12 0.244274 0.783992 0.039381
O O13 0.500000 0.500000 0.500000
O O14 0.500000 0.000000 0.500000
#
# Coordination Sequence:
#
# PCOD9040496 Si02
#       6
#     2   2   2   2   2   2
#     4  10  23  43  67 104 139 185 241 289 376 427
#     4  11  23  44  69  98 135 184 244 293 367 434
#     4  11  24  45  72 107 146 187 246 304 365 445
#     4  10  23  44  71  98 143 189 234 309 355 447
#     4  10  24  43  69 102 139 185 238 298 370 430
#     4  10  24  46  68 102 149 195 234 299 374 439
#
# _framework density 23.180092999999999
#
# number of rings (size 3 to 8) (size 9 to 14) (size 15 to 20)
#    0.000    1.667    0.000    2.500    7.000    6.000 
#   15.000    0.000    0.000    0.000    0.000    0.000 
#    0.000    0.000    0.000    0.000    0.000    0.000 
#
# Total GULP energy -66961.110669 kJ/mol
# GULP energy per Si atom -5580.092556 kJ/mol
# Density = 2.312733 g / cm^3
# Si number density = 23.180093 Si / 1000 Ang^3
#
#
#
# Elastic Constant Matrix: (Units=GPa)
#
#
# Indices 1 2 3 4 5 6 
#
# 1 118.5952 45.2910 73.3599 -12.5962 4.1806 -17.3267
# 2 45.2910 79.2642 45.2663 -17.3271 -5.2751 -15.9898
# 3 73.3599 45.2663 191.2560 -22.6203 -8.0662 -18.2349
# 4 -12.5962 -17.3271 -22.6203 34.7193 -7.9742 6.1547
# 5 4.1806 -5.2751 -8.0662 -7.9742 60.0208 -1.3423
# 6 -17.3267 -15.9898 -18.2349 6.1547 -1.3423 28.7591
#
#
#
# Elastic Compliance Matrix: (Units=1/GPa)
#
#
# Indices 1 2 3 4 5 6 
#
# 1 0.013073 -0.005161 -0.003754 -0.001227 -0.001969 0.002797
# 2 -0.005161 0.018903 -0.001079 0.006551 0.002868 0.005448
# 3 -0.003754 -0.001079 0.007484 0.003117 0.001615 0.001292
# 4 -0.001227 0.006551 0.003117 0.035404 0.005730 -0.002430
# 5 -0.001969 0.002868 0.001615 0.005730 0.018052 0.001049
# 6 0.002797 0.005448 0.001292 -0.002430 0.001049 0.040874
#
#
# Mechanical properties :
#
#
# Convention : Reuss Voigt Hill
#
# Bulk Modulus (GPa) = 51.35711 79.66111 65.50911
# Shear Modulus (GPa) = 31.19735 39.71305 35.45520
#
# Velocity S-wave (km/s) = 3.67259 4.14362 3.91519
# Velocity P-wave (km/s) = 6.33937 7.57189 6.98288
#
# Compressibility (1/GPa) = 0.01947150
#
# Stress axis : x y z
#
# Youngs Moduli (GPa) = 76.49308 52.90097 133.61660
#
# Poissons Ratio (x) = 0.27301 0.50166
# Poissons Ratio (y) = 0.39476 0.14420
# Poissons Ratio (z) = 0.28719 0.05709
#
# Static dielectric constant tensor:
#      x y z
#    x 1.969260 0.047710 -0.001900 
#    y 0.047710 1.966350 -0.012210 
#    z -0.001900 -0.012210 1.839770 
# 
# From -- ./inp_files/541948.got.cif
#   From: 2010.05.17/outbox.cif.g08.bks.cpg/sg2_271_cif.got.tgz:541948.got - 2010.06.03 11:33:40.
