data_PCOD9040565
_publ_section_title
;
Structure prediction by ZEFSAII (Michael W. Deem and Ramdas Pophale) SiO2 
 PCOD9040565
Probable space group: P -1
;
_chemical_formula_sum "Si O2"
_cell_formula_units_Z 14
_cell_length_a 7.473482
_cell_length_b 10.449578
_cell_length_c 10.405362
_cell_angle_alpha 59.836230
_cell_angle_beta 129.496122
_cell_angle_gamma 101.342644
_cell_volume 532.872357
_symmetry_space_group_name_H-M "P -1"
_symmetry_group_IT_number 2
_symmetry_cell_setting 'triclinic'
loop_
_space_group_symop_operation_xyz
x,y,z
-x,-y,-z
loop_
_atom_site_type_symbol
_atom_site_label
_atom_site_fract_x
_atom_site_fract_y
_atom_site_fract_z
Si Si1 0.257677 0.357727 0.794983
Si Si2 0.472353 0.672122 0.441612
Si Si3 0.454770 0.886538 0.649590
Si Si4 0.857082 0.309441 0.464284
Si Si5 0.785415 0.928157 0.988866
Si Si6 0.855545 0.668134 0.820676
Si Si7 0.719648 0.178873 0.991105
O O1 0.242020 0.531118 0.729678
O O2 0.522609 0.270168 0.946375
O O3 0.116720 0.335006 0.610412
O O4 0.142478 0.251828 0.889273
O O5 0.500000 0.500000 0.500000
O O6 0.288949 0.697641 0.464871
O O7 0.726074 0.686225 0.613322
O O8 0.369191 0.762531 0.222139
O O9 0.201952 0.835699 0.562794
O O10 0.550863 0.959220 0.780787
O O11 0.634932 0.729088 0.782565
O O12 0.500000 0.000000 0.500000
O O13 0.745725 0.999674 0.076282
O O14 0.000000 0.000000 0.000000
O O15 0.000000 0.500000 0.000000
O O16 0.036707 0.778923 0.874442
#
# Coordination Sequence:
#
# PCOD9040565 Si02
#       7
#     2   2   2   2   2   2   2
#     4  11  24  43  64  98 139 176 221 285 346 400
#     4  11  20  40  69  99 132 178 226 274 344 403
#     4  11  23  44  69 101 134 177 238 279 334 417
#     4  10  23  43  67  96 139 181 220 281 340 402
#     4  12  24  43  69  93 128 185 224 277 345 410
#     4  11  22  38  69 103 132 174 233 287 326 405
#     4  12  23  43  66 102 139 174 228 283 342 404
#
# _framework density 26.272708999999999
#
# number of rings (size 3 to 8) (size 9 to 14) (size 15 to 20)
#    0.000    0.857    4.286    4.714    0.000    0.571 
#    2.571    0.714    0.000    0.000    0.000    0.000 
#    0.000    0.000    0.000    0.000    0.000    0.000 
#
# Total GULP energy -78250.041496 kJ/mol
# GULP energy per Si atom -5589.288678 kJ/mol
# Density = 2.621291 g / cm^3
# Si number density = 26.272709 Si / 1000 Ang^3
#
#
#
# Elastic Constant Matrix: (Units=GPa)
#
#
# Indices 1 2 3 4 5 6 
#
# 1 44.3475 -5.8994 -0.7531 8.5595 9.5332 14.6879
# 2 -5.8994 173.5766 50.0140 30.1330 -6.0763 26.0854
# 3 -0.7531 50.0140 122.8126 23.2771 1.1555 13.8862
# 4 8.5595 30.1330 23.2771 69.1813 9.5181 3.7250
# 5 9.5332 -6.0763 1.1555 9.5181 35.6515 1.3393
# 6 14.6879 26.0854 13.8862 3.7250 1.3393 39.0237
#
#
#
# Elastic Compliance Matrix: (Units=1/GPa)
#
#
# Indices 1 2 3 4 5 6 
#
# 1 0.029245 0.003058 0.001177 -0.003851 -0.005824 -0.012903
# 2 0.003058 0.007845 -0.001997 -0.003051 0.001603 -0.005448
# 3 0.001177 -0.001997 0.009677 -0.002373 -0.000248 -0.002317
# 4 -0.003851 -0.003051 -0.002373 0.017483 -0.004186 0.002808
# 5 -0.005824 0.001603 -0.000248 -0.004186 0.030985 0.000545
# 6 -0.012903 -0.005448 -0.002317 0.002808 0.000545 0.034662
#
#
# Mechanical properties :
#
#
# Convention : Reuss Voigt Hill
#
# Bulk Modulus (GPa) = 19.51425 47.49550 33.50488
# Shear Modulus (GPa) = 35.08761 48.59632 41.84197
#
# Velocity S-wave (km/s) = 3.65844 4.30547 3.99507
# Velocity P-wave (km/s) = 5.02884 6.54471 5.83620
#
# Compressibility (1/GPa) = 0.05124459
#
# Stress axis : x y z
#
# Youngs Moduli (GPa) = 34.19411 127.47004 103.33836
#
# Poissons Ratio (x) = -0.38985 -0.12167
# Poissons Ratio (y) = -0.10458 0.20635
# Poissons Ratio (z) = -0.04026 0.25454
#
# Static dielectric constant tensor:
#      x y z
#    x 2.145900 -0.018490 0.002920 
#    y -0.018490 2.082720 -0.014950 
#    z 0.002920 -0.014950 2.234700 
# 
# From -- ./inp_files/222464.got.cif
#   From: 2010.05.17/outbox.cif.g08.bks.cpg/sg2_112_cif.got.tgz:222464.got - 2010.06.03 11:33:40.
