data_PCOD9040349
_publ_section_title
;
Structure prediction by ZEFSAII (Michael W. Deem and Ramdas Pophale) SiO2 
 PCOD9040349
Probable space group: P -1
;
_chemical_formula_sum "Si O2"
_cell_formula_units_Z 16
_cell_length_a 13.053451
_cell_length_b 26.198755
_cell_length_c 13.509024
_cell_angle_alpha 18.358267
_cell_angle_beta 32.684458
_cell_angle_gamma 34.276998
_cell_volume 775.411514
_symmetry_space_group_name_H-M "P -1"
_symmetry_group_IT_number 2
_symmetry_cell_setting 'triclinic'
loop_
_space_group_symop_operation_xyz
x,y,z
-x,-y,-z
loop_
_atom_site_type_symbol
_atom_site_label
_atom_site_fract_x
_atom_site_fract_y
_atom_site_fract_z
Si Si1 0.599350 0.155845 0.886979
Si Si2 0.987170 0.054328 0.297944
Si Si3 0.824185 0.786417 0.790861
Si Si4 0.071160 0.434464 0.259429
Si Si5 0.598196 0.391835 0.275515
Si Si6 0.982706 0.180814 0.632916
Si Si7 0.726968 0.822449 0.293726
Si Si8 0.337064 0.674043 0.873275
O O1 0.568165 0.244568 0.642083
O O2 0.768007 0.222765 0.685643
O O3 0.399998 0.180740 0.061383
O O4 0.677934 0.965431 0.151526
O O5 0.820712 0.212107 0.144873
O O6 0.927235 0.913187 0.537257
O O7 0.000000 0.000000 0.500000
O O8 0.186052 0.101289 0.012103
O O9 0.873601 0.818179 0.578375
O O10 0.915996 0.599203 0.087147
O O11 0.108329 0.318782 0.538371
O O12 0.022906 0.317877 0.425464
O O13 0.276879 0.497102 0.967493
O O14 0.716324 0.343894 0.165666
O O15 0.403890 0.500901 0.192087
O O16 0.000000 0.000000 0.000000
O O17 0.531156 0.753888 0.561717
#
# Coordination Sequence:
#
# PCOD9040349 Si02
#       8
#     2   2   2   2   2   2   2   2
#     4  12  24  43  67 101 132 177 221 277 334 397
#     4  12  24  40  68  99 137 182 227 266 335 401
#     4  12  26  42  68 103 133 172 229 274 332 406
#     4  11  23  47  70  94 135 177 220 285 332 391
#     4  10  23  44  68  96 144 170 228 276 333 392
#     4  12  25  49  71  94 135 178 223 283 336 392
#     4  11  23  43  69  97 137 178 221 272 338 392
#     4  10  23  43  66 101 134 186 218 276 329 399
#
# _framework density 20.634205000000001
#
# number of rings (size 3 to 8) (size 9 to 14) (size 15 to 20)
#    0.000    0.750    5.000    1.875    3.500    2.000 
#    0.000    2.500    0.000    0.000    0.000    0.000 
#    0.000    0.000    0.000    0.000    0.000    0.000 
#
# Total GULP energy -89441.306058 kJ/mol
# GULP energy per Si atom -5590.081629 kJ/mol
# Density = 2.058724 g / cm^3
# Si number density = 20.634205 Si / 1000 Ang^3
#
#
#
# Elastic Constant Matrix: (Units=GPa)
#
#
# Indices 1 2 3 4 5 6 
#
# 1 65.8917 4.5003 16.5744 2.4247 -6.4294 3.9694
# 2 4.5003 93.5076 32.9113 -3.4452 5.6516 -11.9009
# 3 16.5744 32.9113 79.2928 -1.6732 11.4040 -3.3568
# 4 2.4247 -3.4452 -1.6732 40.2147 6.0164 -7.1447
# 5 -6.4294 5.6516 11.4040 6.0164 33.2186 -11.3458
# 6 3.9694 -11.9009 -3.3568 -7.1447 -11.3458 24.7516
#
#
#
# Elastic Compliance Matrix: (Units=1/GPa)
#
#
# Indices 1 2 3 4 5 6 
#
# 1 0.016894 0.000141 -0.004363 -0.002183 0.004528 -0.001788
# 2 0.000141 0.013502 -0.005538 0.001917 0.001691 0.007047
# 3 -0.004363 -0.005538 0.016698 0.001045 -0.006661 -0.002450
# 4 -0.002183 0.001917 0.001045 0.027077 -0.003390 0.007675
# 5 0.004528 0.001691 -0.006661 -0.003390 0.039102 0.016129
# 6 -0.001788 0.007047 -0.002450 0.007675 0.016129 0.053353
#
#
# Mechanical properties :
#
#
# Convention : Reuss Voigt Hill
#
# Bulk Modulus (GPa) = 36.26553 38.51825 37.39189
# Shear Modulus (GPa) = 25.59679 31.95071 28.77375
#
# Velocity S-wave (km/s) = 3.52590 3.93928 3.73831
# Velocity P-wave (km/s) = 5.84718 6.27681 6.06580
#
# Compressibility (1/GPa) = 0.02757440
#
# Stress axis : x y z
#
# Youngs Moduli (GPa) = 59.19220 74.06319 59.88617
#
# Poissons Ratio (x) = -0.01043 0.26127
# Poissons Ratio (y) = -0.00834 0.33165
# Poissons Ratio (z) = 0.25825 0.41016
#
# Static dielectric constant tensor:
#      x y z
#    x 1.765590 -0.004780 0.019200 
#    y -0.004780 1.726870 -0.039370 
#    z 0.019200 -0.039370 1.761410 
# 
# From -- ./inp_files/274102.got.cif
#   From: 2010.05.17/outbox.cif.g08.bks.cpg/sg2_138_cif.got.tgz:274102.got - 2010.06.03 11:33:40.
