data_PCOD9040741
_publ_section_title
;
Structure prediction by ZEFSAII (Michael W. Deem and Ramdas Pophale) SiO2 
 PCOD9040741
Probable space group: P -1
;
_chemical_formula_sum "Si O2"
_cell_formula_units_Z 12
_cell_length_a 10.021768
_cell_length_b 7.029883
_cell_length_c 12.683891
_cell_angle_alpha 52.671603
_cell_angle_beta 129.115459
_cell_angle_gamma 93.996252
_cell_volume 475.166169
_symmetry_space_group_name_H-M "P -1"
_symmetry_group_IT_number 2
_symmetry_cell_setting 'triclinic'
loop_
_space_group_symop_operation_xyz
x,y,z
-x,-y,-z
loop_
_atom_site_type_symbol
_atom_site_label
_atom_site_fract_x
_atom_site_fract_y
_atom_site_fract_z
Si Si1 0.170355 0.677721 0.219949
Si Si2 0.428748 0.493392 0.617094
Si Si3 0.078000 0.545641 0.914108
Si Si4 0.166792 0.575883 0.655796
Si Si5 0.189995 0.916774 0.752859
Si Si6 0.596193 0.851947 0.937294
O O1 0.280772 0.657103 0.391815
O O2 0.357587 0.527879 0.282081
O O3 0.066986 0.490389 0.228375
O O4 0.000000 0.000000 0.000000
O O5 0.309609 0.586863 0.634843
O O6 0.501086 0.168948 0.755836
O O7 0.089062 0.823768 0.822754
O O8 0.296194 0.313256 0.059678
O O9 0.000000 0.500000 0.000000
O O10 0.176343 0.749480 0.701538
O O11 0.245250 0.271696 0.845907
O O12 0.940792 0.756491 0.443159
O O13 0.420140 0.814066 0.908475
#
# Coordination Sequence:
#
# PCOD9040741 Si02
#       6
#     2   2   2   2   2   2
#     4  11  26  47  65  99 145 171 235 273 329 416
#     4  11  26  43  71 101 131 189 219 280 340 394
#     4  11  25  45  73  97 135 186 219 280 341 392
#     4  10  23  43  68  97 134 178 220 277 339 388
#     4  10  25  44  66 103 137 170 231 278 329 407
#     4  11  24  45  68 104 136 169 233 278 330 405
#
# _framework density 25.254324
#
# number of rings (size 3 to 8) (size 9 to 14) (size 15 to 20)
#    0.000    1.333    1.667    2.500   14.000    0.667 
#    0.000    1.667    0.000    0.000    0.000    0.000 
#    0.000    0.000    0.000    0.000    0.000    0.000 
#
# Total GULP energy -67116.813482 kJ/mol
# GULP energy per Si atom -5593.067790 kJ/mol
# Density = 2.519684 g / cm^3
# Si number density = 25.254324 Si / 1000 Ang^3
#
#
#
# Elastic Constant Matrix: (Units=GPa)
#
#
# Indices 1 2 3 4 5 6 
#
# 1 190.9416 16.5824 55.5389 -0.9624 1.8284 -8.5246
# 2 16.5824 36.5857 21.8692 -12.9168 3.5376 3.4558
# 3 55.5389 21.8692 170.0231 -15.5107 5.6708 -2.4005
# 4 -0.9624 -12.9168 -15.5107 33.8277 -1.5798 -3.0548
# 5 1.8284 3.5376 5.6708 -1.5798 41.6418 7.9337
# 6 -8.5246 3.4558 -2.4005 -3.0548 7.9337 48.1278
#
#
#
# Elastic Compliance Matrix: (Units=1/GPa)
#
#
# Indices 1 2 3 4 5 6 
#
# 1 0.005990 -0.002241 -0.001779 -0.001410 -0.000085 0.001058
# 2 -0.002241 0.034346 -0.002600 0.011602 -0.001647 -0.001985
# 3 -0.001779 -0.002600 0.007026 0.002189 -0.000664 0.000470
# 4 -0.001410 0.011602 0.002189 0.035064 -0.000134 0.001274
# 5 -0.000085 -0.001647 -0.000664 -0.000134 0.025017 -0.004063
# 6 0.001058 -0.001985 0.000470 0.001274 -0.004063 0.021882
#
#
# Mechanical properties :
#
#
# Convention : Reuss Voigt Hill
#
# Bulk Modulus (GPa) = 29.30737 65.05905 47.18321
# Shear Modulus (GPa) = 32.48001 44.95679 38.71840
#
# Velocity S-wave (km/s) = 3.59014 4.22377 3.91978
# Velocity P-wave (km/s) = 5.36801 7.04305 6.26179
#
# Compressibility (1/GPa) = 0.03412111
#
# Stress axis : x y z
#
# Youngs Moduli (GPa) = 166.93664 29.11534 142.33262
#
# Poissons Ratio (x) = 0.06524 0.25326
# Poissons Ratio (y) = 0.37407 0.37013
# Poissons Ratio (z) = 0.29704 0.07571
#
# Static dielectric constant tensor:
#      x y z
#    x 2.006270 -0.012030 -0.036180 
#    y -0.012030 2.037460 -0.013720 
#    z -0.036180 -0.013720 2.043850 
# 
# From -- ./inp_files/377796.got.cif
#   From: 2010.05.17/outbox.cif.g08.bks.cpg/sg2_189_cif.got.tgz:377796.got - 2010.06.03 11:33:40.
