data_PCOD9040964
_publ_section_title
;
Structure prediction by ZEFSAII (Michael W. Deem and Ramdas Pophale) SiO2 
 PCOD9040964
Probable space group: P -1
;
_chemical_formula_sum "Si O2"
_cell_formula_units_Z 14
_cell_length_a 11.406070
_cell_length_b 8.856933
_cell_length_c 9.255355
_cell_angle_alpha 131.672769
_cell_angle_beta 87.760600
_cell_angle_gamma 114.934163
_cell_volume 591.784615
_symmetry_space_group_name_H-M "P -1"
_symmetry_group_IT_number 2
_symmetry_cell_setting 'triclinic'
loop_
_space_group_symop_operation_xyz
x,y,z
-x,-y,-z
loop_
_atom_site_type_symbol
_atom_site_label
_atom_site_fract_x
_atom_site_fract_y
_atom_site_fract_z
Si Si1 0.353276 0.946520 0.258500
Si Si2 0.926913 0.004895 0.359708
Si Si3 0.506585 0.269926 0.017116
Si Si4 0.923873 0.737196 0.761772
Si Si5 0.370179 0.209201 0.677790
Si Si6 0.352808 0.304197 0.307828
Si Si7 0.103619 0.464885 0.071934
O O1 0.437096 0.904917 0.105045
O O2 0.251784 0.696648 0.178325
O O3 0.435554 0.131640 0.500426
O O4 0.280114 0.071382 0.266281
O O5 0.787588 0.986660 0.406674
O O6 0.890932 0.761633 0.125938
O O7 0.000000 0.000000 0.500000
O O8 0.009447 0.212420 0.369149
O O9 0.451227 0.251682 0.847376
O O10 0.621892 0.548125 0.213316
O O11 0.390277 0.224688 0.107311
O O12 0.760223 0.629782 0.676943
O O13 0.936411 0.578825 0.784638
O O14 0.000000 0.000000 0.000000
O O15 0.500000 0.500000 0.500000
O O16 0.000000 0.500000 0.000000
#
# Coordination Sequence:
#
# PCOD9040964 Si02
#       7
#     2   2   2   2   2   2   2
#     4  12  24  43  68 103 139 182 240 293 352 427
#     4  11  22  43  70 100 141 188 232 289 366 423
#     4  11  24  42  68  99 140 183 233 292 353 422
#     4  10  23  43  70 100 141 192 233 293 364 426
#     4  11  23  42  68 100 135 185 231 289 357 419
#     4  12  25  44  70 105 146 188 237 297 366 430
#     4  11  23  42  68 103 139 186 244 299 351 427
#
# _framework density 23.657253999999998
#
# number of rings (size 3 to 8) (size 9 to 14) (size 15 to 20)
#    0.000    0.857    2.857    6.000    2.000    1.143 
#    0.000    4.286    0.000    0.000    0.000    0.000 
#    0.000    0.000    0.000    0.000    0.000    0.000 
#
# Total GULP energy -78219.133019 kJ/mol
# GULP energy per Si atom -5587.080930 kJ/mol
# Density = 2.360341 g / cm^3
# Si number density = 23.657254 Si / 1000 Ang^3
#
#
#
# Elastic Constant Matrix: (Units=GPa)
#
#
# Indices 1 2 3 4 5 6 
#
# 1 79.8575 22.7305 11.0693 -1.6561 3.6998 1.7667
# 2 22.7305 153.0148 28.9348 -30.9277 3.5733 -1.0608
# 3 11.0693 28.9348 105.0556 -9.8995 -13.3680 7.0601
# 4 -1.6561 -30.9277 -9.8995 32.9520 1.6774 -1.6265
# 5 3.6998 3.5733 -13.3680 1.6774 36.0814 -3.8220
# 6 1.7667 -1.0608 7.0601 -1.6265 -3.8220 38.7941
#
#
#
# Elastic Compliance Matrix: (Units=1/GPa)
#
#
# Indices 1 2 3 4 5 6 
#
# 1 0.013318 -0.002042 -0.001143 -0.001543 -0.001587 -0.000675
# 2 -0.002042 0.008770 -0.001727 0.007730 -0.001572 0.000816
# 3 -0.001143 -0.001727 0.010860 0.001301 0.004091 -0.001514
# 4 -0.001543 0.007730 0.001301 0.038077 -0.001740 0.001470
# 5 -0.001587 -0.001572 0.004091 -0.001740 0.029858 0.002154
# 6 -0.000675 0.000816 -0.001514 0.001470 0.002154 0.026379
#
#
# Mechanical properties :
#
#
# Convention : Reuss Voigt Hill
#
# Bulk Modulus (GPa) = 43.24301 51.48857 47.36579
# Shear Modulus (GPa) = 34.53187 39.91172 37.22179
#
# Velocity S-wave (km/s) = 3.82471 4.11187 3.97089
# Velocity P-wave (km/s) = 6.15006 6.65995 6.41007
#
# Compressibility (1/GPa) = 0.02312512
#
# Stress axis : x y z
#
# Youngs Moduli (GPa) = 75.08435 114.02563 92.08360
#
# Poissons Ratio (x) = 0.23282 0.10524
# Poissons Ratio (y) = 0.15331 0.15901
# Poissons Ratio (z) = 0.08581 0.19690
#
# Static dielectric constant tensor:
#      x y z
#    x 1.923660 -0.018890 -0.019520 
#    y -0.018890 1.951580 0.008740 
#    z -0.019520 0.008740 1.925260 
# 
# From -- ./inp_files/188975.got.cif
#   From: 2010.05.17/outbox.cif.g08.bks.cpg/sg2_95_cif.got.tgz:188975.got - 2010.06.03 11:33:40.
