data_PCOD9040520
_publ_section_title
;
Structure prediction by ZEFSAII (Michael W. Deem and Ramdas Pophale) SiO2 
 PCOD9040520
Probable space group: P -1
;
_chemical_formula_sum "Si O2"
_cell_formula_units_Z 16
_cell_length_a 17.056908
_cell_length_b 5.357366
_cell_length_c 8.279345
_cell_angle_alpha 116.876046
_cell_angle_beta 81.087159
_cell_angle_gamma 108.570110
_cell_volume 639.657975
_symmetry_space_group_name_H-M "P -1"
_symmetry_group_IT_number 2
_symmetry_cell_setting 'triclinic'
loop_
_space_group_symop_operation_xyz
x,y,z
-x,-y,-z
loop_
_atom_site_type_symbol
_atom_site_label
_atom_site_fract_x
_atom_site_fract_y
_atom_site_fract_z
Si Si1 0.750847 0.933038 0.467945
Si Si2 0.760996 0.393714 0.134924
Si Si3 0.024070 0.811969 0.175475
Si Si4 0.825981 0.820217 0.957059
Si Si5 0.307424 0.309678 0.275453
Si Si6 0.927524 0.211508 0.482158
Si Si7 0.406372 0.925990 0.064664
Si Si8 0.593876 0.099489 0.552797
O O1 0.739239 0.949242 0.668205
O O2 0.832609 0.173155 0.452751
O O3 0.661378 0.935442 0.429926
O O4 0.766566 0.620144 0.343631
O O5 0.789915 0.103883 0.075673
O O6 0.666771 0.314266 0.071874
O O7 0.817868 0.601085 0.042809
O O8 0.083727 0.044620 0.104931
O O9 0.071135 0.802962 0.327710
O O10 0.953389 0.950180 0.306600
O O11 0.000000 0.500000 0.000000
O O12 0.763404 0.628323 0.789622
O O13 0.363303 0.579295 0.432802
O O14 0.374060 0.207143 0.121638
O O15 0.000000 0.500000 0.500000
O O16 0.406055 0.885537 0.247034
O O17 0.500000 0.000000 0.000000
O O18 0.500000 0.000000 0.500000
#
# Coordination Sequence:
#
# PCOD9040520 Si02
#       8
#     2   2   2   2   2   2   2   2
#     4  11  26  45  68 101 146 186 242 306 367 450
#     4  11  26  44  73 108 137 199 241 304 372 442
#     4  11  26  45  74 107 149 196 250 314 373 457
#     4  11  24  47  72 102 147 190 247 297 370 441
#     4  10  23  43  67  92 139 189 234 289 374 430
#     4  11  27  45  72 109 147 196 251 311 381 448
#     4  10  24  42  64  96 137 179 241 302 360 436
#     4  11  26  42  69  97 135 193 236 302 367 437
#
# _framework density 25.013368
#
# number of rings (size 3 to 8) (size 9 to 14) (size 15 to 20)
#    0.000    1.250    2.500    0.750   10.500    3.000 
#    0.000    0.000    0.000    0.000    0.000    0.000 
#    0.000    0.000    0.000    0.000    0.000    0.000 
#
# Total GULP energy -89389.448323 kJ/mol
# GULP energy per Si atom -5586.840520 kJ/mol
# Density = 2.495644 g / cm^3
# Si number density = 25.013368 Si / 1000 Ang^3
#
#
#
# Elastic Constant Matrix: (Units=GPa)
#
#
# Indices 1 2 3 4 5 6 
#
# 1 154.5140 44.5366 55.7332 10.3303 -11.9296 30.5414
# 2 44.5366 119.7717 35.7713 6.2894 -12.0034 22.3348
# 3 55.7332 35.7713 98.2908 11.5570 -16.9161 15.5079
# 4 10.3303 6.2894 11.5570 43.8276 -1.5719 -6.7437
# 5 -11.9296 -12.0034 -16.9161 -1.5719 41.1321 1.8545
# 6 30.5414 22.3348 15.5079 -6.7437 1.8545 40.7913
#
#
#
# Elastic Compliance Matrix: (Units=1/GPa)
#
#
# Indices 1 2 3 4 5 6 
#
# 1 0.009397 -0.001206 -0.003647 -0.001865 0.001043 -0.005344
# 2 -0.001206 0.010470 -0.001921 -0.001317 0.002064 -0.004411
# 3 -0.003647 -0.001921 0.014390 -0.002868 0.004296 -0.002358
# 4 -0.001865 -0.001317 -0.002868 0.025296 -0.001474 0.007456
# 5 0.001043 0.002064 0.004296 -0.001474 0.027154 -0.005023
# 6 -0.005344 -0.004411 -0.002358 0.007456 -0.005023 0.033289
#
#
# Mechanical properties :
#
#
# Convention : Reuss Voigt Hill
#
# Bulk Modulus (GPa) = 48.28860 71.62872 59.95866
# Shear Modulus (GPa) = 35.60114 40.91923 38.26018
#
# Velocity S-wave (km/s) = 3.77674 4.04901 3.91524
# Velocity P-wave (km/s) = 6.19398 7.11039 6.66794
#
# Compressibility (1/GPa) = 0.02070882
#
# Stress axis : x y z
#
# Youngs Moduli (GPa) = 106.42127 95.51307 69.49503
#
# Poissons Ratio (x) = 0.11516 0.25347
# Poissons Ratio (y) = 0.12831 0.13347
# Poissons Ratio (z) = 0.38815 0.18344
#
# Static dielectric constant tensor:
#      x y z
#    x 2.001530 -0.033510 0.000100 
#    y -0.033510 2.025670 0.015450 
#    z 0.000100 0.015450 2.065650 
# 
# From -- ./inp_files/124735.got.cif
#   From: 2010.05.17/outbox.cif.g08.bks.cpg/sg2_63_cif.got.tgz:124735.got - 2010.06.03 11:33:40.
