data_PCOD9040461
_publ_section_title
;
Structure prediction by ZEFSAII (Michael W. Deem and Ramdas Pophale) SiO2 
 PCOD9040461
Probable space group: P -1
;
_chemical_formula_sum "Si O2"
_cell_formula_units_Z 16
_cell_length_a 6.609339
_cell_length_b 21.059312
_cell_length_c 13.487707
_cell_angle_alpha 152.133787
_cell_angle_beta 103.663798
_cell_angle_gamma 62.067333
_cell_volume 699.633610
_symmetry_space_group_name_H-M "P -1"
_symmetry_group_IT_number 2
_symmetry_cell_setting 'triclinic'
loop_
_space_group_symop_operation_xyz
x,y,z
-x,-y,-z
loop_
_atom_site_type_symbol
_atom_site_label
_atom_site_fract_x
_atom_site_fract_y
_atom_site_fract_z
Si Si1 0.551290 0.909990 0.041626
Si Si2 0.967338 0.111310 0.992779
Si Si3 0.406117 0.807410 0.246239
Si Si4 0.903001 0.514829 0.797153
Si Si5 0.216237 0.633857 0.107219
Si Si6 0.563199 0.625260 0.721151
Si Si7 0.963960 0.833766 0.708868
Si Si8 0.278572 0.087768 0.462225
O O1 0.405302 0.996636 0.247400
O O2 0.802536 0.900599 0.047783
O O3 0.607255 0.729299 0.790654
O O4 0.329092 0.033960 0.112918
O O5 0.712102 0.231669 0.067705
O O6 0.903882 0.197458 0.213088
O O7 0.037805 0.930060 0.777884
O O8 0.230215 0.761604 0.214505
O O9 0.532782 0.862365 0.414823
O O10 0.297858 0.952571 0.352879
O O11 0.644837 0.635368 0.993361
O O12 0.796288 0.559109 0.732640
O O13 0.003218 0.324632 0.553428
O O14 0.103030 0.550703 0.912784
O O15 0.005176 0.746647 0.323058
O O16 0.500000 0.500000 0.000000
O O17 0.500000 0.500000 0.500000
#
# Coordination Sequence:
#
# PCOD9040461 Si02
#       8
#     2   2   2   2   2   2   2   2
#     4  11  24  42  72 104 138 186 239 280 351 417
#     4  10  23  45  69 100 141 190 233 282 351 411
#     4  10  23  45  70 100 137 184 230 290 355 411
#     4  11  24  46  68 103 141 178 232 293 344 418
#     4  11  27  45  74 105 138 185 231 290 363 419
#     4  11  23  46  69 101 143 184 231 292 337 413
#     4  10  23  43  67 100 145 181 231 290 342 416
#     4  10  23  46  71 100 142 178 237 297 336 426
#
# _framework density 22.869111
#
# number of rings (size 3 to 8) (size 9 to 14) (size 15 to 20)
#    0.000    1.500    2.500    0.750    3.500    5.500 
#    2.250    0.000    0.000    0.000    0.000    0.000 
#    0.000    0.000    0.000    0.000    0.000    0.000 
#
# Total GULP energy -89220.575488 kJ/mol
# GULP energy per Si atom -5576.285968 kJ/mol
# Density = 2.281706 g / cm^3
# Si number density = 22.869111 Si / 1000 Ang^3
#
#
#
# Elastic Constant Matrix: (Units=GPa)
#
#
# Indices 1 2 3 4 5 6 
#
# 1 159.8283 50.9125 73.0874 13.7223 19.1126 -9.5000
# 2 50.9125 73.0816 49.0384 8.2145 9.9068 -18.1126
# 3 73.0874 49.0384 149.4793 6.0782 43.4282 1.6942
# 4 13.7223 8.2145 6.0782 38.2730 -5.9054 0.5814
# 5 19.1126 9.9068 43.4282 -5.9054 26.9355 1.3201
# 6 -9.5000 -18.1126 1.6942 0.5814 1.3201 31.9287
#
#
#
# Elastic Compliance Matrix: (Units=1/GPa)
#
#
# Indices 1 2 3 4 5 6 
#
# 1 0.009140 -0.003926 -0.002801 -0.002160 -0.001035 0.000723
# 2 -0.003926 0.024184 -0.007508 -0.002025 0.004925 0.012783
# 3 -0.002801 -0.007508 0.017956 -0.003993 -0.024835 -0.004946
# 4 -0.002160 -0.002025 -0.003993 0.030408 0.015518 -0.002775
# 5 -0.001035 0.004925 -0.024835 0.015518 0.079481 0.000235
# 6 0.000723 0.012783 -0.004946 -0.002775 0.000235 0.039090
#
#
# Mechanical properties :
#
#
# Convention : Reuss Voigt Hill
#
# Bulk Modulus (GPa) = 43.83754 80.94063 62.38908
# Shear Modulus (GPa) = 21.15673 33.38417 27.27045
#
# Velocity S-wave (km/s) = 3.04488 3.82487 3.45694
# Velocity P-wave (km/s) = 5.61892 7.41458 6.57831
#
# Compressibility (1/GPa) = 0.02281150
#
# Stress axis : x y z
#
# Youngs Moduli (GPa) = 109.40553 41.34951 55.69161
#
# Poissons Ratio (x) = 0.16233 0.15598
# Poissons Ratio (y) = 0.42951 0.41812
# Poissons Ratio (z) = 0.30643 0.31044
#
# Static dielectric constant tensor:
#      x y z
#    x 1.833710 -0.059340 0.033740 
#    y -0.059340 2.016490 -0.015780 
#    z 0.033740 -0.015780 1.892150 
# 
# From -- ./inp_files/485597.got.cif
#   From: 2010.05.17/outbox.cif.g08.bks.cpg/sg2_243_cif.got.tgz:485597.got - 2010.06.03 11:33:40.
