data_PCOD9040952
_publ_section_title
;
Structure prediction by ZEFSAII (Michael W. Deem and Ramdas Pophale) SiO2 
 PCOD9040952
Probable space group: P -1
;
_chemical_formula_sum "Si O2"
_cell_formula_units_Z 12
_cell_length_a 7.699180
_cell_length_b 17.184219
_cell_length_c 5.010831
_cell_angle_alpha 47.381758
_cell_angle_beta 103.162622
_cell_angle_gamma 91.746029
_cell_volume 467.904793
_symmetry_space_group_name_H-M "P -1"
_symmetry_group_IT_number 2
_symmetry_cell_setting 'triclinic'
loop_
_space_group_symop_operation_xyz
x,y,z
-x,-y,-z
loop_
_atom_site_type_symbol
_atom_site_label
_atom_site_fract_x
_atom_site_fract_y
_atom_site_fract_z
Si Si1 0.848953 0.433703 0.206760
Si Si2 0.153068 0.291636 0.956547
Si Si3 0.604525 0.036185 0.702101
Si Si4 0.647905 0.653951 0.604853
Si Si5 0.056306 0.090290 0.126036
Si Si6 0.698056 0.243444 0.448919
O O1 0.774065 0.353129 0.162514
O O2 0.958042 0.362188 0.645988
O O3 0.686438 0.529469 0.996727
O O4 0.000000 0.500000 0.000000
O O5 0.295695 0.336236 0.705373
O O6 0.211077 0.296922 0.269799
O O7 0.152584 0.171011 0.146172
O O8 0.611939 0.163279 0.413230
O O9 0.500000 0.000000 0.500000
O O10 0.806067 0.967683 0.910672
O O11 0.500000 0.000000 0.000000
O O12 0.451609 0.716170 0.471060
O O13 0.000000 0.000000 0.500000
O O14 0.875312 0.163426 0.790638
#
# Coordination Sequence:
#
# PCOD9040952 Si02
#       6
#     2   2   2   2   2   2
#     4   9  21  43  70 101 139 182 230 286 347 413
#     4  10  23  43  69  99 139 186 232 283 347 414
#     4  12  26  47  70  99 137 183 232 287 344 411
#     4  11  22  44  68 101 137 181 230 286 345 417
#     4  11  25  45  70 104 142 185 236 294 352 418
#     4  11  24  42  70 104 139 183 232 288 351 417
#
# _framework density 25.646242000000001
#
# number of rings (size 3 to 8) (size 9 to 14) (size 15 to 20)
#    0.000    1.333    0.000    4.500    0.000    6.667 
#    0.000   17.500    0.000    0.000    0.000    0.000 
#    0.000    0.000    0.000    0.000    0.000    0.000 
#
# Total GULP energy -67201.767370 kJ/mol
# GULP energy per Si atom -5600.147281 kJ/mol
# Density = 2.558787 g / cm^3
# Si number density = 25.646242 Si / 1000 Ang^3
#
#
#
# Elastic Constant Matrix: (Units=GPa)
#
#
# Indices 1 2 3 4 5 6 
#
# 1 161.5874 47.8523 47.1317 -12.9792 18.7002 -20.4424
# 2 47.8523 159.3948 50.5829 -36.0370 -9.8328 12.8564
# 3 47.1317 50.5829 76.4113 -23.7003 6.2304 -15.8673
# 4 -12.9792 -36.0370 -23.7003 57.2673 -7.2458 -2.8628
# 5 18.7002 -9.8328 6.2304 -7.2458 44.6661 -15.7965
# 6 -20.4424 12.8564 -15.8673 -2.8628 -15.7965 52.5009
#
#
#
# Elastic Compliance Matrix: (Units=1/GPa)
#
#
# Indices 1 2 3 4 5 6 
#
# 1 0.008266 -0.001907 -0.003596 -0.001110 -0.002978 0.001642
# 2 -0.001907 0.009812 -0.005120 0.003828 0.003030 -0.003572
# 3 -0.003596 -0.005120 0.021751 0.005395 0.000668 0.006923
# 4 -0.001110 0.003828 0.005395 0.022682 0.005331 0.003102
# 5 -0.002978 0.003030 0.000668 0.005331 0.027502 0.006866
# 6 0.001642 -0.003572 0.006923 0.003102 0.006866 0.024889
#
#
# Mechanical properties :
#
#
# Convention : Reuss Voigt Hill
#
# Bulk Modulus (GPa) = 53.81873 76.50305 65.16089
# Shear Modulus (GPa) = 35.12655 47.67528 41.40092
#
# Velocity S-wave (km/s) = 3.70490 4.31624 4.02220
# Velocity P-wave (km/s) = 6.27155 7.39830 6.85810
#
# Compressibility (1/GPa) = 0.01858089
#
# Stress axis : x y z
#
# Youngs Moduli (GPa) = 120.98353 101.91889 45.97398
#
# Poissons Ratio (x) = 0.19439 0.16533
# Poissons Ratio (y) = 0.23075 0.23541
# Poissons Ratio (z) = 0.43508 0.52187
#
# Static dielectric constant tensor:
#      x y z
#    x 2.056600 0.049840 0.041570 
#    y 0.049840 2.124280 0.014160 
#    z 0.041570 0.014160 2.000180 
# 
# From -- ./inp_files/42974.got.cif
#   From: 2010.05.17/outbox.cif.g08.bks.cpg/sg2_22_cif.got.tgz:42974.got - 2010.06.03 11:33:40.
