data_PCOD9040687
_publ_section_title
;
Structure prediction by ZEFSAII (Michael W. Deem and Ramdas Pophale) SiO2 
 PCOD9040687
Probable space group: P -1
;
_chemical_formula_sum "Si O2"
_cell_formula_units_Z 12
_cell_length_a 5.067962
_cell_length_b 9.007156
_cell_length_c 16.141973
_cell_angle_alpha 133.671777
_cell_angle_beta 60.443741
_cell_angle_gamma 100.547731
_cell_volume 448.840007
_symmetry_space_group_name_H-M "P -1"
_symmetry_group_IT_number 2
_symmetry_cell_setting 'triclinic'
loop_
_space_group_symop_operation_xyz
x,y,z
-x,-y,-z
loop_
_atom_site_type_symbol
_atom_site_label
_atom_site_fract_x
_atom_site_fract_y
_atom_site_fract_z
Si Si1 0.528829 0.867410 0.800503
Si Si2 0.288371 0.502441 0.253777
Si Si3 0.623058 0.058156 0.589172
Si Si4 0.863219 0.466955 0.900202
Si Si5 0.025476 0.857940 0.115399
Si Si6 0.711893 0.667489 0.531466
O O1 0.505116 0.708763 0.816987
O O2 0.766140 0.731963 0.642113
O O3 0.217119 0.966947 0.834572
O O4 0.672089 0.049853 0.886187
O O5 0.462539 0.689682 0.291039
O O6 0.152957 0.491744 0.179274
O O7 0.002415 0.578534 0.391829
O O8 0.500000 0.000000 0.500000
O O9 0.551014 0.897034 0.605520
O O10 0.000000 0.000000 0.500000
O O11 0.008400 0.226191 0.817291
O O12 0.500000 0.500000 0.000000
O O13 0.014128 0.641125 0.986691
O O14 0.500000 0.500000 0.500000
#
# Coordination Sequence:
#
# PCOD9040687 Si02
#       6
#     2   2   2   2   2   2
#     4  12  25  46  75 113 155 195 249 319 387 456
#     4  11  26  48  76 115 154 204 256 315 385 461
#     4  10  23  43  68 106 145 196 248 300 368 455
#     4  11  25  54  77 109 150 204 263 318 379 458
#     4  11  26  50  78 108 151 200 256 321 382 447
#     4  11  24  47  75 114 159 201 249 314 387 462
#
# _framework density 26.735586999999999
#
# number of rings (size 3 to 8) (size 9 to 14) (size 15 to 20)
#    0.000    1.000    1.667    3.500    0.000    9.333 
#   18.000    0.000    0.000    0.000    0.000    0.000 
#    0.000    0.000    0.000    0.000    0.000    0.000 
#
# Total GULP energy -67224.149100 kJ/mol
# GULP energy per Si atom -5602.012425 kJ/mol
# Density = 2.667474 g / cm^3
# Si number density = 26.735587 Si / 1000 Ang^3
#
#
#
# Elastic Constant Matrix: (Units=GPa)
#
#
# Indices 1 2 3 4 5 6 
#
# 1 132.2761 64.4728 18.7133 -0.2615 18.3856 -16.5434
# 2 64.4728 284.7925 37.4377 11.2040 7.0235 -27.1853
# 3 18.7133 37.4377 86.5941 -6.1582 14.6844 -11.2341
# 4 -0.2615 11.2040 -6.1582 42.5905 -3.8350 10.1212
# 5 18.3856 7.0235 14.6844 -3.8350 56.9007 0.6711
# 6 -16.5434 -27.1853 -11.2341 10.1212 0.6711 77.5473
#
#
#
# Elastic Compliance Matrix: (Units=1/GPa)
#
#
# Indices 1 2 3 4 5 6 
#
# 1 0.009023 -0.001779 -0.000590 -0.000090 -0.002564 0.001250
# 2 -0.001779 0.004269 -0.001483 -0.001583 0.000311 0.001106
# 3 -0.000590 -0.001483 0.013068 0.001768 -0.002892 0.001042
# 4 -0.000090 -0.001583 0.001768 0.025145 0.001506 -0.003613
# 5 -0.002564 0.000311 -0.002892 0.001506 0.019227 -0.001220
# 6 0.001250 0.001106 0.001042 -0.003613 -0.001220 0.014183
#
#
# Mechanical properties :
#
#
# Convention : Reuss Voigt Hill
#
# Bulk Modulus (GPa) = 53.60249 82.76783 68.18516
# Shear Modulus (GPa) = 50.58755 60.94365 55.76560
#
# Velocity S-wave (km/s) = 4.35460 4.77959 4.57203
# Velocity P-wave (km/s) = 6.73617 7.84120 7.30960
#
# Compressibility (1/GPa) = 0.01865585
#
# Stress axis : x y z
#
# Youngs Moduli (GPa) = 110.82642 234.23260 76.52208
#
# Poissons Ratio (x) = 0.41671 0.04516
# Poissons Ratio (y) = 0.19717 0.11349
# Poissons Ratio (z) = 0.06541 0.34739
#
# Static dielectric constant tensor:
#      x y z
#    x 2.049390 -0.099440 -0.114790 
#    y -0.099440 1.982160 0.077090 
#    z -0.114790 0.077090 2.169840 
# 
# From -- ./inp_files/479453.got.cif
#   From: 2010.05.17/outbox.cif.g08.bks.cpg/sg2_240_cif.got.tgz:479453.got - 2010.06.03 11:33:40.
