data_PCOD9040954
_publ_section_title
;
Structure prediction by ZEFSAII (Michael W. Deem and Ramdas Pophale) SiO2 
 PCOD9040954
Probable space group: P -1
;
_chemical_formula_sum "Si O2"
_cell_formula_units_Z 12
_cell_length_a 16.428317
_cell_length_b 8.876301
_cell_length_c 10.772645
_cell_angle_alpha 121.668363
_cell_angle_beta 21.039280
_cell_angle_gamma 119.179146
_cell_volume 479.974904
_symmetry_space_group_name_H-M "P -1"
_symmetry_group_IT_number 2
_symmetry_cell_setting 'triclinic'
loop_
_space_group_symop_operation_xyz
x,y,z
-x,-y,-z
loop_
_atom_site_type_symbol
_atom_site_label
_atom_site_fract_x
_atom_site_fract_y
_atom_site_fract_z
Si Si1 0.394270 0.729815 0.840194
Si Si2 0.901582 0.213271 0.268959
Si Si3 0.081105 0.427996 0.487280
Si Si4 0.158860 0.330810 0.711349
Si Si5 0.348710 0.077941 0.640045
Si Si6 0.782370 0.896321 0.717030
O O1 0.582099 0.625750 0.606165
O O2 0.500906 0.769935 0.571522
O O3 0.157602 0.630019 0.134635
O O4 0.373156 0.930392 0.012085
O O5 0.815801 0.402738 0.517086
O O6 0.711051 0.076762 0.441396
O O7 0.052317 0.232247 0.938347
O O8 0.094992 0.148761 0.063946
O O9 0.243137 0.257575 0.207525
O O10 0.000000 0.500000 0.500000
O O11 0.167534 0.209678 0.525578
O O12 0.000000 0.500000 0.000000
O O13 0.500000 0.000000 0.500000
O O14 0.000000 0.000000 0.500000
#
# Coordination Sequence:
#
# PCOD9040954 Si02
#       6
#     2   2   2   2   2   2
#     4  10  25  45  70 103 140 189 239 283 366 428
#     4  10  24  43  66 106 142 183 237 300 351 424
#     4  11  25  45  70 102 144 183 239 298 354 424
#     4  11  22  43  71 101 142 183 238 299 350 425
#     4  10  24  41  71 101 143 185 236 291 365 426
#     4  10  23  43  69  99 140 191 228 288 362 419
#
# _framework density 25.001306
#
# number of rings (size 3 to 8) (size 9 to 14) (size 15 to 20)
#    0.000    1.667    1.667    0.500    7.000   12.000 
#    0.000    1.667    0.000    0.000    0.000    0.000 
#    0.000    0.000    0.000    0.000    0.000    0.000 
#
# Total GULP energy -67035.108409 kJ/mol
# GULP energy per Si atom -5586.259034 kJ/mol
# Density = 2.494440 g / cm^3
# Si number density = 25.001306 Si / 1000 Ang^3
#
#
#
# Elastic Constant Matrix: (Units=GPa)
#
#
# Indices 1 2 3 4 5 6 
#
# 1 110.2317 30.5551 14.5324 10.0862 -17.6156 -8.7673
# 2 30.5551 140.5402 25.4374 27.9053 -15.8439 6.9641
# 3 14.5324 25.4374 75.5882 12.1695 -33.5321 -2.4214
# 4 10.0862 27.9053 12.1695 57.5576 -5.1395 -5.6745
# 5 -17.6156 -15.8439 -33.5321 -5.1395 36.4826 9.6349
# 6 -8.7673 6.9641 -2.4214 -5.6745 9.6349 37.7803
#
#
#
# Elastic Compliance Matrix: (Units=1/GPa)
#
#
# Indices 1 2 3 4 5 6 
#
# 1 0.010366 -0.001869 0.000691 -0.000511 0.004331 0.001613
# 2 -0.001869 0.008915 -0.001113 -0.003883 0.002273 -0.003311
# 3 0.000691 -0.001113 0.023751 -0.003026 0.022383 -0.004275
# 4 -0.000511 -0.003883 -0.003026 0.020132 -0.002984 0.004188
# 5 0.004331 0.002273 0.022383 -0.002984 0.053853 -0.012162
# 6 0.001613 -0.003311 -0.004275 0.004188 -0.012162 0.030910
#
#
# Mechanical properties :
#
#
# Convention : Reuss Voigt Hill
#
# Bulk Modulus (GPa) = 26.00816 51.93443 38.97129
# Shear Modulus (GPa) = 30.24343 43.41977 36.83160
#
# Velocity S-wave (km/s) = 3.48181 4.17189 3.84238
# Velocity P-wave (km/s) = 5.15648 6.63506 5.94194
#
# Compressibility (1/GPa) = 0.03844947
#
# Stress axis : x y z
#
# Youngs Moduli (GPa) = 96.47039 112.17661 42.10337
#
# Poissons Ratio (x) = 0.20967 -0.02910
# Poissons Ratio (y) = 0.18031 0.04686
# Poissons Ratio (z) = -0.06667 0.12486
#
# Static dielectric constant tensor:
#      x y z
#    x 2.045840 -0.036650 -0.029580 
#    y -0.036650 2.051590 0.058880 
#    z -0.029580 0.058880 2.078920 
# 
# From -- ./inp_files/390632.got.cif
#   From: 2010.05.17/outbox.cif.g08.bks.cpg/sg2_196_cif.got.tgz:390632.got - 2010.06.03 11:33:40.
