data_PCOD9040505
_publ_section_title
;
Structure prediction by ZEFSAII (Michael W. Deem and Ramdas Pophale) SiO2 
 PCOD9040505
Probable space group: P -1
;
_chemical_formula_sum "Si O2"
_cell_formula_units_Z 14
_cell_length_a 16.280804
_cell_length_b 21.953805
_cell_length_c 5.454538
_cell_angle_alpha 128.880114
_cell_angle_beta 58.708138
_cell_angle_gamma 157.789882
_cell_volume 560.927649
_symmetry_space_group_name_H-M "P -1"
_symmetry_group_IT_number 2
_symmetry_cell_setting 'triclinic'
loop_
_space_group_symop_operation_xyz
x,y,z
-x,-y,-z
loop_
_atom_site_type_symbol
_atom_site_label
_atom_site_fract_x
_atom_site_fract_y
_atom_site_fract_z
Si Si1 0.151706 0.948628 0.789548
Si Si2 0.260408 0.191122 0.123248
Si Si3 0.887383 0.389041 0.646546
Si Si4 0.329725 0.926174 0.734841
Si Si5 0.493221 0.159711 0.438928
Si Si6 0.695343 0.554865 0.528465
Si Si7 0.630671 0.425817 0.806009
O O1 0.221429 0.923389 0.771184
O O2 0.885506 0.759738 0.735280
O O3 0.279099 0.123589 0.084013
O O4 0.244900 0.998798 0.500152
O O5 0.380281 0.268146 0.869926
O O6 0.429755 0.376458 0.458720
O O7 0.000000 0.000000 0.000000
O O8 0.855152 0.271975 0.398016
O O9 0.644946 0.252090 0.670108
O O10 0.000000 0.500000 0.500000
O O11 0.000000 0.500000 0.000000
O O12 0.500000 0.000000 0.500000
O O13 0.477327 0.069911 0.084765
O O14 0.610726 0.318678 0.529926
O O15 0.717290 0.531911 0.701426
O O16 0.744491 0.533831 0.163731
#
# Coordination Sequence:
#
# PCOD9040505 Si02
#       7
#     2   2   2   2   2   2   2
#     4  11  25  42  73 100 141 188 235 295 357 420
#     4   9  22  46  73 105 145 184 229 291 357 428
#     4  12  29  43  66  98 137 185 236 298 353 415
#     4  12  26  45  68  98 140 187 246 293 355 423
#     4  11  25  45  68  97 141 187 240 293 362 417
#     4  10  23  43  67 109 137 185 234 288 351 426
#     4   9  23  43  70  99 144 176 232 285 352 417
#
# _framework density 24.958658
#
# number of rings (size 3 to 8) (size 9 to 14) (size 15 to 20)
#    0.857    0.571    1.429    2.143    8.000    1.143 
#    0.000    0.714    0.000    0.000    0.000    0.000 
#    0.000    0.000    0.000    0.000    0.000    0.000 
#
# Total GULP energy -78134.836617 kJ/mol
# GULP energy per Si atom -5581.059758 kJ/mol
# Density = 2.490185 g / cm^3
# Si number density = 24.958658 Si / 1000 Ang^3
#
#
#
# Elastic Constant Matrix: (Units=GPa)
#
#
# Indices 1 2 3 4 5 6 
#
# 1 58.8910 30.3887 5.9809 0.5912 10.8627 -14.9514
# 2 30.3887 152.9808 35.7417 21.0416 10.4090 -22.7137
# 3 5.9809 35.7417 115.1750 2.2782 18.0524 -21.1657
# 4 0.5912 21.0416 2.2782 32.9796 -7.8558 2.1646
# 5 10.8627 10.4090 18.0524 -7.8558 28.1942 4.2339
# 6 -14.9514 -22.7137 -21.1657 2.1646 4.2339 55.6916
#
#
#
# Elastic Compliance Matrix: (Units=1/GPa)
#
#
# Indices 1 2 3 4 5 6 
#
# 1 0.021883 -0.003096 0.002673 -0.001501 -0.010390 0.006476
# 2 -0.003096 0.009065 -0.001450 -0.006649 -0.003505 0.002840
# 3 0.002673 -0.001450 0.011478 -0.002486 -0.009332 0.005295
# 4 -0.001501 -0.006649 -0.002486 0.039157 0.016563 -0.006841
# 5 -0.010390 -0.003505 -0.009332 0.016563 0.053226 -0.012456
# 6 0.006476 0.002840 0.005295 -0.006841 -0.012456 0.024078
#
#
# Mechanical properties :
#
#
# Convention : Reuss Voigt Hill
#
# Bulk Modulus (GPa) = 25.85319 52.36327 39.10823
# Shear Modulus (GPa) = 28.48568 40.36878 34.42723
#
# Velocity S-wave (km/s) = 3.38200 4.02609 3.71802
# Velocity P-wave (km/s) = 5.06275 6.52978 5.84250
#
# Compressibility (1/GPa) = 0.03867994
#
# Stress axis : x y z
#
# Youngs Moduli (GPa) = 45.69856 110.31153 87.12018
#
# Poissons Ratio (x) = 0.34156 -0.23286
# Poissons Ratio (y) = 0.14150 0.12629
# Poissons Ratio (z) = -0.12215 0.15991
#
# Static dielectric constant tensor:
#      x y z
#    x 2.124960 0.093390 0.021330 
#    y 0.093390 2.051290 0.034060 
#    z 0.021330 0.034060 2.007540 
# 
# From -- ./inp_files/120746.got.cif
#   From: 2010.05.17/outbox.cif.g08.bks.cpg/sg2_61_cif.got.tgz:120746.got - 2010.06.03 11:33:40.
