data_PCOD9040592
_publ_section_title
;
Structure prediction by ZEFSAII (Michael W. Deem and Ramdas Pophale) SiO2 
 PCOD9040592
Probable space group: P -1
;
_chemical_formula_sum "Si O2"
_cell_formula_units_Z 13
_cell_length_a 14.657332
_cell_length_b 13.501090
_cell_length_c 15.500779
_cell_angle_alpha 150.803998
_cell_angle_beta 25.163826
_cell_angle_gamma 156.667270
_cell_volume 500.368552
_symmetry_space_group_name_H-M "P -1"
_symmetry_group_IT_number 2
_symmetry_cell_setting 'triclinic'
loop_
_space_group_symop_operation_xyz
x,y,z
-x,-y,-z
loop_
_atom_site_type_symbol
_atom_site_label
_atom_site_fract_x
_atom_site_fract_y
_atom_site_fract_z
Si Si1 0.362583 0.780418 0.824158
Si Si2 0.775279 0.917687 0.056603
Si Si3 0.500000 0.000000 0.500000
Si Si4 0.608859 0.752375 0.759458
Si Si5 0.889372 0.580491 0.963470
Si Si6 0.858915 0.151197 0.570108
Si Si7 0.185439 0.449066 0.356596
O O1 0.474832 0.699930 0.740834
O O2 0.061319 0.574162 0.888371
O O3 0.572874 0.894160 0.650400
O O4 0.365063 0.008140 0.037492
O O5 0.552695 0.907386 0.293342
O O6 0.922330 0.140926 0.028867
O O7 0.692137 0.659884 0.887260
O O8 0.000000 0.000000 0.000000
O O9 0.404482 0.728880 0.421062
O O10 0.900107 0.815581 0.556510
O O11 0.393215 0.513962 0.825050
O O12 0.837519 0.376772 0.782802
O O13 0.979232 0.217082 0.421702
O O14 0.000000 0.500000 0.500000
#
# Coordination Sequence:
#
# PCOD9040592 Si02
#       7
#     2   2   1   2   2   2   2
#     4  10  23  43  67  98 137 180 232 291 351 414
#     4  12  26  46  71 103 143 186 233 295 349 423
#     4  12  26  48  72 100 140 188 236 288 356 414
#     4  10  23  43  67  98 137 180 232 291 351 414
#     4  11  24  42  67 101 137 182 236 286 349 422
#     4  11  24  42  67 101 137 182 236 286 349 422
#     4  12  26  46  71 103 143 186 233 295 349 423
#
# _framework density 25.980851000000001
#
# number of rings (size 3 to 8) (size 9 to 14) (size 15 to 20)
#    0.000    0.923    3.077    2.308    4.308    3.077 
#    0.000    0.000    0.000    0.000    0.000    0.000 
#    0.000    0.000    0.000    0.000    0.000    0.000 
#
# Total GULP energy -72616.938530 kJ/mol
# GULP energy per Si atom -5585.918348 kJ/mol
# Density = 2.592172 g / cm^3
# Si number density = 25.980851 Si / 1000 Ang^3
#
#
#
# Elastic Constant Matrix: (Units=GPa)
#
#
# Indices 1 2 3 4 5 6 
#
# 1 69.0474 -7.6420 12.2989 3.0317 -11.5760 -9.7942
# 2 -7.6420 82.0487 53.3167 -16.8802 0.4354 -8.0295
# 3 12.2989 53.3167 157.0409 16.1576 28.7203 2.9251
# 4 3.0317 -16.8802 16.1576 32.1725 -4.6532 -4.4177
# 5 -11.5760 0.4354 28.7203 -4.6532 45.8272 -5.1159
# 6 -9.7942 -8.0295 2.9251 -4.4177 -5.1159 37.3116
#
#
#
# Elastic Compliance Matrix: (Units=1/GPa)
#
#
# Indices 1 2 3 4 5 6 
#
# 1 0.021327 0.012583 -0.010220 0.013560 0.014466 0.012696
# 2 0.012583 0.035710 -0.020901 0.033856 0.021563 0.019591
# 3 -0.010220 -0.020901 0.020699 -0.025210 -0.019530 -0.014466
# 4 0.013560 0.033856 -0.025210 0.067757 0.028547 0.024758
# 5 0.014466 0.021563 -0.019530 0.028547 0.042550 0.019183
# 6 0.012696 0.019591 -0.014466 0.024758 0.019183 0.041046
#
#
# Mechanical properties :
#
#
# Convention : Reuss Voigt Hill
#
# Bulk Modulus (GPa) = 24.59423 47.12047 35.85735
# Shear Modulus (GPa) = 17.87515 39.73984 28.80750
#
# Velocity S-wave (km/s) = 2.62585 3.91523 3.33347
# Velocity P-wave (km/s) = 4.32207 6.21407 5.35233
#
# Compressibility (1/GPa) = 0.04065995
#
# Stress axis : x y z
#
# Youngs Moduli (GPa) = 46.88977 28.00344 48.31121
#
# Poissons Ratio (x) = -0.35236 0.49372
# Poissons Ratio (y) = -0.59000 1.00975
# Poissons Ratio (z) = 0.47919 0.58530
#
# Static dielectric constant tensor:
#      x y z
#    x 2.216280 0.073980 -0.134920 
#    y 0.073980 2.070030 -0.087810 
#    z -0.134920 -0.087810 2.108990 
# 
# From -- ./inp_files/530776.got.cif
#   From: 2010.05.17/outbox.cif.g08.bks.cpg/sg2_266_cif.got.tgz:530776.got - 2010.06.03 11:33:40.
