data_PCOD9040541
_publ_section_title
;
Structure prediction by ZEFSAII (Michael W. Deem and Ramdas Pophale) SiO2 
 PCOD9040541
Probable space group: P -1
;
_chemical_formula_sum "Si O2"
_cell_formula_units_Z 16
_cell_length_a 6.909638
_cell_length_b 8.556468
_cell_length_c 13.748889
_cell_angle_alpha 86.414786
_cell_angle_beta 58.700494
_cell_angle_gamma 117.427014
_cell_volume 565.568235
_symmetry_space_group_name_H-M "P -1"
_symmetry_group_IT_number 2
_symmetry_cell_setting 'triclinic'
loop_
_space_group_symop_operation_xyz
x,y,z
-x,-y,-z
loop_
_atom_site_type_symbol
_atom_site_label
_atom_site_fract_x
_atom_site_fract_y
_atom_site_fract_z
Si Si1 0.286895 0.181828 0.869649
Si Si2 0.556881 0.336826 0.383252
Si Si3 0.141466 0.738585 0.236568
Si Si4 0.717111 0.118424 0.212772
Si Si5 0.974191 0.674156 0.500905
Si Si6 0.784092 0.541671 0.015972
Si Si7 0.653428 0.877171 0.854204
Si Si8 0.110592 0.978669 0.577554
O O1 0.581748 0.253956 0.840312
O O2 0.279393 0.364714 0.882533
O O3 0.308770 0.080031 0.771324
O O4 0.000000 0.000000 0.000000
O O5 0.586888 0.190169 0.317754
O O6 0.343039 0.389880 0.404850
O O7 0.859724 0.531072 0.301491
O O8 0.375836 0.190355 0.524465
O O9 0.096747 0.774779 0.359996
O O10 0.185966 0.909303 0.149238
O O11 0.572074 0.113090 0.149953
O O12 0.039619 0.290613 0.114281
O O13 0.000000 0.500000 0.500000
O O14 0.140339 0.811313 0.543692
O O15 0.528559 0.338494 0.050951
O O16 0.000000 0.500000 0.000000
O O17 0.877002 0.893006 0.722262
O O18 0.000000 0.000000 0.500000
#
# Coordination Sequence:
#
# PCOD9040541 Si02
#       8
#     2   2   2   2   2   2   2   2
#     4   9  19  37  60  89 113 152 210 246 288 364
#     4  11  21  39  61  88 122 163 201 246 310 357
#     4  11  22  37  61  89 121 161 200 251 309 354
#     4   9  17  35  59  84 114 156 203 249 294 353
#     4  11  23  37  59  90 118 159 208 252 293 360
#     4   9  19  32  59  89 113 148 197 256 292 343
#     4  10  17  33  56  83 113 158 199 235 297 362
#     4  10  17  34  57  79 114 155 200 239 290 366
#
# _framework density 28.290133000000001
#
# number of rings (size 3 to 8) (size 9 to 14) (size 15 to 20)
#    0.000    2.000    5.000    1.875    1.750    0.000 
#    0.000    5.000    0.000    0.000    0.000    0.000 
#    0.000    0.000    0.000    0.000    0.000    0.000 
#
# Total GULP energy -89373.147790 kJ/mol
# GULP energy per Si atom -5585.821737 kJ/mol
# Density = 2.822574 g / cm^3
# Si number density = 28.290133 Si / 1000 Ang^3
#
#
#
# Elastic Constant Matrix: (Units=GPa)
#
#
# Indices 1 2 3 4 5 6 
#
# 1 103.9645 44.0311 51.1243 7.4046 -33.5703 -5.6486
# 2 44.0311 242.6020 92.8175 -8.5199 -31.0668 -26.2642
# 3 51.1243 92.8175 165.4978 -13.2733 -35.3126 0.9625
# 4 7.4046 -8.5199 -13.2733 71.6098 3.6012 -22.3765
# 5 -33.5703 -31.0668 -35.3126 3.6012 55.7842 4.4107
# 6 -5.6486 -26.2642 0.9625 -22.3765 4.4107 29.2807
#
#
#
# Elastic Compliance Matrix: (Units=1/GPa)
#
#
# Indices 1 2 3 4 5 6 
#
# 1 0.013357 -0.000869 -0.002515 -0.002585 0.006210 -0.001032
# 2 -0.000869 0.006435 -0.003104 0.002670 0.000315 0.007700
# 3 -0.002515 -0.003104 0.009217 0.000267 0.002876 -0.003802
# 4 -0.002585 0.002670 0.000267 0.020288 -0.002616 0.017786
# 5 0.006210 0.000315 0.002876 -0.002616 0.024165 -0.004253
# 6 -0.001032 0.007700 -0.003802 0.017786 -0.004253 0.055218
#
#
# Mechanical properties :
#
#
# Convention : Reuss Voigt Hill
#
# Bulk Modulus (GPa) = 62.37120 98.66778 80.51949
# Shear Modulus (GPa) = 34.01366 52.94105 43.47736
#
# Velocity S-wave (km/s) = 3.47120 4.33062 3.92451
# Velocity P-wave (km/s) = 6.17742 7.74328 7.00425
#
# Compressibility (1/GPa) = 0.01603304
#
# Stress axis : x y z
#
# Youngs Moduli (GPa) = 74.86755 155.40298 108.49301
#
# Poissons Ratio (x) = 0.13508 0.27284
# Poissons Ratio (y) = 0.06508 0.33675
# Poissons Ratio (z) = 0.18828 0.48236
#
# Static dielectric constant tensor:
#      x y z
#    x 2.408330 -0.033390 0.050690 
#    y -0.033390 2.383510 -0.033200 
#    z 0.050690 -0.033200 2.235140 
# 
# From -- ./inp_files/282901.got.cif
#   From: 2010.05.17/outbox.cif.g08.bks.cpg/sg2_142_cif.got.tgz:282901.got - 2010.06.03 11:33:40.
