data_PCOD9040646
_publ_section_title
;
Structure prediction by ZEFSAII (Michael W. Deem and Ramdas Pophale) SiO2 
 PCOD9040646
Probable space group: P -1
;
_chemical_formula_sum "Si O2"
_cell_formula_units_Z 14
_cell_length_a 7.426136
_cell_length_b 8.595595
_cell_length_c 11.327265
_cell_angle_alpha 53.670787
_cell_angle_beta 64.056686
_cell_angle_gamma 83.548570
_cell_volume 512.932769
_symmetry_space_group_name_H-M "P -1"
_symmetry_group_IT_number 2
_symmetry_cell_setting 'triclinic'
loop_
_space_group_symop_operation_xyz
x,y,z
-x,-y,-z
loop_
_atom_site_type_symbol
_atom_site_label
_atom_site_fract_x
_atom_site_fract_y
_atom_site_fract_z
Si Si1 0.655469 0.214984 0.464219
Si Si2 0.837494 0.296075 0.633233
Si Si3 0.058602 0.236439 0.912402
Si Si4 0.227474 0.180485 0.663661
Si Si5 0.354681 0.650729 0.102347
Si Si6 0.336739 0.200502 0.254264
Si Si7 0.041636 0.799435 0.795621
O O1 0.746937 0.269055 0.542865
O O2 0.434846 0.270439 0.498378
O O3 0.805814 0.305217 0.276453
O O4 0.646027 0.975620 0.581315
O O5 0.663390 0.278468 0.790119
O O6 0.000000 0.500000 0.500000
O O7 0.002561 0.165267 0.677852
O O8 0.231093 0.288270 0.739352
O O9 0.870399 0.336867 0.887336
O O10 0.106162 0.279088 0.016572
O O11 0.000000 0.000000 0.000000
O O12 0.212590 0.946783 0.759675
O O13 0.377391 0.423719 0.191743
O O14 0.515493 0.785585 0.909168
O O15 0.107978 0.159967 0.284371
#
# Coordination Sequence:
#
# PCOD9040646 Si02
#       7
#     2   2   2   2   2   2   2
#     4  12  25  43  74 102 135 183 226 280 346 404
#     4  11  25  46  70 100 142 177 229 285 338 408
#     4   9  20  42  63  94 136 174 226 278 331 402
#     4  10  23  43  68 102 133 180 228 278 340 398
#     4  10  24  43  66 101 136 185 223 286 339 403
#     4  11  23  41  68 101 138 178 232 273 349 403
#     4  11  22  40  68 102 135 176 225 286 333 404
#
# _framework density 27.294025000000001
#
# number of rings (size 3 to 8) (size 9 to 14) (size 15 to 20)
#    0.000    1.429    1.429    3.429    4.000    1.714 
#    2.571    0.000    0.000    0.000    0.000    0.000 
#    0.000    0.000    0.000    0.000    0.000    0.000 
#
# Total GULP energy -78190.642038 kJ/mol
# GULP energy per Si atom -5585.045860 kJ/mol
# Density = 2.723190 g / cm^3
# Si number density = 27.294025 Si / 1000 Ang^3
#
#
#
# Elastic Constant Matrix: (Units=GPa)
#
#
# Indices 1 2 3 4 5 6 
#
# 1 52.8300 17.3335 47.3609 28.6194 -4.2648 -5.0190
# 2 17.3335 62.9493 65.4537 24.9074 0.5758 0.7433
# 3 47.3609 65.4537 130.3094 46.1886 8.2051 -1.9443
# 4 28.6194 24.9074 46.1886 78.0083 -3.9410 6.5739
# 5 -4.2648 0.5758 8.2051 -3.9410 46.9938 10.0455
# 6 -5.0190 0.7433 -1.9443 6.5739 10.0455 29.0481
#
#
#
# Elastic Compliance Matrix: (Units=1/GPa)
#
#
# Indices 1 2 3 4 5 6 
#
# 1 0.033025 0.007627 -0.013614 -0.006713 0.003682 0.004846
# 2 0.007627 0.035583 -0.020305 -0.001766 0.004072 -0.001960
# 3 -0.013614 -0.020305 0.024520 -0.003583 -0.006156 0.002748
# 4 -0.006713 -0.001766 -0.003583 0.018678 0.003021 -0.006626
# 5 0.003682 0.004072 -0.006156 0.003021 0.024849 -0.009157
# 6 0.004846 -0.001960 0.002748 -0.006626 -0.009157 0.040163
#
#
# Mechanical properties :
#
#
# Convention : Reuss Voigt Hill
#
# Bulk Modulus (GPa) = 24.66444 56.26497 40.46471
# Shear Modulus (GPa) = 20.58315 38.53942 29.56128
#
# Velocity S-wave (km/s) = 2.74912 3.76175 3.29457
# Velocity P-wave (km/s) = 4.37413 6.28703 5.41571
#
# Compressibility (1/GPa) = 0.04054420
#
# Stress axis : x y z
#
# Youngs Moduli (GPa) = 30.27999 28.10322 40.78341
#
# Poissons Ratio (x) = -0.21436 0.55524
# Poissons Ratio (y) = -0.23096 0.82811
# Poissons Ratio (z) = 0.41224 0.57064
#
# Static dielectric constant tensor:
#      x y z
#    x 0.652690 2.368910 -0.748330 
#    y 2.368910 -1.881760 1.237490 
#    z -0.748330 1.237490 1.868780 
# 
# From -- ./inp_files/381187.got.cif
#   From: 2010.05.17/outbox.cif.g08.bks.cpg/sg2_191_cif.got.tgz:381187.got - 2010.06.03 11:33:40.
