data_PCOD9040784
_publ_section_title
;
Structure prediction by ZEFSAII (Michael W. Deem and Ramdas Pophale) SiO2 
 PCOD9040784
Probable space group: P -1
;
_chemical_formula_sum "Si O2"
_cell_formula_units_Z 15
_cell_length_a 16.419303
_cell_length_b 13.271423
_cell_length_c 6.553371
_cell_angle_alpha 82.426005
_cell_angle_beta 70.371642
_cell_angle_gamma 31.722761
_cell_volume 672.213064
_symmetry_space_group_name_H-M "P -1"
_symmetry_group_IT_number 2
_symmetry_cell_setting 'triclinic'
loop_
_space_group_symop_operation_xyz
x,y,z
-x,-y,-z
loop_
_atom_site_type_symbol
_atom_site_label
_atom_site_fract_x
_atom_site_fract_y
_atom_site_fract_z
Si Si1 0.006978 0.304993 0.920135
Si Si2 0.216849 0.911206 0.661340
Si Si3 0.826558 0.703374 0.473993
Si Si4 0.577013 0.125274 0.721032
Si Si5 0.699436 0.540997 0.859799
Si Si6 0.000000 0.000000 0.500000
Si Si7 0.314641 0.674559 0.008350
Si Si8 0.266198 0.411617 0.592115
O O1 0.850945 0.455444 0.847810
O O2 0.117892 0.291104 0.777293
O O3 0.914368 0.399888 0.189185
O O4 0.119413 0.092151 0.837832
O O5 0.336807 0.858094 0.430568
O O6 0.085966 0.982098 0.613445
O O7 0.308169 0.742474 0.785098
O O8 0.727272 0.702284 0.498918
O O9 0.000000 0.500000 0.500000
O O10 0.712708 0.897107 0.648140
O O11 0.420413 0.263305 0.660205
O O12 0.486351 0.226680 0.988633
O O13 0.710782 0.419729 0.985078
O O14 0.723612 0.510630 0.605837
O O15 0.166416 0.856058 0.243845
O O16 0.500000 0.500000 0.000000
#
# Coordination Sequence:
#
# PCOD9040784 Si02
#       8
#     2   2   2   2   2   1   2   2
#     4  10  23  43  68  99 140 175 237 287 346 426
#     4  11  25  48  68 107 141 189 240 297 355 432
#     4  11  22  45  68 103 135 178 232 288 355 428
#     4  10  25  45  68  98 142 176 233 291 350 430
#     4  11  23  43  65 102 133 184 228 287 357 413
#     4  12  26  42  76  98 142 194 240 298 360 424
#     4  12  27  45  70 108 145 189 247 294 363 429
#     4  11  23  43  71  96 138 187 224 290 354 424
#
# _framework density 22.314353000000001
#
# number of rings (size 3 to 8) (size 9 to 14) (size 15 to 20)
#    0.000    1.067    2.667    2.800    1.867    3.733 
#    9.600    0.000    0.000    0.000    0.000    0.000 
#    0.000    0.000    0.000    0.000    0.000    0.000 
#
# Total GULP energy -83684.782968 kJ/mol
# GULP energy per Si atom -5578.985531 kJ/mol
# Density = 2.226356 g / cm^3
# Si number density = 22.314353 Si / 1000 Ang^3
#
#
#
# Elastic Constant Matrix: (Units=GPa)
#
#
# Indices 1 2 3 4 5 6 
#
# 1 93.4015 13.1930 -6.5488 -17.3736 -16.9475 -4.9205
# 2 13.1930 43.4454 10.8727 -3.3448 -11.5521 4.8596
# 3 -6.5488 10.8727 66.7998 10.8633 -5.5689 11.1933
# 4 -17.3736 -3.3448 10.8633 27.6565 -4.1917 -5.9949
# 5 -16.9475 -11.5521 -5.5689 -4.1917 23.2620 4.0731
# 6 -4.9205 4.8596 11.1933 -5.9949 4.0731 25.4008
#
#
#
# Elastic Compliance Matrix: (Units=1/GPa)
#
#
# Indices 1 2 3 4 5 6 
#
# 1 0.015645 -0.000941 -0.000008 0.012508 0.012453 0.004169
# 2 -0.000941 0.029160 -0.003608 0.005461 0.014837 -0.005262
# 3 -0.000008 -0.003608 0.019155 -0.009813 0.002863 -0.010527
# 4 0.012508 0.005461 -0.009813 0.054482 0.016506 0.015914
# 5 0.012453 0.014837 0.002863 0.016506 0.064514 -0.008138
# 6 0.004169 -0.005262 -0.010527 0.015914 -0.008138 0.050883
#
#
# Mechanical properties :
#
#
# Convention : Reuss Voigt Hill
#
# Bulk Modulus (GPa) = 18.23272 26.52008 22.37640
# Shear Modulus (GPa) = 19.13987 27.67250 23.40619
#
# Velocity S-wave (km/s) = 2.93189 3.52536 3.24223
# Velocity P-wave (km/s) = 4.43282 5.33680 4.90568
#
# Compressibility (1/GPa) = 0.05484645
#
# Stress axis : x y z
#
# Youngs Moduli (GPa) = 63.91985 34.29314 52.20505
#
# Poissons Ratio (x) = 0.03227 0.00040
# Poissons Ratio (y) = 0.06016 0.18836
# Poissons Ratio (z) = 0.00049 0.12373
#
# Static dielectric constant tensor:
#      x y z
#    x 1.820020 0.011490 -0.029040 
#    y 0.011490 1.850000 0.030050 
#    z -0.029040 0.030050 1.848650 
# 
# From -- ./inp_files/45298.got.cif
#   From: 2010.05.17/outbox.cif.g08.bks.cpg/sg2_23_cif.got.tgz:45298.got - 2010.06.03 11:33:40.
