data_PCOD9040371
_publ_section_title
;
Structure prediction by ZEFSAII (Michael W. Deem and Ramdas Pophale) SiO2 
 PCOD9040371
Probable space group: P -1
;
_chemical_formula_sum "Si O2"
_cell_formula_units_Z 15
_cell_length_a 9.337609
_cell_length_b 5.184453
_cell_length_c 13.970008
_cell_angle_alpha 91.124478
_cell_angle_beta 106.131265
_cell_angle_gamma 110.891087
_cell_volume 601.625209
_symmetry_space_group_name_H-M "P -1"
_symmetry_group_IT_number 2
_symmetry_cell_setting 'triclinic'
loop_
_space_group_symop_operation_xyz
x,y,z
-x,-y,-z
loop_
_atom_site_type_symbol
_atom_site_label
_atom_site_fract_x
_atom_site_fract_y
_atom_site_fract_z
Si Si1 0.213394 0.018626 0.817809
Si Si2 0.695515 0.599898 0.000348
Si Si3 0.675726 0.473599 0.540208
Si Si4 0.000000 0.500000 0.500000
Si Si5 0.955400 0.051949 0.650476
Si Si6 0.554111 0.984229 0.880444
Si Si7 0.257765 0.781273 0.262322
Si Si8 0.948682 0.679270 0.914035
O O1 0.110317 0.981378 0.702402
O O2 0.373666 0.963484 0.833666
O O3 0.259063 0.318454 0.880625
O O4 0.095970 0.819521 0.872465
O O5 0.646453 0.283879 0.952620
O O6 0.848429 0.799471 0.966078
O O7 0.569427 0.737202 0.944715
O O8 0.500000 0.500000 0.500000
O O9 0.662357 0.264027 0.625274
O O10 0.791238 0.411809 0.480989
O O11 0.804201 0.777400 0.596018
O O12 0.997446 0.276956 0.577396
O O13 0.900093 0.162118 0.736623
O O14 0.629696 0.997023 0.789380
O O15 0.189423 0.498258 0.187791
O O16 0.000000 0.500000 0.000000
#
# Coordination Sequence:
#
# PCOD9040371 Si02
#       8
#     2   2   2   1   2   2   2   2
#     4  12  23  41  71 103 140 193 240 312 354 441
#     4  11  24  45  65 101 151 202 243 295 364 444
#     4  11  25  49  75 100 146 188 242 313 390 460
#     4  10  26  48  74 110 138 182 248 312 386 466
#     4  11  24  47  72 106 142 181 252 304 383 453
#     4  11  26  43  68 105 153 196 247 297 368 443
#     4  10  23  43  66 105 134 190 236 298 362 454
#     4  11  22  42  71 102 145 194 244 293 362 435
#
# _framework density 24.932465000000001
#
# number of rings (size 3 to 8) (size 9 to 14) (size 15 to 20)
#    0.000    1.067    1.333    4.800    3.733    4.267 
#    2.400    0.000    0.000    0.000    0.000    0.000 
#    0.000    0.000    0.000    0.000    0.000    0.000 
#
# Total GULP energy -83550.923246 kJ/mol
# GULP energy per Si atom -5570.061550 kJ/mol
# Density = 2.487572 g / cm^3
# Si number density = 24.932465 Si / 1000 Ang^3
#
#
#
# Elastic Constant Matrix: (Units=GPa)
#
#
# Indices 1 2 3 4 5 6 
#
# 1 115.1760 -10.2640 31.6697 2.6542 34.0175 -3.0273
# 2 -10.2640 67.2856 23.5354 -12.5613 9.0154 -2.0181
# 3 31.6697 23.5354 66.9323 -22.5544 22.6946 2.4782
# 4 2.6542 -12.5613 -22.5544 29.9700 3.6698 5.1470
# 5 34.0175 9.0154 22.6946 3.6698 57.7912 -2.8632
# 6 -3.0273 -2.0181 2.4782 5.1470 -2.8632 36.5552
#
#
#
# Elastic Compliance Matrix: (Units=1/GPa)
#
#
# Indices 1 2 3 4 5 6 
#
# 1 0.012772 0.004440 -0.007697 -0.004844 -0.004775 0.002133
# 2 0.004440 0.018858 -0.007004 0.002366 -0.002890 0.001324
# 3 -0.007697 -0.007004 0.032823 0.024859 -0.009215 -0.007471
# 4 -0.004844 0.002366 0.024859 0.056756 -0.011421 -0.010842
# 5 -0.004775 -0.002890 -0.009215 -0.011421 0.025090 0.003643
# 6 0.002133 0.001324 -0.007471 -0.010842 0.003643 0.029924
#
#
# Mechanical properties :
#
#
# Convention : Reuss Voigt Hill
#
# Bulk Modulus (GPa) = 22.76234 37.69735 30.22984
# Shear Modulus (GPa) = 23.65309 38.49346 31.07328
#
# Velocity S-wave (km/s) = 3.08342 3.93352 3.53412
# Velocity P-wave (km/s) = 4.67183 5.98187 5.36697
#
# Compressibility (1/GPa) = 0.04393222
#
# Stress axis : x y z
#
# Youngs Moduli (GPa) = 78.29344 53.02869 30.46622
#
# Poissons Ratio (x) = -0.23545 0.23450
# Poissons Ratio (y) = -0.34763 0.21337
# Poissons Ratio (z) = 0.60262 0.37139
#
# Static dielectric constant tensor:
#      x y z
#    x 1.845100 -0.087410 0.144460 
#    y -0.087410 2.075010 0.139450 
#    z 0.144460 0.139450 1.923200 
# 
# From -- ./inp_files/487784.got.cif
#   From: 2010.05.17/outbox.cif.g08.bks.cpg/sg2_244_cif.got.tgz:487784.got - 2010.06.03 11:33:40.
