data_PCOD9040861
_publ_section_title
;
Structure prediction by ZEFSAII (Michael W. Deem and Ramdas Pophale) SiO2 
 PCOD9040861
Probable space group: P -1
;
_chemical_formula_sum "Si O2"
_cell_formula_units_Z 16
_cell_length_a 5.271575
_cell_length_b 12.165773
_cell_length_c 22.058953
_cell_angle_alpha 35.520077
_cell_angle_beta 124.430237
_cell_angle_gamma 121.374357
_cell_volume 672.522725
_symmetry_space_group_name_H-M "P -1"
_symmetry_group_IT_number 2
_symmetry_cell_setting 'triclinic'
loop_
_space_group_symop_operation_xyz
x,y,z
-x,-y,-z
loop_
_atom_site_type_symbol
_atom_site_label
_atom_site_fract_x
_atom_site_fract_y
_atom_site_fract_z
Si Si1 0.588793 0.279055 0.220326
Si Si2 0.434170 0.363898 0.710216
Si Si3 0.620351 0.316674 0.349205
Si Si4 0.279932 0.625871 0.379543
Si Si5 0.653741 0.939578 0.808973
Si Si6 0.665039 0.370831 0.009230
Si Si7 0.329936 0.958417 0.932735
Si Si8 0.052524 0.996569 0.436222
O O1 0.653042 0.342217 0.270192
O O2 0.281681 0.155180 0.205183
O O3 0.799206 0.106679 0.319884
O O4 0.589717 0.480423 0.095655
O O5 0.485310 0.501812 0.713249
O O6 0.681453 0.422456 0.664784
O O7 0.070882 0.383397 0.638591
O O8 0.447556 0.142966 0.825221
O O9 0.351268 0.140887 0.395381
O O10 0.888710 0.223407 0.465209
O O11 0.500000 0.500000 0.500000
O O12 0.420566 0.847455 0.303803
O O13 0.407574 0.783945 0.878037
O O14 0.959797 0.956395 0.884427
O O15 0.626733 0.241920 0.001583
O O16 0.000000 0.500000 0.000000
O O17 0.500000 0.000000 0.000000
O O18 0.000000 0.000000 0.500000
#
# Coordination Sequence:
#
# PCOD9040861 Si02
#       8
#     2   2   2   2   2   2   2   2
#     4  11  24  39  71 102 138 194 237 304 377 438
#     4  11  25  47  73 107 150 192 258 309 377 470
#     4  10  23  43  69 103 144 187 244 314 379 455
#     4  11  26  47  76 108 145 203 247 317 385 454
#     4  11  26  47  71 106 150 188 258 314 370 465
#     4  12  25  45  71 106 148 195 252 312 381 445
#     4  11  25  48  72 105 149 198 250 315 385 456
#     4   9  22  41  63 103 141 182 240 303 375 449
#
# _framework density 23.791017
#
# number of rings (size 3 to 8) (size 9 to 14) (size 15 to 20)
#    0.000    1.250    2.500    1.500    7.000    3.500 
#    0.000    0.000    0.000    0.000    0.000    0.000 
#    0.000    0.000    0.000    0.000    0.000    0.000 
#
# Total GULP energy -89187.755946 kJ/mol
# GULP energy per Si atom -5574.234747 kJ/mol
# Density = 2.373687 g / cm^3
# Si number density = 23.791017 Si / 1000 Ang^3
#
#
#
# Elastic Constant Matrix: (Units=GPa)
#
#
# Indices 1 2 3 4 5 6 
#
# 1 33.5673 -1.0234 18.8154 -16.8422 8.6448 2.7000
# 2 -1.0234 146.6794 42.6925 -20.1974 12.8320 -20.3524
# 3 18.8154 42.6925 143.3914 -19.5348 15.7052 8.1318
# 4 -16.8422 -20.1974 -19.5348 36.3597 2.4329 -0.6539
# 5 8.6448 12.8320 15.7052 2.4329 25.0739 -9.4920
# 6 2.7000 -20.3524 8.1318 -0.6539 -9.4920 35.6059
#
#
#
# Elastic Compliance Matrix: (Units=1/GPa)
#
#
# Indices 1 2 3 4 5 6 
#
# 1 0.051969 0.006046 -0.001695 0.028083 -0.025044 -0.006258
# 2 0.006046 0.009574 -0.002433 0.007190 -0.004448 0.004516
# 3 -0.001695 -0.002433 0.009318 0.003195 -0.006204 -0.004986
# 4 0.028083 0.007190 0.003195 0.047585 -0.021328 -0.003561
# 5 -0.025044 -0.004448 -0.006204 -0.021328 0.063279 0.017251
# 6 -0.006258 0.004516 -0.004986 -0.003561 0.017251 0.036813
#
#
# Mechanical properties :
#
#
# Convention : Reuss Voigt Hill
#
# Bulk Modulus (GPa) = 13.38772 49.40077 31.39424
# Shear Modulus (GPa) = 20.86788 36.95148 28.90968
#
# Velocity S-wave (km/s) = 2.96486 3.94530 3.48968
# Velocity P-wave (km/s) = 4.16652 6.44697 5.42786
#
# Compressibility (1/GPa) = 0.07469532
#
# Stress axis : x y z
#
# Youngs Moduli (GPa) = 19.24217 104.45249 107.31527
#
# Poissons Ratio (x) = -0.63148 0.18195
# Poissons Ratio (y) = -0.11633 0.26111
# Poissons Ratio (z) = 0.03262 0.25414
#
# Static dielectric constant tensor:
#      x y z
#    x 1.972530 -0.033670 0.062600 
#    y -0.033670 1.959520 0.082200 
#    z 0.062600 0.082200 2.001180 
# 
# From -- ./inp_files/583278.got.cif
#   From: 2010.05.17/outbox.cif.g08.bks.cpg/sg2_292_cif.got.tgz:583278.got - 2010.06.03 11:33:40.
