data_PCOD9040470
_publ_section_title
;
Structure prediction by ZEFSAII (Michael W. Deem and Ramdas Pophale) SiO2 
 PCOD9040470
Probable space group: P -1
;
_chemical_formula_sum "Si O2"
_cell_formula_units_Z 14
_cell_length_a 18.277703
_cell_length_b 9.962628
_cell_length_c 6.797674
_cell_angle_alpha 49.867988
_cell_angle_beta 42.673922
_cell_angle_gamma 52.259261
_cell_volume 618.253929
_symmetry_space_group_name_H-M "P -1"
_symmetry_group_IT_number 2
_symmetry_cell_setting 'triclinic'
loop_
_space_group_symop_operation_xyz
x,y,z
-x,-y,-z
loop_
_atom_site_type_symbol
_atom_site_label
_atom_site_fract_x
_atom_site_fract_y
_atom_site_fract_z
Si Si1 0.098455 0.585848 0.149554
Si Si2 0.251344 0.001640 0.953635
Si Si3 0.588124 0.903820 0.753664
Si Si4 0.709163 0.745907 0.032614
Si Si5 0.581097 0.628855 0.723068
Si Si6 0.991884 0.811877 0.797791
Si Si7 0.189047 0.631276 0.344423
O O1 0.165279 0.636421 0.154705
O O2 0.000000 0.500000 0.500000
O O3 0.184713 0.428682 0.004513
O O4 0.046616 0.761094 0.950777
O O5 0.352291 0.988404 0.614812
O O6 0.273448 0.080586 0.046703
O O7 0.140773 0.155463 0.954692
O O8 0.225158 0.807731 0.185686
O O9 0.534040 0.787077 0.823423
O O10 0.684602 0.785635 0.815768
O O11 0.500000 0.000000 0.000000
O O12 0.605440 0.699208 0.394773
O O13 0.706273 0.532778 0.646731
O O14 0.500000 0.500000 0.000000
O O15 0.067048 0.652846 0.662474
O O16 0.000000 0.000000 0.500000
#
# Coordination Sequence:
#
# PCOD9040470 Si02
#       7
#     2   2   2   2   2   2   2
#     4  12  24  40  74 102 140 181 227 285 342 409
#     4  10  25  42  68  96 138 175 222 272 344 404
#     4  11  26  45  66  99 134 175 230 281 342 406
#     4  11  24  44  66  98 134 176 226 277 344 404
#     4  11  26  44  70  98 132 177 230 280 337 403
#     4  10  23  43  67 101 140 178 223 279 342 408
#     4  11  24  44  68 103 136 176 229 277 342 409
#
# _framework density 22.64442
#
# number of rings (size 3 to 8) (size 9 to 14) (size 15 to 20)
#    0.000    1.143    2.857    1.714    6.000    8.571 
#    0.000    0.000    0.000    0.000    0.000    0.000 
#    0.000    0.000    0.000    0.000    0.000    0.000 
#
# Total GULP energy -78230.775506 kJ/mol
# GULP energy per Si atom -5587.912536 kJ/mol
# Density = 2.259288 g / cm^3
# Si number density = 22.644420 Si / 1000 Ang^3
#
#
#
# Elastic Constant Matrix: (Units=GPa)
#
#
# Indices 1 2 3 4 5 6 
#
# 1 63.2850 3.8594 31.8178 -5.8432 6.4627 -2.9136
# 2 3.8594 69.2909 36.2851 22.1857 -15.9768 0.9443
# 3 31.8178 36.2851 101.1656 14.0058 -2.6206 20.5058
# 4 -5.8432 22.1857 14.0058 43.5064 -6.9558 -3.4956
# 5 6.4627 -15.9768 -2.6206 -6.9558 42.6856 -4.5089
# 6 -2.9136 0.9443 20.5058 -3.4956 -4.5089 47.3847
#
#
#
# Elastic Compliance Matrix: (Units=1/GPa)
#
#
# Indices 1 2 3 4 5 6 
#
# 1 0.021156 0.001386 -0.009005 0.005173 -0.001826 0.005378
# 2 0.001386 0.022375 -0.007912 -0.007331 0.006819 0.003171
# 3 -0.009005 -0.007912 0.017782 -0.003916 -0.002050 -0.008575
# 4 0.005173 -0.007331 -0.003916 0.029273 0.001473 0.004458
# 5 -0.001826 0.006819 -0.002050 0.001473 0.026718 0.003290
# 6 0.005378 0.003171 -0.008575 0.004458 0.003290 0.025724
#
#
# Mechanical properties :
#
#
# Convention : Reuss Voigt Hill
#
# Bulk Modulus (GPa) = 33.05664 41.96290 37.50977
# Shear Modulus (GPa) = 27.14851 37.50063 32.32457
#
# Velocity S-wave (km/s) = 3.46628 4.07389 3.78231
# Velocity P-wave (km/s) = 5.53624 6.37968 5.97286
#
# Compressibility (1/GPa) = 0.03025111
#
# Stress axis : x y z
#
# Youngs Moduli (GPa) = 47.26795 44.69367 56.23691
#
# Poissons Ratio (x) = -0.06196 0.50639
# Poissons Ratio (y) = -0.06553 0.44496
# Poissons Ratio (z) = 0.42563 0.35363
#
# Static dielectric constant tensor:
#      x y z
#    x 1.887150 -0.076890 -0.022900 
#    y -0.076890 1.895290 -0.010770 
#    z -0.022900 -0.010770 1.837420 
# 
# From -- ./inp_files/46175.got.cif
#   From: 2010.05.17/outbox.cif.g08.bks.cpg/sg2_24_cif.got.tgz:46175.got - 2010.06.03 11:33:40.
