data_PCOD9040471
_publ_section_title
;
Structure prediction by ZEFSAII (Michael W. Deem and Ramdas Pophale) SiO2 
 PCOD9040471
Probable space group: P -1
;
_chemical_formula_sum "Si O2"
_cell_formula_units_Z 14
_cell_length_a 5.132421
_cell_length_b 9.328475
_cell_length_c 13.465067
_cell_angle_alpha 110.746479
_cell_angle_beta 85.840362
_cell_angle_gamma 97.032691
_cell_volume 598.041954
_symmetry_space_group_name_H-M "P -1"
_symmetry_group_IT_number 2
_symmetry_cell_setting 'triclinic'
loop_
_space_group_symop_operation_xyz
x,y,z
-x,-y,-z
loop_
_atom_site_type_symbol
_atom_site_label
_atom_site_fract_x
_atom_site_fract_y
_atom_site_fract_z
Si Si1 0.769216 0.390623 0.534034
Si Si2 0.646879 0.348960 0.941050
Si Si3 0.543942 0.166583 0.090698
Si Si4 0.129942 0.212959 0.817131
Si Si5 0.024151 0.128711 0.200939
Si Si6 0.640753 0.708600 0.597016
Si Si7 0.943297 0.824404 0.421350
O O1 0.606854 0.534352 0.599696
O O2 0.657480 0.274375 0.421026
O O3 0.000000 0.500000 0.500000
O O4 0.819790 0.283045 0.597863
O O5 0.930255 0.341326 0.879325
O O6 0.423727 0.246124 0.858902
O O7 0.500000 0.500000 0.000000
O O8 0.671506 0.280799 0.033176
O O9 0.248737 0.196569 0.134428
O O10 0.741159 0.168149 0.179410
O O11 0.500000 0.000000 0.000000
O O12 0.142554 0.184621 0.691861
O O13 0.002519 0.056254 0.834827
O O14 0.167679 0.187886 0.312875
O O15 0.754370 0.739678 0.489569
O O16 0.000000 0.000000 0.500000
#
# Coordination Sequence:
#
# PCOD9040471 Si02
#       7
#     2   2   2   2   2   2   2
#     4   9  22  43  65  90 145 179 234 284 338 403
#     4  12  28  49  72 103 142 183 237 305 359 415
#     4  12  24  45  73  98 137 177 236 296 353 407
#     4  12  25  46  73 105 143 185 237 292 356 426
#     4  12  24  42  77 105 130 189 240 286 354 424
#     4  10  23  43  67 101 140 185 233 286 341 426
#     4  11  24  40  69 103 146 187 226 282 357 424
#
# _framework density 23.409728999999999
#
# number of rings (size 3 to 8) (size 9 to 14) (size 15 to 20)
#    0.000    0.857    4.286    1.714    6.000    4.000 
#    2.571    0.000    0.000    0.000    0.000    0.000 
#    0.000    0.000    0.000    0.000    0.000    0.000 
#
# Total GULP energy -77991.177057 kJ/mol
# GULP energy per Si atom -5570.798361 kJ/mol
# Density = 2.335645 g / cm^3
# Si number density = 23.409729 Si / 1000 Ang^3
#
#
#
# Elastic Constant Matrix: (Units=GPa)
#
#
# Indices 1 2 3 4 5 6 
#
# 1 75.8150 -4.1673 6.1538 -0.7202 21.5663 8.5279
# 2 -4.1673 81.6350 8.2231 -8.1302 7.9226 -7.4734
# 3 6.1538 8.2231 92.6101 -16.1469 19.5497 8.9546
# 4 -0.7202 -8.1302 -16.1469 25.2541 3.5650 6.4798
# 5 21.5663 7.9226 19.5497 3.5650 43.6707 -2.3837
# 6 8.5279 -7.4734 8.9546 6.4798 -2.3837 24.9906
#
#
#
# Elastic Compliance Matrix: (Units=1/GPa)
#
#
# Indices 1 2 3 4 5 6 
#
# 1 0.017421 0.001502 0.003319 0.007197 -0.011475 -0.009645
# 2 0.001502 0.013266 -0.000020 0.004255 -0.003376 0.002037
# 3 0.003319 -0.000020 0.016821 0.015556 -0.011104 -0.012259
# 4 0.007197 0.004255 0.015556 0.059719 -0.017470 -0.023909
# 5 -0.011475 -0.003376 -0.011104 -0.017470 0.036388 0.014886
# 6 -0.009645 0.002037 -0.012259 -0.023909 0.014886 0.055927
#
#
# Mechanical properties :
#
#
# Convention : Reuss Voigt Hill
#
# Bulk Modulus (GPa) = 17.51001 30.05328 23.78164
# Shear Modulus (GPa) = 23.92612 34.77312 29.34962
#
# Velocity S-wave (km/s) = 3.20043 3.85829 3.54465
# Velocity P-wave (km/s) = 4.59925 5.71964 5.18977
#
# Compressibility (1/GPa) = 0.05711020
#
# Stress axis : x y z
#
# Youngs Moduli (GPa) = 57.40255 75.37963 59.45005
#
# Poissons Ratio (x) = -0.11325 -0.19731
# Poissons Ratio (y) = -0.08624 0.00120
# Poissons Ratio (z) = -0.19052 0.00153
#
# Static dielectric constant tensor:
#      x y z
#    x 2.377520 -0.130450 -0.076030 
#    y -0.130450 1.948310 0.114650 
#    z -0.076030 0.114650 1.963290 
# 
# From -- ./inp_files/360881.got.cif
#   From: 2010.05.17/outbox.cif.g08.bks.cpg/sg2_181_cif.got.tgz:360881.got - 2010.06.03 11:33:40.
