data_PCOD9040027
_publ_section_title
;
Structure prediction by ZEFSAII (Michael W. Deem and Ramdas Pophale) SiO2 
 PCOD9040027
Probable space group: P -1
;
_chemical_formula_sum "Si O2"
_cell_formula_units_Z 16
_cell_length_a 11.650219
_cell_length_b 9.164254
_cell_length_c 13.231651
_cell_angle_alpha 129.546001
_cell_angle_beta 46.472244
_cell_angle_gamma 101.225409
_cell_volume 710.747895
_symmetry_space_group_name_H-M "P -1"
_symmetry_group_IT_number 2
_symmetry_cell_setting 'triclinic'
loop_
_space_group_symop_operation_xyz
x,y,z
-x,-y,-z
loop_
_atom_site_type_symbol
_atom_site_label
_atom_site_fract_x
_atom_site_fract_y
_atom_site_fract_z
Si Si1 0.580175 0.684155 0.300709
Si Si2 0.910410 0.229990 0.600863
Si Si3 0.192300 0.915325 0.589225
Si Si4 0.906744 0.957534 0.937658
Si Si5 0.159367 0.383426 0.062012
Si Si6 0.601281 0.229085 0.088224
Si Si7 0.716058 0.865086 0.695542
Si Si8 0.198875 0.281007 0.642373
O O1 0.382451 0.858979 0.492153
O O2 0.578932 0.460837 0.184613
O O3 0.660684 0.685812 0.361273
O O4 0.703945 0.711095 0.152515
O O5 0.789011 0.220203 0.581635
O O6 0.815771 0.423908 0.817716
O O7 0.075055 0.260804 0.467464
O O8 0.000000 0.000000 0.500000
O O9 0.065610 0.877678 0.726418
O O10 0.113917 0.155696 0.704572
O O11 0.835087 0.790228 0.939789
O O12 0.743964 0.133915 0.051224
O O13 0.000000 0.000000 0.000000
O O14 0.959002 0.498210 0.193849
O O15 0.415869 0.229327 0.230838
O O16 0.663547 0.079923 0.885096
O O17 0.714293 0.858035 0.571073
#
# Coordination Sequence:
#
# PCOD9040027 Si02
#       8
#     2   2   2   2   2   2   2   2
#     4  12  27  43  71 107 135 180 234 282 341 413
#     4  11  21  44  72  98 135 181 231 281 345 404
#     4  12  26  43  72 103 141 177 228 287 346 407
#     4  12  27  45  69 102 144 183 227 284 348 409
#     4  11  25  43  74  99 135 185 233 276 346 411
#     4  11  25  46  71  97 147 177 233 282 345 402
#     4  10  23  42  74  98 130 189 226 280 344 403
#     4  11  24  47  73  94 143 181 233 277 349 407
#
# _framework density 22.511500000000002
#
# number of rings (size 3 to 8) (size 9 to 14) (size 15 to 20)
#    0.000    0.750    3.750    3.750    7.000    3.500 
#    0.000    0.000    0.000    0.000    0.000    0.000 
#    0.000    0.000    0.000    0.000    0.000    0.000 
#
# Total GULP energy -89454.635368 kJ/mol
# GULP energy per Si atom -5590.914711 kJ/mol
# Density = 2.246026 g / cm^3
# Si number density = 22.511500 Si / 1000 Ang^3
#
#
#
# Elastic Constant Matrix: (Units=GPa)
#
#
# Indices 1 2 3 4 5 6 
#
# 1 88.7453 1.6498 17.3619 -7.1806 9.1668 13.4211
# 2 1.6498 97.4250 45.8679 -8.4858 8.4075 0.2433
# 3 17.3619 45.8679 69.6105 -12.1172 4.2691 4.8161
# 4 -7.1806 -8.4858 -12.1172 27.4235 3.5680 -2.1077
# 5 9.1668 8.4075 4.2691 3.5680 36.4291 8.5670
# 6 13.4211 0.2433 4.8161 -2.1077 8.5670 23.9400
#
#
#
# Elastic Compliance Matrix: (Units=1/GPa)
#
#
# Indices 1 2 3 4 5 6 
#
# 1 0.013217 0.001879 -0.003603 0.002300 -0.002220 -0.005707
# 2 0.001879 0.015554 -0.010428 0.001326 -0.003501 0.002256
# 3 -0.003603 -0.010428 0.023280 0.005875 0.000535 -0.002231
# 4 0.002300 0.001326 0.005875 0.041172 -0.006414 0.003435
# 5 -0.002220 -0.003501 0.000535 -0.006414 0.031927 -0.010817
# 6 -0.005707 0.002256 -0.002231 0.003435 -0.010817 0.049570
#
#
# Mechanical properties :
#
#
# Convention : Reuss Voigt Hill
#
# Bulk Modulus (GPa) = 36.04129 42.83776 39.43953
# Shear Modulus (GPa) = 24.00708 30.28526 27.14617
#
# Velocity S-wave (km/s) = 3.26918 3.67185 3.47635
# Velocity P-wave (km/s) = 5.50408 6.08664 5.80268
#
# Compressibility (1/GPa) = 0.02774596
#
# Stress axis : x y z
#
# Youngs Moduli (GPa) = 75.66224 64.29216 42.95573
#
# Poissons Ratio (x) = -0.12078 0.15477
# Poissons Ratio (y) = -0.14214 0.44794
# Poissons Ratio (z) = 0.27260 0.67044
#
# Static dielectric constant tensor:
#      x y z
#    x 1.844440 0.002860 0.033180 
#    y 0.002860 1.825640 -0.004520 
#    z 0.033180 -0.004520 1.819640 
# 
# From -- ./inp_files/279108.got.cif
#   From: 2010.05.17/outbox.cif.g08.bks.cpg/sg2_140_cif.got.tgz:279108.got - 2010.06.03 11:33:40.
