data_PCOD9040047
_publ_section_title
;
Structure prediction by ZEFSAII (Michael W. Deem and Ramdas Pophale) SiO2 
 PCOD9040047
Probable space group: P -1
;
_chemical_formula_sum "Si O2"
_cell_formula_units_Z 16
_cell_length_a 8.672530
_cell_length_b 8.854221
_cell_length_c 21.269568
_cell_angle_alpha 54.363556
_cell_angle_beta 130.146368
_cell_angle_gamma 84.668991
_cell_volume 666.245604
_symmetry_space_group_name_H-M "P -1"
_symmetry_group_IT_number 2
_symmetry_cell_setting 'triclinic'
loop_
_space_group_symop_operation_xyz
x,y,z
-x,-y,-z
loop_
_atom_site_type_symbol
_atom_site_label
_atom_site_fract_x
_atom_site_fract_y
_atom_site_fract_z
Si Si1 0.314806 0.720959 0.801639
Si Si2 0.645660 0.493570 0.600553
Si Si3 0.338954 0.052795 0.055127
Si Si4 0.272762 0.866654 0.892140
Si Si5 0.216790 0.581242 0.693147
Si Si6 0.362983 0.472185 0.272995
Si Si7 0.436427 0.060816 0.588878
Si Si8 0.675770 0.832181 0.836823
O O1 0.176577 0.850313 0.802805
O O2 0.122227 0.743577 0.694244
O O3 0.425186 0.841761 0.775385
O O4 0.611351 0.382784 0.974338
O O5 0.500000 0.500000 0.500000
O O6 0.517407 0.545845 0.623372
O O7 0.607271 0.737367 0.517662
O O8 0.996029 0.179470 0.769650
O O9 0.442053 0.191189 0.031730
O O10 0.343019 0.036762 0.136164
O O11 0.592035 0.739612 0.169267
O O12 0.999264 0.238970 0.898785
O O13 0.446709 0.558508 0.723458
O O14 0.912404 0.755950 0.531418
O O15 0.400712 0.226551 0.330863
O O16 0.612597 0.983091 0.718889
O O17 0.000000 0.500000 0.000000
#
# Coordination Sequence:
#
# PCOD9040047 Si02
#       8
#     2   2   2   2   2   2   2   2
#     4  10  23  42  75  97 144 183 247 288 357 425
#     4  12  30  47  71 106 150 186 242 298 367 427
#     4  11  24  44  75 105 145 187 244 294 354 427
#     4  10  24  46  69 108 138 200 233 303 353 429
#     4  12  25  45  73 112 144 188 240 304 357 426
#     4  12  27  47  73 108 145 196 237 294 362 431
#     4  12  27  48  73 105 148 194 233 300 362 431
#     4  11  23  44  70 103 140 189 242 290 354 420
#
# _framework density 24.015167000000002
#
# number of rings (size 3 to 8) (size 9 to 14) (size 15 to 20)
#    0.000    0.750    3.750    1.875    7.000    3.500 
#    0.000    0.000    0.000    0.000    0.000    0.000 
#    0.000    0.000    0.000    0.000    0.000    0.000 
#
# Total GULP energy -89651.075589 kJ/mol
# GULP energy per Si atom -5603.192224 kJ/mol
# Density = 2.396051 g / cm^3
# Si number density = 24.015167 Si / 1000 Ang^3
#
#
#
# Elastic Constant Matrix: (Units=GPa)
#
#
# Indices 1 2 3 4 5 6 
#
# 1 42.0222 11.3748 13.4652 7.0390 -16.4311 -3.3072
# 2 11.3748 91.0887 11.1120 17.3868 -10.6049 -6.4634
# 3 13.4652 11.1120 91.2097 -2.3970 -0.5639 -5.4281
# 4 7.0390 17.3868 -2.3970 39.4181 2.8286 -7.3839
# 5 -16.4311 -10.6049 -0.5639 2.8286 33.4356 -3.4164
# 6 -3.3072 -6.4634 -5.4281 -7.3839 -3.4164 25.0223
#
#
#
# Elastic Compliance Matrix: (Units=1/GPa)
#
#
# Indices 1 2 3 4 5 6 
#
# 1 0.033571 -0.000015 -0.004803 -0.006825 0.017372 0.003749
# 2 -0.000015 0.012973 -0.001585 -0.005793 0.004770 0.001947
# 3 -0.004803 -0.001585 0.012046 0.002866 -0.002693 0.002047
# 4 -0.006825 -0.005793 0.002866 0.031028 -0.007113 0.006408
# 5 0.017372 0.004770 -0.002693 -0.007113 0.041175 0.006467
# 6 0.003749 0.001947 0.002047 0.006408 0.006467 0.044181
#
#
# Mechanical properties :
#
#
# Convention : Reuss Voigt Hill
#
# Bulk Modulus (GPa) = 21.84179 32.91384 27.37782
# Shear Modulus (GPa) = 24.62542 32.13312 28.37927
#
# Velocity S-wave (km/s) = 3.20568 3.66188 3.44135
# Velocity P-wave (km/s) = 4.77667 5.62267 5.21685
#
# Compressibility (1/GPa) = 0.04578379
#
# Stress axis : x y z
#
# Youngs Moduli (GPa) = 29.78763 77.08427 83.01223
#
# Poissons Ratio (x) = 0.00116 0.39871
# Poissons Ratio (y) = 0.00045 0.13159
# Poissons Ratio (z) = 0.14307 0.12219
#
# Static dielectric constant tensor:
#      x y z
#    x 1.890800 0.015090 -0.006680 
#    y 0.015090 1.896500 0.024860 
#    z -0.006680 0.024860 1.891680 
# 
# From -- ./inp_files/206975.got.cif
#   From: 2010.05.17/outbox.cif.g08.bks.cpg/sg2_104_cif.got.tgz:206975.got - 2010.06.03 11:33:40.
