data_PCOD9040320
_publ_section_title
;
Structure prediction by ZEFSAII (Michael W. Deem and Ramdas Pophale) SiO2 
 PCOD9040320
Probable space group: P -1
;
_chemical_formula_sum "Si O2"
_cell_formula_units_Z 16
_cell_length_a 9.481199
_cell_length_b 12.037069
_cell_length_c 18.867935
_cell_angle_alpha 140.889038
_cell_angle_beta 44.914338
_cell_angle_gamma 103.800419
_cell_volume 686.669381
_symmetry_space_group_name_H-M "P -1"
_symmetry_group_IT_number 2
_symmetry_cell_setting 'triclinic'
loop_
_space_group_symop_operation_xyz
x,y,z
-x,-y,-z
loop_
_atom_site_type_symbol
_atom_site_label
_atom_site_fract_x
_atom_site_fract_y
_atom_site_fract_z
Si Si1 0.443623 0.238930 0.649392
Si Si2 0.958399 0.757031 0.441503
Si Si3 0.843675 0.959281 0.130934
Si Si4 0.063682 0.476545 0.132804
Si Si5 0.862884 0.157729 0.358311
Si Si6 0.455738 0.690640 0.197981
Si Si7 0.803173 0.762171 0.659953
Si Si8 0.573912 0.291497 0.269190
O O1 0.697310 0.194618 0.504394
O O2 0.424928 0.294825 0.765819
O O3 0.168936 0.434625 0.797396
O O4 0.500000 0.000000 0.500000
O O5 0.927811 0.623895 0.327034
O O6 0.273697 0.636332 0.259913
O O7 0.900619 0.728139 0.527085
O O8 0.755931 0.043114 0.633188
O O9 0.877561 0.987206 0.214506
O O10 0.625924 0.219501 0.297336
O O11 0.762107 0.810589 0.067633
O O12 0.141724 0.811615 0.915686
O O13 0.270962 0.500886 0.042682
O O14 0.669399 0.422492 0.519987
O O15 0.146598 0.082108 0.242183
O O16 0.506393 0.847550 0.806224
O O17 0.000000 0.500000 0.500000
#
# Coordination Sequence:
#
# PCOD9040320 Si02
#       8
#     2   2   2   2   2   2   2   2
#     4  12  23  43  66  98 136 175 221 276 344 398
#     4  11  24  46  68  98 140 176 232 279 334 407
#     4  11  24  40  68 101 132 173 225 279 343 402
#     4  12  25  42  69 103 135 177 226 284 339 406
#     4  11  23  44  65  94 137 177 220 281 333 399
#     4  11  24  44  69  99 135 184 225 278 340 403
#     4  10  23  43  70  94 131 184 223 273 338 394
#     4  10  23  43  65  98 132 175 230 278 336 399
#
# _framework density 23.300878000000001
#
# number of rings (size 3 to 8) (size 9 to 14) (size 15 to 20)
#    0.000    1.000    3.750    2.625    1.750    4.500 
#    0.000    6.250    0.000    0.000    0.000    0.000 
#    0.000    0.000    0.000    0.000    0.000    0.000 
#
# Total GULP energy -89469.744725 kJ/mol
# GULP energy per Si atom -5591.859045 kJ/mol
# Density = 2.324784 g / cm^3
# Si number density = 23.300878 Si / 1000 Ang^3
#
#
#
# Elastic Constant Matrix: (Units=GPa)
#
#
# Indices 1 2 3 4 5 6 
#
# 1 81.9838 13.5128 -1.4432 -5.8710 -6.9756 -1.2424
# 2 13.5128 93.1310 4.0763 -4.7611 -4.9812 -7.2469
# 3 -1.4432 4.0763 11.4621 -1.0518 8.6698 -2.4026
# 4 -5.8710 -4.7611 -1.0518 30.9487 5.0536 -3.7901
# 5 -6.9756 -4.9812 8.6698 5.0536 27.3384 -18.3230
# 6 -1.2424 -7.2469 -2.4026 -3.7901 -18.3230 50.2030
#
#
#
# Elastic Compliance Matrix: (Units=1/GPa)
#
#
# Indices 1 2 3 4 5 6 
#
# 1 0.012914 -0.001429 -0.000320 0.001782 0.003922 0.001664
# 2 -0.001429 0.012070 -0.009086 0.000576 0.007269 0.003969
# 3 -0.000320 -0.009086 0.129273 0.010032 -0.054036 -0.014098
# 4 0.001782 0.000576 0.010032 0.034549 -0.009072 -0.000096
# 5 0.003922 0.007269 -0.054036 -0.009072 0.074523 0.025075
# 6 0.001664 0.003969 -0.014098 -0.000096 0.025075 0.029003
#
#
# Mechanical properties :
#
#
# Convention : Reuss Voigt Hill
#
# Bulk Modulus (GPa) = 7.54226 24.31875 15.93051
# Shear Modulus (GPa) = 13.95879 33.06010 23.50945
#
# Velocity S-wave (km/s) = 2.45024 3.77083 3.17985
# Velocity P-wave (km/s) = 3.35393 5.42387 4.50928
#
# Compressibility (1/GPa) = 0.13258624
#
# Stress axis : x y z
#
# Youngs Moduli (GPa) = 77.43508 82.85188 7.73558
#
# Poissons Ratio (x) = 0.11843 0.00247
# Poissons Ratio (y) = 0.11069 0.07029
# Poissons Ratio (z) = 0.02475 0.75281
#
# Static dielectric constant tensor:
#      x y z
#    x 1.955270 -0.085560 0.012660 
#    y -0.085560 2.069070 0.002110 
#    z 0.012660 0.002110 2.009580 
# 
# From -- ./inp_files/279903.got.cif
#   From: 2010.05.17/outbox.cif.g08.bks.cpg/sg2_140_cif.got.tgz:279903.got - 2010.06.03 11:33:40.
