data_PCOD9040460
_publ_section_title
;
Structure prediction by ZEFSAII (Michael W. Deem and Ramdas Pophale) SiO2 
 PCOD9040460
Probable space group: P -1
;
_chemical_formula_sum "Si O2"
_cell_formula_units_Z 15
_cell_length_a 8.923948
_cell_length_b 10.860879
_cell_length_c 16.131793
_cell_angle_alpha 46.393699
_cell_angle_beta 139.198709
_cell_angle_gamma 105.686668
_cell_volume 626.412269
_symmetry_space_group_name_H-M "P -1"
_symmetry_group_IT_number 2
_symmetry_cell_setting 'triclinic'
loop_
_space_group_symop_operation_xyz
x,y,z
-x,-y,-z
loop_
_atom_site_type_symbol
_atom_site_label
_atom_site_fract_x
_atom_site_fract_y
_atom_site_fract_z
Si Si1 0.726037 0.528584 0.411854
Si Si2 0.020039 0.618848 0.240550
Si Si3 0.729455 0.958242 0.681843
Si Si4 0.491136 0.972473 0.109138
Si Si5 0.620315 0.617669 0.640639
Si Si6 0.775675 0.341929 0.236567
Si Si7 0.011975 0.962037 0.394609
Si Si8 0.000000 0.500000 0.000000
O O1 0.564210 0.430314 0.354757
O O2 0.000000 0.500000 0.500000
O O3 0.821529 0.425181 0.587754
O O4 0.514022 0.762733 0.222202
O O5 0.913150 0.466286 0.259228
O O6 0.230134 0.553815 0.284852
O O7 0.765658 0.842548 0.040243
O O8 0.874043 0.732757 0.878617
O O9 0.928006 0.993507 0.692663
O O10 0.500000 0.000000 0.500000
O O11 0.565190 0.156803 0.578428
O O12 0.751359 0.946461 0.277919
O O13 0.500000 0.000000 0.000000
O O14 0.854417 0.599562 0.805429
O O15 0.940723 0.154960 0.330411
O O16 0.500000 0.500000 0.000000
O O17 0.768482 0.231080 0.369484
#
# Coordination Sequence:
#
# PCOD9040460 Si02
#       8
#     2   2   2   2   2   2   2   1
#     4  12  26  48  73 104 145 200 249 307 372 450
#     4  12  26  47  69 108 147 195 253 310 375 442
#     4  10  23  43  67 100 144 188 240 300 367 445
#     4  12  26  44  73 106 144 194 255 307 367 454
#     4  11  27  46  73 107 150 195 249 312 375 453
#     4  11  23  42  72 105 147 191 246 314 381 446
#     4  11  24  43  70 108 141 194 252 310 369 448
#     4  10  24  46  72 108 146 196 248 306 386 448
#
# _framework density 23.945892000000001
#
# number of rings (size 3 to 8) (size 9 to 14) (size 15 to 20)
#    0.000    0.800    4.000    2.800    1.867    5.867 
#    0.000    0.000    0.000    0.000    0.000    0.000 
#    0.000    0.000    0.000    0.000    0.000    0.000 
#
# Total GULP energy -83544.151475 kJ/mol
# GULP energy per Si atom -5569.610098 kJ/mol
# Density = 2.389139 g / cm^3
# Si number density = 23.945892 Si / 1000 Ang^3
#
#
#
# Elastic Constant Matrix: (Units=GPa)
#
#
# Indices 1 2 3 4 5 6 
#
# 1 71.0042 12.8379 34.2784 -11.6416 16.5767 -15.3084
# 2 12.8379 74.1001 31.1592 -38.9760 10.4739 -4.4258
# 3 34.2784 31.1592 169.3782 -51.0772 -11.0949 -1.6380
# 4 -11.6416 -38.9760 -51.0772 58.1192 -8.5322 -2.0193
# 5 16.5767 10.4739 -11.0949 -8.5322 18.5430 -7.5657
# 6 -15.3084 -4.4258 -1.6380 -2.0193 -7.5657 41.5302
#
#
#
# Elastic Compliance Matrix: (Units=1/GPa)
#
#
# Indices 1 2 3 4 5 6 
#
# 1 0.024989 0.000128 -0.009233 -0.007334 -0.030076 0.003025
# 2 0.000128 0.021598 -0.000236 0.013582 -0.005381 0.002019
# 3 -0.009233 -0.000236 0.013336 0.013193 0.023242 0.001973
# 4 -0.007334 0.013582 0.013193 0.040794 0.028150 0.006376
# 5 -0.030076 -0.005381 0.023242 0.028150 0.115472 0.011662
# 6 0.003025 0.002019 0.001973 0.006376 0.011662 0.027921
#
#
# Mechanical properties :
#
#
# Convention : Reuss Voigt Hill
#
# Bulk Modulus (GPa) = 24.24845 52.33703 38.29274
# Shear Modulus (GPa) = 18.08050 39.38563 28.73306
#
# Velocity S-wave (km/s) = 2.75081 4.05998 3.46774
# Velocity P-wave (km/s) = 4.49862 6.62433 5.66213
#
# Compressibility (1/GPa) = 0.04123975
#
# Stress axis : x y z
#
# Youngs Moduli (GPa) = 40.01681 46.30109 74.98550
#
# Poissons Ratio (x) = -0.00591 0.69235
# Poissons Ratio (y) = -0.00511 0.01771
# Poissons Ratio (z) = 0.36948 0.01094
#
# Static dielectric constant tensor:
#      x y z
#    x 0.384320 -0.657560 1.012000 
#    y -0.657560 1.612750 0.345000 
#    z 1.012000 0.345000 1.281470 
# 
# From -- ./inp_files/559710.got.cif
#   From: 2010.05.17/outbox.cif.g08.bks.cpg/sg2_280_cif.got.tgz:559710.got - 2010.06.03 11:33:40.
