data_PCOD9040629
_publ_section_title
;
Structure prediction by ZEFSAII (Michael W. Deem and Ramdas Pophale) SiO2 
 PCOD9040629
Probable space group: P -1
;
_chemical_formula_sum "Si O2"
_cell_formula_units_Z 15
_cell_length_a 10.720437
_cell_length_b 8.875427
_cell_length_c 9.008680
_cell_angle_alpha 90.574645
_cell_angle_beta 42.881081
_cell_angle_gamma 87.418616
_cell_volume 581.520179
_symmetry_space_group_name_H-M "P -1"
_symmetry_group_IT_number 2
_symmetry_cell_setting 'triclinic'
loop_
_space_group_symop_operation_xyz
x,y,z
-x,-y,-z
loop_
_atom_site_type_symbol
_atom_site_label
_atom_site_fract_x
_atom_site_fract_y
_atom_site_fract_z
Si Si1 0.821178 0.904611 0.158541
Si Si2 0.991038 0.687178 0.206144
Si Si3 0.554810 0.573443 0.108141
Si Si4 0.956734 0.637687 0.816443
Si Si5 0.457194 0.172679 0.069937
Si Si6 0.500000 0.500000 0.500000
Si Si7 0.633377 0.210341 0.235556
Si Si8 0.978114 0.820879 0.528511
O O1 0.829633 0.816522 0.306324
O O2 0.665850 0.033679 0.251452
O O3 0.865027 0.763941 0.008047
O O4 0.000000 0.000000 0.000000
O O5 0.928392 0.517316 0.233273
O O6 0.046650 0.730795 0.323157
O O7 0.166825 0.718034 0.951840
O O8 0.497019 0.518876 0.318174
O O9 0.500000 0.500000 0.000000
O O10 0.776648 0.560728 0.916285
O O11 0.486546 0.744304 0.128110
O O12 0.053508 0.732589 0.608591
O O13 0.550313 0.216044 0.142598
O O14 0.238693 0.199640 0.276088
O O15 0.500000 0.000000 0.000000
O O16 0.529665 0.315157 0.449238
O O17 0.000000 0.000000 0.500000
#
# Coordination Sequence:
#
# PCOD9040629 Si02
#       8
#     2   2   2   2   2   1   2   2
#     4  10  23  43  68 100 146 195 245 310 375 437
#     4  11  22  44  70 102 147 194 249 314 373 450
#     4  11  23  45  72 110 153 191 246 315 382 457
#     4  11  22  44  70 103 146 195 253 315 372 458
#     4  11  23  44  74 108 151 200 248 317 378 457
#     4  12  24  44  78 108 156 196 248 304 400 458
#     4  11  23  46  72 109 149 197 253 314 381 463
#     4  11  24  41  69 106 146 195 252 303 387 455
#
# _framework density 25.794460999999998
#
# number of rings (size 3 to 8) (size 9 to 14) (size 15 to 20)
#    0.000    1.067    2.667    4.800    0.000    2.133 
#    4.800    7.333    0.000    0.000    0.000    0.000 
#    0.000    0.000    0.000    0.000    0.000    0.000 
#
# Total GULP energy -83618.994521 kJ/mol
# GULP energy per Si atom -5574.599635 kJ/mol
# Density = 2.573575 g / cm^3
# Si number density = 25.794461 Si / 1000 Ang^3
#
#
#
# Elastic Constant Matrix: (Units=GPa)
#
#
# Indices 1 2 3 4 5 6 
#
# 1 70.1957 31.8328 38.0265 -1.4042 14.6706 1.0022
# 2 31.8328 244.9142 46.4229 -2.2107 40.2022 -17.4635
# 3 38.0265 46.4229 91.6828 -9.9233 25.2320 5.3146
# 4 -1.4042 -2.2107 -9.9233 48.8089 1.2970 18.9679
# 5 14.6706 40.2022 25.2320 1.2970 55.7746 -4.0491
# 6 1.0022 -17.4635 5.3146 18.9679 -4.0491 48.7124
#
#
#
# Elastic Compliance Matrix: (Units=1/GPa)
#
#
# Indices 1 2 3 4 5 6 
#
# 1 0.018720 -0.000890 -0.007190 -0.001105 -0.000973 0.000430
# 2 -0.000890 0.005083 -0.001758 -0.000941 -0.002453 0.002195
# 3 -0.007190 -0.001758 0.016986 0.005147 -0.004990 -0.004755
# 4 -0.001105 -0.000941 0.005147 0.025880 -0.002774 -0.011184
# 5 -0.000973 -0.002453 -0.004990 -0.002774 0.022466 0.002633
# 6 0.000430 0.002195 -0.004755 -0.011184 0.002633 0.026399
#
#
# Mechanical properties :
#
#
# Convention : Reuss Voigt Hill
#
# Bulk Modulus (GPa) = 47.36895 71.03968 59.20431
# Shear Modulus (GPa) = 35.14979 50.02655 42.58817
#
# Velocity S-wave (km/s) = 3.69546 4.40867 4.06773
# Velocity P-wave (km/s) = 6.05082 7.31544 6.71298
#
# Compressibility (1/GPa) = 0.02111088
#
# Stress axis : x y z
#
# Youngs Moduli (GPa) = 53.41965 196.74756 58.87190
#
# Poissons Ratio (x) = 0.17507 0.42331
# Poissons Ratio (y) = 0.04753 0.10353
# Poissons Ratio (z) = 0.38411 0.34598
#
# Static dielectric constant tensor:
#      x y z
#    x 2.047700 -0.051750 0.076270 
#    y -0.051750 2.205230 0.013440 
#    z 0.076270 0.013440 2.014000 
# 
# From -- ./inp_files/238152.got.cif
#   From: 2010.05.17/outbox.cif.g08.bks.cpg/sg2_120_cif.got.tgz:238152.got - 2010.06.03 11:33:40.
