data_PCOD9040336
_publ_section_title
;
Structure prediction by ZEFSAII (Michael W. Deem and Ramdas Pophale) SiO2 
 PCOD9040336
Probable space group: P -1
;
_chemical_formula_sum "Si O2"
_cell_formula_units_Z 16
_cell_length_a 22.162129
_cell_length_b 13.978479
_cell_length_c 24.462036
_cell_angle_alpha 150.275900
_cell_angle_beta 11.164985
_cell_angle_gamma 149.460497
_cell_volume 724.154776
_symmetry_space_group_name_H-M "P -1"
_symmetry_group_IT_number 2
_symmetry_cell_setting 'triclinic'
loop_
_space_group_symop_operation_xyz
x,y,z
-x,-y,-z
loop_
_atom_site_type_symbol
_atom_site_label
_atom_site_fract_x
_atom_site_fract_y
_atom_site_fract_z
Si Si1 0.682804 0.246967 0.193097
Si Si2 0.199639 0.116982 0.426818
Si Si3 0.160656 0.547101 0.642100
Si Si4 0.192917 0.074657 0.227396
Si Si5 0.421528 0.499401 0.273340
Si Si6 0.608503 0.606836 0.367899
Si Si7 0.352515 0.536781 0.227550
Si Si8 0.444110 0.816439 0.191469
O O1 0.585352 0.380031 0.295146
O O2 0.465102 0.286150 0.457444
O O3 0.652928 0.017490 0.097561
O O4 0.036574 0.330885 0.933753
O O5 0.255668 0.331305 0.460917
O O6 0.000000 0.000000 0.500000
O O7 0.984563 0.088781 0.657359
O O8 0.513521 0.013056 0.103006
O O9 0.241900 0.589957 0.527857
O O10 0.370255 0.657663 0.557566
O O11 0.790993 0.540029 0.976157
O O12 0.319102 0.267676 0.244770
O O13 0.916590 0.136649 0.465572
O O14 0.357092 0.571859 0.305336
O O15 0.511838 0.711595 0.136041
O O16 0.000000 0.500000 0.500000
O O17 0.516776 0.343912 0.969822
#
# Coordination Sequence:
#
# PCOD9040336 Si02
#       8
#     2   2   2   2   2   2   2   2
#     4  10  23  44  70  96 132 169 226 282 324 383
#     4  12  22  35  54  89 130 174 210 248 312 409
#     4  12  24  39  63  89 135 179 212 266 333 387
#     4  12  22  37  57  91 131 166 215 254 325 407
#     4  12  23  39  60  90 132 174 211 267 329 397
#     4  10  23  43  66 100 129 174 227 265 326 398
#     4  11  25  43  67 100 131 171 230 274 341 411
#     4  11  25  42  69  98 131 173 218 291 340 384
#
# _framework density 22.094723999999999
#
# number of rings (size 3 to 8) (size 9 to 14) (size 15 to 20)
#    0.000    0.750    3.750    4.125    3.500    3.000 
#    0.000    0.000    0.000    4.500    0.000    0.000 
#    0.000    0.000    0.000    0.000    0.000    0.000 
#
# Total GULP energy -89533.343295 kJ/mol
# GULP energy per Si atom -5595.833956 kJ/mol
# Density = 2.204444 g / cm^3
# Si number density = 22.094724 Si / 1000 Ang^3
#
#
#
# Elastic Constant Matrix: (Units=GPa)
#
#
# Indices 1 2 3 4 5 6 
#
# 1 98.6815 24.2180 -0.5301 -4.5088 -4.4667 -16.8169
# 2 24.2180 71.7583 6.3437 0.4707 0.3364 -13.5090
# 3 -0.5301 6.3437 82.4196 -7.7833 -7.1776 -1.0462
# 4 -4.5088 0.4707 -7.7833 23.2192 1.0697 -0.8824
# 5 -4.4667 0.3364 -7.1776 1.0697 34.2554 -4.8023
# 6 -16.8169 -13.5090 -1.0462 -0.8824 -4.8023 24.6598
#
#
#
# Elastic Compliance Matrix: (Units=1/GPa)
#
#
# Indices 1 2 3 4 5 6 
#
# 1 0.012394 -0.002871 0.000918 0.002931 0.002806 0.007570
# 2 -0.002871 0.016329 -0.001270 -0.001060 0.000205 0.006935
# 3 0.000918 -0.001270 0.012922 0.004449 0.002869 0.001197
# 4 0.002931 -0.001060 0.004449 0.045258 0.000374 0.003299
# 5 0.002806 0.000205 0.002869 0.000374 0.031303 0.008257
# 6 0.007570 0.006935 0.001197 0.003299 0.008257 0.051290
#
#
# Mechanical properties :
#
#
# Convention : Reuss Voigt Hill
#
# Bulk Modulus (GPa) = 28.41029 34.76916 31.58972
# Shear Modulus (GPa) = 26.64193 31.28207 28.96200
#
# Velocity S-wave (km/s) = 3.47624 3.76682 3.62444
# Velocity P-wave (km/s) = 5.38504 5.88975 5.64304
#
# Compressibility (1/GPa) = 0.03519852
#
# Stress axis : x y z
#
# Youngs Moduli (GPa) = 80.68304 61.24252 77.38876
#
# Poissons Ratio (x) = 0.17586 -0.07104
# Poissons Ratio (y) = 0.23168 0.09825
# Poissons Ratio (z) = -0.07407 0.07775
#
# Static dielectric constant tensor:
#      x y z
#    x 1.856740 -0.003490 -0.000140 
#    y -0.003490 1.826940 -0.012120 
#    z -0.000140 -0.012120 1.787750 
# 
# From -- ./inp_files/620972.got.cif
#   From: 2010.05.17/outbox.cif.g08.bks.cpg/sg2_311_cif.got.tgz:620972.got - 2010.06.03 11:33:40.
