data_PCOD9040395
_publ_section_title
;
Structure prediction by ZEFSAII (Michael W. Deem and Ramdas Pophale) SiO2 
 PCOD9040395
Probable space group: P -1
;
_chemical_formula_sum "Si O2"
_cell_formula_units_Z 16
_cell_length_a 11.888927
_cell_length_b 15.302526
_cell_length_c 8.677636
_cell_angle_alpha 73.454621
_cell_angle_beta 98.017119
_cell_angle_gamma 150.239154
_cell_volume 731.690760
_symmetry_space_group_name_H-M "P -1"
_symmetry_group_IT_number 2
_symmetry_cell_setting 'triclinic'
loop_
_space_group_symop_operation_xyz
x,y,z
-x,-y,-z
loop_
_atom_site_type_symbol
_atom_site_label
_atom_site_fract_x
_atom_site_fract_y
_atom_site_fract_z
Si Si1 0.656960 0.473705 0.266207
Si Si2 0.879462 0.936565 0.346422
Si Si3 0.697496 0.160601 0.576417
Si Si4 0.824901 0.109525 0.894784
Si Si5 0.548865 0.867843 0.246992
Si Si6 0.805245 0.519170 0.608040
Si Si7 0.494838 0.433064 0.730224
Si Si8 0.699538 0.821040 0.898812
O O1 0.711971 0.462996 0.442980
O O2 0.526508 0.476541 0.279913
O O3 0.494763 0.302404 0.208622
O O4 0.904760 0.675665 0.139257
O O5 0.744223 0.937937 0.320589
O O6 0.691703 0.729833 0.354286
O O7 0.000000 0.000000 0.500000
O O8 0.082015 0.076729 0.187583
O O9 0.604299 0.182699 0.638194
O O10 0.934775 0.332243 0.437837
O O11 0.500000 0.000000 0.500000
O O12 0.737894 0.111139 0.737157
O O13 0.790231 0.980153 0.903133
O O14 0.675209 0.016353 0.067640
O O15 0.358444 0.665791 0.239719
O O16 0.746822 0.574703 0.649400
O O17 0.414158 0.321312 0.921386
#
# Coordination Sequence:
#
# PCOD9040395 Si02
#       8
#     2   2   2   2   2   2   2   2
#     4  11  24  38  68 102 138 177 221 277 339 407
#     4  11  23  37  69 102 135 180 217 273 343 406
#     4  11  27  43  70  98 130 177 232 286 333 400
#     4  11  24  47  70  97 141 175 228 282 331 409
#     4  11  23  47  67  92 139 179 221 280 345 385
#     4  10  23  43  66  94 133 178 222 283 333 404
#     4  11  21  41  63  99 143 176 221 282 334 403
#     4  12  22  41  69 102 139 179 223 273 350 398
#
# _framework density 21.867163000000001
#
# number of rings (size 3 to 8) (size 9 to 14) (size 15 to 20)
#    0.000    1.000    3.750    4.125    3.500    2.000 
#    0.000    0.625    0.000    0.000    0.000    0.000 
#    0.000    0.000    0.000    0.000    0.000    0.000 
#
# Total GULP energy -89505.946701 kJ/mol
# GULP energy per Si atom -5594.121669 kJ/mol
# Density = 2.181739 g / cm^3
# Si number density = 21.867163 Si / 1000 Ang^3
#
#
#
# Elastic Constant Matrix: (Units=GPa)
#
#
# Indices 1 2 3 4 5 6 
#
# 1 107.9992 24.5354 30.2424 -6.9883 -23.1071 27.2998
# 2 24.5354 71.5870 -1.7710 -6.1715 -16.6162 21.5785
# 3 30.2424 -1.7710 58.1026 -23.6920 -22.7007 16.9615
# 4 -6.9883 -6.1715 -23.6920 34.4562 9.0236 -5.4047
# 5 -23.1071 -16.6162 -22.7007 9.0236 36.0592 -12.8098
# 6 27.2998 21.5785 16.9615 -5.4047 -12.8098 32.2500
#
#
#
# Elastic Compliance Matrix: (Units=1/GPa)
#
#
# Indices 1 2 3 4 5 6 
#
# 1 0.013259 -0.002507 -0.005485 -0.003152 0.002472 -0.006208
# 2 -0.002507 0.022624 0.013430 0.007825 0.010069 -0.014768
# 3 -0.005485 0.013430 0.040846 0.022448 0.017386 -0.015158
# 4 -0.003152 0.007825 0.022448 0.043576 0.002679 -0.006006
# 5 0.002472 0.010069 0.017386 0.002679 0.044249 0.000051
# 6 -0.006208 -0.014768 -0.015158 -0.006006 0.000051 0.053130
#
#
# Mechanical properties :
#
#
# Convention : Reuss Voigt Hill
#
# Bulk Modulus (GPa) = 11.41478 38.18915 24.80197
# Shear Modulus (GPa) = 21.18560 32.86523 27.02542
#
# Velocity S-wave (km/s) = 3.11598 3.88099 3.51934
# Velocity P-wave (km/s) = 4.26347 6.13065 5.28025
#
# Compressibility (1/GPa) = 0.08760569
#
# Stress axis : x y z
#
# Youngs Moduli (GPa) = 75.42090 44.20139 24.48199
#
# Poissons Ratio (x) = 0.11080 0.13429
# Poissons Ratio (y) = 0.18906 -0.32880
# Poissons Ratio (z) = 0.41369 -0.59363
#
# Static dielectric constant tensor:
#      x y z
#    x 1.942570 -0.050960 -0.023920 
#    y -0.050960 1.816900 -0.014850 
#    z -0.023920 -0.014850 1.823550 
# 
# From -- ./inp_files/272544.got.cif
#   From: 2010.05.17/outbox.cif.g08.bks.cpg/sg2_137_cif.got.tgz:272544.got - 2010.06.03 11:33:40.
