data_PCOD9040192
_publ_section_title
;
Structure prediction by ZEFSAII (Michael W. Deem and Ramdas Pophale) SiO2 
 PCOD9040192
Probable space group: P -1
;
_chemical_formula_sum "Si O2"
_cell_formula_units_Z 12
_cell_length_a 5.587398
_cell_length_b 10.818615
_cell_length_c 9.250135
_cell_angle_alpha 65.373455
_cell_angle_beta 61.555385
_cell_angle_gamma 78.364635
_cell_volume 446.926942
_symmetry_space_group_name_H-M "P -1"
_symmetry_group_IT_number 2
_symmetry_cell_setting 'triclinic'
loop_
_space_group_symop_operation_xyz
x,y,z
-x,-y,-z
loop_
_atom_site_type_symbol
_atom_site_label
_atom_site_fract_x
_atom_site_fract_y
_atom_site_fract_z
Si Si1 0.151030 0.852215 0.721167
Si Si2 0.480063 0.092452 0.656219
Si Si3 0.143889 0.308122 0.456516
Si Si4 0.469373 0.660509 0.897808
Si Si5 0.396473 0.187390 0.950509
Si Si6 0.404613 0.578225 0.351271
O O1 0.229274 0.888511 0.516203
O O2 0.257293 0.702045 0.812593
O O3 0.348612 0.954499 0.703325
O O4 0.857612 0.873999 0.863785
O O5 0.295988 0.210152 0.574108
O O6 0.465424 0.100192 0.830532
O O7 0.243336 0.281877 0.277082
O O8 0.256846 0.462347 0.360344
O O9 0.830044 0.316659 0.583894
O O10 0.500000 0.500000 0.000000
O O11 0.398522 0.751920 0.015526
O O12 0.342449 0.337982 0.823829
O O13 0.500000 0.500000 0.500000
#
# Coordination Sequence:
#
# PCOD9040192 Si02
#       6
#     2   2   2   2   2   2
#     4  10  26  48  67  96 139 173 226 275 330 397
#     4  10  23  50  68  93 137 183 216 276 332 393
#     4  10  23  43  64  94 142 171 218 275 329 394
#     4  11  25  42  64 104 134 172 219 282 330 389
#     4  12  25  40  71 102 127 178 227 270 334 394
#     4  11  23  39  67 101 130 179 221 268 337 391
#
# _framework density 26.850027999999998
#
# number of rings (size 3 to 8) (size 9 to 14) (size 15 to 20)
#    0.000    1.333    3.333    0.500    7.000    1.333 
#    3.000    2.500    0.000    0.000    0.000    0.000 
#    0.000    0.000    0.000    0.000    0.000    0.000 
#
# Total GULP energy -67034.115415 kJ/mol
# GULP energy per Si atom -5586.176285 kJ/mol
# Density = 2.678892 g / cm^3
# Si number density = 26.850028 Si / 1000 Ang^3
#
#
#
# Elastic Constant Matrix: (Units=GPa)
#
#
# Indices 1 2 3 4 5 6 
#
# 1 56.1316 19.2422 50.2605 6.8493 -5.3823 -27.7068
# 2 19.2422 126.5574 49.7987 17.5308 -1.3280 3.0772
# 3 50.2605 49.7987 200.2122 33.5172 -3.9831 2.5645
# 4 6.8493 17.5308 33.5172 52.1118 13.7904 10.5609
# 5 -5.3823 -1.3280 -3.9831 13.7904 48.5184 -3.0461
# 6 -27.7068 3.0772 2.5645 10.5609 -3.0461 48.7000
#
#
#
# Elastic Compliance Matrix: (Units=1/GPa)
#
#
# Indices 1 2 3 4 5 6 
#
# 1 0.040277 -0.002428 -0.008719 -0.005811 0.006921 0.025220
# 2 -0.002428 0.009065 -0.001351 -0.001615 0.000232 -0.001519
# 3 -0.008719 -0.001351 0.008023 -0.002631 0.000106 -0.004721
# 4 -0.005811 -0.001615 -0.002631 0.026474 -0.009018 -0.009371
# 5 0.006921 0.000232 0.000106 -0.009018 0.024421 0.007400
# 6 0.025220 -0.001519 -0.004721 -0.009371 0.007400 0.037722
#
#
# Mechanical properties :
#
#
# Convention : Reuss Voigt Hill
#
# Bulk Modulus (GPa) = 30.89523 69.05599 49.97561
# Shear Modulus (GPa) = 27.50754 47.43936 37.47345
#
# Velocity S-wave (km/s) = 3.20424 4.20792 3.73990
# Velocity P-wave (km/s) = 5.02206 7.02736 6.10757
#
# Compressibility (1/GPa) = 0.03236745
#
# Stress axis : x y z
#
# Youngs Moduli (GPa) = 24.82824 110.30976 124.64873
#
# Poissons Ratio (x) = 0.26788 1.08686
# Poissons Ratio (y) = 0.06029 0.16837
# Poissons Ratio (z) = 0.21649 0.14900
#
# Static dielectric constant tensor:
#      x y z
#    x 2.105100 0.060550 0.020290 
#    y 0.060550 2.229950 0.061580 
#    z 0.020290 0.061580 2.187770 
# 
# From -- ./inp_files/43805.got.cif
#   From: 2010.05.17/outbox.cif.g08.bks.cpg/sg2_22_cif.got.tgz:43805.got - 2010.06.03 11:33:40.
