data_PCOD9040899
_publ_section_title
;
Structure prediction by ZEFSAII (Michael W. Deem and Ramdas Pophale) SiO2 
 PCOD9040899
Probable space group: P -1
;
_chemical_formula_sum "Si O2"
_cell_formula_units_Z 14
_cell_length_a 12.623274
_cell_length_b 8.816846
_cell_length_c 15.622192
_cell_angle_alpha 48.308466
_cell_angle_beta 150.761696
_cell_angle_gamma 127.494056
_cell_volume 632.262676
_symmetry_space_group_name_H-M "P -1"
_symmetry_group_IT_number 2
_symmetry_cell_setting 'triclinic'
loop_
_space_group_symop_operation_xyz
x,y,z
-x,-y,-z
loop_
_atom_site_type_symbol
_atom_site_label
_atom_site_fract_x
_atom_site_fract_y
_atom_site_fract_z
Si Si1 0.715187 0.045090 0.077561
Si Si2 0.599150 0.382063 0.194601
Si Si3 0.003661 0.689465 0.100992
Si Si4 0.576469 0.486156 0.806584
Si Si5 0.237762 0.056935 0.041907
Si Si6 0.661305 0.599366 0.504551
Si Si7 0.882825 0.036446 0.492740
O O1 0.935036 0.994395 0.297001
O O2 0.715810 0.934818 0.028538
O O3 0.701550 0.282849 0.962738
O O4 0.500000 0.000000 0.000000
O O5 0.576023 0.511817 0.216346
O O6 0.811354 0.268249 0.361434
O O7 0.500000 0.500000 0.000000
O O8 0.444189 0.179321 0.182508
O O9 0.955213 0.815033 0.105715
O O10 0.105820 0.485165 0.278500
O O11 0.781467 0.651079 0.904393
O O12 0.175596 0.829597 0.114542
O O13 0.430281 0.486764 0.618639
O O14 0.500000 0.500000 0.500000
O O15 0.697993 0.845433 0.438787
O O16 0.000000 0.000000 0.500000
#
# Coordination Sequence:
#
# PCOD9040899 Si02
#       7
#     2   2   2   2   2   2   2
#     4  12  24  44  68 101 139 185 230 289 349 415
#     4  11  24  45  70 101 140 182 231 292 348 417
#     4  10  23  45  67 104 136 184 229 287 348 419
#     4  11  24  43  71 101 142 183 230 285 350 414
#     4  10  23  43  69  95 143 176 230 289 349 407
#     4  12  26  44  72 104 145 182 236 287 351 421
#     4  12  26  44  69 104 141 184 236 287 349 420
#
# _framework density 22.142695
#
# number of rings (size 3 to 8) (size 9 to 14) (size 15 to 20)
#    0.000    0.857    1.429    6.000    6.000    1.143 
#    0.000    5.000    0.000    0.000    0.000    0.000 
#    0.000    0.000    0.000    0.000    0.000    0.000 
#
# Total GULP energy -78135.973803 kJ/mol
# GULP energy per Si atom -5581.140986 kJ/mol
# Density = 2.209230 g / cm^3
# Si number density = 22.142695 Si / 1000 Ang^3
#
#
#
# Elastic Constant Matrix: (Units=GPa)
#
#
# Indices 1 2 3 4 5 6 
#
# 1 129.4333 26.5673 27.1700 4.1952 -5.3990 -23.3816
# 2 26.5673 81.5614 20.4480 2.1852 -3.1802 -5.4588
# 3 27.1700 20.4480 93.8099 0.2425 1.8019 -20.9550
# 4 4.1952 2.1852 0.2425 39.3558 -8.7607 0.8910
# 5 -5.3990 -3.1802 1.8019 -8.7607 24.7869 4.3127
# 6 -23.3816 -5.4588 -20.9550 0.8910 4.3127 43.7632
#
#
#
# Elastic Compliance Matrix: (Units=1/GPa)
#
#
# Indices 1 2 3 4 5 6 
#
# 1 0.009261 -0.002374 -0.001294 -0.000747 0.000853 0.003963
# 2 -0.002374 0.013669 -0.002527 -0.000128 0.001536 -0.000922
# 3 -0.001294 -0.002527 0.012848 -0.000517 -0.002666 0.005419
# 4 -0.000747 -0.000128 -0.000517 0.027790 0.010067 -0.002221
# 5 0.000853 0.001536 -0.002666 0.010067 0.045402 -0.005308
# 6 0.003963 -0.000922 0.005419 -0.002221 -0.005308 0.028016
#
#
# Mechanical properties :
#
#
# Convention : Reuss Voigt Hill
#
# Bulk Modulus (GPa) = 42.75546 50.35279 46.55413
# Shear Modulus (GPa) = 31.81235 36.95580 34.38407
#
# Velocity S-wave (km/s) = 3.79449 4.08975 3.94488
# Velocity P-wave (km/s) = 6.20875 6.71498 6.46682
#
# Compressibility (1/GPa) = 0.02338882
#
# Stress axis : x y z
#
# Youngs Moduli (GPa) = 107.98527 73.15817 77.83042
#
# Poissons Ratio (x) = 0.17364 0.10071
# Poissons Ratio (y) = 0.25631 0.19669
# Poissons Ratio (z) = 0.13972 0.18488
#
# Static dielectric constant tensor:
#      x y z
#    x 1.847310 0.025650 0.066950 
#    y 0.025650 1.837950 -0.074130 
#    z 0.066950 -0.074130 1.786140 
# 
# From -- ./inp_files/184616.got.cif
#   From: 2010.05.17/outbox.cif.g08.bks.cpg/sg2_93_cif.got.tgz:184616.got - 2010.06.03 11:33:40.
