data_PCOD9040522
_publ_section_title
;
Structure prediction by ZEFSAII (Michael W. Deem and Ramdas Pophale) SiO2 
 PCOD9040522
Probable space group: P -1
;
_chemical_formula_sum "Si O2"
_cell_formula_units_Z 16
_cell_length_a 17.788525
_cell_length_b 13.462626
_cell_length_c 19.868321
_cell_angle_alpha 138.846769
_cell_angle_beta 158.650858
_cell_angle_gamma 29.298202
_cell_volume 799.329527
_symmetry_space_group_name_H-M "P -1"
_symmetry_group_IT_number 2
_symmetry_cell_setting 'triclinic'
loop_
_space_group_symop_operation_xyz
x,y,z
-x,-y,-z
loop_
_atom_site_type_symbol
_atom_site_label
_atom_site_fract_x
_atom_site_fract_y
_atom_site_fract_z
Si Si1 0.771759 0.253771 0.422510
Si Si2 0.730837 0.582813 0.630578
Si Si3 0.912759 0.456595 0.971260
Si Si4 0.817429 0.457197 0.437963
Si Si5 0.061616 0.902089 0.207773
Si Si6 0.383461 0.608734 0.883579
Si Si7 0.207587 0.942055 0.204220
Si Si8 0.995415 0.381276 0.247072
O O1 0.807878 0.370461 0.566544
O O2 0.815823 0.317970 0.419485
O O3 0.433807 0.372127 0.209465
O O4 0.000000 0.000000 0.500000
O O5 0.377201 0.771329 0.438766
O O6 0.902513 0.561545 0.825151
O O7 0.838066 0.627478 0.679947
O O8 0.005836 0.238057 0.919756
O O9 0.000000 0.500000 0.000000
O O10 0.811768 0.406410 0.330342
O O11 0.526420 0.710488 0.335932
O O12 0.054789 0.459807 0.658759
O O13 0.105087 0.917006 0.173612
O O14 0.807243 0.141618 0.143854
O O15 0.500000 0.500000 0.000000
O O16 0.670935 0.487609 0.015889
O O17 0.175029 0.137170 0.290216
O O18 0.000000 0.000000 0.000000
#
# Coordination Sequence:
#
# PCOD9040522 Si02
#       8
#     2   2   2   2   2   2   2   2
#     4  10  23  43  67  95 126 163 219 273 320 371
#     4  10  23  43  67  93 123 170 221 260 309 397
#     4  11  24  42  67  92 123 167 215 265 326 381
#     4  11  23  41  65  93 129 170 219 261 309 391
#     4  11  24  43  60  95 132 162 213 265 318 377
#     4  12  25  40  58  97 138 168 202 269 327 370
#     4  12  19  39  69  91 124 174 210 256 311 386
#     4  11  22  38  67  93 124 168 219 249 318 384
#
# _framework density 20.016776
#
# number of rings (size 3 to 8) (size 9 to 14) (size 15 to 20)
#    0.000    1.000    6.250    1.875    0.000    8.000 
#    0.000    0.000    0.000    0.000    0.000    0.000 
#    0.000    0.000    0.000    0.000    0.000    0.000 
#
# Total GULP energy -89284.780618 kJ/mol
# GULP energy per Si atom -5580.298789 kJ/mol
# Density = 1.997122 g / cm^3
# Si number density = 20.016776 Si / 1000 Ang^3
#
#
#
# Elastic Constant Matrix: (Units=GPa)
#
#
# Indices 1 2 3 4 5 6 
#
# 1 55.4514 42.3830 32.8431 22.8983 -17.9400 10.4571
# 2 42.3830 171.1842 45.0649 3.8927 1.6944 12.3654
# 3 32.8431 45.0649 101.8348 23.2947 -20.1213 10.3515
# 4 22.8983 3.8927 23.2947 32.1456 -8.3734 9.1401
# 5 -17.9400 1.6944 -20.1213 -8.3734 29.6916 0.6942
# 6 10.4571 12.3654 10.3515 9.1401 0.6942 27.3417
#
#
#
# Elastic Compliance Matrix: (Units=1/GPa)
#
#
# Indices 1 2 3 4 5 6 
#
# 1 0.041908 -0.009819 0.000372 -0.022391 0.019930 -0.004749
# 2 -0.009819 0.009278 -0.003843 0.007171 -0.007016 -0.001205
# 3 0.000372 -0.003843 0.015076 -0.008067 0.008424 -0.001629
# 4 -0.022391 0.007171 -0.008067 0.053673 -0.004047 -0.009465
# 5 0.019930 -0.007016 0.008424 -0.004047 0.050866 -0.007577
# 6 -0.004749 -0.001205 -0.001629 -0.009465 -0.007577 0.042908
#
#
# Mechanical properties :
#
#
# Convention : Reuss Voigt Hill
#
# Bulk Modulus (GPa) = 25.20055 63.22803 44.21429
# Shear Modulus (GPa) = 19.72255 31.71440 25.71847
#
# Velocity S-wave (km/s) = 3.14236 3.98476 3.58836
# Velocity P-wave (km/s) = 5.07769 7.26823 6.26937
#
# Compressibility (1/GPa) = 0.03968168
#
# Stress axis : x y z
#
# Youngs Moduli (GPa) = 23.86166 107.78414 66.33088
#
# Poissons Ratio (x) = 1.05832 -0.02467
# Poissons Ratio (y) = 0.23429 0.25492
# Poissons Ratio (z) = -0.00887 0.41423
#
# Static dielectric constant tensor:
#      x y z
#    x 1.695300 -0.021730 -0.031880 
#    y -0.021730 1.790760 0.031190 
#    z -0.031880 0.031190 1.771470 
# 
# From -- ./inp_files/273696.got.cif
#   From: 2010.05.17/outbox.cif.g08.bks.cpg/sg2_137_cif.got.tgz:273696.got - 2010.06.03 11:33:40.
