data_PCOD9040219
_publ_section_title
;
Structure prediction by ZEFSAII (Michael W. Deem and Ramdas Pophale) SiO2 
 PCOD9040219
Probable space group: P -1
;
_chemical_formula_sum "Si O2"
_cell_formula_units_Z 16
_cell_length_a 13.484877
_cell_length_b 8.492328
_cell_length_c 11.512225
_cell_angle_alpha 79.919039
_cell_angle_beta 146.257053
_cell_angle_gamma 87.894258
_cell_volume 679.765243
_symmetry_space_group_name_H-M "P -1"
_symmetry_group_IT_number 2
_symmetry_cell_setting 'triclinic'
loop_
_space_group_symop_operation_xyz
x,y,z
-x,-y,-z
loop_
_atom_site_type_symbol
_atom_site_label
_atom_site_fract_x
_atom_site_fract_y
_atom_site_fract_z
Si Si1 0.936354 0.681410 0.586399
Si Si2 0.443656 0.335454 0.819171
Si Si3 0.993192 0.997368 0.275742
Si Si4 0.231136 0.678927 0.700004
Si Si5 0.681228 0.120233 0.564480
Si Si6 0.303914 0.057152 0.158555
Si Si7 0.914891 0.558013 0.037369
Si Si8 0.479803 0.500267 0.342477
O O1 0.722975 0.743539 0.323100
O O2 0.097437 0.605718 0.657486
O O3 0.993534 0.835291 0.673829
O O4 0.945318 0.543460 0.712727
O O5 0.353326 0.527327 0.756874
O O6 0.492369 0.354495 0.729470
O O7 0.628256 0.261812 0.087982
O O8 0.097365 0.836969 0.478083
O O9 0.118596 0.976297 0.283917
O O10 0.790749 0.992474 0.039246
O O11 0.511270 0.072546 0.343465
O O12 0.629482 0.320087 0.475318
O O13 0.676926 0.074179 0.701082
O O14 0.162519 0.240039 0.043382
O O15 0.729978 0.503683 0.882281
O O16 0.000000 0.500000 0.000000
O O17 0.500000 0.500000 0.500000
#
# Coordination Sequence:
#
# PCOD9040219 Si02
#       8
#     2   2   2   2   2   2   2   2
#     4  12  26  42  67 102 134 176 230 281 335 403
#     4  11  24  46  70  96 136 181 225 285 336 398
#     4  12  25  42  69  95 138 178 224 281 345 395
#     4  11  25  46  70  96 135 180 233 279 338 403
#     4  10  23  43  64  99 134 180 224 271 339 410
#     4  10  24  42  68  95 136 180 222 275 344 404
#     4  11  23  41  66 102 135 172 229 277 336 404
#     4  11  23  40  70 100 136 176 220 281 339 402
#
# _framework density 23.537538999999999
#
# number of rings (size 3 to 8) (size 9 to 14) (size 15 to 20)
#    0.000    1.000    2.500    3.375    3.500    4.500 
#    0.000    0.000    0.000    0.000    0.000    0.000 
#    0.000    0.000    0.000    0.000    0.000    0.000 
#
# Total GULP energy -89594.662715 kJ/mol
# GULP energy per Si atom -5599.666420 kJ/mol
# Density = 2.348397 g / cm^3
# Si number density = 23.537539 Si / 1000 Ang^3
#
#
#
# Elastic Constant Matrix: (Units=GPa)
#
#
# Indices 1 2 3 4 5 6 
#
# 1 63.7424 -2.7355 3.5978 0.5229 -9.8235 -1.3633
# 2 -2.7355 53.3680 29.3148 2.3076 -0.0400 5.2277
# 3 3.5978 29.3148 148.2907 27.0195 -7.9331 15.0557
# 4 0.5229 2.3076 27.0195 35.4528 -0.3331 -2.6905
# 5 -9.8235 -0.0400 -7.9331 -0.3331 29.2721 -6.9838
# 6 -1.3633 5.2277 15.0557 -2.6905 -6.9838 20.9770
#
#
#
# Elastic Compliance Matrix: (Units=1/GPa)
#
#
# Indices 1 2 3 4 5 6 
#
# 1 0.016809 0.000883 -0.000708 0.000563 0.006304 0.003552
# 2 0.000883 0.021353 -0.004400 0.001759 -0.001407 -0.002349
# 3 -0.000708 -0.004400 0.009736 -0.007623 0.000715 -0.006677
# 4 0.000563 0.001759 -0.007623 0.034645 0.000857 0.009798
# 5 0.006304 -0.001407 0.000715 0.000857 0.039720 0.013581
# 6 0.003552 -0.002349 -0.006677 0.009798 0.013581 0.059058
#
#
# Mechanical properties :
#
#
# Convention : Reuss Voigt Hill
#
# Bulk Modulus (GPa) = 25.35034 36.19503 30.77269
# Shear Modulus (GPa) = 24.64042 32.82198 28.73120
#
# Velocity S-wave (km/s) = 3.23903 3.73829 3.49758
# Velocity P-wave (km/s) = 4.97815 5.83473 5.42337
#
# Compressibility (1/GPa) = 0.03944720
#
# Stress axis : x y z
#
# Youngs Moduli (GPa) = 59.49235 46.83200 102.71677
#
# Poissons Ratio (x) = -0.04136 0.07276
# Poissons Ratio (y) = -0.05254 0.45194
# Poissons Ratio (z) = 0.04214 0.20605
#
# Static dielectric constant tensor:
#      x y z
#    x 1.901000 -0.027810 -0.029880 
#    y -0.027810 1.889090 0.011370 
#    z -0.029880 0.011370 1.979620 
# 
# From -- ./inp_files/447562.got.cif
#   From: 2010.05.17/outbox.cif.g08.bks.cpg/sg2_224_cif.got.tgz:447562.got - 2010.06.03 11:33:40.
