data_PCOD9040562
_publ_section_title
;
Structure prediction by ZEFSAII (Michael W. Deem and Ramdas Pophale) SiO2 
 PCOD9040562
Probable space group: P -1
;
_chemical_formula_sum "Si O2"
_cell_formula_units_Z 16
_cell_length_a 9.342429
_cell_length_b 14.749535
_cell_length_c 9.473444
_cell_angle_alpha 93.708188
_cell_angle_beta 65.196687
_cell_angle_gamma 48.973653
_cell_volume 775.971860
_symmetry_space_group_name_H-M "P -1"
_symmetry_group_IT_number 2
_symmetry_cell_setting 'triclinic'
loop_
_space_group_symop_operation_xyz
x,y,z
-x,-y,-z
loop_
_atom_site_type_symbol
_atom_site_label
_atom_site_fract_x
_atom_site_fract_y
_atom_site_fract_z
Si Si1 0.898864 0.677330 0.093563
Si Si2 0.561831 0.968899 0.139636
Si Si3 0.754972 0.405812 0.810770
Si Si4 0.197082 0.981378 0.270657
Si Si5 0.279524 0.420351 0.719504
Si Si6 0.729383 0.575317 0.607672
Si Si7 0.227591 0.773515 0.386299
Si Si8 0.284154 0.901200 0.904367
O O1 0.790362 0.809928 0.070903
O O2 0.715231 0.687964 0.247611
O O3 0.073756 0.630923 0.141790
O O4 0.036353 0.562912 0.902649
O O5 0.349281 0.995252 0.283171
O O6 0.615378 0.044982 0.187705
O O7 0.500000 0.000000 0.000000
O O8 0.729660 0.489244 0.703206
O O9 0.855984 0.268727 0.688498
O O10 0.500000 0.500000 0.000000
O O11 0.215052 0.877182 0.329281
O O12 0.283990 0.919523 0.073333
O O13 0.931689 0.139801 0.400233
O O14 0.293899 0.432285 0.549909
O O15 0.503971 0.368512 0.697380
O O16 0.493973 0.738203 0.762565
O O17 0.000000 0.500000 0.500000
O O18 0.000000 0.000000 0.000000
#
# Coordination Sequence:
#
# PCOD9040562 Si02
#       8
#     2   2   2   2   2   2   2   2
#     4  11  24  44  73 103 140 191 241 284 373 435
#     4  10  24  42  71  97 136 184 238 279 349 436
#     4  12  26  46  73 107 146 187 240 308 368 432
#     4  10  23  43  67  96 138 186 233 287 352 432
#     4  11  24  44  72 100 144 188 236 297 358 434
#     4  12  28  45  73 109 148 187 246 308 361 429
#     4  11  23  42  69 100 140 181 237 296 352 421
#     4  11  26  44  69  99 146 189 237 294 364 426
#
# _framework density 20.619302999999999
#
# number of rings (size 3 to 8) (size 9 to 14) (size 15 to 20)
#    0.000    1.000    3.750    1.500    8.750    1.500 
#    0.000    1.250    0.000    0.000    0.000    0.000 
#    0.000    0.000    0.000    0.000    0.000    0.000 
#
# Total GULP energy -89158.867502 kJ/mol
# GULP energy per Si atom -5572.429219 kJ/mol
# Density = 2.057237 g / cm^3
# Si number density = 20.619303 Si / 1000 Ang^3
#
#
#
# Elastic Constant Matrix: (Units=GPa)
#
#
# Indices 1 2 3 4 5 6 
#
# 1 100.2011 37.3515 28.1743 1.0608 2.1333 16.5918
# 2 37.3515 110.4966 38.2322 -5.8717 -4.9136 14.6010
# 3 28.1743 38.2322 111.2954 -8.9762 3.4193 3.9398
# 4 1.0608 -5.8717 -8.9762 24.4288 -7.2116 -3.6452
# 5 2.1333 -4.9136 3.4193 -7.2116 21.4622 -7.6624
# 6 16.5918 14.6010 3.9398 -3.6452 -7.6624 29.2601
#
#
#
# Elastic Compliance Matrix: (Units=1/GPa)
#
#
# Indices 1 2 3 4 5 6 
#
# 1 0.013311 -0.003247 -0.002200 -0.005209 -0.006297 -0.007929
# 2 -0.003247 0.011813 -0.003054 0.002534 0.003505 -0.002409
# 3 -0.002200 -0.003054 0.010826 0.003442 -0.000471 0.001620
# 4 -0.005209 0.002534 0.003442 0.051816 0.022838 0.013662
# 5 -0.006297 0.003505 -0.000471 0.022838 0.063386 0.021329
# 6 -0.007929 -0.002409 0.001620 0.013662 0.021329 0.046944
#
#
# Mechanical properties :
#
#
# Convention : Reuss Voigt Hill
#
# Bulk Modulus (GPa) = 52.77833 58.83433 55.80633
# Shear Modulus (GPa) = 22.58205 29.57922 26.08063
#
# Velocity S-wave (km/s) = 3.31296 3.79164 3.56035
# Velocity P-wave (km/s) = 6.34715 6.91117 6.63516
#
# Compressibility (1/GPa) = 0.01894717
#
# Stress axis : x y z
#
# Youngs Moduli (GPa) = 75.12412 84.65017 92.37067
#
# Poissons Ratio (x) = 0.27490 0.20323
# Poissons Ratio (y) = 0.24396 0.28211
# Poissons Ratio (z) = 0.16528 0.25853
#
# Static dielectric constant tensor:
#      x y z
#    x 1.801310 0.012330 -0.056590 
#    y 0.012330 1.749430 0.016010 
#    z -0.056590 0.016010 1.743170 
# 
# From -- ./inp_files/207638.got.cif
#   From: 2010.05.17/outbox.cif.g08.bks.cpg/sg2_104_cif.got.tgz:207638.got - 2010.06.03 11:33:40.
