data_PCOD9040671
_publ_section_title
;
Structure prediction by ZEFSAII (Michael W. Deem and Ramdas Pophale) SiO2 
 PCOD9040671
Probable space group: P -1
;
_chemical_formula_sum "Si O2"
_cell_formula_units_Z 14
_cell_length_a 10.597234
_cell_length_b 8.744298
_cell_length_c 11.332430
_cell_angle_alpha 69.988520
_cell_angle_beta 137.450456
_cell_angle_gamma 95.615354
_cell_volume 647.287614
_symmetry_space_group_name_H-M "P -1"
_symmetry_group_IT_number 2
_symmetry_cell_setting 'triclinic'
loop_
_space_group_symop_operation_xyz
x,y,z
-x,-y,-z
loop_
_atom_site_type_symbol
_atom_site_label
_atom_site_fract_x
_atom_site_fract_y
_atom_site_fract_z
Si Si1 0.319725 0.688604 0.084018
Si Si2 0.025604 0.173331 0.520242
Si Si3 0.094209 0.304524 0.149567
Si Si4 0.687551 0.680256 0.918914
Si Si5 0.691368 0.670967 0.467501
Si Si6 0.611949 0.305429 0.122491
Si Si7 0.011400 0.614104 0.360410
O O1 0.342216 0.491487 0.116958
O O2 0.464936 0.702147 0.284597
O O3 0.392859 0.761153 0.995548
O O4 0.094564 0.762218 0.934338
O O5 0.832643 0.295023 0.302706
O O6 0.214312 0.215430 0.584936
O O7 0.009382 0.206196 0.639849
O O8 0.000000 0.000000 0.500000
O O9 0.222503 0.228628 0.145890
O O10 0.228017 0.302684 0.355679
O O11 0.000000 0.500000 0.000000
O O12 0.491675 0.773949 0.824970
O O13 0.845593 0.632957 0.144151
O O14 0.792693 0.481250 0.543379
O O15 0.500000 0.500000 0.000000
O O16 0.000000 0.500000 0.500000
#
# Coordination Sequence:
#
# PCOD9040671 Si02
#       7
#     2   2   2   2   2   2   2
#     4  10  18  32  57  86 119 157 193 250 310 350
#     4  11  23  38  60  92 127 159 205 261 306 363
#     4  10  19  34  52  92 130 148 198 264 301 354
#     4  10  19  32  53  88 125 146 198 255 305 353
#     4  11  19  36  61  87 120 165 202 250 310 362
#     4  10  17  35  59  85 116 156 197 252 298 347
#     4  10  17  33  56  85 117 155 197 250 304 351
#
# _framework density 21.628715
#
# number of rings (size 3 to 8) (size 9 to 14) (size 15 to 20)
#    0.000    1.714    4.286    6.000    0.000    2.286 
#    2.571    2.857    0.000    1.714    0.000    0.000 
#    0.000    0.000    0.000    0.000    0.000    0.000 
#
# Total GULP energy -78031.287527 kJ/mol
# GULP energy per Si atom -5573.663395 kJ/mol
# Density = 2.157949 g / cm^3
# Si number density = 21.628715 Si / 1000 Ang^3
#
#
#
# Elastic Constant Matrix: (Units=GPa)
#
#
# Indices 1 2 3 4 5 6 
#
# 1 133.4216 16.6232 39.8975 18.3236 -2.3100 -19.8802
# 2 16.6232 63.4231 23.7075 20.6276 3.0259 -0.5426
# 3 39.8975 23.7075 148.5115 49.2190 4.1666 -5.4660
# 4 18.3236 20.6276 49.2190 22.0770 -0.1376 -1.2064
# 5 -2.3100 3.0259 4.1666 -0.1376 22.0066 7.1880
# 6 -19.8802 -0.5426 -5.4660 -1.2064 7.1880 9.1168
#
#
#
# Elastic Compliance Matrix: (Units=1/GPa)
#
#
# Indices 1 2 3 4 5 6 
#
# 1 0.016206 0.005301 0.009009 -0.035869 -0.017263 0.049920
# 2 0.005301 0.036979 0.026180 -0.095626 -0.020972 0.033339
# 3 0.009009 0.026180 0.048735 -0.137674 -0.031329 0.056905
# 4 -0.035869 -0.095626 -0.137674 0.461982 0.097968 -0.182556
# 5 -0.017263 -0.020972 -0.031329 0.097968 0.091129 -0.116562
# 6 0.049920 0.033339 0.056905 -0.182556 -0.116562 0.322389
#
#
# Mechanical properties :
#
#
# Convention : Reuss Voigt Hill
#
# Bulk Modulus (GPa) = 5.46746 56.20141 30.83443
# Shear Modulus (GPa) = 5.22245 28.31531 16.76888
#
# Velocity S-wave (km/s) = 1.55558 3.62215 2.78745
# Velocity P-wave (km/s) = 2.39996 6.59805 4.96458
#
# Compressibility (1/GPa) = 0.18290034
#
# Stress axis : x y z
#
# Youngs Moduli (GPa) = 61.70568 27.04273 20.51933
#
# Poissons Ratio (x) = -0.14337 -0.18486
# Poissons Ratio (y) = -0.32713 -0.53720
# Poissons Ratio (z) = -0.55591 -0.70798
#
# Static dielectric constant tensor:
#      x y z
#    x 1.927210 0.030380 -0.020880 
#    y 0.030380 1.891350 -0.016620 
#    z -0.020880 -0.016620 1.803470 
# 
# From -- ./inp_files/415029.got.cif
#   From: 2010.05.17/outbox.cif.g08.bks.cpg/sg2_208_cif.got.tgz:415029.got - 2010.06.03 11:33:40.
