data_PCOD9040253
_publ_section_title
;
Structure prediction by ZEFSAII (Michael W. Deem and Ramdas Pophale) SiO2 
 PCOD9040253
Probable space group: P -1
;
_chemical_formula_sum "Si O2"
_cell_formula_units_Z 16
_cell_length_a 11.073769
_cell_length_b 7.326085
_cell_length_c 10.357990
_cell_angle_alpha 88.506912
_cell_angle_beta 121.726069
_cell_angle_gamma 94.190219
_cell_volume 712.763341
_symmetry_space_group_name_H-M "P -1"
_symmetry_group_IT_number 2
_symmetry_cell_setting 'triclinic'
loop_
_space_group_symop_operation_xyz
x,y,z
-x,-y,-z
loop_
_atom_site_type_symbol
_atom_site_label
_atom_site_fract_x
_atom_site_fract_y
_atom_site_fract_z
Si Si1 0.703944 0.901530 0.517882
Si Si2 0.733398 0.504015 0.621652
Si Si3 0.327353 0.558942 0.797105
Si Si4 0.909672 0.337048 0.525761
Si Si5 0.541041 0.597786 0.711154
Si Si6 0.350509 0.898783 0.973455
Si Si7 0.614011 0.032758 0.712928
Si Si8 0.182354 0.147522 0.699606
O O1 0.767827 0.718227 0.607510
O O2 0.712099 0.046371 0.638729
O O3 0.763533 0.923096 0.406857
O O4 0.533113 0.877055 0.402413
O O5 0.861980 0.400776 0.638743
O O6 0.673632 0.493878 0.733130
O O7 0.594781 0.452016 0.456162
O O8 0.232020 0.672229 0.640894
O O9 0.482544 0.555295 0.820507
O O10 0.259465 0.351003 0.767321
O O11 0.335538 0.690476 0.921040
O O12 0.000000 0.500000 0.500000
O O13 0.015233 0.177103 0.598432
O O14 0.577593 0.814251 0.713948
O O15 0.228947 0.011419 0.837499
O O16 0.338431 0.904945 0.120352
O O17 0.500000 0.000000 0.000000
#
# Coordination Sequence:
#
# PCOD9040253 Si02
#       8
#     2   2   2   2   2   2   2   2
#     4  10  17  33  56  79 105 150 191 227 284 328
#     4   9  16  27  53  82 109 137 182 244 281 323
#     4  10  20  36  57  88 115 147 192 237 286 344
#     4   9  17  33  55  86 110 143 199 242 273 338
#     4   9  15  29  49  78 111 138 177 234 283 325
#     4  12  23  37  53  85 127 148 183 238 294 346
#     4  10  21  33  50  80 117 147 180 235 284 342
#     4  11  21  37  62  87 109 155 193 235 292 336
#
# _framework density 22.447842000000001
#
# number of rings (size 3 to 8) (size 9 to 14) (size 15 to 20)
#    0.000    2.000    6.250    0.000    0.000    1.000 
#    2.250    0.000    0.000    3.750    0.000    0.000 
#    0.000    0.000    0.000    0.000    0.000    0.000 
#
# Total GULP energy -89322.089378 kJ/mol
# GULP energy per Si atom -5582.630586 kJ/mol
# Density = 2.239675 g / cm^3
# Si number density = 22.447842 Si / 1000 Ang^3
#
#
#
# Elastic Constant Matrix: (Units=GPa)
#
#
# Indices 1 2 3 4 5 6 
#
# 1 104.5036 60.8089 44.0550 8.1067 -20.0514 -43.3601
# 2 60.8089 110.0309 50.9045 3.9730 -15.3268 -11.7364
# 3 44.0550 50.9045 112.8698 1.2834 -33.8987 -30.4896
# 4 8.1067 3.9730 1.2834 41.9638 -14.0113 0.1195
# 5 -20.0514 -15.3268 -33.8987 -14.0113 32.2939 10.6847
# 6 -43.3601 -11.7364 -30.4896 0.1195 10.6847 42.8087
#
#
#
# Elastic Compliance Matrix: (Units=1/GPa)
#
#
# Indices 1 2 3 4 5 6 
#
# 1 0.027735 -0.013537 0.003843 -0.002537 0.005183 0.025832
# 2 -0.013537 0.018150 -0.007429 0.000105 -0.003164 -0.013237
# 3 0.003843 -0.007429 0.018746 0.005075 0.017127 0.010918
# 4 -0.002537 0.000105 0.005075 0.030198 0.018069 -0.003520
# 5 0.005183 -0.003164 0.017127 0.018069 0.057804 0.002103
# 6 0.025832 -0.013237 0.010918 -0.003520 0.002103 0.053156
#
#
# Mechanical properties :
#
#
# Convention : Reuss Voigt Hill
#
# Bulk Modulus (GPa) = 32.91129 70.99345 51.95237
# Shear Modulus (GPa) = 19.98690 34.85567 27.42129
#
# Velocity S-wave (km/s) = 2.98714 3.94476 3.49887
# Velocity P-wave (km/s) = 5.15659 7.24174 6.28622
#
# Compressibility (1/GPa) = 0.03038471
#
# Stress axis : x y z
#
# Youngs Moduli (GPa) = 36.05542 55.09577 53.34487
#
# Poissons Ratio (x) = 0.74583 -0.20501
# Poissons Ratio (y) = 0.48808 0.39632
# Poissons Ratio (z) = -0.13857 0.40933
#
# Static dielectric constant tensor:
#      x y z
#    x 1.858030 -0.002930 -0.021520 
#    y -0.002930 1.886800 0.023600 
#    z -0.021520 0.023600 1.849500 
# 
# From -- ./inp_files/415286.got.cif
#   From: 2010.05.17/outbox.cif.g08.bks.cpg/sg2_208_cif.got.tgz:415286.got - 2010.06.03 11:33:40.
