data_PCOD9040661
_publ_section_title
;
Structure prediction by ZEFSAII (Michael W. Deem and Ramdas Pophale) SiO2 
 PCOD9040661
Probable space group: P -1
;
_chemical_formula_sum "Si O2"
_cell_formula_units_Z 14
_cell_length_a 12.052283
_cell_length_b 7.417072
_cell_length_c 19.036500
_cell_angle_alpha 55.360612
_cell_angle_beta 157.596937
_cell_angle_gamma 117.223082
_cell_volume 520.881958
_symmetry_space_group_name_H-M "P -1"
_symmetry_group_IT_number 2
_symmetry_cell_setting 'triclinic'
loop_
_space_group_symop_operation_xyz
x,y,z
-x,-y,-z
loop_
_atom_site_type_symbol
_atom_site_label
_atom_site_fract_x
_atom_site_fract_y
_atom_site_fract_z
Si Si1 0.631471 0.189763 0.307807
Si Si2 0.768284 0.479646 0.513515
Si Si3 0.437169 0.888281 0.139771
Si Si4 0.933711 0.229426 0.274411
Si Si5 0.163400 0.050723 0.153710
Si Si6 0.603248 0.775502 0.565095
Si Si7 0.648825 0.690703 0.163020
O O1 0.383932 0.205314 0.221573
O O2 0.688729 0.432613 0.270579
O O3 0.508174 0.087837 0.187393
O O4 0.911512 0.000513 0.542723
O O5 0.958023 0.580886 0.659574
O O6 0.020538 0.283481 0.670893
O O7 0.484269 0.412946 0.397076
O O8 0.644678 0.669751 0.343740
O O9 0.511822 0.857328 0.108416
O O10 0.094141 0.875225 0.956565
O O11 0.080171 0.245259 0.279985
O O12 0.585149 0.282511 0.043466
O O13 0.376363 0.822526 0.356070
O O14 0.000000 0.000000 0.000000
O O15 0.500000 0.000000 0.500000
#
# Coordination Sequence:
#
# PCOD9040661 Si02
#       7
#     2   2   2   2   2   2   2
#     4   9  23  44  70 102 141 178 235 286 349 411
#     4  11  26  45  66 102 142 178 234 285 347 419
#     4  10  23  43  68 103 137 184 233 285 344 411
#     4  10  24  46  71 101 135 187 233 284 350 412
#     4   9  20  41  68 100 130 180 229 286 344 403
#     4  11  24  44  69 102 135 177 232 293 342 409
#     4  12  25  46  72 102 143 189 227 288 347 419
#
# _framework density 26.877493000000001
#
# number of rings (size 3 to 8) (size 9 to 14) (size 15 to 20)
#    0.000    1.714    0.000    3.000   10.000    2.857 
#    5.143    1.429    0.000    0.000    0.000    0.000 
#    0.000    0.000    0.000    0.000    0.000    0.000 
#
# Total GULP energy -78502.026081 kJ/mol
# GULP energy per Si atom -5607.287577 kJ/mol
# Density = 2.681632 g / cm^3
# Si number density = 26.877493 Si / 1000 Ang^3
#
#
#
# Elastic Constant Matrix: (Units=GPa)
#
#
# Indices 1 2 3 4 5 6 
#
# 1 142.2307 30.0367 21.5845 -4.7840 12.7345 -6.1298
# 2 30.0367 98.1269 13.6508 -6.7174 -7.8990 -0.4403
# 3 21.5845 13.6508 66.9755 3.6261 8.3843 8.6146
# 4 -4.7840 -6.7174 3.6261 23.8755 -4.5159 -6.7668
# 5 12.7345 -7.8990 8.3843 -4.5159 54.8202 6.0491
# 6 -6.1298 -0.4403 8.6146 -6.7668 6.0491 45.4466
#
#
#
# Elastic Compliance Matrix: (Units=1/GPa)
#
#
# Indices 1 2 3 4 5 6 
#
# 1 0.008159 -0.002224 -0.002272 0.001550 -0.001962 0.002002
# 2 -0.002224 0.011681 -0.002282 0.003846 0.002817 0.000443
# 3 -0.002272 -0.002282 0.017244 -0.005328 -0.002428 -0.004067
# 4 0.001550 0.003846 -0.005328 0.047037 0.004031 0.007723
# 5 -0.001962 0.002817 -0.002428 0.004031 0.020010 -0.001840
# 6 0.002002 0.000443 -0.004067 0.007723 -0.001840 0.024444
#
#
# Mechanical properties :
#
#
# Convention : Reuss Voigt Hill
#
# Bulk Modulus (GPa) = 42.50267 48.65301 45.57784
# Shear Modulus (GPa) = 33.33903 40.96586 37.15245
#
# Velocity S-wave (km/s) = 3.52576 3.90830 3.72195
# Velocity P-wave (km/s) = 5.69407 6.20544 5.95525
#
# Compressibility (1/GPa) = 0.02352793
#
# Stress axis : x y z
#
# Youngs Moduli (GPa) = 122.55787 85.60781 57.99194
#
# Poissons Ratio (x) = 0.19042 0.13176
# Poissons Ratio (y) = 0.27261 0.13233
# Poissons Ratio (z) = 0.27846 0.19534
#
# Static dielectric constant tensor:
#      x y z
#    x 2.207790 -0.000190 -0.015240 
#    y -0.000190 2.130850 0.031960 
#    z -0.015240 0.031960 2.044600 
# 
# From -- ./inp_files/612742.got.cif
#   From: 2010.05.17/outbox.cif.g08.bks.cpg/sg2_307_cif.got.tgz:612742.got - 2010.06.03 11:33:40.
