data_PCOD9040984
_publ_section_title
;
Structure prediction by ZEFSAII (Michael W. Deem and Ramdas Pophale) SiO2 
 PCOD9040984
Probable space group: P -1
;
_chemical_formula_sum "Si O2"
_cell_formula_units_Z 16
_cell_length_a 14.611608
_cell_length_b 9.648535
_cell_length_c 9.004074
_cell_angle_alpha 66.653781
_cell_angle_beta 51.197790
_cell_angle_gamma 98.985184
_cell_volume 749.191719
_symmetry_space_group_name_H-M "P -1"
_symmetry_group_IT_number 2
_symmetry_cell_setting 'triclinic'
loop_
_space_group_symop_operation_xyz
x,y,z
-x,-y,-z
loop_
_atom_site_type_symbol
_atom_site_label
_atom_site_fract_x
_atom_site_fract_y
_atom_site_fract_z
Si Si1 0.481133 0.283562 0.709393
Si Si2 0.208841 0.304958 0.277842
Si Si3 0.256243 0.003648 0.420637
Si Si4 0.442371 0.654691 0.056895
Si Si5 0.028236 0.681881 0.320317
Si Si6 0.010827 0.673638 0.990023
Si Si7 0.690038 0.119516 0.886915
Si Si8 0.262558 0.385359 0.851466
O O1 0.343188 0.281872 0.802580
O O2 0.611955 0.410917 0.414315
O O3 0.520542 0.364427 0.803100
O O4 0.444473 0.081485 0.848549
O O5 0.191734 0.112854 0.377136
O O6 0.082488 0.283386 0.510278
O O7 0.356125 0.465064 0.137592
O O8 0.214709 0.368901 0.077173
O O9 0.414166 0.172799 0.235153
O O10 0.269606 0.899984 0.312471
O O11 0.154453 0.857812 0.707620
O O12 0.339663 0.725607 0.141680
O O13 0.186366 0.836655 0.145168
O O14 0.000000 0.500000 0.500000
O O15 0.012666 0.660246 0.170079
O O16 0.875599 0.677870 0.078364
O O17 0.000000 0.500000 0.000000
#
# Coordination Sequence:
#
# PCOD9040984 Si02
#       8
#     2   2   2   2   2   2   2   2
#     4  10  23  43  70 101 141 178 233 276 345 406
#     4  12  24  44  72 102 145 179 230 282 343 410
#     4  11  25  44  72 104 137 184 228 280 346 411
#     4  11  23  44  72 103 142 184 226 287 339 408
#     4  12  26  48  67 102 135 184 226 288 351 407
#     4  12  29  47  70  99 139 180 236 286 348 413
#     4  11  23  44  73 100 142 182 230 281 343 412
#     4  11  24  43  68 102 138 181 223 284 342 399
#
# _framework density 21.356349000000002
#
# number of rings (size 3 to 8) (size 9 to 14) (size 15 to 20)
#    0.000    0.750    3.750    4.875    5.250    2.500 
#    2.250    1.250    0.000    0.000    0.000    0.000 
#    0.000    0.000    0.000    0.000    0.000    0.000 
#
# Total GULP energy -89521.719598 kJ/mol
# GULP energy per Si atom -5595.107475 kJ/mol
# Density = 2.130774 g / cm^3
# Si number density = 21.356349 Si / 1000 Ang^3
#
#
#
# Elastic Constant Matrix: (Units=GPa)
#
#
# Indices 1 2 3 4 5 6 
#
# 1 120.8469 19.3095 51.3308 6.1836 -1.4847 11.0400
# 2 19.3095 60.3221 44.5378 2.4843 5.0419 3.4598
# 3 51.3308 44.5378 147.5609 15.5373 24.0113 0.8576
# 4 6.1836 2.4843 15.5373 21.4275 -5.8569 -3.7886
# 5 -1.4847 5.0419 24.0113 -5.8569 36.7224 5.5671
# 6 11.0400 3.4598 0.8576 -3.7886 5.5671 27.4534
#
#
#
# Elastic Compliance Matrix: (Units=1/GPa)
#
#
# Indices 1 2 3 4 5 6 
#
# 1 0.010614 -0.000327 -0.004255 0.000304 0.004043 -0.004872
# 2 -0.000327 0.021791 -0.007184 0.003035 0.002554 -0.002489
# 3 -0.004255 -0.007184 0.012969 -0.009464 -0.009607 0.002854
# 4 0.000304 0.003035 -0.009464 0.057856 0.014272 0.004881
# 5 0.004043 0.002554 -0.009607 0.014272 0.036681 -0.007117
# 6 -0.004872 -0.002489 0.002854 0.004881 -0.007117 0.040726
#
#
# Mechanical properties :
#
#
# Convention : Reuss Voigt Hill
#
# Bulk Modulus (GPa) = 45.78481 62.12066 53.95273
# Shear Modulus (GPa) = 23.64637 31.35743 27.50190
#
# Velocity S-wave (km/s) = 3.33111 3.83599 3.59243
# Velocity P-wave (km/s) = 6.02330 6.98360 6.52115
#
# Compressibility (1/GPa) = 0.02184131
#
# Stress axis : x y z
#
# Youngs Moduli (GPa) = 94.21726 45.89090 77.10889
#
# Poissons Ratio (x) = 0.01500 0.32811
# Poissons Ratio (y) = 0.03080 0.55395
# Poissons Ratio (z) = 0.40090 0.32968
#
# Static dielectric constant tensor:
#      x y z
#    x 1.787140 -0.010650 -0.051640 
#    y -0.010650 1.746410 -0.010070 
#    z -0.051640 -0.010070 1.765710 
# 
# From -- ./inp_files/297792.got.cif
#   From: 2010.05.17/outbox.cif.g08.bks.cpg/sg2_149_cif.got.tgz:297792.got - 2010.06.03 11:33:40.
