data_PCOD9040287
_publ_section_title
;
Structure prediction by ZEFSAII (Michael W. Deem and Ramdas Pophale) SiO2 
 PCOD9040287
Probable space group: P -1
;
_chemical_formula_sum "Si O2"
_cell_formula_units_Z 16
_cell_length_a 9.443282
_cell_length_b 21.402011
_cell_length_c 10.489569
_cell_angle_alpha 131.001718
_cell_angle_beta 43.824715
_cell_angle_gamma 148.812846
_cell_volume 755.699596
_symmetry_space_group_name_H-M "P -1"
_symmetry_group_IT_number 2
_symmetry_cell_setting 'triclinic'
loop_
_space_group_symop_operation_xyz
x,y,z
-x,-y,-z
loop_
_atom_site_type_symbol
_atom_site_label
_atom_site_fract_x
_atom_site_fract_y
_atom_site_fract_z
Si Si1 0.222515 0.990092 0.312842
Si Si2 0.448153 0.801407 0.802104
Si Si3 0.677144 0.467678 0.317910
Si Si4 0.937576 0.731083 0.184795
Si Si5 0.681653 0.400094 0.508220
Si Si6 0.702577 0.795942 0.880206
Si Si7 0.667261 0.092723 0.396299
Si Si8 0.205407 0.732846 0.264597
O O1 0.409786 0.073893 0.180265
O O2 0.446595 0.042303 0.355465
O O3 0.000000 0.000000 0.500000
O O4 0.039442 0.851354 0.233125
O O5 0.428005 0.727027 0.605225
O O6 0.651595 0.825932 0.817223
O O7 0.117429 0.719799 0.965065
O O8 0.500000 0.500000 0.500000
O O9 0.717866 0.440030 0.392852
O O10 0.482576 0.344994 0.199843
O O11 0.991072 0.589626 0.218574
O O12 0.579682 0.624820 0.286785
O O13 0.065553 0.750791 0.270273
O O14 0.000000 0.500000 0.500000
O O15 0.047361 0.877845 0.788605
O O16 0.535360 0.802832 0.101286
O O17 0.787116 0.214925 0.539289
O O18 0.500000 0.000000 0.500000
#
# Coordination Sequence:
#
# PCOD9040287 Si02
#       8
#     2   2   2   2   2   2   2   2
#     4  12  24  43  67  90 126 172 206 249 313 374
#     4  10  23  43  66  91 125 168 206 253 311 373
#     4  11  20  39  70  87 124 166 204 255 313 367
#     4  11  22  44  66  89 128 166 207 257 311 368
#     4  11  24  41  62  94 126 164 207 254 312 366
#     4  10  23  43  65  95 125 160 212 258 309 368
#     4  12  24  41  64  94 128 161 208 261 308 363
#     4  11  22  42  67  96 122 164 208 262 313 361
#
# _framework density 21.172433999999999
#
# number of rings (size 3 to 8) (size 9 to 14) (size 15 to 20)
#    0.000    1.000    5.000    2.250    1.750    1.000 
#    6.750    0.000    0.000    0.000    0.000    0.000 
#    0.000    0.000    0.000    0.000    0.000    0.000 
#
# Total GULP energy -89478.955473 kJ/mol
# GULP energy per Si atom -5592.434717 kJ/mol
# Density = 2.112425 g / cm^3
# Si number density = 21.172434 Si / 1000 Ang^3
#
#
#
# Elastic Constant Matrix: (Units=GPa)
#
#
# Indices 1 2 3 4 5 6 
#
# 1 65.7006 25.8578 29.4919 -14.5008 -27.2458 3.2249
# 2 25.8578 58.7918 1.7840 -15.5486 -12.5430 -14.0979
# 3 29.4919 1.7840 89.9335 -29.0826 -29.1580 20.4516
# 4 -14.5008 -15.5486 -29.0826 37.5289 5.3805 -12.0356
# 5 -27.2458 -12.5430 -29.1580 5.3805 30.0133 -9.9191
# 6 3.2249 -14.0979 20.4516 -12.0356 -9.9191 36.0438
#
#
#
# Elastic Compliance Matrix: (Units=1/GPa)
#
#
# Indices 1 2 3 4 5 6 
#
# 1 0.028295 -0.004215 -0.000192 0.007173 0.024089 0.004953
# 2 -0.004215 0.037812 0.013151 0.028180 0.027893 0.024791
# 3 -0.000192 0.013151 0.026623 0.023769 0.028888 0.005942
# 4 0.007173 0.028180 0.023769 0.063089 0.039608 0.028860
# 5 0.024089 0.027893 0.028888 0.039608 0.098626 0.032730
# 6 0.004953 0.024791 0.005942 0.028860 0.032730 0.052270
#
#
# Mechanical properties :
#
#
# Convention : Reuss Voigt Hill
#
# Bulk Modulus (GPa) = 9.07290 36.52146 22.79718
# Shear Modulus (GPa) = 15.33899 31.20336 23.27117
#
# Velocity S-wave (km/s) = 2.69454 3.84314 3.31890
# Velocity P-wave (km/s) = 3.73835 6.08111 5.04753
#
# Compressibility (1/GPa) = 0.11021838
#
# Stress axis : x y z
#
# Youngs Moduli (GPa) = 35.34147 26.44643 37.56184
#
# Poissons Ratio (x) = 0.11147 0.00721
# Poissons Ratio (y) = 0.14896 -0.49397
# Poissons Ratio (z) = 0.00678 -0.34779
#
# Static dielectric constant tensor:
#      x y z
#    x 1.715920 -0.025470 0.001230 
#    y -0.025470 1.798040 -0.018640 
#    z 0.001230 -0.018640 1.788880 
# 
# From -- ./inp_files/283005.got.cif
#   From: 2010.05.17/outbox.cif.g08.bks.cpg/sg2_142_cif.got.tgz:283005.got - 2010.06.03 11:33:40.
