data_PCOD9040418
_publ_section_title
;
Structure prediction by ZEFSAII (Michael W. Deem and Ramdas Pophale) SiO2 
 PCOD9040418
Probable space group: P -1
;
_chemical_formula_sum "Si O2"
_cell_formula_units_Z 16
_cell_length_a 23.199503
_cell_length_b 8.755698
_cell_length_c 8.846030
_cell_angle_alpha 79.337561
_cell_angle_beta 48.866037
_cell_angle_gamma 40.161665
_cell_volume 660.273180
_symmetry_space_group_name_H-M "P -1"
_symmetry_group_IT_number 2
_symmetry_cell_setting 'triclinic'
loop_
_space_group_symop_operation_xyz
x,y,z
-x,-y,-z
loop_
_atom_site_type_symbol
_atom_site_label
_atom_site_fract_x
_atom_site_fract_y
_atom_site_fract_z
Si Si1 0.868345 0.021133 0.148648
Si Si2 0.624803 0.649216 0.315053
Si Si3 0.320185 0.283250 0.279481
Si Si4 0.939289 0.070008 0.311195
Si Si5 0.430380 0.532278 0.759151
Si Si6 0.816567 0.859892 0.749843
Si Si7 0.837089 0.483722 0.809447
Si Si8 0.720811 0.002442 0.543003
O O1 0.697480 0.398140 0.352640
O O2 0.954377 0.933741 0.163975
O O3 0.834722 0.898198 0.254361
O O4 0.973237 0.915299 0.855998
O O5 0.576554 0.632194 0.256826
O O6 0.500000 0.000000 0.500000
O O7 0.772277 0.491514 0.050620
O O8 0.239081 0.565491 0.454794
O O9 0.230014 0.447179 0.246262
O O10 0.280379 0.182782 0.431736
O O11 0.500000 0.000000 0.000000
O O12 0.984383 0.878934 0.409887
O O13 0.500000 0.500000 0.500000
O O14 0.547667 0.348895 0.728352
O O15 0.264290 0.883130 0.039468
O O16 0.765391 0.778268 0.905409
O O17 0.000000 0.500000 0.500000
O O18 0.763416 0.974134 0.646748
#
# Coordination Sequence:
#
# PCOD9040418 Si02
#       8
#     2   2   2   2   2   2   2   2
#     4  10  23  43  67  99 136 191 233 296 363 422
#     4  11  24  42  72 101 143 186 245 298 361 432
#     4  11  25  42  68 103 137 184 238 295 365 431
#     4  10  23  44  68  96 141 185 241 291 359 433
#     4  12  25  47  72 109 146 190 242 302 367 433
#     4  11  26  47  73 107 147 195 239 300 372 435
#     4  10  23  43  66  97 133 185 231 290 357 428
#     4  11  25  45  71 111 148 187 243 307 364 443
#
# _framework density 24.232396000000001
#
# number of rings (size 3 to 8) (size 9 to 14) (size 15 to 20)
#    0.000    1.250    1.250    3.000    3.500    9.500 
#    4.500    0.000    0.000    0.000    0.000    0.000 
#    0.000    0.000    0.000    0.000    0.000    0.000 
#
# Total GULP energy -89213.760378 kJ/mol
# GULP energy per Si atom -5575.860024 kJ/mol
# Density = 2.417724 g / cm^3
# Si number density = 24.232396 Si / 1000 Ang^3
#
#
#
# Elastic Constant Matrix: (Units=GPa)
#
#
# Indices 1 2 3 4 5 6 
#
# 1 94.4243 31.3994 26.3515 8.6295 -0.1547 -14.1469
# 2 31.3994 131.3059 54.5776 -4.5222 -0.6013 -12.9193
# 3 26.3515 54.5776 80.2079 25.0351 1.4839 4.1753
# 4 8.6295 -4.5222 25.0351 29.0140 8.8567 -4.9682
# 5 -0.1547 -0.6013 1.4839 8.8567 27.9529 5.9678
# 6 -14.1469 -12.9193 4.1753 -4.9682 5.9678 44.6035
#
#
#
# Elastic Compliance Matrix: (Units=1/GPa)
#
#
# Indices 1 2 3 4 5 6 
#
# 1 0.012570 -0.001086 -0.003638 0.000147 -0.000687 0.004121
# 2 -0.001086 0.018217 -0.020321 0.025252 -0.008849 0.010831
# 3 -0.003638 -0.020321 0.042878 -0.047178 0.016158 -0.018470
# 4 0.000147 0.025252 -0.047178 0.093436 -0.032213 0.026495
# 5 -0.000687 -0.008849 0.016158 -0.032213 0.047982 -0.014301
# 6 0.004121 0.010831 -0.018470 0.026495 -0.014301 0.033458
#
#
# Mechanical properties :
#
#
# Convention : Reuss Voigt Hill
#
# Bulk Modulus (GPa) = 42.41822 58.95502 50.68662
# Shear Modulus (GPa) = 16.31378 33.22140 24.76759
#
# Velocity S-wave (km/s) = 2.59747 3.70665 3.20048
# Velocity P-wave (km/s) = 5.15156 6.53459 5.88385
#
# Compressibility (1/GPa) = 0.02357478
#
# Stress axis : x y z
#
# Youngs Moduli (GPa) = 79.55497 54.89480 23.32188
#
# Poissons Ratio (x) = 0.05963 0.08485
# Poissons Ratio (y) = 0.08642 0.47391
# Poissons Ratio (z) = 0.28943 1.11549
#
# Static dielectric constant tensor:
#      x y z
#    x 2.066370 0.045260 -0.090770 
#    y 0.045260 2.241760 0.137720 
#    z -0.090770 0.137720 2.192410 
# 
# From -- ./inp_files/352176.got.cif
#   From: 2010.05.17/outbox.cif.g08.bks.cpg/sg2_177_cif.got.tgz:352176.got - 2010.06.03 11:33:40.
