data_PCOD9040935
_publ_section_title
;
Structure prediction by ZEFSAII (Michael W. Deem and Ramdas Pophale) SiO2 
 PCOD9040935
Probable space group: P -1
;
_chemical_formula_sum "Si O2"
_cell_formula_units_Z 16
_cell_length_a 5.313143
_cell_length_b 20.196215
_cell_length_c 11.247326
_cell_angle_alpha 29.939700
_cell_angle_beta 87.229479
_cell_angle_gamma 84.338960
_cell_volume 597.732566
_symmetry_space_group_name_H-M "P -1"
_symmetry_group_IT_number 2
_symmetry_cell_setting 'triclinic'
loop_
_space_group_symop_operation_xyz
x,y,z
-x,-y,-z
loop_
_atom_site_type_symbol
_atom_site_label
_atom_site_fract_x
_atom_site_fract_y
_atom_site_fract_z
Si Si1 0.290935 0.851815 0.791464
Si Si2 0.794985 0.407145 0.699375
Si Si3 0.299135 0.715759 0.337637
Si Si4 0.161091 0.013113 0.859420
Si Si5 0.029405 0.100434 0.502180
Si Si6 0.345337 0.324545 0.098532
Si Si7 0.567092 0.720304 0.579787
Si Si8 0.932885 0.552438 0.688649
O O1 0.538028 0.757132 0.891962
O O2 0.169155 0.902461 0.591321
O O3 0.275323 0.990645 0.644672
O O4 0.125476 0.748840 0.022692
O O5 0.616809 0.379508 0.631402
O O6 0.000000 0.500000 0.500000
O O7 0.759593 0.471211 0.733765
O O8 0.408883 0.705530 0.485120
O O9 0.009461 0.682320 0.414871
O O10 0.312671 0.867750 0.064043
O O11 0.944019 0.055479 0.700333
O O12 0.333600 0.134195 0.660287
O O13 0.000000 0.000000 0.000000
O O14 0.120132 0.243740 0.274693
O O15 0.520772 0.312257 0.232990
O O16 0.198072 0.462889 0.844853
O O17 0.798512 0.604300 0.730397
#
# Coordination Sequence:
#
# PCOD9040935 Si02
#       8
#     2   2   2   2   2   2   2   2
#     4  11  22  44  71 101 135 184 227 288 344 407
#     4  10  23  46  71  99 138 182 229 285 350 404
#     4  11  24  45  67 100 136 182 234 279 352 414
#     4  11  22  44  70 101 138 182 228 288 346 409
#     4  10  23  43  69  98 140 175 231 286 346 404
#     4  11  25  42  69 103 138 177 235 279 348 417
#     4  11  26  43  70 101 141 185 229 285 346 417
#     4  11  24  46  67  99 141 181 230 287 345 409
#
# _framework density 26.767827
#
# number of rings (size 3 to 8) (size 9 to 14) (size 15 to 20)
#    0.000    1.250    3.750    1.125    3.500    1.000 
#    4.500    1.250    0.000    0.000    0.000    0.000 
#    0.000    0.000    0.000    0.000    0.000    0.000 
#
# Total GULP energy -89259.633436 kJ/mol
# GULP energy per Si atom -5578.727090 kJ/mol
# Density = 2.670690 g / cm^3
# Si number density = 26.767827 Si / 1000 Ang^3
#
#
#
# Elastic Constant Matrix: (Units=GPa)
#
#
# Indices 1 2 3 4 5 6 
#
# 1 51.0152 20.0133 24.3734 -7.9158 7.3375 8.2816
# 2 20.0133 151.0588 40.2592 -6.9682 1.4226 17.5988
# 3 24.3734 40.2592 131.4766 -0.5920 -2.4227 15.6418
# 4 -7.9158 -6.9682 -0.5920 63.9201 7.9813 5.2177
# 5 7.3375 1.4226 -2.4227 7.9813 24.5026 6.0342
# 6 8.2816 17.5988 15.6418 5.2177 6.0342 44.3022
#
#
#
# Elastic Compliance Matrix: (Units=1/GPa)
#
#
# Indices 1 2 3 4 5 6 
#
# 1 0.024249 -0.001701 -0.003896 0.003978 -0.008399 -0.001806
# 2 -0.001701 0.007599 -0.001743 0.000757 0.000191 -0.002201
# 3 -0.003896 -0.001743 0.009166 -0.000783 0.002953 -0.002125
# 4 0.003978 0.000757 -0.000783 0.017172 -0.006435 -0.001914
# 5 -0.008399 0.000191 0.002953 -0.006435 0.046982 -0.005190
# 6 -0.001806 -0.002201 -0.002125 -0.001914 -0.005190 0.025467
#
#
# Mechanical properties :
#
#
# Convention : Reuss Voigt Hill
#
# Bulk Modulus (GPa) = 37.97480 55.87135 46.92308
# Shear Modulus (GPa) = 32.44771 43.13865 37.79318
#
# Velocity S-wave (km/s) = 3.48543 4.01881 3.76159
# Velocity P-wave (km/s) = 5.51499 6.51555 6.03604
#
# Compressibility (1/GPa) = 0.02633325
#
# Stress axis : x y z
#
# Youngs Moduli (GPa) = 41.23812 131.59021 109.10290
#
# Poissons Ratio (x) = 0.22387 0.42511
# Poissons Ratio (y) = 0.07016 0.19015
# Poissons Ratio (z) = 0.16068 0.22934
#
# Static dielectric constant tensor:
#      x y z
#    x 2.254430 -0.045750 0.098740 
#    y -0.045750 2.248790 0.034700 
#    z 0.098740 0.034700 2.064710 
# 
# From -- ./inp_files/370270.got.cif
#   From: 2010.05.17/outbox.cif.g08.bks.cpg/sg2_186_cif.got.tgz:370270.got - 2010.06.03 11:33:40.
