data_PCOD9040214
_publ_section_title
;
Structure prediction by ZEFSAII (Michael W. Deem and Ramdas Pophale) SiO2 
 PCOD9040214
Probable space group: P -1
;
_chemical_formula_sum "Si O2"
_cell_formula_units_Z 14
_cell_length_a 9.500554
_cell_length_b 13.297847
_cell_length_c 11.342761
_cell_angle_alpha 47.765629
_cell_angle_beta 76.507356
_cell_angle_gamma 43.750105
_cell_volume 638.492360
_symmetry_space_group_name_H-M "P -1"
_symmetry_group_IT_number 2
_symmetry_cell_setting 'triclinic'
loop_
_space_group_symop_operation_xyz
x,y,z
-x,-y,-z
loop_
_atom_site_type_symbol
_atom_site_label
_atom_site_fract_x
_atom_site_fract_y
_atom_site_fract_z
Si Si1 0.221170 0.921512 0.468918
Si Si2 0.929965 0.399089 0.112859
Si Si3 0.212051 0.481881 0.691631
Si Si4 0.770570 0.836688 0.103175
Si Si5 0.733656 0.139478 0.760751
Si Si6 0.500861 0.340465 0.150271
Si Si7 0.101017 0.096858 0.738203
O O1 0.284487 0.821399 0.406207
O O2 0.420607 0.756022 0.657539
O O3 0.000000 0.000000 0.500000
O O4 0.136925 0.138213 0.294983
O O5 0.787758 0.494744 0.187471
O O6 0.760827 0.501022 0.956499
O O7 0.000000 0.500000 0.000000
O O8 0.127804 0.389111 0.754239
O O9 0.472213 0.325427 0.717467
O O10 0.029761 0.713631 0.480671
O O11 0.814759 0.871191 0.195235
O O12 0.500000 0.000000 0.000000
O O13 0.834361 0.914155 0.943422
O O14 0.909321 0.123276 0.790299
O O15 0.683466 0.134182 0.187938
O O16 0.500000 0.500000 0.000000
#
# Coordination Sequence:
#
# PCOD9040214 Si02
#       7
#     2   2   2   2   2   2   2
#     4  12  23  48  71 106 147 182 240 293 353 427
#     4  12  26  48  73 106 144 186 240 295 355 422
#     4  11  24  47  70 104 148 183 231 297 351 421
#     4  10  23  43  64  97 140 183 228 287 348 414
#     4  11  23  44  72 103 141 185 234 296 348 419
#     4  12  25  45  78 102 142 195 236 293 359 422
#     4  12  23  44  73 107 136 186 243 288 352 423
#
# _framework density 21.926651
#
# number of rings (size 3 to 8) (size 9 to 14) (size 15 to 20)
#    0.000    0.571    4.286    3.857    0.000    1.714 
#   15.429    0.000    0.000    0.000    0.000    0.000 
#    0.000    0.000    0.000    0.000    0.000    0.000 
#
# Total GULP energy -78282.805953 kJ/mol
# GULP energy per Si atom -5591.628997 kJ/mol
# Density = 2.187675 g / cm^3
# Si number density = 21.926651 Si / 1000 Ang^3
#
#
#
# Elastic Constant Matrix: (Units=GPa)
#
#
# Indices 1 2 3 4 5 6 
#
# 1 111.6020 -10.5371 52.0928 -3.9929 8.6383 19.5762
# 2 -10.5371 86.3630 24.3213 8.1322 20.1806 2.1902
# 3 52.0928 24.3213 176.2419 -8.3385 8.6990 8.5274
# 4 -3.9929 8.1322 -8.3385 48.8262 15.3963 -4.6045
# 5 8.6383 20.1806 8.6990 15.3963 39.8204 3.3788
# 6 19.5762 2.1902 8.5274 -4.6045 3.3788 27.8268
#
#
#
# Elastic Compliance Matrix: (Units=1/GPa)
#
#
# Indices 1 2 3 4 5 6 
#
# 1 0.012578 0.003472 -0.003674 0.000072 -0.003068 -0.007612
# 2 0.003472 0.014510 -0.002602 -0.000503 -0.007174 -0.002000
# 3 -0.003674 -0.002602 0.007151 0.001461 -0.000084 0.000850
# 4 0.000072 -0.000503 0.001461 0.024399 -0.009919 0.004783
# 5 -0.003068 -0.007174 -0.000084 -0.009919 0.033519 -0.002963
# 6 -0.007612 -0.002000 0.000850 0.004783 -0.002963 0.042340
#
#
# Mechanical properties :
#
#
# Convention : Reuss Voigt Hill
#
# Bulk Modulus (GPa) = 34.92459 56.21787 45.57123
# Shear Modulus (GPa) = 33.41186 43.85000 38.63093
#
# Velocity S-wave (km/s) = 3.90782 4.47682 4.20196
# Velocity P-wave (km/s) = 6.02694 7.23998 6.66113
#
# Compressibility (1/GPa) = 0.02863312
#
# Stress axis : x y z
#
# Youngs Moduli (GPa) = 79.50114 68.91854 139.83898
#
# Poissons Ratio (x) = -0.23932 0.51376
# Poissons Ratio (y) = -0.27606 0.36382
# Poissons Ratio (z) = 0.29208 0.17930
#
# Static dielectric constant tensor:
#      x y z
#    x 1.746330 0.009690 -0.008500 
#    y 0.009690 1.834830 -0.027370 
#    z -0.008500 -0.027370 1.796320 
# 
# From -- ./inp_files/389041.got.cif
#   From: 2010.05.17/outbox.cif.g08.bks.cpg/sg2_195_cif.got.tgz:389041.got - 2010.06.03 11:33:40.
