data_PCOD9040417
_publ_section_title
;
Structure prediction by ZEFSAII (Michael W. Deem and Ramdas Pophale) SiO2 
 PCOD9040417
Probable space group: P -1
;
_chemical_formula_sum "Si O2"
_cell_formula_units_Z 14
_cell_length_a 11.295619
_cell_length_b 10.675121
_cell_length_c 8.906957
_cell_angle_alpha 87.361402
_cell_angle_beta 113.074657
_cell_angle_gamma 40.931063
_cell_volume 532.946266
_symmetry_space_group_name_H-M "P -1"
_symmetry_group_IT_number 2
_symmetry_cell_setting 'triclinic'
loop_
_space_group_symop_operation_xyz
x,y,z
-x,-y,-z
loop_
_atom_site_type_symbol
_atom_site_label
_atom_site_fract_x
_atom_site_fract_y
_atom_site_fract_z
Si Si1 0.739144 0.342250 0.039594
Si Si2 0.086667 0.534995 0.753227
Si Si3 0.408517 0.921298 0.073423
Si Si4 0.328807 0.186454 0.269852
Si Si5 0.826140 0.139202 0.566864
Si Si6 0.526204 0.379628 0.685302
Si Si7 0.752943 0.965756 0.344350
O O1 0.821197 0.414234 0.119476
O O2 0.942150 0.081588 0.210573
O O3 0.500000 0.500000 0.000000
O O4 0.684377 0.361349 0.837655
O O5 0.317742 0.271054 0.825710
O O6 0.921557 0.591756 0.781923
O O7 0.924373 0.724584 0.526634
O O8 0.440383 0.762309 0.179594
O O9 0.308416 0.095016 0.139947
O O10 0.261362 0.032571 0.841293
O O11 0.484432 0.163418 0.264527
O O12 0.500000 0.000000 0.500000
O O13 0.618751 0.269255 0.574511
O O14 0.740532 0.348249 0.469656
O O15 0.819764 0.050012 0.429243
#
# Coordination Sequence:
#
# PCOD9040417 Si02
#       7
#     2   2   2   2   2   2   2
#     4  11  21  40  65  96 136 176 221 273 335 402
#     4  10  23  43  66  97 133 179 219 274 342 388
#     4  12  23  42  70  99 133 172 229 271 338 406
#     4  10  23  45  69  97 136 174 223 283 332 395
#     4  10  24  42  67  95 141 175 224 275 339 408
#     4  11  23  41  64 101 132 181 221 275 344 400
#     4  10  23  43  67  98 131 175 225 280 328 398
#
# _framework density 26.269065000000001
#
# number of rings (size 3 to 8) (size 9 to 14) (size 15 to 20)
#    0.000    1.429    1.429    4.286    0.000    4.571 
#    0.000    5.714    0.000    0.000    0.000    0.000 
#    0.000    0.000    0.000    0.000    0.000    0.000 
#
# Total GULP energy -78532.641638 kJ/mol
# GULP energy per Si atom -5609.474403 kJ/mol
# Density = 2.620928 g / cm^3
# Si number density = 26.269065 Si / 1000 Ang^3
#
#
#
# Elastic Constant Matrix: (Units=GPa)
#
#
# Indices 1 2 3 4 5 6 
#
# 1 58.7006 -7.6821 26.4430 -5.4952 -4.2261 -1.7898
# 2 -7.6821 119.3038 73.2051 -10.1576 -6.7823 -11.2663
# 3 26.4430 73.2051 196.5747 4.1286 -21.7547 5.4839
# 4 -5.4952 -10.1576 4.1286 52.4117 -2.2867 -6.8249
# 5 -4.2261 -6.7823 -21.7547 -2.2867 43.7421 -0.4365
# 6 -1.7898 -11.2663 5.4839 -6.8249 -0.4365 34.5694
#
#
#
# Elastic Compliance Matrix: (Units=1/GPa)
#
#
# Indices 1 2 3 4 5 6 
#
# 1 0.020380 0.005002 -0.004737 0.004060 0.000643 0.004247
# 2 0.005002 0.013303 -0.005909 0.004397 -0.000099 0.006398
# 3 -0.004737 -0.005909 0.008383 -0.002709 0.002614 -0.004003
# 4 0.004060 0.004397 -0.002709 0.021433 0.000910 0.006316
# 5 0.000643 -0.000099 0.002614 0.000910 0.024256 0.000072
# 6 0.004247 0.006398 -0.004003 0.006316 0.000072 0.033115
#
#
# Mechanical properties :
#
#
# Convention : Reuss Voigt Hill
#
# Bulk Modulus (GPa) = 32.49032 62.05678 47.27355
# Shear Modulus (GPa) = 35.10850 44.98552 40.04701
#
# Velocity S-wave (km/s) = 3.65978 4.14271 3.90871
# Velocity P-wave (km/s) = 5.50034 6.82331 6.19723
#
# Compressibility (1/GPa) = 0.03077840
#
# Stress axis : x y z
#
# Youngs Moduli (GPa) = 49.06778 75.17364 119.29613
#
# Poissons Ratio (x) = -0.37603 0.56509
# Poissons Ratio (y) = -0.24544 0.70487
# Poissons Ratio (z) = 0.23243 0.44417
#
# Static dielectric constant tensor:
#      x y z
#    x 2.127790 -0.027840 0.011140 
#    y -0.027840 2.035490 -0.020930 
#    z 0.011140 -0.020930 2.016650 
# 
# From -- ./inp_files/258613.got.cif
#   From: 2010.05.17/outbox.cif.g08.bks.cpg/sg2_130_cif.got.tgz:258613.got - 2010.06.03 11:33:40.
