data_PCOD9040135
_publ_section_title
;
Structure prediction by ZEFSAII (Michael W. Deem and Ramdas Pophale) SiO2 
 PCOD9040135
Probable space group: P -1
;
_chemical_formula_sum "Si O2"
_cell_formula_units_Z 16
_cell_length_a 15.009841
_cell_length_b 12.563707
_cell_length_c 22.011980
_cell_angle_alpha 26.652175
_cell_angle_beta 151.017788
_cell_angle_gamma 131.659053
_cell_volume 760.017680
_symmetry_space_group_name_H-M "P -1"
_symmetry_group_IT_number 2
_symmetry_cell_setting 'triclinic'
loop_
_space_group_symop_operation_xyz
x,y,z
-x,-y,-z
loop_
_atom_site_type_symbol
_atom_site_label
_atom_site_fract_x
_atom_site_fract_y
_atom_site_fract_z
Si Si1 0.553273 0.493042 0.124706
Si Si2 0.873071 0.672281 0.896621
Si Si3 0.446648 0.664278 0.660898
Si Si4 0.099140 0.041558 0.976909
Si Si5 0.314134 0.152822 0.622966
Si Si6 0.814175 0.482812 0.181081
Si Si7 0.302728 0.455928 0.341317
Si Si8 0.366065 0.546593 0.547455
O O1 0.610631 0.405964 0.272568
O O2 0.753264 0.358173 0.265502
O O3 0.371059 0.437234 0.020032
O O4 0.448215 0.824958 0.883974
O O5 0.686009 0.616274 0.832398
O O6 0.732501 0.008048 0.628395
O O7 0.000000 0.500000 0.000000
O O8 0.067051 0.564996 0.115677
O O9 0.453845 0.479053 0.702683
O O10 0.184331 0.243772 0.937446
O O11 0.887664 0.209094 0.722984
O O12 0.270347 0.737149 0.208694
O O13 0.000000 0.000000 0.000000
O O14 0.349000 0.240285 0.532573
O O15 0.363312 0.313331 0.623052
O O16 0.057913 0.267885 0.414061
O O17 0.490772 0.357270 0.453170
#
# Coordination Sequence:
#
# PCOD9040135 Si02
#       8
#     2   2   2   2   2   2   2   2
#     4  11  25  43  66  93 136 175 215 262 319 404
#     4  11  24  42  66  96 129 170 219 273 325 382
#     4  11  25  43  63  96 134 175 217 262 329 392
#     4  11  22  39  68  95 131 164 220 283 324 370
#     4  11  24  40  65  98 129 170 217 266 322 384
#     4  10  23  43  63  96 124 173 222 266 330 374
#     4  12  22  39  67  99 129 167 216 278 329 376
#     4  11  23  39  64  99 129 170 218 269 331 383
#
# _framework density 21.052142
#
# number of rings (size 3 to 8) (size 9 to 14) (size 15 to 20)
#    0.000    1.000    5.000    2.250    1.750    3.500 
#    0.000    2.500    0.000    0.000    0.000    0.000 
#    0.000    0.000    0.000    0.000    0.000    0.000 
#
# Total GULP energy -89470.495289 kJ/mol
# GULP energy per Si atom -5591.905956 kJ/mol
# Density = 2.100423 g / cm^3
# Si number density = 21.052142 Si / 1000 Ang^3
#
#
#
# Elastic Constant Matrix: (Units=GPa)
#
#
# Indices 1 2 3 4 5 6 
#
# 1 110.7937 31.3590 23.5740 26.3460 -6.8930 -7.0008
# 2 31.3590 92.4079 32.2796 26.6774 -13.5971 1.8590
# 3 23.5740 32.2796 77.1284 15.0959 0.6969 9.4701
# 4 26.3460 26.6774 15.0959 32.7298 -3.7638 4.8062
# 5 -6.8930 -13.5971 0.6969 -3.7638 41.6385 9.3032
# 6 -7.0008 1.8590 9.4701 4.8062 9.3032 29.1769
#
#
#
# Elastic Compliance Matrix: (Units=1/GPa)
#
#
# Indices 1 2 3 4 5 6 
#
# 1 0.012178 -0.000949 -0.002245 -0.008787 -0.000219 0.005229
# 2 -0.000949 0.016248 -0.004674 -0.009920 0.004208 0.000546
# 3 -0.002245 -0.004674 0.016505 -0.001400 -0.001186 -0.004989
# 4 -0.008787 -0.009920 -0.001400 0.047956 0.001785 -0.009491
# 5 -0.000219 0.004208 -0.001186 0.001785 0.027549 -0.009014
# 6 0.005229 0.000546 -0.004989 -0.009491 -0.009014 0.041550
#
#
# Mechanical properties :
#
#
# Convention : Reuss Voigt Hill
#
# Bulk Modulus (GPa) = 34.25170 50.52836 42.39003
# Shear Modulus (GPa) = 26.67296 33.58354 30.12825
#
# Velocity S-wave (km/s) = 3.56335 3.99840 3.78713
# Velocity P-wave (km/s) = 5.76500 6.73572 6.26917
#
# Compressibility (1/GPa) = 0.02919564
#
# Stress axis : x y z
#
# Youngs Moduli (GPa) = 82.11280 61.54448 60.58818
#
# Poissons Ratio (x) = 0.05842 0.13604
# Poissons Ratio (y) = 0.07794 0.28316
# Poissons Ratio (z) = 0.18436 0.28763
#
# Static dielectric constant tensor:
#      x y z
#    x 1.759570 -0.018400 0.031290 
#    y -0.018400 1.795020 0.010100 
#    z 0.031290 0.010100 1.776340 
# 
# From -- ./inp_files/597950.got.cif
#   From: 2010.05.17/outbox.cif.g08.bks.cpg/sg2_299_cif.got.tgz:597950.got - 2010.06.03 11:33:40.
