data_PCOD9040610
_publ_section_title
;
Structure prediction by ZEFSAII (Michael W. Deem and Ramdas Pophale) SiO2 
 PCOD9040610
Probable space group: P -1
;
_chemical_formula_sum "Si O2"
_cell_formula_units_Z 14
_cell_length_a 12.563460
_cell_length_b 9.683143
_cell_length_c 15.267936
_cell_angle_alpha 121.196908
_cell_angle_beta 152.191261
_cell_angle_gamma 49.234838
_cell_volume 646.900286
_symmetry_space_group_name_H-M "P -1"
_symmetry_group_IT_number 2
_symmetry_cell_setting 'triclinic'
loop_
_space_group_symop_operation_xyz
x,y,z
-x,-y,-z
loop_
_atom_site_type_symbol
_atom_site_label
_atom_site_fract_x
_atom_site_fract_y
_atom_site_fract_z
Si Si1 0.946634 0.066088 0.382011
Si Si2 0.492763 0.990745 0.252304
Si Si3 0.185907 0.802297 0.022823
Si Si4 0.688550 0.817683 0.631467
Si Si5 0.434285 0.571178 0.377481
Si Si6 0.132682 0.194214 0.897387
Si Si7 0.414567 0.408181 0.144565
O O1 0.679755 0.259829 0.243827
O O2 0.202087 0.076389 0.542133
O O3 0.905394 0.922930 0.244722
O O4 0.000000 0.000000 0.500000
O O5 0.409672 0.833373 0.153259
O O6 0.360746 0.134325 0.284524
O O7 0.372801 0.077127 0.099058
O O8 0.315563 0.619054 0.115420
O O9 0.980727 0.772187 0.805423
O O10 0.000000 0.000000 0.000000
O O11 0.608597 0.662013 0.505176
O O12 0.500000 0.000000 0.500000
O O13 0.500000 0.500000 0.500000
O O14 0.476101 0.405235 0.291179
O O15 0.127690 0.720288 0.205263
O O16 0.190441 0.351163 0.951743
#
# Coordination Sequence:
#
# PCOD9040610 Si02
#       7
#     2   2   2   2   2   2   2
#     4  12  26  47  73 104 146 186 235 289 353 422
#     4  11  23  45  73  99 140 190 235 282 355 419
#     4  10  23  43  67  99 141 180 228 290 351 409
#     4  11  21  41  69 102 137 181 230 288 351 407
#     4  12  22  38  67 104 134 176 239 292 340 406
#     4  12  24  46  73  99 143 186 238 294 349 411
#     4  12  25  43  68 105 141 185 234 290 353 419
#
# _framework density 21.641666000000001
#
# number of rings (size 3 to 8) (size 9 to 14) (size 15 to 20)
#    0.000    0.571    2.857    7.714    0.000    0.571 
#    0.000    0.714    0.000    0.000    0.000    0.000 
#    0.000    0.000    0.000    0.000    0.000    0.000 
#
# Total GULP energy -78295.347352 kJ/mol
# GULP energy per Si atom -5592.524811 kJ/mol
# Density = 2.159241 g / cm^3
# Si number density = 21.641666 Si / 1000 Ang^3
#
#
#
# Elastic Constant Matrix: (Units=GPa)
#
#
# Indices 1 2 3 4 5 6 
#
# 1 55.5708 46.2362 34.7566 24.0957 9.5592 4.1677
# 2 46.2362 114.9566 53.9969 27.3988 20.0980 13.9843
# 3 34.7566 53.9969 134.5792 40.8686 20.0329 4.6607
# 4 24.0957 27.3988 40.8686 35.8842 12.7542 1.0593
# 5 9.5592 20.0980 20.0329 12.7542 37.1115 0.1672
# 6 4.1677 13.9843 4.6607 1.0593 0.1672 40.0066
#
#
#
# Elastic Compliance Matrix: (Units=1/GPa)
#
#
# Indices 1 2 3 4 5 6 
#
# 1 0.032260 -0.009783 -0.000302 -0.014637 0.002180 0.000473
# 2 -0.009783 0.015192 -0.002709 -0.000371 -0.004100 -0.003949
# 3 -0.000302 -0.002709 0.012165 -0.011158 -0.001187 -0.000138
# 4 -0.014637 -0.000371 -0.011158 0.053644 -0.008449 0.001569
# 5 0.002180 -0.004100 -0.001187 -0.008449 0.032142 0.001434
# 6 0.000473 -0.003949 -0.000138 0.001569 0.001434 0.026295
#
#
# Mechanical properties :
#
#
# Convention : Reuss Voigt Hill
#
# Bulk Modulus (GPa) = 29.38719 63.89843 46.64281
# Shear Modulus (GPa) = 23.96574 33.94157 28.95365
#
# Velocity S-wave (km/s) = 3.33136 3.96453 3.66165
# Velocity P-wave (km/s) = 5.32970 7.10960 6.28300
#
# Compressibility (1/GPa) = 0.03402843
#
# Stress axis : x y z
#
# Youngs Moduli (GPa) = 30.99784 65.82466 82.20012
#
# Poissons Ratio (x) = 0.64399 0.02484
# Poissons Ratio (y) = 0.30326 0.22268
# Poissons Ratio (z) = 0.00937 0.17832
#
# Static dielectric constant tensor:
#      x y z
#    x 1.827490 0.025090 -0.004320 
#    y 0.025090 1.820180 -0.027360 
#    z -0.004320 -0.027360 1.843980 
# 
# From -- ./inp_files/258738.got.cif
#   From: 2010.05.17/outbox.cif.g08.bks.cpg/sg2_130_cif.got.tgz:258738.got - 2010.06.03 11:33:40.
