data_PCOD9040559
_publ_section_title
;
Structure prediction by ZEFSAII (Michael W. Deem and Ramdas Pophale) SiO2 
 PCOD9040559
Probable space group: P -1
;
_chemical_formula_sum "Si O2"
_cell_formula_units_Z 16
_cell_length_a 18.936022
_cell_length_b 21.453779
_cell_length_c 8.507746
_cell_angle_alpha 134.062880
_cell_angle_beta 143.577875
_cell_angle_gamma 21.464668
_cell_volume 727.872567
_symmetry_space_group_name_H-M "P -1"
_symmetry_group_IT_number 2
_symmetry_cell_setting 'triclinic'
loop_
_space_group_symop_operation_xyz
x,y,z
-x,-y,-z
loop_
_atom_site_type_symbol
_atom_site_label
_atom_site_fract_x
_atom_site_fract_y
_atom_site_fract_z
Si Si1 0.449371 0.877338 0.269322
Si Si2 0.918445 0.616208 0.839426
Si Si3 0.424298 0.588033 0.350220
Si Si4 0.737705 0.914161 0.995763
Si Si5 0.141026 0.759012 0.612495
Si Si6 0.011743 0.206108 0.269409
Si Si7 0.778300 0.739024 0.166658
Si Si8 0.723780 0.186021 0.291921
O O1 0.708838 0.715111 0.524778
O O2 0.412604 0.812503 0.997603
O O3 0.255544 0.012538 0.296437
O O4 0.376097 0.996383 0.220437
O O5 0.128970 0.410148 0.848468
O O6 0.919522 0.716820 0.967960
O O7 0.824927 0.687553 0.976870
O O8 0.500000 0.500000 0.500000
O O9 0.646285 0.446523 0.382078
O O10 0.369380 0.718024 0.541214
O O11 0.199342 0.678665 0.033556
O O12 0.911131 0.880048 0.307717
O O13 0.500471 0.061329 0.941247
O O14 0.059358 0.805416 0.725924
O O15 0.268728 0.759084 0.756556
O O16 0.066470 0.272735 0.528164
O O17 0.000000 0.000000 0.500000
#
# Coordination Sequence:
#
# PCOD9040559 Si02
#       8
#     2   2   2   2   2   2   2   2
#     4  12  25  43  73  98 145 184 231 291 346 418
#     4  11  25  46  67 105 136 184 235 286 350 414
#     4  10  23  43  67  96 137 177 228 284 341 410
#     4  12  23  47  70 103 141 185 230 287 355 409
#     4  11  24  42  73  98 139 184 227 288 351 413
#     4  12  23  45  69 100 139 187 228 286 355 410
#     4  11  26  45  71 102 144 181 234 293 346 418
#     4  11  22  46  64 103 135 178 229 282 344 412
#
# _framework density 21.981869
#
# number of rings (size 3 to 8) (size 9 to 14) (size 15 to 20)
#    0.000    0.750    5.000    2.625    3.500    2.000 
#    0.000    0.000    0.000    0.000    0.000    0.000 
#    0.000    0.000    0.000    0.000    0.000    0.000 
#
# Total GULP energy -89235.761417 kJ/mol
# GULP energy per Si atom -5577.235089 kJ/mol
# Density = 2.193184 g / cm^3
# Si number density = 21.981869 Si / 1000 Ang^3
#
#
#
# Elastic Constant Matrix: (Units=GPa)
#
#
# Indices 1 2 3 4 5 6 
#
# 1 36.4634 -37.8707 -66.6768 7.0071 2.7658 23.9946
# 2 -37.8707 -2.4514 -113.1935 -0.6316 7.3498 38.6287
# 3 -66.6768 -113.1935 -84.1884 -5.3651 14.2964 78.4773
# 4 7.0071 -0.6316 -5.3651 24.1931 0.1340 -2.4457
# 5 2.7658 7.3498 14.2964 0.1340 23.0714 -3.9995
# 6 23.9946 38.6287 78.4773 -2.4457 -3.9995 16.7807
#
#
#
# Elastic Compliance Matrix: (Units=1/GPa)
#
#
# Indices 1 2 3 4 5 6 
#
# 1 0.015496 -0.003464 -0.003795 -0.005094 0.002207 0.003348
# 2 -0.003464 0.010880 -0.005590 0.000698 0.001540 0.006520
# 3 -0.003795 -0.005590 0.003041 0.002091 0.001146 0.004652
# 4 -0.005094 0.000698 0.002091 0.043503 -0.000806 0.002044
# 5 0.002207 0.001540 0.001146 -0.000806 0.041487 -0.002288
# 6 0.003348 0.006520 0.004652 0.002044 -0.002288 0.017795
#
#
# Mechanical properties :
#
#
# Convention : Reuss Voigt Hill
#
# Bulk Modulus (GPa) = 268.93285 -53.96206 107.48540
# Shear Modulus (GPa) = 31.41918 23.98003 27.69960
#
# Velocity S-wave (km/s) = 3.78474 3.30646 3.55366
# Velocity P-wave (km/s) = 11.90410 3.16620 8.11427
#
# Compressibility (1/GPa) = 0.00371840
#
# Stress axis : x y z
#
# Youngs Moduli (GPa) = 64.53325 91.91472 328.85161
#
# Poissons Ratio (x) = 0.31838 1.24801
# Poissons Ratio (y) = 0.22353 1.83832
# Poissons Ratio (z) = 0.24491 0.51381
#
# Static dielectric constant tensor:
#      x y z
#    x 1.857260 0.071310 0.017060 
#    y 0.071310 1.902640 0.060890 
#    z 0.017060 0.060890 1.797760 
# 
# From -- ./inp_files/350034.got.cif
#   From: 2010.05.17/outbox.cif.g08.bks.cpg/sg2_176_cif.got.tgz:350034.got - 2010.06.03 11:33:40.
