data_PCOD9040475
_publ_section_title
;
Structure prediction by ZEFSAII (Michael W. Deem and Ramdas Pophale) SiO2 
 PCOD9040475
Probable space group: P -1
;
_chemical_formula_sum "Si O2"
_cell_formula_units_Z 14
_cell_length_a 9.204447
_cell_length_b 19.069009
_cell_length_c 4.915719
_cell_angle_alpha 84.306247
_cell_angle_beta 98.785412
_cell_angle_gamma 43.669474
_cell_volume 560.288570
_symmetry_space_group_name_H-M "P -1"
_symmetry_group_IT_number 2
_symmetry_cell_setting 'triclinic'
loop_
_space_group_symop_operation_xyz
x,y,z
-x,-y,-z
loop_
_atom_site_type_symbol
_atom_site_label
_atom_site_fract_x
_atom_site_fract_y
_atom_site_fract_z
Si Si1 0.084576 0.400313 0.723004
Si Si2 0.792401 0.177595 0.341968
Si Si3 0.607243 0.737031 0.616089
Si Si4 0.811770 0.032687 0.131401
Si Si5 0.452817 0.088628 0.286161
Si Si6 0.921183 0.273627 0.056618
Si Si7 0.255877 0.594589 0.517236
O O1 0.264818 0.303442 0.611215
O O2 0.000000 0.500000 0.500000
O O3 0.877244 0.422781 0.640857
O O4 0.208791 0.354092 0.068773
O O5 0.584140 0.253673 0.455918
O O6 0.703010 0.146198 0.139771
O O7 0.848525 0.225914 0.176031
O O8 0.020241 0.066902 0.574945
O O9 0.501959 0.853848 0.565784
O O10 0.609362 0.047040 0.078845
O O11 0.000000 0.000000 0.000000
O O12 0.186010 0.187424 0.145393
O O13 0.500000 0.000000 0.500000
O O14 0.801983 0.372270 0.194244
O O15 0.844252 0.303435 0.712669
O O16 0.500000 0.500000 0.500000
#
# Coordination Sequence:
#
# PCOD9040475 Si02
#       7
#     2   2   2   2   2   2   2
#     4  12  26  48  73 103 138 186 239 302 376 425
#     4  10  25  41  66 104 140 188 238 285 359 416
#     4  11  26  45  72 104 145 185 243 294 353 451
#     4  10  23  43  67 101 148 189 246 290 346 430
#     4  11  22  46  71 106 151 200 237 299 360 432
#     4  12  26  47  74 106 144 190 242 299 364 442
#     4  12  28  49  74 104 141 180 245 312 367 432
#
# _framework density 24.987124999999999
#
# number of rings (size 3 to 8) (size 9 to 14) (size 15 to 20)
#    0.000    0.857    4.286    0.857   10.000    0.000 
#    2.571    3.571    0.000    0.000    0.000    0.000 
#    0.000    0.000    0.000    0.000    0.000    0.000 
#
# Total GULP energy -78034.064108 kJ/mol
# GULP energy per Si atom -5573.861722 kJ/mol
# Density = 2.493025 g / cm^3
# Si number density = 24.987125 Si / 1000 Ang^3
#
#
#
# Elastic Constant Matrix: (Units=GPa)
#
#
# Indices 1 2 3 4 5 6 
#
# 1 176.1456 36.7660 41.2353 1.8150 -43.2224 -42.9057
# 2 36.7660 69.7806 19.0883 1.0969 -4.4363 -27.4619
# 3 41.2353 19.0883 120.4113 3.7469 -18.1943 -1.6568
# 4 1.8150 1.0969 3.7469 36.8732 -1.9444 -13.5062
# 5 -43.2224 -4.4363 -18.1943 -1.9444 43.2387 1.8632
# 6 -42.9057 -27.4619 -1.6568 -13.5062 1.8632 51.6875
#
#
#
# Elastic Compliance Matrix: (Units=1/GPa)
#
#
# Indices 1 2 3 4 5 6 
#
# 1 0.010930 -0.001084 -0.002090 0.003514 0.009705 0.008998
# 2 -0.001084 0.019672 -0.002794 0.003536 -0.000530 0.010405
# 3 -0.002090 -0.002794 0.009747 -0.001989 0.001787 -0.003491
# 4 0.003514 0.003536 -0.001989 0.031994 0.003920 0.012951
# 5 0.009705 -0.000530 0.001787 0.003920 0.033373 0.007653
# 6 0.008998 0.010405 -0.003491 0.012951 0.007653 0.035341
#
#
# Mechanical properties :
#
#
# Convention : Reuss Voigt Hill
#
# Bulk Modulus (GPa) = 35.19603 62.27965 48.73784
# Shear Modulus (GPa) = 30.77584 44.30973 37.54279
#
# Velocity S-wave (km/s) = 3.51332 4.21563 3.88040
# Velocity P-wave (km/s) = 5.52939 6.97669 6.29477
#
# Compressibility (1/GPa) = 0.02841230
#
# Stress axis : x y z
#
# Youngs Moduli (GPa) = 91.49360 50.83417 102.59113
#
# Poissons Ratio (x) = 0.05510 0.21443
# Poissons Ratio (y) = 0.09917 0.28667
# Poissons Ratio (z) = 0.19124 0.14205
#
# Static dielectric constant tensor:
#      x y z
#    x 2.093730 -0.102050 -0.033170 
#    y -0.102050 2.242280 0.187580 
#    z -0.033170 0.187580 2.167000 
# 
# From -- ./inp_files/52406.got.cif
#   From: 2010.05.17/outbox.cif.g08.bks.cpg/sg2_27_cif.got.tgz:52406.got - 2010.06.03 11:33:40.
