data_PCOD9040639
_publ_section_title
;
Structure prediction by ZEFSAII (Michael W. Deem and Ramdas Pophale) SiO2 
 PCOD9040639
Probable space group: P -1
;
_chemical_formula_sum "Si O2"
_cell_formula_units_Z 15
_cell_length_a 11.922443
_cell_length_b 6.210013
_cell_length_c 11.979063
_cell_angle_alpha 63.573990
_cell_angle_beta 58.698838
_cell_angle_gamma 87.687295
_cell_volume 657.184542
_symmetry_space_group_name_H-M "P -1"
_symmetry_group_IT_number 2
_symmetry_cell_setting 'triclinic'
loop_
_space_group_symop_operation_xyz
x,y,z
-x,-y,-z
loop_
_atom_site_type_symbol
_atom_site_label
_atom_site_fract_x
_atom_site_fract_y
_atom_site_fract_z
Si Si1 0.355346 0.357546 0.885215
Si Si2 0.301573 0.813998 0.120091
Si Si3 0.409753 0.522208 0.437432
Si Si4 0.000796 0.387745 0.696751
Si Si5 0.117303 0.529440 0.841533
Si Si6 0.832364 0.922562 0.409615
Si Si7 0.771906 0.144528 0.598317
Si Si8 0.500000 0.500000 0.000000
O O1 0.493390 0.448630 0.724558
O O2 0.239969 0.445535 0.855650
O O3 0.385072 0.472667 0.966245
O O4 0.315863 0.059235 0.982360
O O5 0.284559 0.899782 0.237726
O O6 0.425311 0.690141 0.064553
O O7 0.156525 0.624361 0.216072
O O8 0.500000 0.500000 0.500000
O O9 0.344448 0.755315 0.427171
O O10 0.285344 0.285630 0.538112
O O11 0.058111 0.381101 0.793937
O O12 0.092517 0.631898 0.532698
O O13 0.028856 0.154118 0.669500
O O14 0.160413 0.812428 0.709727
O O15 0.000000 0.500000 0.000000
O O16 0.800564 0.928352 0.556706
#
# Coordination Sequence:
#
# PCOD9040639 Si02
#       8
#     2   2   2   2   2   2   2   1
#     4  12  27  43  68 102 141 186 233 288 350 421
#     4  12  26  46  70 102 145 186 233 290 350 427
#     4  11  24  43  67 101 139 181 241 284 339 419
#     4  10  23  44  72 106 137 176 238 296 350 418
#     4  11  24  45  70 105 139 179 237 292 358 417
#     4  10  23  43  70 103 138 185 227 295 353 408
#     4  10  23  43  68 101 140 179 236 287 351 421
#     4  12  28  46  66 100 142 192 232 284 354 414
#
# _framework density 22.824639000000001
#
# number of rings (size 3 to 8) (size 9 to 14) (size 15 to 20)
#    0.000    1.067    1.333    4.800    1.867    9.067 
#    0.000    0.000    0.000    0.000    0.000    0.000 
#    0.000    0.000    0.000    0.000    0.000    0.000 
#
# Total GULP energy -83718.152898 kJ/mol
# GULP energy per Si atom -5581.210193 kJ/mol
# Density = 2.277269 g / cm^3
# Si number density = 22.824639 Si / 1000 Ang^3
#
#
#
# Elastic Constant Matrix: (Units=GPa)
#
#
# Indices 1 2 3 4 5 6 
#
# 1 97.9692 26.4147 26.5100 3.2448 9.2229 -18.8613
# 2 26.4147 91.3414 32.8019 31.0488 10.7787 -15.6299
# 3 26.5100 32.8019 99.4754 13.2554 0.6572 -11.3611
# 4 3.2448 31.0488 13.2554 35.2215 -1.5129 4.4558
# 5 9.2229 10.7787 0.6572 -1.5129 40.8952 9.6923
# 6 -18.8613 -15.6299 -11.3611 4.4558 9.6923 35.5307
#
#
#
# Elastic Compliance Matrix: (Units=1/GPa)
#
#
# Indices 1 2 3 4 5 6 
#
# 1 0.012820 -0.001126 -0.002186 -0.000407 -0.004187 0.006804
# 2 -0.001126 0.023165 -0.002801 -0.021474 -0.009944 0.014103
# 3 -0.002186 -0.002801 0.011998 -0.002013 0.000601 0.001532
# 4 -0.000407 -0.021474 -0.002013 0.051197 0.012447 -0.020122
# 5 -0.004187 -0.009944 0.000601 0.012447 0.032455 -0.016819
# 6 0.006804 0.014103 0.001532 -0.020122 -0.016819 0.045562
#
#
# Mechanical properties :
#
#
# Convention : Reuss Voigt Hill
#
# Bulk Modulus (GPa) = 27.96564 51.13767 39.55166
# Shear Modulus (GPa) = 24.83323 35.86679 30.35001
#
# Velocity S-wave (km/s) = 3.30206 3.96840 3.65047
# Velocity P-wave (km/s) = 5.17853 6.59172 5.92739
#
# Compressibility (1/GPa) = 0.03575816
#
# Stress axis : x y z
#
# Youngs Moduli (GPa) = 78.00283 43.16768 83.34540
#
# Poissons Ratio (x) = 0.04859 0.18222
# Poissons Ratio (y) = 0.08780 0.23344
# Poissons Ratio (z) = 0.17054 0.12091
#
# Static dielectric constant tensor:
#      x y z
#    x 1.550940 0.394630 0.400690 
#    y 0.394630 1.474630 -0.449480 
#    z 0.400690 -0.449480 1.350250 
# 
# From -- ./inp_files/409424.got.cif
#   From: 2010.05.17/outbox.cif.g08.bks.cpg/sg2_205_cif.got.tgz:409424.got - 2010.06.03 11:33:40.
