data_PCOD9040544
_publ_section_title
;
Structure prediction by ZEFSAII (Michael W. Deem and Ramdas Pophale) SiO2 
 PCOD9040544
Probable space group: P -1
;
_chemical_formula_sum "Si O2"
_cell_formula_units_Z 14
_cell_length_a 8.797605
_cell_length_b 11.232986
_cell_length_c 5.210063
_cell_angle_alpha 90.538182
_cell_angle_beta 84.887439
_cell_angle_gamma 97.157145
_cell_volume 508.830969
_symmetry_space_group_name_H-M "P -1"
_symmetry_group_IT_number 2
_symmetry_cell_setting 'triclinic'
loop_
_space_group_symop_operation_xyz
x,y,z
-x,-y,-z
loop_
_atom_site_type_symbol
_atom_site_label
_atom_site_fract_x
_atom_site_fract_y
_atom_site_fract_z
Si Si1 0.089924 0.084252 0.770624
Si Si2 0.310967 0.141396 0.133475
Si Si3 0.156814 0.348875 0.297711
Si Si4 0.417436 0.703224 0.609840
Si Si5 0.981198 0.331211 0.806603
Si Si6 0.659581 0.425956 0.868083
Si Si7 0.676442 0.057935 0.553052
O O1 0.982247 0.189197 0.756332
O O2 0.170247 0.994498 0.575110
O O3 0.251276 0.156810 0.858730
O O4 0.000000 0.000000 0.000000
O O5 0.184450 0.209420 0.304651
O O6 0.460687 0.213947 0.229670
O O7 0.320993 0.000060 0.163927
O O8 0.102525 0.388659 0.580316
O O9 0.310167 0.432431 0.187762
O O10 0.035009 0.357493 0.089805
O O11 0.453645 0.639035 0.334587
O O12 0.315582 0.805210 0.527618
O O13 0.358271 0.605365 0.830150
O O14 0.822367 0.379754 0.781352
O O15 0.500000 0.000000 0.500000
#
# Coordination Sequence:
#
# PCOD9040544 Si02
#       7
#     2   2   2   2   2   2   2
#     4  11  24  41  70 101 139 179 228 289 342 418
#     4  10  25  44  67  98 132 184 223 280 351 405
#     4  11  23  44  71  96 137 179 226 286 341 404
#     4  11  27  41  69  97 139 178 230 279 340 408
#     4  11  23  42  68 100 138 176 228 279 350 402
#     4  12  25  44  67 103 134 181 231 282 333 413
#     4  10  23  43  67  95 136 185 222 279 345 414
#
# _framework density 27.514047999999999
#
# number of rings (size 3 to 8) (size 9 to 14) (size 15 to 20)
#    0.000    1.143    1.429    3.429    8.000    4.000 
#    0.000    0.000    0.000    0.000    0.000    0.000 
#    0.000    0.000    0.000    0.000    0.000    0.000 
#
# Total GULP energy -78130.096678 kJ/mol
# GULP energy per Si atom -5580.721191 kJ/mol
# Density = 2.745142 g / cm^3
# Si number density = 27.514048 Si / 1000 Ang^3
#
#
#
# Elastic Constant Matrix: (Units=GPa)
#
#
# Indices 1 2 3 4 5 6 
#
# 1 61.5594 48.3387 9.7590 -10.3202 7.9084 -10.2399
# 2 48.3387 132.2368 42.3630 -7.6565 4.9992 -15.3607
# 3 9.7590 42.3630 103.3469 -13.5410 7.8796 -4.8863
# 4 -10.3202 -7.6565 -13.5410 43.4581 4.7541 10.0428
# 5 7.9084 4.9992 7.8796 4.7541 42.2244 10.8910
# 6 -10.2399 -15.3607 -4.8863 10.0428 10.8910 42.6824
#
#
#
# Elastic Compliance Matrix: (Units=1/GPa)
#
#
# Indices 1 2 3 4 5 6 
#
# 1 0.025090 -0.009128 0.002603 0.005011 -0.005509 0.003259
# 2 -0.009128 0.012418 -0.004441 -0.001916 0.000761 0.002027
# 3 0.002603 -0.004441 0.011963 0.003814 -0.002670 0.000180
# 4 0.005011 -0.001916 0.003814 0.026433 -0.003254 -0.004440
# 5 -0.005509 0.000761 -0.002670 -0.003254 0.027447 -0.007591
# 6 0.003259 0.002027 0.000180 -0.004440 -0.007591 0.027942
#
#
# Mechanical properties :
#
#
# Convention : Reuss Voigt Hill
#
# Bulk Modulus (GPa) = 36.31505 55.34048 45.82776
# Shear Modulus (GPa) = 30.78730 38.78516 34.78623
#
# Velocity S-wave (km/s) = 3.34872 3.75860 3.55957
# Velocity P-wave (km/s) = 5.30842 6.24446 5.79537
#
# Compressibility (1/GPa) = 0.02753679
#
# Stress axis : x y z
#
# Youngs Moduli (GPa) = 39.85724 80.53072 83.59391
#
# Poissons Ratio (x) = 0.73512 -0.21762
# Poissons Ratio (y) = 0.36383 0.37127
# Poissons Ratio (z) = -0.10376 0.35766
#
# Static dielectric constant tensor:
#      x y z
#    x 2.215350 0.090840 -0.026900 
#    y 0.090840 2.198260 0.053870 
#    z -0.026900 0.053870 2.257640 
# 
# From -- ./inp_files/27596.got.cif
#   From: 2010.05.17/outbox.cif.g08.bks.cpg/sg2_14_cif.got.tgz:27596.got - 2010.06.03 11:33:40.
