data_PCOD9040994
_publ_section_title
;
Structure prediction by ZEFSAII (Michael W. Deem and Ramdas Pophale) SiO2 
 PCOD9040994
Probable space group: P -1
;
_chemical_formula_sum "Si O2"
_cell_formula_units_Z 16
_cell_length_a 19.422967
_cell_length_b 7.921916
_cell_length_c 12.858277
_cell_angle_alpha 46.135461
_cell_angle_beta 31.334804
_cell_angle_gamma 49.230706
_cell_volume 731.874042
_symmetry_space_group_name_H-M "P -1"
_symmetry_group_IT_number 2
_symmetry_cell_setting 'triclinic'
loop_
_space_group_symop_operation_xyz
x,y,z
-x,-y,-z
loop_
_atom_site_type_symbol
_atom_site_label
_atom_site_fract_x
_atom_site_fract_y
_atom_site_fract_z
Si Si1 0.652808 0.378878 0.850886
Si Si2 0.374686 0.378222 0.745593
Si Si3 0.370264 0.075503 0.069402
Si Si4 0.183832 0.491705 0.595331
Si Si5 0.352852 0.114677 0.682058
Si Si6 0.089730 0.479221 0.149369
Si Si7 0.163103 0.760420 0.132392
Si Si8 0.097367 0.057684 0.471005
O O1 0.734791 0.531307 0.607223
O O2 0.725157 0.351228 0.880205
O O3 0.500000 0.500000 0.000000
O O4 0.656248 0.130526 0.889380
O O5 0.500000 0.500000 0.500000
O O6 0.395372 0.291654 0.873729
O O7 0.373560 0.172591 0.750806
O O8 0.218664 0.497638 0.903691
O O9 0.239922 0.134209 0.285001
O O10 0.500000 0.000000 0.000000
O O11 0.283104 0.353900 0.611149
O O12 0.042453 0.409089 0.789942
O O13 0.137494 0.773372 0.552752
O O14 0.500000 0.000000 0.500000
O O15 0.241200 0.945131 0.893187
O O16 0.108589 0.605037 0.180310
O O17 0.079172 0.205334 0.319560
O O18 0.033936 0.863006 0.325325
#
# Coordination Sequence:
#
# PCOD9040994 Si02
#       8
#     2   2   2   2   2   2   2   2
#     4  11  24  40  67 101 133 179 228 281 341 403
#     4  11  25  44  68  95 138 184 220 279 348 405
#     4  10  24  42  66 100 131 174 225 282 336 402
#     4  11  25  43  71 100 136 183 232 283 351 410
#     4  12  27  49  67 100 144 185 227 286 348 418
#     4  11  24  44  72 104 138 179 233 290 343 410
#     4  12  24  44  71 101 142 184 224 288 353 403
#     4  10  23  43  70 102 139 171 231 291 343 401
#
# _framework density 21.861684
#
# number of rings (size 3 to 8) (size 9 to 14) (size 15 to 20)
#    0.000    1.000    2.500    3.000    8.750    2.500 
#    0.000    0.000    0.000    0.000    0.000    0.000 
#    0.000    0.000    0.000    0.000    0.000    0.000 
#
# Total GULP energy -89246.441363 kJ/mol
# GULP energy per Si atom -5577.902585 kJ/mol
# Density = 2.181193 g / cm^3
# Si number density = 21.861684 Si / 1000 Ang^3
#
#
#
# Elastic Constant Matrix: (Units=GPa)
#
#
# Indices 1 2 3 4 5 6 
#
# 1 85.9914 30.8786 29.5299 11.2000 -15.6305 -11.8663
# 2 30.8786 80.5630 49.7742 20.5252 -11.2456 -9.6576
# 3 29.5299 49.7742 180.1365 32.4304 -23.0437 -15.2746
# 4 11.2000 20.5252 32.4304 48.9636 -4.8317 -6.2854
# 5 -15.6305 -11.2456 -23.0437 -4.8317 30.4489 9.9484
# 6 -11.8663 -9.6576 -15.2746 -6.2854 9.9484 38.3384
#
#
#
# Elastic Compliance Matrix: (Units=1/GPa)
#
#
# Indices 1 2 3 4 5 6 
#
# 1 0.014514 -0.004319 -0.000289 -0.000587 0.004918 0.001917
# 2 -0.004319 0.017254 -0.003165 -0.003952 0.000845 0.000881
# 3 -0.000289 -0.003165 0.007573 -0.003175 0.003698 0.000651
# 4 -0.000587 -0.003952 -0.003175 0.024461 -0.000868 0.001794
# 5 0.004918 0.000845 0.003698 -0.000868 0.040796 -0.007520
# 6 0.001917 0.000881 0.000651 0.001794 -0.007520 0.029404
#
#
# Mechanical properties :
#
#
# Convention : Reuss Voigt Hill
#
# Bulk Modulus (GPa) = 42.02491 63.00626 52.51559
# Shear Modulus (GPa) = 31.75022 39.31739 35.53381
#
# Velocity S-wave (km/s) = 3.81507 4.24543 4.03599
# Velocity P-wave (km/s) = 6.21861 7.27424 6.76704
#
# Compressibility (1/GPa) = 0.02379541
#
# Stress axis : x y z
#
# Youngs Moduli (GPa) = 68.89964 57.95759 132.04836
#
# Poissons Ratio (x) = 0.25031 0.03811
# Poissons Ratio (y) = 0.29757 0.41797
# Poissons Ratio (z) = 0.01989 0.18345
#
# Static dielectric constant tensor:
#      x y z
#    x 1.808390 0.019560 -0.054320 
#    y 0.019560 1.901350 -0.047620 
#    z -0.054320 -0.047620 1.919930 
# 
# From -- ./inp_files/461869.got.cif
#   From: 2010.05.17/outbox.cif.g08.bks.cpg/sg2_231_cif.got.tgz:461869.got - 2010.06.03 11:33:40.
