data_PCOD9040098
_publ_section_title
;
Structure prediction by ZEFSAII (Michael W. Deem and Ramdas Pophale) SiO2 
 PCOD9040098
Probable space group: P -1
;
_chemical_formula_sum "Si O2"
_cell_formula_units_Z 12
_cell_length_a 9.127200
_cell_length_b 8.849875
_cell_length_c 11.633960
_cell_angle_alpha 38.784477
_cell_angle_beta 117.289755
_cell_angle_gamma 104.255238
_cell_volume 512.588127
_symmetry_space_group_name_H-M "P -1"
_symmetry_group_IT_number 2
_symmetry_cell_setting 'triclinic'
loop_
_space_group_symop_operation_xyz
x,y,z
-x,-y,-z
loop_
_atom_site_type_symbol
_atom_site_label
_atom_site_fract_x
_atom_site_fract_y
_atom_site_fract_z
Si Si1 0.009508 0.855504 0.356288
Si Si2 0.308864 0.429110 0.403458
Si Si3 0.764253 0.531782 0.204277
Si Si4 0.654122 0.323587 0.501772
Si Si5 0.676191 0.019183 0.994900
Si Si6 0.008524 0.668060 0.791148
O O1 0.068641 0.581459 0.591784
O O2 0.169797 0.870514 0.323680
O O3 0.007402 0.053814 0.338065
O O4 0.833690 0.927218 0.189271
O O5 0.481847 0.258112 0.522755
O O6 0.315068 0.466520 0.520752
O O7 0.316172 0.703943 0.199412
O O8 0.149652 0.352860 0.333869
O O9 0.634386 0.421076 0.304500
O O10 0.819292 0.429756 0.159538
O O11 0.710907 0.822506 0.020681
O O12 0.500000 0.000000 0.000000
O O13 0.000000 0.500000 0.000000
#
# Coordination Sequence:
#
# PCOD9040098 Si02
#       6
#     2   2   2   2   2   2
#     4  10  23  43  62  92 128 173 209 251 327 373
#     4  11  23  42  67 100 127 161 217 265 316 371
#     4  10  24  42  65  93 126 172 211 254 320 373
#     4   9  23  44  66  97 122 168 217 261 314 367
#     4  12  22  40  67  96 127 162 218 268 310 371
#     4  12  25  41  65  95 134 168 208 262 318 387
#
# _framework density 23.410609999999998
#
# number of rings (size 3 to 8) (size 9 to 14) (size 15 to 20)
#    1.000    0.333    3.333    2.000    4.667    2.000 
#    0.000    3.333    0.000    0.000    0.000    0.000 
#    0.000    0.000    0.000    0.000    0.000    0.000 
#
# Total GULP energy -66975.013933 kJ/mol
# GULP energy per Si atom -5581.251161 kJ/mol
# Density = 2.335733 g / cm^3
# Si number density = 23.410610 Si / 1000 Ang^3
#
#
#
# Elastic Constant Matrix: (Units=GPa)
#
#
# Indices 1 2 3 4 5 6 
#
# 1 147.1267 69.1260 28.5350 -7.7113 7.1653 -42.9712
# 2 69.1260 104.3831 10.4513 -11.5044 14.6322 -28.9197
# 3 28.5350 10.4513 84.0577 -18.2754 5.8060 -4.8998
# 4 -7.7113 -11.5044 -18.2754 30.9708 -7.6140 -5.3345
# 5 7.1653 14.6322 5.8060 -7.6140 38.5967 -0.6005
# 6 -42.9712 -28.9197 -4.8998 -5.3345 -0.6005 42.9694
#
#
#
# Elastic Compliance Matrix: (Units=1/GPa)
#
#
# Indices 1 2 3 4 5 6 
#
# 1 0.012500 -0.005602 -0.002885 0.000933 0.000554 0.008525
# 2 -0.005602 0.015959 0.001766 0.005602 -0.004077 0.005978
# 3 -0.002885 0.001766 0.014628 0.008593 -0.000623 0.001029
# 4 0.000933 0.005602 0.008593 0.042816 0.005029 0.011070
# 5 0.000554 -0.004077 -0.000623 0.005029 0.028418 -0.001240
# 6 0.008525 0.005978 0.001029 0.011070 -0.001240 0.037296
#
#
# Mechanical properties :
#
#
# Convention : Reuss Voigt Hill
#
# Bulk Modulus (GPa) = 33.73467 61.31023 47.52245
# Shear Modulus (GPa) = 28.58105 37.67106 33.12605
#
# Velocity S-wave (km/s) = 3.49787 4.01577 3.76573
# Velocity P-wave (km/s) = 5.54569 6.90998 6.26508
#
# Compressibility (1/GPa) = 0.02964310
#
# Stress axis : x y z
#
# Youngs Moduli (GPa) = 79.99681 62.66251 68.36272
#
# Poissons Ratio (x) = 0.35105 0.19725
# Poissons Ratio (y) = 0.44816 -0.12071
# Poissons Ratio (z) = 0.23082 -0.11064
#
# Static dielectric constant tensor:
#      x y z
#    x 1.971580 -0.031780 -0.053390 
#    y -0.031780 1.849290 0.015540 
#    z -0.053390 0.015540 1.929450 
# 
# From -- ./inp_files/194869.got.cif
#   From: 2010.05.17/outbox.cif.g08.bks.cpg/sg2_98_cif.got.tgz:194869.got - 2010.06.03 11:33:40.
