data_PCOD9040116
_publ_section_title
;
Structure prediction by ZEFSAII (Michael W. Deem and Ramdas Pophale) SiO2 
 PCOD9040116
Probable space group: P -1
;
_chemical_formula_sum "Si O2"
_cell_formula_units_Z 16
_cell_length_a 9.740218
_cell_length_b 12.008394
_cell_length_c 11.217343
_cell_angle_alpha 57.251808
_cell_angle_beta 139.145259
_cell_angle_gamma 120.618201
_cell_volume 709.778859
_symmetry_space_group_name_H-M "P -1"
_symmetry_group_IT_number 2
_symmetry_cell_setting 'triclinic'
loop_
_space_group_symop_operation_xyz
x,y,z
-x,-y,-z
loop_
_atom_site_type_symbol
_atom_site_label
_atom_site_fract_x
_atom_site_fract_y
_atom_site_fract_z
Si Si1 0.774582 0.788725 0.513658
Si Si2 0.620241 0.849574 0.794761
Si Si3 0.721150 0.976882 0.550856
Si Si4 0.654874 0.369111 0.561792
Si Si5 0.989898 0.213152 0.750058
Si Si6 0.028252 0.449592 0.178937
Si Si7 0.320840 0.355892 0.712186
Si Si8 0.374043 0.610264 0.903983
O O1 0.818375 0.935774 0.515135
O O2 0.559337 0.719858 0.479956
O O3 0.954656 0.706284 0.719475
O O4 0.730952 0.748288 0.370792
O O5 0.685417 0.856259 0.695264
O O6 0.127920 0.905294 0.344804
O O7 0.827857 0.837602 0.018012
O O8 0.428001 0.729224 0.775096
O O9 0.495501 0.021165 0.345623
O O10 0.756683 0.458060 0.688552
O O11 0.629045 0.488217 0.384093
O O12 0.817151 0.276380 0.674194
O O13 0.118905 0.328149 0.683235
O O14 0.000000 0.500000 0.000000
O O15 0.858807 0.459495 0.166957
O O16 0.517781 0.329952 0.936029
O O17 0.500000 0.500000 0.000000
#
# Coordination Sequence:
#
# PCOD9040116 Si02
#       8
#     2   2   2   2   2   2   2   2
#     4  11  25  43  63  95 137 181 220 266 345 409
#     4  10  24  45  64 106 130 174 241 280 329 389
#     4  11  25  44  71  91 142 186 226 277 326 412
#     4  11  22  40  68  96 134 173 216 284 339 398
#     4  11  24  43  72  99 130 176 236 280 335 392
#     4  11  23  40  65 103 135 174 217 271 348 412
#     4  10  23  43  63 101 135 168 217 285 346 399
#     4  11  24  41  71 101 136 170 224 288 337 400
#
# _framework density 22.542234000000001
#
# number of rings (size 3 to 8) (size 9 to 14) (size 15 to 20)
#    0.000    1.250    0.000    6.750   10.500    0.500 
#    2.250    1.250    0.000    0.000    0.000    0.000 
#    0.000    0.000    0.000    0.000    0.000    0.000 
#
# Total GULP energy -89372.458121 kJ/mol
# GULP energy per Si atom -5585.778633 kJ/mol
# Density = 2.249093 g / cm^3
# Si number density = 22.542234 Si / 1000 Ang^3
#
#
#
# Elastic Constant Matrix: (Units=GPa)
#
#
# Indices 1 2 3 4 5 6 
#
# 1 105.0518 10.4382 35.1981 -4.8209 6.8497 -4.3296
# 2 10.4382 43.4975 10.7311 1.1304 -3.8584 -14.4089
# 3 35.1981 10.7311 70.3852 -0.4838 -8.0646 -8.8684
# 4 -4.8209 1.1304 -0.4838 18.2246 3.2850 -1.1941
# 5 6.8497 -3.8584 -8.0646 3.2850 35.9550 -7.8508
# 6 -4.3296 -14.4089 -8.8684 -1.1941 -7.8508 50.8114
#
#
#
# Elastic Compliance Matrix: (Units=1/GPa)
#
#
# Indices 1 2 3 4 5 6 
#
# 1 0.012373 -0.002345 -0.006520 0.004009 -0.004740 -0.001387
# 2 -0.002345 0.027041 -0.001394 -0.002719 0.005017 0.007936
# 3 -0.006520 -0.001394 0.018785 -0.002045 0.006200 0.003238
# 4 0.004009 -0.002719 -0.002045 0.057248 -0.006854 -0.000500
# 5 -0.004740 0.005017 0.006200 -0.006854 0.032801 0.007008
# 6 -0.001387 0.007936 0.003238 -0.000500 0.007008 0.023449
#
#
# Mechanical properties :
#
#
# Convention : Reuss Voigt Hill
#
# Bulk Modulus (GPa) = 26.53865 36.85215 31.69540
# Shear Modulus (GPa) = 24.41709 31.83599 28.12654
#
# Velocity S-wave (km/s) = 3.29473 3.76211 3.53615
# Velocity P-wave (km/s) = 5.12563 5.93758 5.54648
#
# Compressibility (1/GPa) = 0.03768089
#
# Stress axis : x y z
#
# Youngs Moduli (GPa) = 80.82416 36.98074 53.23441
#
# Poissons Ratio (x) = 0.08670 0.34709
# Poissons Ratio (y) = 0.18950 0.07422
# Poissons Ratio (z) = 0.52698 0.05156
#
# Static dielectric constant tensor:
#      x y z
#    x 1.888270 0.070790 -0.015590 
#    y 0.070790 1.948640 -0.030110 
#    z -0.015590 -0.030110 1.886930 
# 
# From -- ./inp_files/395553.got.cif
#   From: 2010.05.17/outbox.cif.g08.bks.cpg/sg2_198_cif.got.tgz:395553.got - 2010.06.03 11:33:40.
