data_PCOD9040802
_publ_section_title
;
Structure prediction by ZEFSAII (Michael W. Deem and Ramdas Pophale) SiO2 
 PCOD9040802
Probable space group: P -1
;
_chemical_formula_sum "Si O2"
_cell_formula_units_Z 13
_cell_length_a 13.947787
_cell_length_b 9.663591
_cell_length_c 10.084056
_cell_angle_alpha 32.458842
_cell_angle_beta 130.853871
_cell_angle_gamma 116.896114
_cell_volume 534.900411
_symmetry_space_group_name_H-M "P -1"
_symmetry_group_IT_number 2
_symmetry_cell_setting 'triclinic'
loop_
_space_group_symop_operation_xyz
x,y,z
-x,-y,-z
loop_
_atom_site_type_symbol
_atom_site_label
_atom_site_fract_x
_atom_site_fract_y
_atom_site_fract_z
Si Si1 0.431471 0.626229 0.038078
Si Si2 0.392019 0.852098 0.562497
Si Si3 0.790205 0.588091 0.698594
Si Si4 0.500000 0.500000 0.500000
Si Si5 0.853339 0.461354 0.139374
Si Si6 0.117512 0.130208 0.964017
Si Si7 0.894187 0.948262 0.288180
O O1 0.394796 0.873724 0.706501
O O2 0.297559 0.531222 0.981985
O O3 0.553278 0.434502 0.226316
O O4 0.466610 0.642401 0.207939
O O5 0.500000 0.000000 0.500000
O O6 0.250168 0.964873 0.285370
O O7 0.635712 0.607739 0.545811
O O8 0.825266 0.788699 0.460140
O O9 0.852714 0.619312 0.873797
O O10 0.848962 0.268298 0.986786
O O11 0.951094 0.171345 0.449856
O O12 0.904745 0.590324 0.207746
O O13 0.138071 0.132352 0.824330
O O14 0.000000 0.000000 0.000000
#
# Coordination Sequence:
#
# PCOD9040802 Si02
#       7
#     2   2   2   1   2   2   2
#     4  10  23  43  69 100 140 183 246 293 366 433
#     4  11  23  43  70  98 140 187 235 293 368 430
#     4  11  27  48  73 106 145 197 239 305 370 443
#     4  10  24  46  70 104 140 186 248 304 360 434
#     4  11  24  46  70 106 142 194 238 303 366 442
#     4  12  26  45  74 110 144 190 246 306 365 434
#     4  12  26  46  74 104 150 188 248 298 373 434
#
# _framework density 24.303591000000001
#
# number of rings (size 3 to 8) (size 9 to 14) (size 15 to 20)
#    0.000    0.923    1.538    4.154    2.154    5.538 
#    0.000    0.000    0.000    0.000    0.000    0.000 
#    0.000    0.000    0.000    0.000    0.000    0.000 
#
# Total GULP energy -72458.349822 kJ/mol
# GULP energy per Si atom -5573.719217 kJ/mol
# Density = 2.424828 g / cm^3
# Si number density = 24.303591 Si / 1000 Ang^3
#
#
#
# Elastic Constant Matrix: (Units=GPa)
#
#
# Indices 1 2 3 4 5 6 
#
# 1 105.9291 28.9152 49.6208 13.3929 -27.3337 5.2125
# 2 28.9152 88.2180 37.0380 20.5780 -13.2580 -2.5645
# 3 49.6208 37.0380 126.6931 31.4467 -12.0094 -4.0058
# 4 13.3929 20.5780 31.4467 56.4840 -14.4110 -3.2704
# 5 -27.3337 -13.2580 -12.0094 -14.4110 69.4781 14.9380
# 6 5.2125 -2.5645 -4.0058 -3.2704 14.9380 33.2224
#
#
#
# Elastic Compliance Matrix: (Units=1/GPa)
#
#
# Indices 1 2 3 4 5 6 
#
# 1 0.013781 -0.002142 -0.004722 0.001263 0.005596 -0.005289
# 2 -0.002142 0.013855 -0.002385 -0.003016 0.000650 0.000529
# 3 -0.004722 -0.002385 0.011521 -0.004752 -0.001799 0.002287
# 4 0.001263 -0.003016 -0.004752 0.022087 0.003796 -0.000537
# 5 0.005596 0.000650 -0.001799 0.003796 0.019195 -0.009302
# 6 -0.005289 0.000529 0.002287 -0.000537 -0.009302 0.035376
#
#
# Mechanical properties :
#
#
# Convention : Reuss Voigt Hill
#
# Bulk Modulus (GPa) = 48.40098 61.33204 54.86651
# Shear Modulus (GPa) = 35.41102 45.52131 40.46617
#
# Velocity S-wave (km/s) = 3.82124 4.33254 4.08490
# Velocity P-wave (km/s) = 6.27914 7.09355 6.69874
#
# Compressibility (1/GPa) = 0.02066074
#
# Stress axis : x y z
#
# Youngs Moduli (GPa) = 72.56217 72.17417 86.79875
#
# Poissons Ratio (x) = 0.15460 0.40983
# Poissons Ratio (y) = 0.15543 0.20699
# Poissons Ratio (z) = 0.34261 0.17211
#
# Static dielectric constant tensor:
#      x y z
#    x 1.919480 -0.062780 -0.001430 
#    y -0.062780 1.971430 -0.097610 
#    z -0.001430 -0.097610 1.977670 
# 
# From -- ./inp_files/293798.got.cif
#   From: 2010.05.17/outbox.cif.g08.bks.cpg/sg2_147_cif.got.tgz:293798.got - 2010.06.03 11:33:40.
