data_PCOD9040126
_publ_section_title
;
Structure prediction by ZEFSAII (Michael W. Deem and Ramdas Pophale) SiO2 
 PCOD9040126
Probable space group: P -1
;
_chemical_formula_sum "Si O2"
_cell_formula_units_Z 16
_cell_length_a 15.545823
_cell_length_b 9.209612
_cell_length_c 19.546910
_cell_angle_alpha 44.190036
_cell_angle_beta 161.196312
_cell_angle_gamma 128.304260
_cell_volume 606.753345
_symmetry_space_group_name_H-M "P -1"
_symmetry_group_IT_number 2
_symmetry_cell_setting 'triclinic'
loop_
_space_group_symop_operation_xyz
x,y,z
-x,-y,-z
loop_
_atom_site_type_symbol
_atom_site_label
_atom_site_fract_x
_atom_site_fract_y
_atom_site_fract_z
Si Si1 0.880068 0.893064 0.213992
Si Si2 0.776032 0.571480 0.633270
Si Si3 0.711012 0.333471 0.875554
Si Si4 0.929871 0.858913 0.414317
Si Si5 0.178956 0.677237 0.794311
Si Si6 0.874876 0.754485 0.903272
Si Si7 0.556763 0.774235 0.888134
Si Si8 0.546097 0.992526 0.400717
O O1 0.762366 0.781203 0.101834
O O2 0.858782 0.799987 0.305045
O O3 0.200924 0.893353 0.444847
O O4 0.709407 0.146096 0.992022
O O5 0.542978 0.603514 0.389376
O O6 0.030482 0.623664 0.767696
O O7 0.885015 0.338985 0.828482
O O8 0.675480 0.746092 0.558965
O O9 0.973670 0.225877 0.060169
O O10 0.744979 0.551645 0.861293
O O11 0.969494 0.707723 0.561131
O O12 0.750726 0.096923 0.218115
O O13 0.242385 0.890032 0.631078
O O14 0.426315 0.472071 0.033444
O O15 0.647491 0.952223 0.697691
O O16 0.629623 0.894572 0.835835
#
# Coordination Sequence:
#
# PCOD9040126 Si02
#       8
#     2   2   2   2   2   2   2   2
#     4  11  22  43  63  92 133 163 207 265 311 369
#     4  12  22  45  64  92 130 164 212 263 312 372
#     4  11  24  43  66  95 129 164 212 265 309 382
#     4  10  23  43  63  93 130 164 208 261 310 374
#     4  11  21  40  69  91 124 169 211 254 315 373
#     4  11  25  43  65  96 125 168 214 256 322 370
#     4  11  22  41  63  92 126 169 210 254 314 375
#     4  11  23  40  66  90 127 169 206 259 315 369
#
# _framework density 26.369859999999999
#
# number of rings (size 3 to 8) (size 9 to 14) (size 15 to 20)
#    0.000    1.000    6.250    0.750    1.750    1.500 
#    0.000    6.875    0.000    0.000    0.000    0.000 
#    0.000    0.000    0.000    0.000    0.000    0.000 
#
# Total GULP energy -89675.181093 kJ/mol
# GULP energy per Si atom -5604.698818 kJ/mol
# Density = 2.630984 g / cm^3
# Si number density = 26.369860 Si / 1000 Ang^3
#
#
#
# Elastic Constant Matrix: (Units=GPa)
#
#
# Indices 1 2 3 4 5 6 
#
# 1 122.8618 2.3515 32.5441 6.5187 -23.4857 -15.6032
# 2 2.3515 65.5541 22.5528 8.4964 4.0171 -16.0438
# 3 32.5441 22.5528 82.3690 11.4968 -13.2001 -23.4558
# 4 6.5187 8.4964 11.4968 48.0301 -4.1464 -10.0860
# 5 -23.4857 4.0171 -13.2001 -4.1464 50.4433 0.0130
# 6 -15.6032 -16.0438 -23.4558 -10.0860 0.0130 31.8887
#
#
#
# Elastic Compliance Matrix: (Units=1/GPa)
#
#
# Indices 1 2 3 4 5 6 
#
# 1 0.010009 0.001173 -0.002655 0.000157 0.003884 0.003583
# 2 0.001173 0.018428 -0.003748 -0.001293 -0.002010 0.006680
# 3 -0.002655 -0.003748 0.017620 -0.000890 0.003597 0.009492
# 4 0.000157 -0.001293 -0.000890 0.022642 0.001803 0.005933
# 5 0.003884 -0.002010 0.003597 0.001803 0.022881 0.004096
# 6 0.003583 0.006680 0.009492 0.005933 0.004096 0.045330
#
#
# Mechanical properties :
#
#
# Convention : Reuss Voigt Hill
#
# Bulk Modulus (GPa) = 28.09359 42.85350 35.47354
# Shear Modulus (GPa) = 31.39996 40.29484 35.84740
#
# Velocity S-wave (km/s) = 3.45447 3.91329 3.69102
# Velocity P-wave (km/s) = 5.15635 6.05844 5.62550
#
# Compressibility (1/GPa) = 0.03559531
#
# Stress axis : x y z
#
# Youngs Moduli (GPa) = 99.90847 54.26617 56.75485
#
# Poissons Ratio (x) = -0.06365 0.15069
# Poissons Ratio (y) = -0.11718 0.21274
# Poissons Ratio (z) = 0.26526 0.20341
#
# Static dielectric constant tensor:
#      x y z
#    x 2.053880 0.015330 -0.003920 
#    y 0.015330 2.027600 0.054350 
#    z -0.003920 0.054350 2.055170 
# 
# From -- ./inp_files/337580.got.cif
#   From: 2010.05.17/outbox.cif.g08.bks.cpg/sg2_169_cif.got.tgz:337580.got - 2010.06.03 11:33:40.
