data_PCOD9040778
_publ_section_title
;
Structure prediction by ZEFSAII (Michael W. Deem and Ramdas Pophale) SiO2 
 PCOD9040778
Probable space group: P -1
;
_chemical_formula_sum "Si O2"
_cell_formula_units_Z 16
_cell_length_a 11.151163
_cell_length_b 9.092404
_cell_length_c 8.549060
_cell_angle_alpha 61.518212
_cell_angle_beta 114.042710
_cell_angle_gamma 96.480159
_cell_volume 692.198045
_symmetry_space_group_name_H-M "P -1"
_symmetry_group_IT_number 2
_symmetry_cell_setting 'triclinic'
loop_
_space_group_symop_operation_xyz
x,y,z
-x,-y,-z
loop_
_atom_site_type_symbol
_atom_site_label
_atom_site_fract_x
_atom_site_fract_y
_atom_site_fract_z
Si Si1 0.289990 0.349305 0.352213
Si Si2 0.404468 0.861455 0.847686
Si Si3 0.041932 0.307456 0.063267
Si Si4 0.897230 0.017999 0.291795
Si Si5 0.525091 0.186528 0.759786
Si Si6 0.473480 0.599004 0.777460
Si Si7 0.736506 0.353346 0.592693
Si Si8 0.017663 0.311549 0.681555
O O1 0.177298 0.257541 0.256503
O O2 0.384304 0.254859 0.579235
O O3 0.394866 0.393454 0.255479
O O4 0.226528 0.515330 0.323368
O O5 0.419770 0.780675 0.726973
O O6 0.252773 0.931510 0.758992
O O7 0.515671 0.989662 0.851836
O O8 0.441819 0.753065 0.079917
O O9 0.942593 0.169679 0.128927
O O10 0.000000 0.500000 0.000000
O O11 0.066093 0.312535 0.886709
O O12 0.904106 0.836557 0.301121
O O13 0.000000 0.000000 0.500000
O O14 0.638261 0.237983 0.680862
O O15 0.353131 0.547861 0.636252
O O16 0.500000 0.500000 0.000000
O O17 0.867961 0.261965 0.638531
O O18 0.000000 0.500000 0.500000
#
# Coordination Sequence:
#
# PCOD9040778 Si02
#       8
#     2   2   2   2   2   2   2   2
#     4  11  24  43  70  99 139 184 231 290 356 426
#     4  11  24  42  71 100 144 177 240 292 358 430
#     4  12  26  46  75 105 150 196 243 298 368 434
#     4  12  27  48  74 109 152 194 239 301 367 436
#     4  10  23  43  68  99 133 189 224 291 363 414
#     4  11  24  39  67 100 130 182 230 289 348 411
#     4  11  23  44  68  94 144 174 237 290 352 425
#     4  12  28  47  75 109 142 196 246 299 368 437
#
# _framework density 23.114773
#
# number of rings (size 3 to 8) (size 9 to 14) (size 15 to 20)
#    0.000    0.750    1.250    6.375    5.250    5.000 
#    0.000    0.000    0.000    0.000    0.000    0.000 
#    0.000    0.000    0.000    0.000    0.000    0.000 
#
# Total GULP energy -89426.855801 kJ/mol
# GULP energy per Si atom -5589.178488 kJ/mol
# Density = 2.306216 g / cm^3
# Si number density = 23.114773 Si / 1000 Ang^3
#
#
#
# Elastic Constant Matrix: (Units=GPa)
#
#
# Indices 1 2 3 4 5 6 
#
# 1 28.9310 6.3832 5.7705 4.1801 5.7815 5.4498
# 2 6.3832 96.1485 20.2703 12.1763 -17.5334 -3.6739
# 3 5.7705 20.2703 112.6951 21.1393 -10.8314 7.4784
# 4 4.1801 12.1763 21.1393 42.0245 4.0893 -0.7683
# 5 5.7815 -17.5334 -10.8314 4.0893 35.8147 8.4576
# 6 5.4498 -3.6739 7.4784 -0.7683 8.4576 36.6757
#
#
#
# Elastic Compliance Matrix: (Units=1/GPa)
#
#
# Indices 1 2 3 4 5 6 
#
# 1 0.038036 -0.003501 -0.001474 -0.001404 -0.007177 -0.004076
# 2 -0.003501 0.012492 -0.000771 -0.003538 0.006783 0.000291
# 3 -0.001474 -0.000771 0.010775 -0.005548 0.004511 -0.003212
# 4 -0.001404 -0.003538 -0.005548 0.028511 -0.007205 0.003244
# 5 -0.007177 0.006783 0.004511 -0.007205 0.036411 -0.007721
# 6 -0.004076 0.000291 -0.003212 0.003244 -0.007721 0.030404
#
#
# Mechanical properties :
#
#
# Convention : Reuss Voigt Hill
#
# Bulk Modulus (GPa) = 20.07623 33.62474 26.85049
# Shear Modulus (GPa) = 27.06717 36.59303 31.83010
#
# Velocity S-wave (km/s) = 3.42569 3.98314 3.71488
# Velocity P-wave (km/s) = 4.93471 5.97765 5.48104
#
# Compressibility (1/GPa) = 0.04981014
#
# Stress axis : x y z
#
# Youngs Moduli (GPa) = 26.29062 80.05361 92.80733
#
# Poissons Ratio (x) = 0.28029 0.13678
# Poissons Ratio (y) = 0.09205 0.07159
# Poissons Ratio (z) = 0.03875 0.06175
#
# Static dielectric constant tensor:
#      x y z
#    x 1.811230 -0.035070 0.003200 
#    y -0.035070 1.982050 -0.046270 
#    z 0.003200 -0.046270 1.958540 
# 
# From -- ./inp_files/242686.got.cif
#   From: 2010.05.17/outbox.cif.g08.bks.cpg/sg2_122_cif.got.tgz:242686.got - 2010.06.03 11:33:40.
