data_PCOD9040190
_publ_section_title
;
Structure prediction by ZEFSAII (Michael W. Deem and Ramdas Pophale) SiO2 
 PCOD9040190
Probable space group: P -1
;
_chemical_formula_sum "Si O2"
_cell_formula_units_Z 16
_cell_length_a 18.303325
_cell_length_b 14.752489
_cell_length_c 25.226063
_cell_angle_alpha 31.996506
_cell_angle_beta 18.771646
_cell_angle_gamma 20.818843
_cell_volume 737.360741
_symmetry_space_group_name_H-M "P -1"
_symmetry_group_IT_number 2
_symmetry_cell_setting 'triclinic'
loop_
_space_group_symop_operation_xyz
x,y,z
-x,-y,-z
loop_
_atom_site_type_symbol
_atom_site_label
_atom_site_fract_x
_atom_site_fract_y
_atom_site_fract_z
Si Si1 0.933185 0.799622 0.026147
Si Si2 0.223534 0.287532 0.075976
Si Si3 0.186846 0.031599 0.762218
Si Si4 0.710111 0.887468 0.766222
Si Si5 0.423806 0.373207 0.469652
Si Si6 0.893691 0.603518 0.428187
Si Si7 0.282757 0.447121 0.798317
Si Si8 0.442579 0.025224 0.692326
O O1 0.245426 0.480218 0.957380
O O2 0.639585 0.968842 0.097372
O O3 0.736035 0.846847 0.191269
O O4 0.062901 0.913536 0.893791
O O5 0.245506 0.236508 0.147824
O O6 0.853442 0.460112 0.214616
O O7 0.500000 0.000000 0.000000
O O8 0.609132 0.800444 0.572384
O O9 0.162750 0.104513 0.803458
O O10 0.995228 0.281041 0.732036
O O11 0.054086 0.653324 0.610552
O O12 0.638651 0.126509 0.711827
O O13 0.331890 0.358651 0.481928
O O14 0.680525 0.386058 0.286570
O O15 0.553610 0.140170 0.532364
O O16 0.226242 0.295361 0.368676
O O17 0.000000 0.500000 0.000000
#
# Coordination Sequence:
#
# PCOD9040190 Si02
#       8
#     2   2   2   2   2   2   2   2
#     4  11  24  41  69  97 132 174 220 269 322 385
#     4  11  24  42  65  97 134 165 219 271 322 391
#     4  10  24  41  67  97 132 172 219 271 322 389
#     4  11  23  44  62  92 132 171 216 265 325 384
#     4  11  24  42  65  92 132 172 212 268 327 387
#     4  10  23  43  64  94 135 171 216 266 332 388
#     4  11  25  42  66  95 126 170 220 268 321 388
#     4  11  22  44  65 100 130 171 222 266 327 392
#
# _framework density 21.699010999999999
#
# number of rings (size 3 to 8) (size 9 to 14) (size 15 to 20)
#    0.000    1.250    3.750    1.125    3.500    4.000 
#    0.000    0.000    0.000    0.000    0.000    0.000 
#    0.000    0.000    0.000    0.000    0.000    0.000 
#
# Total GULP energy -89444.805378 kJ/mol
# GULP energy per Si atom -5590.300336 kJ/mol
# Density = 2.164962 g / cm^3
# Si number density = 21.699011 Si / 1000 Ang^3
#
#
#
# Elastic Constant Matrix: (Units=GPa)
#
#
# Indices 1 2 3 4 5 6 
#
# 1 111.1952 20.7661 36.2855 -25.7171 10.3419 -3.9051
# 2 20.7661 160.7925 36.0505 -21.6672 -5.5887 -5.2484
# 3 36.2855 36.0505 63.8406 -26.4115 -8.4148 -0.6364
# 4 -25.7171 -21.6672 -26.4115 39.7721 21.2590 0.1808
# 5 10.3419 -5.5887 -8.4148 21.2590 28.7889 -6.7029
# 6 -3.9051 -5.2484 -0.6364 0.1808 -6.7029 40.1386
#
#
#
# Elastic Compliance Matrix: (Units=1/GPa)
#
#
# Indices 1 2 3 4 5 6 
#
# 1 0.017422 0.000765 -0.004689 0.021259 -0.023723 -0.002337
# 2 0.000765 0.007288 -0.003449 0.003351 -0.002206 0.000589
# 3 -0.004689 -0.003449 0.025256 0.012331 -0.000873 -0.000708
# 4 0.021259 0.003351 0.012331 0.085737 -0.068831 -0.009179
# 5 -0.023723 -0.002206 -0.000873 -0.068831 0.096624 0.013835
# 6 -0.002337 0.000589 -0.000708 -0.009179 0.013835 0.027104
#
#
# Mechanical properties :
#
#
# Convention : Reuss Voigt Hill
#
# Bulk Modulus (GPa) = 28.39319 58.00360 43.19840
# Shear Modulus (GPa) = 17.48766 37.92166 27.70466
#
# Velocity S-wave (km/s) = 2.84195 4.18499 3.57707
# Velocity P-wave (km/s) = 4.88696 7.08105 6.08373
#
# Compressibility (1/GPa) = 0.03521971
#
# Stress axis : x y z
#
# Youngs Moduli (GPa) = 57.39983 137.21667 39.59452
#
# Poissons Ratio (x) = -0.10501 0.18567
# Poissons Ratio (y) = -0.04393 0.13655
# Poissons Ratio (z) = 0.26917 0.47323
#
# Static dielectric constant tensor:
#      x y z
#    x 1.791480 0.029040 0.009420 
#    y 0.029040 1.808650 -0.011530 
#    z 0.009420 -0.011530 1.790360 
# 
# From -- ./inp_files/49260.got.cif
#   From: 2010.05.17/outbox.cif.g08.bks.cpg/sg2_25_cif.got.tgz:49260.got - 2010.06.03 11:33:40.
