data_PCOD9040626
_publ_section_title
;
Structure prediction by ZEFSAII (Michael W. Deem and Ramdas Pophale) SiO2 
 PCOD9040626
Probable space group: P -1
;
_chemical_formula_sum "Si O2"
_cell_formula_units_Z 16
_cell_length_a 5.584150
_cell_length_b 21.144716
_cell_length_c 11.604083
_cell_angle_alpha 147.581171
_cell_angle_beta 100.947725
_cell_angle_gamma 79.953841
_cell_volume 720.918134
_symmetry_space_group_name_H-M "P -1"
_symmetry_group_IT_number 2
_symmetry_cell_setting 'triclinic'
loop_
_space_group_symop_operation_xyz
x,y,z
-x,-y,-z
loop_
_atom_site_type_symbol
_atom_site_label
_atom_site_fract_x
_atom_site_fract_y
_atom_site_fract_z
Si Si1 0.805915 0.246494 0.060954
Si Si2 0.362451 0.653322 0.038642
Si Si3 0.700769 0.098029 0.187170
Si Si4 0.440768 0.217192 0.532978
Si Si5 0.156698 0.979154 0.158996
Si Si6 0.089906 0.437537 0.795197
Si Si7 0.687155 0.638365 0.689617
Si Si8 0.325877 0.509197 0.318978
O O1 0.553305 0.292093 0.171273
O O2 0.066983 0.291542 0.200845
O O3 0.785984 0.290960 0.995947
O O4 0.819970 0.105836 0.861293
O O5 0.400117 0.743383 0.284028
O O6 0.253415 0.536328 0.903174
O O7 0.614871 0.605643 0.930602
O O8 0.582940 0.208555 0.411647
O O9 0.806559 0.106924 0.082186
O O10 0.899216 0.042524 0.206932
O O11 0.500000 0.000000 0.000000
O O12 0.231204 0.316833 0.652338
O O13 0.339706 0.087009 0.344338
O O14 0.873943 0.416295 0.652789
O O15 0.000000 0.500000 0.000000
O O16 0.574767 0.575621 0.471833
O O17 0.755630 0.538018 0.636456
#
# Coordination Sequence:
#
# PCOD9040626 Si02
#       8
#     2   2   2   2   2   2   2   2
#     4  11  25  46  74 104 144 185 240 302 359 427
#     4  11  25  45  67 100 142 185 238 295 356 429
#     4   9  22  45  67  98 136 179 240 294 347 423
#     4  11  25  42  70 101 142 189 235 294 360 422
#     4  10  24  46  70 101 135 183 240 296 358 424
#     4  12  25  43  66 103 144 189 237 289 356 430
#     4  10  24  43  72 105 142 190 232 299 362 423
#     4  10  23  43  68 100 144 182 243 285 358 427
#
# _framework density 22.193919000000001
#
# number of rings (size 3 to 8) (size 9 to 14) (size 15 to 20)
#    0.000    1.500    2.500    0.375    7.000    6.000 
#    0.000    0.625    0.000    0.000    0.000    0.000 
#    0.000    0.000    0.000    0.000    0.000    0.000 
#
# Total GULP energy -89419.095972 kJ/mol
# GULP energy per Si atom -5588.693498 kJ/mol
# Density = 2.214340 g / cm^3
# Si number density = 22.193919 Si / 1000 Ang^3
#
#
#
# Elastic Constant Matrix: (Units=GPa)
#
#
# Indices 1 2 3 4 5 6 
#
# 1 80.0358 13.6364 37.1430 -4.7398 9.2326 0.2998
# 2 13.6364 82.6953 34.8417 9.7059 5.5544 -2.2681
# 3 37.1430 34.8417 122.3479 -11.6556 0.9039 3.3748
# 4 -4.7398 9.7059 -11.6556 33.4758 11.6834 12.3259
# 5 9.2326 5.5544 0.9039 11.6834 35.5884 -7.5542
# 6 0.2998 -2.2681 3.3748 12.3259 -7.5542 24.0388
#
#
#
# Elastic Compliance Matrix: (Units=1/GPa)
#
#
# Indices 1 2 3 4 5 6 
#
# 1 0.015471 -0.001304 -0.003667 0.005136 -0.006343 -0.004428
# 2 -0.001304 0.016003 -0.005547 -0.011529 0.003761 0.009398
# 3 -0.003667 -0.005547 0.011999 0.009331 -0.003242 -0.007965
# 4 0.005136 -0.011529 0.009331 0.064432 -0.030492 -0.045082
# 5 -0.006343 0.003761 -0.003242 -0.030492 0.045814 0.030921
# 6 -0.004428 0.009398 -0.007965 -0.045082 0.030921 0.076492
#
#
# Mechanical properties :
#
#
# Convention : Reuss Voigt Hill
#
# Bulk Modulus (GPa) = 44.57002 50.70235 47.63618
# Shear Modulus (GPa) = 19.32551 31.91779 25.62165
#
# Velocity S-wave (km/s) = 2.95406 3.79639 3.40140
# Velocity P-wave (km/s) = 5.63569 6.48934 6.07752
#
# Compressibility (1/GPa) = 0.02243661
#
# Stress axis : x y z
#
# Youngs Moduli (GPa) = 64.63776 62.48881 83.34189
#
# Poissons Ratio (x) = 0.08151 0.30561
# Poissons Ratio (y) = 0.08431 0.46226
# Poissons Ratio (z) = 0.23702 0.34660
#
# Static dielectric constant tensor:
#      x y z
#    x 1.892800 0.045330 -0.010180 
#    y 0.045330 1.822890 0.012460 
#    z -0.010180 0.012460 1.844030 
# 
# From -- ./inp_files/71401.got.cif
#   From: 2010.05.17/outbox.cif.g08.bks.cpg/sg2_36_cif.got.tgz:71401.got - 2010.06.03 11:33:40.
