data_PCOD9040967
_publ_section_title
;
Structure prediction by ZEFSAII (Michael W. Deem and Ramdas Pophale) SiO2 
 PCOD9040967
Probable space group: P -1
;
_chemical_formula_sum "Si O2"
_cell_formula_units_Z 14
_cell_length_a 7.917162
_cell_length_b 13.233836
_cell_length_c 15.470673
_cell_angle_alpha 152.131196
_cell_angle_beta 51.836106
_cell_angle_gamma 129.511930
_cell_volume 577.605942
_symmetry_space_group_name_H-M "P -1"
_symmetry_group_IT_number 2
_symmetry_cell_setting 'triclinic'
loop_
_space_group_symop_operation_xyz
x,y,z
-x,-y,-z
loop_
_atom_site_type_symbol
_atom_site_label
_atom_site_fract_x
_atom_site_fract_y
_atom_site_fract_z
Si Si1 0.567108 0.718838 0.539967
Si Si2 0.679200 0.831894 0.197812
Si Si3 0.288832 0.685169 0.458922
Si Si4 0.260164 0.393150 0.814173
Si Si5 0.234222 0.801658 0.221550
Si Si6 0.057215 0.229899 0.103126
Si Si7 0.584813 0.243988 0.196736
O O1 0.328856 0.722363 0.576742
O O2 0.591654 0.475051 0.320481
O O3 0.560874 0.740739 0.660916
O O4 0.730639 0.942526 0.623204
O O5 0.751480 0.693948 0.148124
O O6 0.411700 0.792715 0.235595
O O7 0.774686 0.094182 0.387247
O O8 0.776483 0.777721 0.034620
O O9 0.533439 0.689764 0.348935
O O10 0.147861 0.445562 0.296673
O O11 0.028912 0.303923 0.769422
O O12 0.303442 0.659042 0.012979
O O13 0.834239 0.260549 0.155436
O O14 0.000000 0.000000 0.000000
O O15 0.500000 0.000000 0.000000
#
# Coordination Sequence:
#
# PCOD9040967 Si02
#       7
#     2   2   2   2   2   2   2
#     4  10  25  45  68 105 141 178 238 289 344 429
#     4  11  25  45  70 105 143 179 244 284 345 430
#     4  11  25  45  70 101 142 180 233 289 352 417
#     4  11  24  43  73 101 141 193 230 291 350 415
#     4  10  23  43  70 100 142 185 234 289 345 414
#     4  12  26  44  72 101 139 185 227 294 359 409
#     4  11  26  44  73 103 140 184 233 286 354 422
#
# _framework density 24.237978999999999
#
# number of rings (size 3 to 8) (size 9 to 14) (size 15 to 20)
#    0.000    1.143    1.429    3.429    6.000    6.857 
#    0.000    0.000    0.000    0.000    0.000    0.000 
#    0.000    0.000    0.000    0.000    0.000    0.000 
#
# Total GULP energy -78277.592232 kJ/mol
# GULP energy per Si atom -5591.256588 kJ/mol
# Density = 2.418281 g / cm^3
# Si number density = 24.237979 Si / 1000 Ang^3
#
#
#
# Elastic Constant Matrix: (Units=GPa)
#
#
# Indices 1 2 3 4 5 6 
#
# 1 76.9900 11.3252 -9.4094 20.3279 0.9200 10.5601
# 2 11.3252 42.5148 11.7267 11.6071 8.2334 -2.2452
# 3 -9.4094 11.7267 143.2736 40.5272 23.5950 -3.8012
# 4 20.3279 11.6071 40.5272 41.9536 6.6907 2.0946
# 5 0.9200 8.2334 23.5950 6.6907 48.6605 7.5650
# 6 10.5601 -2.2452 -3.8012 2.0946 7.5650 36.7085
#
#
#
# Elastic Compliance Matrix: (Units=1/GPa)
#
#
# Indices 1 2 3 4 5 6 
#
# 1 0.017782 -0.002973 0.004709 -0.012167 0.000203 -0.004157
# 2 -0.002973 0.026835 -0.000051 -0.005436 -0.004285 0.003684
# 3 0.004709 -0.000051 0.011689 -0.012963 -0.004192 0.001456
# 4 -0.012167 -0.005436 -0.012963 0.043552 0.001601 -0.000990
# 5 0.000203 -0.004285 -0.004192 0.001601 0.023984 -0.005789
# 6 -0.004157 0.003684 0.001456 -0.000990 -0.005789 0.030063
#
#
# Mechanical properties :
#
#
# Convention : Reuss Voigt Hill
#
# Bulk Modulus (GPa) = 16.75653 32.22927 24.49290
# Shear Modulus (GPa) = 29.33815 42.07359 35.70587
#
# Velocity S-wave (km/s) = 3.48288 4.17088 3.84231
# Velocity P-wave (km/s) = 4.80649 6.04325 5.46000
#
# Compressibility (1/GPa) = 0.05967823
#
# Stress axis : x y z
#
# Youngs Moduli (GPa) = 56.23729 37.26408 85.55030
#
# Poissons Ratio (x) = 0.11077 -0.40287
# Poissons Ratio (y) = 0.16717 0.00433
# Poissons Ratio (z) = -0.26483 0.00189
#
# Static dielectric constant tensor:
#      x y z
#    x 1.960810 -0.036120 0.064330 
#    y -0.036120 1.897280 -0.231560 
#    z 0.064330 -0.231560 1.700360 
# 
# From -- ./inp_files/561458.got.cif
#   From: 2010.05.17/outbox.cif.g08.bks.cpg/sg2_281_cif.got.tgz:561458.got - 2010.06.03 11:33:40.
