data_PCOD9040711
_publ_section_title
;
Structure prediction by ZEFSAII (Michael W. Deem and Ramdas Pophale) SiO2 
 PCOD9040711
Probable space group: P -1
;
_chemical_formula_sum "Si O2"
_cell_formula_units_Z 16
_cell_length_a 12.430795
_cell_length_b 9.707455
_cell_length_c 15.241779
_cell_angle_alpha 135.896433
_cell_angle_beta 66.095153
_cell_angle_gamma 138.709026
_cell_volume 807.736796
_symmetry_space_group_name_H-M "P -1"
_symmetry_group_IT_number 2
_symmetry_cell_setting 'triclinic'
loop_
_space_group_symop_operation_xyz
x,y,z
-x,-y,-z
loop_
_atom_site_type_symbol
_atom_site_label
_atom_site_fract_x
_atom_site_fract_y
_atom_site_fract_z
Si Si1 0.840054 0.801045 0.590935
Si Si2 0.092491 0.621499 0.931547
Si Si3 0.465084 0.140413 0.642378
Si Si4 0.397333 0.748117 0.847782
Si Si5 0.902695 0.229575 0.471522
Si Si6 0.843947 0.199948 0.676476
Si Si7 0.661363 0.746596 0.797330
Si Si8 0.456832 0.854234 0.675802
O O1 0.766696 0.825804 0.711139
O O2 0.689564 0.476076 0.456784
O O3 0.994400 0.849009 0.590709
O O4 0.881278 0.016602 0.603766
O O5 0.202197 0.555192 0.847883
O O6 0.954555 0.464339 0.828166
O O7 0.000000 0.500000 0.000000
O O8 0.224990 0.965247 0.050578
O O9 0.611034 0.481654 0.739534
O O10 0.500000 0.000000 0.500000
O O11 0.287030 0.018991 0.616489
O O12 0.449071 0.031745 0.694915
O O13 0.486240 0.643065 0.778317
O O14 0.428373 0.861462 0.790751
O O15 0.500000 0.000000 0.000000
O O16 0.889874 0.296967 0.605485
O O17 0.000000 0.500000 0.500000
O O18 0.643768 0.989543 0.662235
#
# Coordination Sequence:
#
# PCOD9040711 Si02
#       8
#     2   2   2   2   2   2   2   2
#     4  12  23  40  68 105 132 166 227 288 333 393
#     4  11  23  44  66  99 134 172 222 281 330 394
#     4  12  24  43  67  97 140 182 214 272 341 405
#     4  10  23  43  68  94 131 176 222 276 326 394
#     4  12  25  42  65 100 141 177 217 278 344 392
#     4  12  24  40  69  97 136 175 225 279 335 390
#     4  11  23  43  68  97 135 177 226 271 334 400
#     4  12  23  43  69  98 138 174 224 273 340 400
#
# _framework density 19.808432
#
# number of rings (size 3 to 8) (size 9 to 14) (size 15 to 20)
#    0.000    0.500    6.250    2.250    3.500    0.000 
#    0.000    3.125    0.000    0.000    0.000    0.000 
#    0.000    0.000    0.000    0.000    0.000    0.000 
#
# Total GULP energy -89459.263313 kJ/mol
# GULP energy per Si atom -5591.203957 kJ/mol
# Density = 1.976335 g / cm^3
# Si number density = 19.808432 Si / 1000 Ang^3
#
#
#
# Elastic Constant Matrix: (Units=GPa)
#
#
# Indices 1 2 3 4 5 6 
#
# 1 130.6975 47.6652 48.1663 -5.8800 9.3361 9.7812
# 2 47.6652 115.3454 43.7662 -8.5219 -2.0726 -19.2383
# 3 48.1663 43.7662 71.9467 3.8269 0.8336 -17.4470
# 4 -5.8800 -8.5219 3.8269 48.4317 4.8677 -0.6313
# 5 9.3361 -2.0726 0.8336 4.8677 23.5853 -9.1590
# 6 9.7812 -19.2383 -17.4470 -0.6313 -9.1590 48.4695
#
#
#
# Elastic Compliance Matrix: (Units=1/GPa)
#
#
# Indices 1 2 3 4 5 6 
#
# 1 0.014055 -0.003801 -0.009444 0.002646 -0.009825 -0.009566
# 2 -0.003801 0.012914 -0.004182 0.001761 0.004464 0.005254
# 3 -0.009444 -0.004182 0.025541 -0.004524 0.007602 0.010817
# 4 0.002646 0.001761 -0.004524 0.022232 -0.006235 -0.002352
# 5 -0.009825 0.004464 0.007602 -0.006235 0.054162 0.016645
# 6 -0.009566 0.005254 0.010817 -0.002352 0.016645 0.031656
#
#
# Mechanical properties :
#
#
# Convention : Reuss Voigt Hill
#
# Bulk Modulus (GPa) = 56.63924 66.35390 61.49657
# Shear Modulus (GPa) = 24.83859 35.99011 30.41435
#
# Velocity S-wave (km/s) = 3.54494 4.26715 3.92270
# Velocity P-wave (km/s) = 6.73877 7.60582 7.18539
#
# Compressibility (1/GPa) = 0.01765561
#
# Stress axis : x y z
#
# Youngs Moduli (GPa) = 71.15077 77.43568 39.15242
#
# Poissons Ratio (x) = 0.29435 0.36974
# Poissons Ratio (y) = 0.27046 0.16374
# Poissons Ratio (z) = 0.67192 0.32385
#
# Static dielectric constant tensor:
#      x y z
#    x 1.720200 0.026270 -0.009360 
#    y 0.026270 1.697330 0.007360 
#    z -0.009360 0.007360 1.685370 
# 
# From -- ./inp_files/187649.got.cif
#   From: 2010.05.17/outbox.cif.g08.bks.cpg/sg2_94_cif.got.tgz:187649.got - 2010.06.03 11:33:40.
