data_PCOD9040751
_publ_section_title
;
Structure prediction by ZEFSAII (Michael W. Deem and Ramdas Pophale) SiO2 
 PCOD9040751
Probable space group: P -1
;
_chemical_formula_sum "Si O2"
_cell_formula_units_Z 12
_cell_length_a 5.010340
_cell_length_b 20.117288
_cell_length_c 22.162291
_cell_angle_alpha 12.789685
_cell_angle_beta 87.274109
_cell_angle_gamma 86.713778
_cell_volume 493.345710
_symmetry_space_group_name_H-M "P -1"
_symmetry_group_IT_number 2
_symmetry_cell_setting 'triclinic'
loop_
_space_group_symop_operation_xyz
x,y,z
-x,-y,-z
loop_
_atom_site_type_symbol
_atom_site_label
_atom_site_fract_x
_atom_site_fract_y
_atom_site_fract_z
Si Si1 0.246506 0.380929 0.682656
Si Si2 0.415375 0.507896 0.311463
Si Si3 0.873635 0.932612 0.156165
Si Si4 0.035583 0.489300 0.148075
Si Si5 0.053151 0.820384 0.452565
Si Si6 0.445331 0.651779 0.802117
O O1 0.505244 0.464014 0.643870
O O2 0.292720 0.221242 0.759147
O O3 0.060460 0.677974 0.410354
O O4 0.077782 0.154414 0.925074
O O5 0.180441 0.300845 0.478662
O O6 0.677959 0.370487 0.398064
O O7 0.315412 0.849079 0.994172
O O8 0.012054 0.258868 0.407347
O O9 0.340684 0.490550 0.121827
O O10 0.849844 0.390689 0.182389
O O11 0.933101 0.824698 0.870586
O O12 0.500000 0.000000 0.500000
O O13 0.500000 0.500000 0.000000
#
# Coordination Sequence:
#
# PCOD9040751 Si02
#       6
#     2   2   2   2   2   2
#     4  10  23  43  68  98 133 174 235 313 366 411
#     4  12  25  47  68 102 133 194 246 280 360 426
#     4  10  23  43  68  98 133 174 235 313 366 411
#     4  12  26  49  66 110 147 180 231 278 339 400
#     4  12  28  43  71  96 148 194 227 284 337 422
#     4  12  24  45  80 108 139 182 227 280 337 400
#
# _framework density 24.323715
#
# number of rings (size 3 to 8) (size 9 to 14) (size 15 to 20)
#    0.000    0.667    1.667    5.500    2.333    4.000 
#    0.000    5.000    0.000    0.000    0.000    0.000 
#    0.000    0.000    0.000    0.000    0.000    0.000 
#
# Total GULP energy -67351.391246 kJ/mol
# GULP energy per Si atom -5612.615937 kJ/mol
# Density = 2.426835 g / cm^3
# Si number density = 24.323715 Si / 1000 Ang^3
#
#
#
# Elastic Constant Matrix: (Units=GPa)
#
#
# Indices 1 2 3 4 5 6 
#
# 1 88.3456 8.2262 28.6296 -10.4491 1.6910 3.1732
# 2 8.2262 54.8938 10.3561 8.6372 0.0265 15.4066
# 3 28.6296 10.3561 136.1844 -0.0038 8.2033 20.0551
# 4 -10.4491 8.6372 -0.0038 45.9148 1.2984 1.4244
# 5 1.6910 0.0265 8.2033 1.2984 37.0900 -16.8658
# 6 3.1732 15.4066 20.0551 1.4244 -16.8658 59.3323
#
#
#
# Elastic Compliance Matrix: (Units=1/GPa)
#
#
# Indices 1 2 3 4 5 6 
#
# 1 0.012728 -0.002135 -0.002638 0.003268 0.000233 0.000753
# 2 -0.002135 0.020856 -0.000133 -0.004160 -0.002397 -0.005838
# 3 -0.002638 -0.000133 0.008668 -0.000360 -0.003483 -0.003735
# 4 0.003268 -0.004160 -0.000360 0.023320 -0.000770 0.000249
# 5 0.000233 -0.002397 -0.003483 -0.000770 0.032812 0.011133
# 6 0.000753 -0.005838 -0.003735 0.000249 0.011133 0.022751
#
#
# Mechanical properties :
#
#
# Convention : Reuss Voigt Hill
#
# Bulk Modulus (GPa) = 30.82750 41.53861 36.18305
# Shear Modulus (GPa) = 35.27052 43.94822 39.60937
#
# Velocity S-wave (km/s) = 3.81208 4.25526 4.03975
# Velocity P-wave (km/s) = 5.66368 6.42320 6.05536
#
# Compressibility (1/GPa) = 0.03243857
#
# Stress axis : x y z
#
# Youngs Moduli (GPa) = 78.56693 47.94695 115.37208
#
# Poissons Ratio (x) = 0.10239 0.30438
# Poissons Ratio (y) = 0.16777 0.01535
# Poissons Ratio (z) = 0.20728 0.00638
#
# Static dielectric constant tensor:
#      x y z
#    x 1.897970 -0.034200 -0.006830 
#    y -0.034200 1.942080 0.011320 
#    z -0.006830 0.011320 1.904970 
# 
# From -- ./inp_files/605120.got.cif
#   From: 2010.05.17/outbox.cif.g08.bks.cpg/sg2_303_cif.got.tgz:605120.got - 2010.06.03 11:33:40.
