data_PCOD9040516
_publ_section_title
;
Structure prediction by ZEFSAII (Michael W. Deem and Ramdas Pophale) SiO2 
 PCOD9040516
Probable space group: P -1
;
_chemical_formula_sum "Si O2"
_cell_formula_units_Z 16
_cell_length_a 15.082361
_cell_length_b 9.554585
_cell_length_c 11.966163
_cell_angle_alpha 125.933683
_cell_angle_beta 75.407511
_cell_angle_gamma 61.274309
_cell_volume 807.010131
_symmetry_space_group_name_H-M "P -1"
_symmetry_group_IT_number 2
_symmetry_cell_setting 'triclinic'
loop_
_space_group_symop_operation_xyz
x,y,z
-x,-y,-z
loop_
_atom_site_type_symbol
_atom_site_label
_atom_site_fract_x
_atom_site_fract_y
_atom_site_fract_z
Si Si1 0.524644 0.914478 0.581659
Si Si2 0.615361 0.229932 0.420147
Si Si3 0.918041 0.110141 0.459624
Si Si4 0.605383 0.100309 0.793876
Si Si5 0.623346 0.341939 0.719129
Si Si6 0.116406 0.664987 0.798684
Si Si7 0.899580 0.485486 0.497742
Si Si8 0.029342 0.258627 0.907905
O O1 0.409453 0.937184 0.663327
O O2 0.701006 0.579466 0.383948
O O3 0.500000 0.000000 0.500000
O O4 0.509860 0.105184 0.754413
O O5 0.500000 0.500000 0.500000
O O6 0.577345 0.329301 0.609000
O O7 0.790547 0.023822 0.247462
O O8 0.749038 0.294092 0.625897
O O9 0.917840 0.295085 0.484668
O O10 0.990463 0.853218 0.235803
O O11 0.000000 0.000000 0.500000
O O12 0.682965 0.103609 0.674513
O O13 0.725753 0.813811 0.695583
O O14 0.510082 0.364186 0.031154
O O15 0.063907 0.637492 0.695169
O O16 0.086681 0.606834 0.893469
O O17 0.000000 0.000000 0.000000
O O18 0.000000 0.500000 0.500000
O O19 0.000000 0.500000 0.000000
#
# Coordination Sequence:
#
# PCOD9040516 Si02
#       8
#     2   2   2   2   2   2   2   2
#     4  11  22  40  66  96 125 165 215 264 317 384
#     4  11  24  42  64  95 133 167 211 268 324 384
#     4  11  25  44  65  94 133 171 214 271 324 386
#     4  10  23  43  67  92 127 170 217 266 321 384
#     4  10  23  44  65  92 130 170 213 268 323 382
#     4  11  23  43  67  95 130 168 217 269 322 387
#     4  11  25  43  67  94 129 173 218 268 323 385
#     4  11  25  43  67  97 131 173 215 270 328 386
#
# _framework density 19.826269
#
# number of rings (size 3 to 8) (size 9 to 14) (size 15 to 20)
#    0.000    1.250    2.500    2.250   12.250    4.500 
#    0.000    0.000    0.000    0.000    0.000    0.000 
#    0.000    0.000    0.000    0.000    0.000    0.000 
#
# Total GULP energy -89356.601543 kJ/mol
# GULP energy per Si atom -5584.787596 kJ/mol
# Density = 1.978114 g / cm^3
# Si number density = 19.826269 Si / 1000 Ang^3
#
#
#
# Elastic Constant Matrix: (Units=GPa)
#
#
# Indices 1 2 3 4 5 6 
#
# 1 120.6485 37.1260 11.9105 -5.3895 11.9943 -0.5841
# 2 37.1260 114.5496 14.6794 0.0669 14.9582 4.0124
# 3 11.9105 14.6794 60.1364 -6.5384 13.8630 -5.4739
# 4 -5.3895 0.0669 -6.5384 32.8889 9.2167 -1.3956
# 5 11.9943 14.9582 13.8630 9.2167 19.5244 1.8394
# 6 -0.5841 4.0124 -5.4739 -1.3956 1.8394 40.8204
#
#
#
# Elastic Compliance Matrix: (Units=1/GPa)
#
#
# Indices 1 2 3 4 5 6 
#
# 1 0.009771 -0.002454 0.000568 0.003511 -0.006264 0.000859
# 2 -0.002454 0.010494 -0.000431 0.001363 -0.006797 -0.000771
# 3 0.000568 -0.000431 0.023414 0.011211 -0.022367 0.004581
# 4 0.003511 0.001363 0.011211 0.042214 -0.031492 0.004282
# 5 -0.006264 -0.006797 -0.022367 -0.031492 0.091740 -0.007631
# 6 0.000859 -0.000771 0.004581 0.004282 -0.007631 0.025690
#
#
# Mechanical properties :
#
#
# Convention : Reuss Voigt Hill
#
# Bulk Modulus (GPa) = 25.61101 46.97404 36.29252
# Shear Modulus (GPa) = 22.62725 34.08799 28.35762
#
# Velocity S-wave (km/s) = 3.38194 4.15098 3.78604
# Velocity P-wave (km/s) = 5.30997 6.83509 6.12022
#
# Compressibility (1/GPa) = 0.03904571
#
# Stress axis : x y z
#
# Youngs Moduli (GPa) = 102.33992 95.29091 42.70991
#
# Poissons Ratio (x) = 0.23383 -0.02425
# Poissons Ratio (y) = 0.25113 0.01840
# Poissons Ratio (z) = -0.05810 0.04104
#
# Static dielectric constant tensor:
#      x y z
#    x 1.835140 0.108380 0.020750 
#    y 0.108380 1.782970 0.031390 
#    z 0.020750 0.031390 1.703520 
# 
# From -- ./inp_files/227575.got.cif
#   From: 2010.05.17/outbox.cif.g08.bks.cpg/sg2_114_cif.got.tgz:227575.got - 2010.06.03 11:33:40.
