data_PCOD9040999
_publ_section_title
;
Structure prediction by ZEFSAII (Michael W. Deem and Ramdas Pophale) SiO2 
 PCOD9040999
Probable space group: P -1
;
_chemical_formula_sum "Si O2"
_cell_formula_units_Z 11
_cell_length_a 8.014780
_cell_length_b 9.317079
_cell_length_c 11.187213
_cell_angle_alpha 130.234794
_cell_angle_beta 44.039281
_cell_angle_gamma 105.481456
_cell_volume 411.516934
_symmetry_space_group_name_H-M "P -1"
_symmetry_group_IT_number 2
_symmetry_cell_setting 'triclinic'
loop_
_space_group_symop_operation_xyz
x,y,z
-x,-y,-z
loop_
_atom_site_type_symbol
_atom_site_label
_atom_site_fract_x
_atom_site_fract_y
_atom_site_fract_z
Si Si1 0.530073 0.282996 0.244264
Si Si2 0.256861 0.397559 0.699877
Si Si3 0.849345 0.240762 0.714520
Si Si4 0.225311 0.083821 0.948086
Si Si5 0.500000 0.000000 0.500000
Si Si6 0.725087 0.570377 0.781371
O O1 0.428752 0.336562 0.459260
O O2 0.748787 0.376607 0.154070
O O3 0.308408 0.384922 0.316708
O O4 0.631584 0.041650 0.074830
O O5 0.008601 0.345605 0.766486
O O6 0.393420 0.244074 0.653359
O O7 0.815973 0.340777 0.654299
O O8 0.565697 0.308562 0.952616
O O9 0.000000 0.000000 0.500000
O O10 0.393044 0.050606 0.723135
O O11 0.118402 0.315291 0.167926
O O12 0.000000 0.000000 0.000000
#
# Coordination Sequence:
#
# PCOD9040999 Si02
#       6
#     2   2   2   2   1   2
#     4  10  23  44  68 105 146 182 247 304 351 443
#     4  10  23  43  70 102 143 195 235 295 373 423
#     4  11  25  44  69 107 142 190 240 295 374 427
#     4  11  24  46  71 106 144 198 240 303 375 432
#     4  10  24  42  72 104 150 182 250 300 356 448
#     4  11  26  45  71 106 147 183 251 302 349 453
#
# _framework density 26.730367999999999
#
# number of rings (size 3 to 8) (size 9 to 14) (size 15 to 20)
#    0.000    1.455    0.000    3.818   10.182    1.455 
#    3.273    0.000    0.000    0.000    0.000    0.000 
#    0.000    0.000    0.000    0.000    0.000    0.000 
#
# Total GULP energy -61349.814013 kJ/mol
# GULP energy per Si atom -5577.255819 kJ/mol
# Density = 2.666953 g / cm^3
# Si number density = 26.730368 Si / 1000 Ang^3
#
#
#
# Elastic Constant Matrix: (Units=GPa)
#
#
# Indices 1 2 3 4 5 6 
#
# 1 119.1592 84.5291 19.3058 -8.9795 17.1108 -16.3314
# 2 84.5291 236.3104 74.7750 12.6507 9.6811 -54.0815
# 3 19.3058 74.7750 99.2494 2.6524 -1.2510 -15.5559
# 4 -8.9795 12.6507 2.6524 45.6931 -6.5069 -8.2654
# 5 17.1108 9.6811 -1.2510 -6.5069 19.6168 -6.8935
# 6 -16.3314 -54.0815 -15.5559 -8.2654 -6.8935 74.6763
#
#
#
# Elastic Compliance Matrix: (Units=1/GPa)
#
#
# Indices 1 2 3 4 5 6 
#
# 1 0.013023 -0.004967 0.000869 0.002495 -0.008400 -0.001067
# 2 -0.004967 0.008509 -0.004771 -0.002294 0.000427 0.003867
# 3 0.000869 -0.004771 0.013496 0.001093 0.002793 -0.000075
# 4 0.002495 -0.002294 0.001093 0.024564 0.008079 0.002576
# 5 -0.008400 0.000427 0.002793 0.008079 0.062975 0.005762
# 6 -0.001067 0.003867 -0.000075 0.002576 0.005762 0.016760
#
#
# Mechanical properties :
#
#
# Convention : Reuss Voigt Hill
#
# Bulk Modulus (GPa) = 57.84231 90.21543 74.02887
# Shear Modulus (GPa) = 30.70742 46.40452 38.55597
#
# Velocity S-wave (km/s) = 3.39305 4.17108 3.80202
# Velocity P-wave (km/s) = 6.08576 7.55120 6.85774
#
# Compressibility (1/GPa) = 0.01728838
#
# Stress axis : x y z
#
# Youngs Moduli (GPa) = 76.78900 117.52726 74.09832
#
# Poissons Ratio (x) = 0.58376 -0.06440
# Poissons Ratio (y) = 0.38141 0.35356
# Poissons Ratio (z) = -0.06674 0.56078
#
# Static dielectric constant tensor:
#      x y z
#    x 2.158410 0.025560 -0.072760 
#    y 0.025560 2.073930 0.039770 
#    z -0.072760 0.039770 2.168800 
# 
# From -- ./inp_files/380488.got.cif
#   From: 2010.05.17/outbox.cif.g08.bks.cpg/sg2_191_cif.got.tgz:380488.got - 2010.06.03 11:33:40.
