data_PCOD9040439
_publ_section_title
;
Structure prediction by ZEFSAII (Michael W. Deem and Ramdas Pophale) SiO2 
 PCOD9040439
Probable space group: P -1
;
_chemical_formula_sum "Si O2"
_cell_formula_units_Z 14
_cell_length_a 13.151525
_cell_length_b 12.611289
_cell_length_c 5.312413
_cell_angle_alpha 62.462284
_cell_angle_beta 55.091704
_cell_angle_gamma 62.949858
_cell_volume 618.400460
_symmetry_space_group_name_H-M "P -1"
_symmetry_group_IT_number 2
_symmetry_cell_setting 'triclinic'
loop_
_space_group_symop_operation_xyz
x,y,z
-x,-y,-z
loop_
_atom_site_type_symbol
_atom_site_label
_atom_site_fract_x
_atom_site_fract_y
_atom_site_fract_z
Si Si1 0.686027 0.241728 0.611008
Si Si2 0.932239 0.324090 0.188295
Si Si3 0.411011 0.167174 0.708734
Si Si4 0.101618 0.423471 0.239903
Si Si5 0.172923 0.193861 0.672934
Si Si6 0.663748 0.002514 0.626309
Si Si7 0.541962 0.358782 0.187316
O O1 0.827372 0.251846 0.473753
O O2 0.638150 0.323527 0.332493
O O3 0.683083 0.103543 0.687685
O O4 0.599961 0.289064 0.924554
O O5 0.026276 0.353931 0.234937
O O6 0.854100 0.465193 0.071453
O O7 0.031005 0.245971 0.927999
O O8 0.283798 0.158267 0.760435
O O9 0.424897 0.305384 0.511287
O O10 0.551265 0.082908 0.518939
O O11 0.394352 0.107209 0.066351
O O12 0.199056 0.312477 0.361485
O O13 0.000000 0.500000 0.500000
O O14 0.200895 0.071014 0.600897
O O15 0.500000 0.500000 0.000000
#
# Coordination Sequence:
#
# PCOD9040439 Si02
#       7
#     2   2   2   2   2   2   2
#     4  11  27  45  72 101 147 185 227 294 353 415
#     4  10  23  43  66  99 140 183 227 287 351 417
#     4  10  24  42  70  97 137 182 235 293 338 417
#     4   9  21  40  64  96 132 179 230 281 345 409
#     4  11  22  38  70 101 130 183 236 284 344 415
#     4  10  24  43  67 101 138 186 233 286 351 408
#     4  11  27  46  72 106 136 186 236 291 359 410
#
# _framework density 22.639052
#
# number of rings (size 3 to 8) (size 9 to 14) (size 15 to 20)
#    0.000    1.714    0.000    1.714   16.000    4.000 
#    0.000    2.857    0.000    0.000    0.000    0.000 
#    0.000    0.000    0.000    0.000    0.000    0.000 
#
# Total GULP energy -78036.211779 kJ/mol
# GULP energy per Si atom -5574.015127 kJ/mol
# Density = 2.258752 g / cm^3
# Si number density = 22.639052 Si / 1000 Ang^3
#
#
#
# Elastic Constant Matrix: (Units=GPa)
#
#
# Indices 1 2 3 4 5 6 
#
# 1 34.8971 22.4844 19.9801 -5.6920 -2.9264 9.2926
# 2 22.4844 137.5450 54.3592 5.7545 -4.5745 -3.3017
# 3 19.9801 54.3592 77.5798 -15.0664 -2.0375 5.8790
# 4 -5.6920 5.7545 -15.0664 39.6917 1.7703 6.6226
# 5 -2.9264 -4.5745 -2.0375 1.7703 36.5512 -14.0333
# 6 9.2926 -3.3017 5.8790 6.6226 -14.0333 38.2686
#
#
#
# Elastic Compliance Matrix: (Units=1/GPa)
#
#
# Indices 1 2 3 4 5 6 
#
# 1 0.038241 -0.005265 -0.004082 0.006668 -0.002432 -0.011159
# 2 -0.005265 0.012235 -0.008978 -0.007113 0.003319 0.006162
# 3 -0.004082 -0.008978 0.022659 0.010491 -0.003079 -0.006209
# 4 0.006668 -0.007113 0.010491 0.033395 -0.005917 -0.011794
# 5 -0.002432 0.003319 -0.003079 -0.005917 0.033293 0.014583
# 6 -0.011159 0.006162 -0.006209 -0.011794 0.014583 0.037715
#
#
# Mechanical properties :
#
#
# Convention : Reuss Voigt Hill
#
# Bulk Modulus (GPa) = 27.41002 49.29658 38.35330
# Shear Modulus (GPa) = 22.08948 33.11551 27.60249
#
# Velocity S-wave (km/s) = 3.12705 3.82875 3.49555
# Velocity P-wave (km/s) = 5.01713 6.43180 5.76800
#
# Compressibility (1/GPa) = 0.03648301
#
# Stress axis : x y z
#
# Youngs Moduli (GPa) = 26.15014 81.73102 44.13212
#
# Poissons Ratio (x) = 0.43035 0.18017
# Poissons Ratio (y) = 0.13769 0.39623
# Poissons Ratio (z) = 0.10676 0.73379
#
# Static dielectric constant tensor:
#      x y z
#    x 1.851870 0.004250 0.065630 
#    y 0.004250 1.865990 0.014680 
#    z 0.065630 0.014680 1.913150 
# 
# From -- ./inp_files/93102.got.cif
#   From: 2010.05.17/outbox.cif.g08.bks.cpg/sg2_47_cif.got.tgz:93102.got - 2010.06.03 11:33:40.
