data_PCOD9040459
_publ_section_title
;
Structure prediction by ZEFSAII (Michael W. Deem and Ramdas Pophale) SiO2 
 PCOD9040459
Probable space group: P -1
;
_chemical_formula_sum "Si O2"
_cell_formula_units_Z 16
_cell_length_a 6.488876
_cell_length_b 12.239209
_cell_length_c 10.866073
_cell_angle_alpha 121.424115
_cell_angle_beta 98.584868
_cell_angle_gamma 75.462184
_cell_volume 712.644214
_symmetry_space_group_name_H-M "P -1"
_symmetry_group_IT_number 2
_symmetry_cell_setting 'triclinic'
loop_
_space_group_symop_operation_xyz
x,y,z
-x,-y,-z
loop_
_atom_site_type_symbol
_atom_site_label
_atom_site_fract_x
_atom_site_fract_y
_atom_site_fract_z
Si Si1 0.092177 0.473051 0.726563
Si Si2 0.498621 0.361343 0.859854
Si Si3 0.759424 0.729096 0.844524
Si Si4 0.242767 0.685710 0.361120
Si Si5 0.561692 0.443847 0.339496
Si Si6 0.890084 0.942964 0.839243
Si Si7 0.138319 0.959226 0.613298
Si Si8 0.571226 0.879921 0.139802
O O1 0.276242 0.395718 0.785362
O O2 0.203851 0.539382 0.666065
O O3 0.922021 0.600145 0.834156
O O4 0.957825 0.361488 0.626466
O O5 0.719162 0.295078 0.769178
O O6 0.474408 0.256321 0.897706
O O7 0.500000 0.500000 0.000000
O O8 0.537257 0.684400 0.763889
O O9 0.865270 0.795249 0.782033
O O10 0.707799 0.841825 0.007298
O O11 0.422167 0.555501 0.309521
O O12 0.271455 0.813522 0.510249
O O13 0.500000 0.500000 0.500000
O O14 0.007584 0.952222 0.724294
O O15 0.650249 0.024528 0.852306
O O16 0.000000 0.000000 0.000000
O O17 0.294851 0.057106 0.711872
O O18 0.000000 0.000000 0.500000
#
# Coordination Sequence:
#
# PCOD9040459 Si02
#       8
#     2   2   2   2   2   2   2   2
#     4  10  23  43  67 100 141 179 236 298 369 430
#     4  11  24  43  72 101 139 186 241 304 362 439
#     4  11  26  44  72 107 142 191 244 307 368 444
#     4  10  24  42  64 101 138 183 236 293 366 426
#     4  10  24  39  68 100 140 185 235 296 364 439
#     4  12  29  47  75 107 148 200 253 305 371 451
#     4  12  28  47  73 108 149 198 249 308 375 445
#     4  12  27  47  74 105 149 196 253 306 370 440
#
# _framework density 22.451597
#
# number of rings (size 3 to 8) (size 9 to 14) (size 15 to 20)
#    0.000    1.000    1.250    4.125    8.750    7.000 
#    0.000    0.000    0.000    0.000    0.000    0.000 
#    0.000    0.000    0.000    0.000    0.000    0.000 
#
# Total GULP energy -89213.475450 kJ/mol
# GULP energy per Si atom -5575.842216 kJ/mol
# Density = 2.240050 g / cm^3
# Si number density = 22.451597 Si / 1000 Ang^3
#
#
#
# Elastic Constant Matrix: (Units=GPa)
#
#
# Indices 1 2 3 4 5 6 
#
# 1 76.4134 11.5550 33.3917 -2.7971 -1.1598 16.1012
# 2 11.5550 89.8543 8.3825 3.7312 7.0089 13.3218
# 3 33.3917 8.3825 114.8185 9.5679 1.9899 12.6985
# 4 -2.7971 3.7312 9.5679 39.5021 7.3235 2.7930
# 5 -1.1598 7.0089 1.9899 7.3235 36.2605 2.2744
# 6 16.1012 13.3218 12.6985 2.7930 2.2744 36.2812
#
#
#
# Elastic Compliance Matrix: (Units=1/GPa)
#
#
# Indices 1 2 3 4 5 6 
#
# 1 0.016419 -0.001042 -0.004301 0.002554 0.000801 -0.005645
# 2 -0.001042 0.012006 -0.000078 -0.000552 -0.002003 -0.003751
# 3 -0.004301 -0.000078 0.010354 -0.002691 -0.000055 -0.001476
# 4 0.002554 -0.000552 -0.002691 0.027263 -0.005059 -0.001770
# 5 0.000801 -0.002003 -0.000055 -0.005059 0.029081 -0.001034
# 6 -0.005645 -0.003751 -0.001476 -0.001770 -0.001034 0.032163
#
#
# Mechanical properties :
#
#
# Convention : Reuss Voigt Hill
#
# Bulk Modulus (GPa) = 35.79474 43.08276 39.43875
# Shear Modulus (GPa) = 33.91220 37.59256 35.75238
#
# Velocity S-wave (km/s) = 3.89068 4.09636 3.99484
# Velocity P-wave (km/s) = 6.01339 6.45015 6.23559
#
# Compressibility (1/GPa) = 0.02793706
#
# Stress axis : x y z
#
# Youngs Moduli (GPa) = 60.90502 83.29460 96.57738
#
# Poissons Ratio (x) = 0.08677 0.41540
# Poissons Ratio (y) = 0.06344 0.00753
# Poissons Ratio (z) = 0.26197 0.00650
#
# Static dielectric constant tensor:
#      x y z
#    x 3.006550 0.423260 0.317690 
#    y 0.423260 1.876090 0.150000 
#    z 0.317690 0.150000 1.869110 
# 
# From -- ./inp_files/365292.got.cif
#   From: 2010.05.17/outbox.cif.g08.bks.cpg/sg2_183_cif.got.tgz:365292.got - 2010.06.03 11:33:40.
