data_PCOD9040588
_publ_section_title
;
Structure prediction by ZEFSAII (Michael W. Deem and Ramdas Pophale) SiO2 
 PCOD9040588
Probable space group: P -1
;
_chemical_formula_sum "Si O2"
_cell_formula_units_Z 7
_cell_length_a 4.883753
_cell_length_b 7.171997
_cell_length_c 6.699407
_cell_angle_alpha 84.048631
_cell_angle_beta 111.481177
_cell_angle_gamma 100.502024
_cell_volume 214.522724
_symmetry_space_group_name_H-M "P -1"
_symmetry_group_IT_number 2
_symmetry_cell_setting 'triclinic'
loop_
_space_group_symop_operation_xyz
x,y,z
-x,-y,-z
loop_
_atom_site_type_symbol
_atom_site_label
_atom_site_fract_x
_atom_site_fract_y
_atom_site_fract_z
Si Si1 0.500000 0.000000 0.500000
Si Si2 0.155190 0.280627 0.157381
Si Si3 0.695571 0.377334 0.524881
Si Si4 0.490212 0.789939 0.094338
O O1 0.202719 0.082695 0.286345
O O2 0.717632 0.182131 0.426749
O O3 0.371164 0.440143 0.333313
O O4 0.259535 0.289458 0.953308
O O5 0.825758 0.320920 0.045993
O O6 0.000000 0.500000 0.500000
O O7 0.521797 0.212038 0.668552
O O8 0.500000 0.000000 0.000000
#
# Coordination Sequence:
#
# PCOD9040588 Si02
#       4
#     1   2   2   2
#     4   8  20  44  62  98 134 166 220 270 322 388
#     4  10  24  41  66  98 130 169 226 263 319 403
#     4  10  23  43  67  98 135 171 216 275 327 381
#     4  12  22  41  72  94 129 180 214 266 335 381
#
# _framework density 32.630581999999997
#
# number of rings (size 3 to 8) (size 9 to 14) (size 15 to 20)
#    1.714    0.000    2.857    0.857    0.000    9.143 
#    0.000    2.857    0.000    0.000    0.000    0.000 
#    0.000    0.000    0.000    0.000    0.000    0.000 
#
# Total GULP energy -39042.135953 kJ/mol
# GULP energy per Si atom -5577.447993 kJ/mol
# Density = 3.255631 g / cm^3
# Si number density = 32.630582 Si / 1000 Ang^3
#
#
#
# Elastic Constant Matrix: (Units=GPa)
#
#
# Indices 1 2 3 4 5 6 
#
# 1 149.8169 79.7783 41.5905 -47.8450 -45.2747 -20.7704
# 2 79.7783 337.5824 41.9259 -27.7602 9.8729 -11.3591
# 3 41.5905 41.9259 244.3309 -15.0284 -35.0992 8.7371
# 4 -47.8450 -27.7602 -15.0284 64.1207 -9.2886 8.5908
# 5 -45.2747 9.8729 -35.0992 -9.2886 67.6262 -9.6520
# 6 -20.7704 -11.3591 8.7371 8.5908 -9.6520 71.5951
#
#
#
# Elastic Compliance Matrix: (Units=1/GPa)
#
#
# Indices 1 2 3 4 5 6 
#
# 1 0.018229 -0.003509 0.000393 0.013739 0.015540 0.005130
# 2 -0.003509 0.003827 -0.000640 -0.001541 -0.003541 -0.000625
# 3 0.000393 -0.000640 0.004669 0.001584 0.002948 -0.000350
# 4 0.013739 -0.001541 0.001584 0.027330 0.014313 0.002198
# 5 0.015540 -0.003541 0.002948 0.014313 0.030048 0.005920
# 6 0.005130 -0.000625 -0.000350 0.002198 0.005920 0.015934
#
#
# Mechanical properties :
#
#
# Convention : Reuss Voigt Hill
#
# Bulk Modulus (GPa) = 52.04933 117.59105 84.82019
# Shear Modulus (GPa) = 43.87737 78.56410 61.22073
#
# Velocity S-wave (km/s) = 3.67095 4.91214 4.33618
# Velocity P-wave (km/s) = 5.82697 8.26362 7.14986
#
# Compressibility (1/GPa) = 0.01921254
#
# Stress axis : x y z
#
# Youngs Moduli (GPa) = 54.85758 261.31324 214.16845
#
# Poissons Ratio (x) = 0.91690 -0.08418
# Poissons Ratio (y) = 0.19249 0.13717
# Poissons Ratio (z) = -0.02156 0.16737
#
# Static dielectric constant tensor:
#      x y z
#    x 3.114470 -0.376610 0.020560 
#    y -0.376610 3.044650 0.449510 
#    z 0.020560 0.449510 2.800930 
# 
# From -- ./inp_files/17386.got.cif
#   From: 2010.05.17/outbox.cif.g08.bks.cpg/sg2_9_cif.got.tgz:17386.got - 2010.06.03 11:33:40.
