data_PCOD9040429
_publ_section_title
;
Structure prediction by ZEFSAII (Michael W. Deem and Ramdas Pophale) SiO2 
 PCOD9040429
Probable space group: P -1
;
_chemical_formula_sum "Si O2"
_cell_formula_units_Z 14
_cell_length_a 10.263175
_cell_length_b 26.077862
_cell_length_c 9.731870
_cell_angle_alpha 141.980288
_cell_angle_beta 45.958956
_cell_angle_gamma 156.022260
_cell_volume 648.787674
_symmetry_space_group_name_H-M "P -1"
_symmetry_group_IT_number 2
_symmetry_cell_setting 'triclinic'
loop_
_space_group_symop_operation_xyz
x,y,z
-x,-y,-z
loop_
_atom_site_type_symbol
_atom_site_label
_atom_site_fract_x
_atom_site_fract_y
_atom_site_fract_z
Si Si1 0.821800 0.354424 0.892295
Si Si2 0.218485 0.351375 0.481272
Si Si3 0.998147 0.365437 0.080701
Si Si4 0.310182 0.320790 0.647255
Si Si5 0.288077 0.170072 0.690875
Si Si6 0.447693 0.192225 0.337013
Si Si7 0.837914 0.093994 0.005719
O O1 0.464179 0.219434 0.808463
O O2 0.995296 0.339557 0.675664
O O3 0.000000 0.500000 0.000000
O O4 0.860882 0.363085 0.044847
O O5 0.500000 0.500000 0.500000
O O6 0.345611 0.354087 0.530168
O O7 0.000778 0.209839 0.248002
O O8 0.350061 0.531949 0.216450
O O9 0.755758 0.290444 0.224963
O O10 0.055417 0.290270 0.834498
O O11 0.250695 0.199661 0.451477
O O12 0.533141 0.248556 0.551715
O O13 0.000000 0.000000 0.500000
O O14 0.104738 0.187569 0.885505
O O15 0.243736 0.029813 0.143057
O O16 0.500000 0.000000 0.000000
#
# Coordination Sequence:
#
# PCOD9040429 Si02
#       7
#     2   2   2   2   2   2   2
#     4  11  23  43  70 101 136 181 238 283 345 418
#     4  11  25  42  70 103 138 185 235 291 342 425
#     4  10  24  43  69 105 140 187 228 297 346 413
#     4  10  24  43  67 105 143 178 240 282 359 407
#     4  10  23  43  66  98 133 181 228 279 342 421
#     4  11  24  43  73  97 142 184 230 290 351 413
#     4  11  26  45  71 102 139 186 234 289 358 415
#
# _framework density 21.578707000000001
#
# number of rings (size 3 to 8) (size 9 to 14) (size 15 to 20)
#    0.000    1.429    0.000    3.857   10.000    1.714 
#    2.571    1.429    0.000    0.000    0.000    0.000 
#    0.000    0.000    0.000    0.000    0.000    0.000 
#
# Total GULP energy -78189.757420 kJ/mol
# GULP energy per Si atom -5584.982673 kJ/mol
# Density = 2.152959 g / cm^3
# Si number density = 21.578707 Si / 1000 Ang^3
#
#
#
# Elastic Constant Matrix: (Units=GPa)
#
#
# Indices 1 2 3 4 5 6 
#
# 1 149.1680 49.3257 62.7633 11.9898 12.7973 4.7103
# 2 49.3257 85.9773 49.1508 -18.3757 7.0755 8.0257
# 3 62.7633 49.1508 134.1927 -3.7710 6.5438 -7.5978
# 4 11.9898 -18.3757 -3.7710 49.7135 -5.7163 0.9095
# 5 12.7973 7.0755 6.5438 -5.7163 47.5993 10.2367
# 6 4.7103 8.0257 -7.5978 0.9095 10.2367 30.6182
#
#
#
# Elastic Compliance Matrix: (Units=1/GPa)
#
#
# Indices 1 2 3 4 5 6 
#
# 1 0.010164 -0.004955 -0.002977 -0.004750 -0.002125 -0.000152
# 2 -0.004955 0.019634 -0.005073 0.008356 0.001489 -0.006389
# 3 -0.002977 -0.005073 0.011017 -0.000535 -0.001078 0.004898
# 4 -0.004750 0.008356 -0.000535 0.024820 0.003868 -0.003623
# 5 -0.002125 0.001489 -0.001078 0.003868 0.023777 -0.008395
# 6 -0.000152 -0.006389 0.004898 -0.003623 -0.008395 0.038488
#
#
# Mechanical properties :
#
#
# Convention : Reuss Voigt Hill
#
# Bulk Modulus (GPa) = 67.55087 76.86862 72.20975
# Shear Modulus (GPa) = 31.47693 39.45942 35.46817
#
# Velocity S-wave (km/s) = 3.82344 4.28088 4.05861
# Velocity P-wave (km/s) = 7.13190 7.75464 7.44978
#
# Compressibility (1/GPa) = 0.01480366
#
# Stress axis : x y z
#
# Youngs Moduli (GPa) = 98.38557 50.93264 90.76498
#
# Poissons Ratio (x) = 0.25239 0.27024
# Poissons Ratio (y) = 0.48754 0.46046
# Poissons Ratio (z) = 0.29293 0.25839
#
# Static dielectric constant tensor:
#      x y z
#    x 1.828200 -0.034230 -0.004550 
#    y -0.034230 1.826910 -0.043560 
#    z -0.004550 -0.043560 1.811940 
# 
# From -- ./inp_files/226612.got.cif
#   From: 2010.05.17/outbox.cif.g08.bks.cpg/sg2_114_cif.got.tgz:226612.got - 2010.06.03 11:33:40.
