data_PCOD9040745
_publ_section_title
;
Structure prediction by ZEFSAII (Michael W. Deem and Ramdas Pophale) SiO2 
 PCOD9040745
Probable space group: P -1
;
_chemical_formula_sum "Si O2"
_cell_formula_units_Z 14
_cell_length_a 12.832579
_cell_length_b 12.306684
_cell_length_c 5.291347
_cell_angle_alpha 82.123311
_cell_angle_beta 110.514308
_cell_angle_gamma 131.877293
_cell_volume 577.091321
_symmetry_space_group_name_H-M "P -1"
_symmetry_group_IT_number 2
_symmetry_cell_setting 'triclinic'
loop_
_space_group_symop_operation_xyz
x,y,z
-x,-y,-z
loop_
_atom_site_type_symbol
_atom_site_label
_atom_site_fract_x
_atom_site_fract_y
_atom_site_fract_z
Si Si1 0.435747 0.519608 0.190345
Si Si2 0.831390 0.171439 0.544423
Si Si3 0.649652 0.273488 0.472099
Si Si4 0.724028 0.785110 0.321076
Si Si5 0.181201 0.396655 0.661394
Si Si6 0.848573 0.966558 0.870843
Si Si7 0.534823 0.896538 0.118648
O O1 0.500000 0.500000 0.500000
O O2 0.548961 0.694308 0.241261
O O3 0.500000 0.500000 0.000000
O O4 0.267354 0.438485 0.996349
O O5 0.002861 0.294964 0.553763
O O6 0.762205 0.244457 0.530651
O O7 0.849915 0.098506 0.818114
O O8 0.710189 0.029398 0.307138
O O9 0.737568 0.447699 0.458131
O O10 0.568151 0.200543 0.692664
O O11 0.525047 0.191002 0.172222
O O12 0.782410 0.697671 0.401931
O O13 0.794980 0.888377 0.583348
O O14 0.758633 0.857600 0.058650
O O15 0.000000 0.000000 0.000000
O O16 0.500000 0.000000 0.000000
#
# Coordination Sequence:
#
# PCOD9040745 Si02
#       7
#     2   2   2   2   2   2   2
#     4  10  23  43  68  97 141 185 229 286 349 417
#     4  11  25  47  76 105 146 187 243 299 358 425
#     4  11  26  50  74 108 142 191 240 297 366 427
#     4  11  25  47  69 104 141 191 239 288 357 425
#     4  11  25  47  75 109 148 184 242 304 359 426
#     4  12  26  44  72 104 144 186 240 294 355 427
#     4  10  24  49  74 103 144 191 243 289 356 437
#
# _framework density 24.259589999999999
#
# number of rings (size 3 to 8) (size 9 to 14) (size 15 to 20)
#    0.000    1.143    1.429    4.286    4.000    5.714 
#    0.000    3.571    0.000    0.000    0.000    0.000 
#    0.000    0.000    0.000    0.000    0.000    0.000 
#
# Total GULP energy -78088.637592 kJ/mol
# GULP energy per Si atom -5577.759828 kJ/mol
# Density = 2.420437 g / cm^3
# Si number density = 24.259590 Si / 1000 Ang^3
#
#
#
# Elastic Constant Matrix: (Units=GPa)
#
#
# Indices 1 2 3 4 5 6 
#
# 1 185.7449 72.7277 69.3552 -3.9673 32.1541 -10.0413
# 2 72.7277 163.2906 73.1605 -24.8443 9.0878 11.4891
# 3 69.3552 73.1605 170.7136 -17.8118 6.2574 8.9299
# 4 -3.9673 -24.8443 -17.8118 54.5741 6.5299 15.9751
# 5 32.1541 9.0878 6.2574 6.5299 54.7652 -0.4251
# 6 -10.0413 11.4891 8.9299 15.9751 -0.4251 55.4356
#
#
#
# Elastic Compliance Matrix: (Units=1/GPa)
#
#
# Indices 1 2 3 4 5 6 
#
# 1 0.008142 -0.002886 -0.002282 -0.001877 -0.003794 0.002952
# 2 -0.002886 0.009281 -0.002177 0.004297 -0.000135 -0.003335
# 3 -0.002282 -0.002177 0.007991 0.001912 0.000546 -0.001796
# 4 -0.001877 0.004297 0.001912 0.023532 -0.002700 -0.008340
# 5 -0.003794 -0.000135 0.000546 -0.002700 0.020771 0.000190
# 6 0.002952 -0.003335 -0.001796 -0.008340 0.000190 0.021959
#
#
# Mechanical properties :
#
#
# Convention : Reuss Voigt Hill
#
# Bulk Modulus (GPa) = 93.25335 105.58179 99.41757
# Shear Modulus (GPa) = 45.47859 53.25535 49.36697
#
# Velocity S-wave (km/s) = 4.33444 4.69041 4.51593
# Velocity P-wave (km/s) = 7.97327 8.54104 8.26203
#
# Compressibility (1/GPa) = 0.01072348
#
# Stress axis : x y z
#
# Youngs Moduli (GPa) = 122.81598 107.74872 125.13465
#
# Poissons Ratio (x) = 0.31097 0.28560
# Poissons Ratio (y) = 0.35446 0.27243
# Poissons Ratio (z) = 0.28030 0.23458
#
# Static dielectric constant tensor:
#      x y z
#    x 2.015410 -0.173150 0.145550 
#    y -0.173150 2.071160 -0.005520 
#    z 0.145550 -0.005520 1.930730 
# 
# From -- ./inp_files/95920.got.cif
#   From: 2010.05.17/outbox.cif.g08.bks.cpg/sg2_48_cif.got.tgz:95920.got - 2010.06.03 11:33:40.
