data_PCOD9040738
_publ_section_title
;
Structure prediction by ZEFSAII (Michael W. Deem and Ramdas Pophale) SiO2 
 PCOD9040738
Probable space group: P -1
;
_chemical_formula_sum "Si O2"
_cell_formula_units_Z 14
_cell_length_a 8.926859
_cell_length_b 19.325873
_cell_length_c 8.701233
_cell_angle_alpha 126.975901
_cell_angle_beta 32.004072
_cell_angle_gamma 128.907843
_cell_volume 610.384378
_symmetry_space_group_name_H-M "P -1"
_symmetry_group_IT_number 2
_symmetry_cell_setting 'triclinic'
loop_
_space_group_symop_operation_xyz
x,y,z
-x,-y,-z
loop_
_atom_site_type_symbol
_atom_site_label
_atom_site_fract_x
_atom_site_fract_y
_atom_site_fract_z
Si Si1 0.774445 0.611076 0.819695
Si Si2 0.653674 0.412887 0.572343
Si Si3 0.302403 0.110366 0.854357
Si Si4 0.315647 0.252093 0.457846
Si Si5 0.060328 0.771553 0.554669
Si Si6 0.226828 0.862491 0.075450
Si Si7 0.541225 0.981295 0.689108
O O1 0.664506 0.517703 0.696113
O O2 0.929188 0.692252 0.682662
O O3 0.018261 0.595341 0.705073
O O4 0.512154 0.622743 0.170195
O O5 0.491689 0.350777 0.492828
O O6 0.293274 0.066904 0.637066
O O7 0.588644 0.197999 0.727518
O O8 0.368453 0.038808 0.819435
O O9 0.024259 0.141089 0.190180
O O10 0.108861 0.251155 0.490116
O O11 0.097119 0.203796 0.719999
O O12 0.542651 0.193126 0.152453
O O13 0.247127 0.944463 0.285602
O O14 0.333850 0.906991 0.879297
#
# Coordination Sequence:
#
# PCOD9040738 Si02
#       7
#     2   2   2   2   2   2   2
#     4  10  23  43  68  97 127 163 209 258 314 386
#     4  10  23  43  68  97 127 163 209 258 314 386
#     4  11  25  41  64  92 128 169 215 266 311 373
#     4  12  24  42  64  97 131 165 211 262 318 377
#     4  12  24  42  64  97 131 165 211 262 318 377
#     4  11  25  41  64  92 128 169 215 266 311 373
#     4  10  24  44  62  90 128 172 218 264 316 364
#
# _framework density 22.936367000000001
#
# number of rings (size 3 to 8) (size 9 to 14) (size 15 to 20)
#    0.000    1.143    2.857    1.714    6.000    7.429 
#    0.000    0.000    0.000    8.571    0.000    0.000 
#    0.000    0.000    0.000    0.000    0.000    0.000 
#
# Total GULP energy -78480.732544 kJ/mol
# GULP energy per Si atom -5605.766610 kJ/mol
# Density = 2.288416 g / cm^3
# Si number density = 22.936367 Si / 1000 Ang^3
#
#
#
# Elastic Constant Matrix: (Units=GPa)
#
#
# Indices 1 2 3 4 5 6 
#
# 1 41.1324 10.3148 2.8256 11.1814 9.7814 10.6647
# 2 10.3148 80.2418 -1.2644 -7.4514 3.6610 12.9941
# 3 2.8256 -1.2644 55.1577 -2.9201 -8.6938 11.9250
# 4 11.1814 -7.4514 -2.9201 32.0353 5.7992 7.0546
# 5 9.7814 3.6610 -8.6938 5.7992 32.0804 -0.7201
# 6 10.6647 12.9941 11.9250 7.0546 -0.7201 44.5724
#
#
#
# Elastic Compliance Matrix: (Units=1/GPa)
#
#
# Indices 1 2 3 4 5 6 
#
# 1 0.031086 -0.003870 -0.002546 -0.009584 -0.008089 -0.004242
# 2 -0.003870 0.014368 0.001674 0.006099 -0.001214 -0.004696
# 3 -0.002546 0.001674 0.020600 0.003465 0.005410 -0.005851
# 4 -0.009584 0.006099 0.003465 0.038452 -0.003933 -0.006562
# 5 -0.008089 -0.001214 0.005410 -0.003933 0.036000 0.002046
# 6 -0.004242 -0.004696 -0.005851 -0.006562 0.002046 0.027456
#
#
# Mechanical properties :
#
#
# Convention : Reuss Voigt Hill
#
# Bulk Modulus (GPa) = 17.67719 22.25378 19.96549
# Shear Modulus (GPa) = 25.47078 32.71471 29.09275
#
# Velocity S-wave (km/s) = 3.33603 3.78077 3.56534
# Velocity P-wave (km/s) = 4.75001 5.36492 5.06680
#
# Compressibility (1/GPa) = 0.05657006
#
# Stress axis : x y z
#
# Youngs Moduli (GPa) = 32.16885 69.59721 48.54395
#
# Poissons Ratio (x) = 0.26934 0.12362
# Poissons Ratio (y) = 0.12449 -0.08128
# Poissons Ratio (z) = 0.08192 -0.11653
#
# Static dielectric constant tensor:
#      x y z
#    x 1.851850 0.019730 0.002760 
#    y 0.019730 1.849740 0.003530 
#    z 0.002760 0.003530 1.814700 
# 
# From -- ./inp_files/89769.got.cif
#   From: 2010.05.17/outbox.cif.g08.bks.cpg/sg2_45_cif.got.tgz:89769.got - 2010.06.03 11:33:40.
