data_PCOD9040514
_publ_section_title
;
Structure prediction by ZEFSAII (Michael W. Deem and Ramdas Pophale) SiO2 
 PCOD9040514
Probable space group: P -1
;
_chemical_formula_sum "Si O2"
_cell_formula_units_Z 16
_cell_length_a 8.579111
_cell_length_b 9.027403
_cell_length_c 12.598670
_cell_angle_alpha 53.806410
_cell_angle_beta 94.586773
_cell_angle_gamma 86.682425
_cell_volume 778.191306
_symmetry_space_group_name_H-M "P -1"
_symmetry_group_IT_number 2
_symmetry_cell_setting 'triclinic'
loop_
_space_group_symop_operation_xyz
x,y,z
-x,-y,-z
loop_
_atom_site_type_symbol
_atom_site_label
_atom_site_fract_x
_atom_site_fract_y
_atom_site_fract_z
Si Si1 0.328900 0.493286 0.255914
Si Si2 0.518797 0.311480 0.145894
Si Si3 0.878589 0.143570 0.867879
Si Si4 0.856277 0.820620 0.550151
Si Si5 0.198526 0.778872 0.649547
Si Si6 0.660339 0.601696 0.267450
Si Si7 0.073577 0.293002 0.624605
Si Si8 0.612845 0.892541 0.963169
O O1 0.401753 0.368750 0.213943
O O2 0.202051 0.673789 0.150239
O O3 0.245315 0.347766 0.380273
O O4 0.477033 0.577279 0.281244
O O5 0.692620 0.256547 0.226132
O O6 0.473819 0.160840 0.124573
O O7 0.500000 0.500000 0.000000
O O8 0.966347 0.218138 0.740724
O O9 0.741708 0.021431 0.883969
O O10 0.000000 0.000000 0.000000
O O11 0.916772 0.828048 0.429427
O O12 0.010555 0.784130 0.647977
O O13 0.770103 0.025206 0.480991
O O14 0.252419 0.605748 0.650329
O O15 0.752201 0.702003 0.318537
O O16 0.678618 0.707277 0.111557
O O17 0.000000 0.500000 0.500000
O O18 0.500000 0.000000 0.000000
#
# Coordination Sequence:
#
# PCOD9040514 Si02
#       8
#     2   2   2   2   2   2   2   2
#     4  11  24  44  67  99 136 180 234 282 342 411
#     4  11  23  43  70  96 135 183 220 282 355 404
#     4  12  25  43  70 101 140 182 232 284 345 411
#     4  11  25  44  68  98 138 183 237 281 339 412
#     4  10  23  43  67  91 139 179 224 284 339 404
#     4  11  22  43  69  95 140 176 222 295 334 407
#     4  12  24  44  70  97 139 184 226 283 348 403
#     4  12  24  44  69 103 139 172 227 286 345 418
#
# _framework density 20.560496000000001
#
# number of rings (size 3 to 8) (size 9 to 14) (size 15 to 20)
#    0.000    0.750    7.500    0.000    1.750    5.500 
#    2.250    1.250    0.000    0.000    0.000    0.000 
#    0.000    0.000    0.000    0.000    0.000    0.000 
#
# Total GULP energy -89313.862551 kJ/mol
# GULP energy per Si atom -5582.116409 kJ/mol
# Density = 2.051370 g / cm^3
# Si number density = 20.560496 Si / 1000 Ang^3
#
#
#
# Elastic Constant Matrix: (Units=GPa)
#
#
# Indices 1 2 3 4 5 6 
#
# 1 108.5082 51.5254 65.4224 1.2077 -3.2597 19.7633
# 2 51.5254 110.5543 32.2908 2.9025 8.3950 12.8175
# 3 65.4224 32.2908 106.8278 -11.6489 5.3509 6.6555
# 4 1.2077 2.9025 -11.6489 48.6147 4.8470 5.8447
# 5 -3.2597 8.3950 5.3509 4.8470 36.4696 -5.6821
# 6 19.7633 12.8175 6.6555 5.8447 -5.6821 38.7147
#
#
#
# Elastic Compliance Matrix: (Units=1/GPa)
#
#
# Indices 1 2 3 4 5 6 
#
# 1 0.019047 -0.005559 -0.010112 -0.002333 0.003964 -0.005210
# 2 -0.005559 0.012093 0.000030 -0.000020 -0.003545 -0.001688
# 3 -0.010112 0.000030 0.016128 0.004337 -0.003668 0.001187
# 4 -0.002333 -0.000020 0.004337 0.022539 -0.004396 -0.003596
# 5 0.003964 -0.003545 -0.003668 -0.004396 0.030479 0.004918
# 6 -0.005210 -0.001688 0.001187 -0.003596 0.004918 0.030109
#
#
# Mechanical properties :
#
#
# Convention : Reuss Voigt Hill
#
# Bulk Modulus (GPa) = 62.56432 69.37415 65.96924
# Shear Modulus (GPa) = 29.93902 36.53658 33.23780
#
# Velocity S-wave (km/s) = 3.82008 4.22005 4.02504
# Velocity P-wave (km/s) = 7.06773 7.58682 7.33187
#
# Compressibility (1/GPa) = 0.01598355
#
# Stress axis : x y z
#
# Youngs Moduli (GPa) = 52.50260 82.69232 62.00553
#
# Poissons Ratio (x) = 0.45969 0.62703
# Poissons Ratio (y) = 0.29186 -0.00183
# Poissons Ratio (z) = 0.53093 -0.00245
#
# Static dielectric constant tensor:
#      x y z
#    x 1.779190 -0.028540 0.005210 
#    y -0.028540 1.792120 0.008010 
#    z 0.005210 0.008010 1.764570 
# 
# From -- ./inp_files/381070.got.cif
#   From: 2010.05.17/outbox.cif.g08.bks.cpg/sg2_191_cif.got.tgz:381070.got - 2010.06.03 11:33:40.
