data_PCOD9040680
_publ_section_title
;
Structure prediction by ZEFSAII (Michael W. Deem and Ramdas Pophale) SiO2 
 PCOD9040680
Probable space group: P -1
;
_chemical_formula_sum "Si O2"
_cell_formula_units_Z 16
_cell_length_a 4.983445
_cell_length_b 13.614072
_cell_length_c 10.075349
_cell_angle_alpha 66.374565
_cell_angle_beta 84.060867
_cell_angle_gamma 69.788263
_cell_volume 587.218055
_symmetry_space_group_name_H-M "P -1"
_symmetry_group_IT_number 2
_symmetry_cell_setting 'triclinic'
loop_
_space_group_symop_operation_xyz
x,y,z
-x,-y,-z
loop_
_atom_site_type_symbol
_atom_site_label
_atom_site_fract_x
_atom_site_fract_y
_atom_site_fract_z
Si Si1 0.601304 0.206895 0.409792
Si Si2 0.295990 0.739494 0.912595
Si Si3 0.179873 0.359688 0.652797
Si Si4 0.318690 0.472638 0.939987
Si Si5 0.872064 0.842173 0.406955
Si Si6 0.410795 0.465436 0.361264
Si Si7 0.698730 0.009565 0.076393
Si Si8 0.672023 0.779083 0.039016
O O1 0.738809 0.204633 0.261397
O O2 0.363715 0.147729 0.472553
O O3 0.442109 0.341124 0.368874
O O4 0.836682 0.160478 0.537110
O O5 0.378246 0.591034 0.943469
O O6 0.614283 0.672119 0.007525
O O7 0.000595 0.753497 0.993313
O O8 0.077780 0.281296 0.597352
O O9 0.351869 0.434516 0.535740
O O10 0.384355 0.271716 0.789532
O O11 0.895209 0.437783 0.698411
O O12 0.369103 0.502191 0.765747
O O13 0.000000 0.500000 0.000000
O O14 0.752553 0.935986 0.249772
O O15 0.617530 0.913185 0.027283
O O16 0.623714 0.146139 0.074726
O O17 0.000000 0.000000 0.000000
#
# Coordination Sequence:
#
# PCOD9040680 Si02
#       8
#     2   2   2   2   2   2   2   2
#     4  11  25  45  70  99 142 191 232 279 345 424
#     4  12  26  46  69 102 147 190 239 292 347 416
#     4  10  23  45  70 108 145 183 232 298 363 421
#     4  12  25  43  68 100 141 195 251 284 335 423
#     4  11  25  46  72 102 138 181 234 292 357 423
#     4  10  23  43  68 105 144 189 233 289 353 427
#     4  12  25  46  76 107 140 180 233 293 366 432
#     4  12  26  46  72 108 142 181 238 301 356 423
#
# _framework density 27.247115000000001
#
# number of rings (size 3 to 8) (size 9 to 14) (size 15 to 20)
#    0.000    0.750    3.750    3.000    3.500    0.500 
#    2.250    3.750    0.000    0.000    0.000    0.000 
#    0.000    0.000    0.000    0.000    0.000    0.000 
#
# Total GULP energy -89465.074812 kJ/mol
# GULP energy per Si atom -5591.567176 kJ/mol
# Density = 2.718510 g / cm^3
# Si number density = 27.247115 Si / 1000 Ang^3
#
#
#
# Elastic Constant Matrix: (Units=GPa)
#
#
# Indices 1 2 3 4 5 6 
#
# 1 144.6535 37.6820 64.6985 -2.5576 -11.0768 19.9107
# 2 37.6820 205.9849 73.4853 -16.3594 2.2213 14.7493
# 3 64.6985 73.4853 206.5624 4.8055 -23.0803 -32.9674
# 4 -2.5576 -16.3594 4.8055 48.6559 9.4658 2.0298
# 5 -11.0768 2.2213 -23.0803 9.4658 48.1897 7.3910
# 6 19.9107 14.7493 -32.9674 2.0298 7.3910 81.2442
#
#
#
# Elastic Compliance Matrix: (Units=1/GPa)
#
#
# Indices 1 2 3 4 5 6 
#
# 1 0.008984 -0.000190 -0.003229 0.000694 0.000940 -0.003580
# 2 -0.000190 0.006284 -0.002794 0.002838 -0.001903 -0.002126
# 3 -0.003229 -0.002794 0.007937 -0.002666 0.003051 0.004308
# 4 0.000694 0.002838 -0.002666 0.022948 -0.005473 -0.001842
# 5 0.000940 -0.001903 0.003051 -0.005473 0.023694 -0.000666
# 6 -0.003580 -0.002126 0.004308 -0.001842 -0.000666 0.015427
#
#
# Mechanical properties :
#
#
# Convention : Reuss Voigt Hill
#
# Bulk Modulus (GPa) = 92.77160 100.99248 96.88204
# Shear Modulus (GPa) = 49.36202 61.04029 55.20116
#
# Velocity S-wave (km/s) = 4.26096 4.73826 4.50593
# Velocity P-wave (km/s) = 7.63740 8.19028 7.91866
#
# Compressibility (1/GPa) = 0.01077916
#
# Stress axis : x y z
#
# Youngs Moduli (GPa) = 111.31245 159.12325 125.99403
#
# Poissons Ratio (x) = 0.03029 0.40678
# Poissons Ratio (y) = 0.02119 0.35203
# Poissons Ratio (z) = 0.35938 0.44459
#
# Static dielectric constant tensor:
#      x y z
#    x 2.171920 0.201240 0.032040 
#    y 0.201240 2.311030 0.008360 
#    z 0.032040 0.008360 2.060310 
# 
# From -- ./inp_files/369331.got.cif
#   From: 2010.05.17/outbox.cif.g08.bks.cpg/sg2_185_cif.got.tgz:369331.got - 2010.06.03 11:33:40.
