data_PCOD9040322
_publ_section_title
;
Structure prediction by ZEFSAII (Michael W. Deem and Ramdas Pophale) SiO2 
 PCOD9040322
Probable space group: P -1
;
_chemical_formula_sum "Si O2"
_cell_formula_units_Z 14
_cell_length_a 21.326175
_cell_length_b 11.714843
_cell_length_c 14.707537
_cell_angle_alpha 140.834878
_cell_angle_beta 21.305270
_cell_angle_gamma 151.993903
_cell_volume 602.396454
_symmetry_space_group_name_H-M "P -1"
_symmetry_group_IT_number 2
_symmetry_cell_setting 'triclinic'
loop_
_space_group_symop_operation_xyz
x,y,z
-x,-y,-z
loop_
_atom_site_type_symbol
_atom_site_label
_atom_site_fract_x
_atom_site_fract_y
_atom_site_fract_z
Si Si1 0.444611 0.026785 0.693032
Si Si2 0.981106 0.427330 0.288682
Si Si3 0.787697 0.688740 0.232678
Si Si4 0.054859 0.286374 0.764793
Si Si5 0.891739 0.716924 0.812265
Si Si6 0.064657 0.207964 0.414403
Si Si7 0.430135 0.528835 0.272639
O O1 0.395213 0.201578 0.847004
O O2 0.693567 0.197250 0.516705
O O3 0.500000 0.000000 0.500000
O O4 0.204309 0.805248 0.937308
O O5 0.033379 0.400924 0.303893
O O6 0.052210 0.687097 0.329303
O O7 0.116235 0.380612 0.014717
O O8 0.500000 0.500000 0.500000
O O9 0.851644 0.653294 0.222263
O O10 0.935387 0.987358 0.210662
O O11 0.242604 0.501105 0.571660
O O12 0.058584 0.077630 0.597846
O O13 0.894053 0.704896 0.692379
O O14 0.607697 0.547887 0.108947
O O15 0.284668 0.336901 0.267206
#
# Coordination Sequence:
#
# PCOD9040322 Si02
#       7
#     2   2   2   2   2   2   2
#     4  11  22  43  65 100 135 163 225 273 316 392
#     4  11  23  40  67  98 132 172 216 274 324 384
#     4  11  23  43  66  94 135 169 217 274 331 389
#     4  11  23  43  69  97 132 178 214 266 330 387
#     4  11  22  43  67  95 131 178 217 266 335 384
#     4  10  23  43  65  98 134 170 222 269 320 390
#     4  11  22  41  73  92 131 178 218 262 332 387
#
# _framework density 23.240508999999999
#
# number of rings (size 3 to 8) (size 9 to 14) (size 15 to 20)
#    0.000    1.143    4.286    2.571    2.000    1.714 
#    5.143    6.429    0.000    0.000    0.000    0.000 
#    0.000    0.000    0.000    0.000    0.000    0.000 
#
# Total GULP energy -78125.446220 kJ/mol
# GULP energy per Si atom -5580.389016 kJ/mol
# Density = 2.318761 g / cm^3
# Si number density = 23.240509 Si / 1000 Ang^3
#
#
#
# Elastic Constant Matrix: (Units=GPa)
#
#
# Indices 1 2 3 4 5 6 
#
# 1 106.2289 35.2055 35.3809 1.7312 -20.1755 11.3794
# 2 35.2055 94.6473 43.2693 6.6953 -5.9779 -4.4112
# 3 35.3809 43.2693 143.5503 -6.6628 -14.9208 9.1688
# 4 1.7312 6.6953 -6.6628 32.6250 0.7979 -1.0676
# 5 -20.1755 -5.9779 -14.9208 0.7979 50.3115 0.7297
# 6 11.3794 -4.4112 9.1688 -1.0676 0.7297 29.3049
#
#
#
# Elastic Compliance Matrix: (Units=1/GPa)
#
#
# Indices 1 2 3 4 5 6 
#
# 1 0.012521 -0.004117 -0.001078 -0.000317 0.004294 -0.005263
# 2 -0.004117 0.014252 -0.003862 -0.003309 -0.001121 0.004859
# 3 -0.001078 -0.003862 0.008879 0.002526 0.001744 -0.002892
# 4 -0.000317 -0.003309 0.002526 0.031870 -0.000277 0.000003
# 5 0.004294 -0.001121 0.001744 -0.000277 0.022029 -0.002940
# 6 -0.005263 0.004859 -0.002892 0.000003 -0.002940 0.037877
#
#
# Mechanical properties :
#
#
# Convention : Reuss Voigt Hill
#
# Bulk Modulus (GPa) = 57.01022 63.57086 60.29054
# Shear Modulus (GPa) = 33.02793 37.81966 35.42380
#
# Velocity S-wave (km/s) = 3.77389 4.03838 3.90837
# Velocity P-wave (km/s) = 6.60102 7.01124 6.80922
#
# Compressibility (1/GPa) = 0.01754071
#
# Stress axis : x y z
#
# Youngs Moduli (GPa) = 79.86426 70.16603 112.62493
#
# Poissons Ratio (x) = 0.28884 0.12136
# Poissons Ratio (y) = 0.32876 0.43492
# Poissons Ratio (z) = 0.08606 0.27096
#
# Static dielectric constant tensor:
#      x y z
#    x 1.910940 0.067390 0.104790 
#    y 0.067390 1.962720 0.050830 
#    z 0.104790 0.050830 1.983940 
# 
# From -- ./inp_files/274147.got.cif
#   From: 2010.05.17/outbox.cif.g08.bks.cpg/sg2_138_cif.got.tgz:274147.got - 2010.06.03 11:33:40.
