data_PCOD9040370
_publ_section_title
;
Structure prediction by ZEFSAII (Michael W. Deem and Ramdas Pophale) SiO2 
 PCOD9040370
Probable space group: P -1
;
_chemical_formula_sum "Si O2"
_cell_formula_units_Z 16
_cell_length_a 14.548306
_cell_length_b 11.236551
_cell_length_c 5.875623
_cell_angle_alpha 55.764363
_cell_angle_beta 118.435763
_cell_angle_gamma 116.733494
_cell_volume 676.051374
_symmetry_space_group_name_H-M "P -1"
_symmetry_group_IT_number 2
_symmetry_cell_setting 'triclinic'
loop_
_space_group_symop_operation_xyz
x,y,z
-x,-y,-z
loop_
_atom_site_type_symbol
_atom_site_label
_atom_site_fract_x
_atom_site_fract_y
_atom_site_fract_z
Si Si1 0.389683 0.493186 0.510812
Si Si2 0.306795 0.203197 0.006916
Si Si3 0.617856 0.201556 0.585162
Si Si4 0.089394 0.490468 0.433523
Si Si5 0.205949 0.375322 0.049979
Si Si6 0.221717 0.951061 0.848373
Si Si7 0.402704 0.987047 0.638717
Si Si8 0.009260 0.723617 0.812546
O O1 0.500000 0.500000 0.500000
O O2 0.372739 0.355037 0.810485
O O3 0.391055 0.642979 0.489608
O O4 0.289338 0.454356 0.256541
O O5 0.234619 0.104586 0.833321
O O6 0.246689 0.249522 0.101604
O O7 0.378687 0.099186 0.296906
O O8 0.524550 0.077522 0.742221
O O9 0.601553 0.166724 0.333497
O O10 0.730712 0.161849 0.817032
O O11 0.000000 0.500000 0.500000
O O12 0.049705 0.332852 0.431533
O O13 0.192117 0.490865 0.709639
O O14 0.080904 0.609057 0.102081
O O15 0.089282 0.300069 0.101478
O O16 0.303978 0.971362 0.711980
O O17 0.097163 0.877986 0.728694
#
# Coordination Sequence:
#
# PCOD9040370 Si02
#       8
#     2   2   2   2   2   2   2   2
#     4  12  27  47  71 106 138 181 233 287 343 414
#     4  11  25  45  67  99 143 182 230 283 345 416
#     4  10  24  42  72 101 133 180 235 285 352 401
#     4   9  21  40  65  96 139 177 223 290 339 400
#     4  11  24  43  69  97 146 182 224 292 348 404
#     4  11  24  43  71 100 137 182 234 284 344 413
#     4  10  23  47  68 100 141 181 229 290 342 414
#     4  10  23  43  66 104 138 180 235 287 339 409
#
# _framework density 23.666841000000002
#
# number of rings (size 3 to 8) (size 9 to 14) (size 15 to 20)
#    0.000    1.500    0.000    3.375    7.000    9.500 
#    0.000    4.375    0.000    0.000    0.000    0.000 
#    0.000    0.000    0.000    0.000    0.000    0.000 
#
# Total GULP energy -89432.889443 kJ/mol
# GULP energy per Si atom -5589.555590 kJ/mol
# Density = 2.361297 g / cm^3
# Si number density = 23.666841 Si / 1000 Ang^3
#
#
#
# Elastic Constant Matrix: (Units=GPa)
#
#
# Indices 1 2 3 4 5 6 
#
# 1 131.5387 78.7666 2.8692 15.1827 -5.9953 2.8748
# 2 78.7666 171.3248 14.3717 12.7444 -10.8284 -13.2225
# 3 2.8692 14.3717 58.5858 3.6102 7.5293 4.4155
# 4 15.1827 12.7444 3.6102 23.7437 -5.9125 6.7283
# 5 -5.9953 -10.8284 7.5293 -5.9125 32.1076 3.2472
# 6 2.8748 -13.2225 4.4155 6.7283 3.2472 49.8784
#
#
#
# Elastic Compliance Matrix: (Units=1/GPa)
#
#
# Indices 1 2 3 4 5 6 
#
# 1 0.011085 -0.005018 0.001130 -0.004286 -0.000529 -0.001457
# 2 -0.005018 0.008797 -0.002296 -0.001486 0.002002 0.002895
# 3 0.001130 -0.002296 0.018579 -0.003214 -0.005357 -0.001536
# 4 -0.004286 -0.001486 -0.003214 0.050580 0.009505 -0.007304
# 5 -0.000529 0.002002 -0.005357 0.009505 0.034983 -0.002524
# 6 -0.001457 0.002895 -0.001536 -0.007304 -0.002524 0.022186
#
#
# Mechanical properties :
#
#
# Convention : Reuss Voigt Hill
#
# Bulk Modulus (GPa) = 38.32504 61.49602 49.91053
# Shear Modulus (GPa) = 29.89073 38.84206 34.36640
#
# Velocity S-wave (km/s) = 3.55770 4.05557 3.81476
# Velocity P-wave (km/s) = 5.75369 6.92608 6.36693
#
# Compressibility (1/GPa) = 0.02609260
#
# Stress axis : x y z
#
# Youngs Moduli (GPa) = 90.21211 113.67459 53.82375
#
# Poissons Ratio (x) = 0.57044 -0.06082
# Poissons Ratio (y) = 0.45270 0.12359
# Poissons Ratio (z) = -0.10195 0.26101
#
# Static dielectric constant tensor:
#      x y z
#    x 1.879580 0.020190 0.005630 
#    y 0.020190 1.942930 0.007410 
#    z 0.005630 0.007410 1.995590 
# 
# From -- ./inp_files/94505.got.cif
#   From: 2010.05.17/outbox.cif.g08.bks.cpg/sg2_48_cif.got.tgz:94505.got - 2010.06.03 11:33:40.
