data_PCOD9040325
_publ_section_title
;
Structure prediction by ZEFSAII (Michael W. Deem and Ramdas Pophale) SiO2 
 PCOD9040325
Probable space group: P -1
;
_chemical_formula_sum "Si O2"
_cell_formula_units_Z 16
_cell_length_a 18.032826
_cell_length_b 17.880037
_cell_length_c 8.886645
_cell_angle_alpha 47.129903
_cell_angle_beta 129.484567
_cell_angle_gamma 160.997210
_cell_volume 683.452802
_symmetry_space_group_name_H-M "P -1"
_symmetry_group_IT_number 2
_symmetry_cell_setting 'triclinic'
loop_
_space_group_symop_operation_xyz
x,y,z
-x,-y,-z
loop_
_atom_site_type_symbol
_atom_site_label
_atom_site_fract_x
_atom_site_fract_y
_atom_site_fract_z
Si Si1 0.033358 0.390992 0.438215
Si Si2 0.182590 0.614129 0.881330
Si Si3 0.677829 0.593872 0.521504
Si Si4 0.986470 0.230270 0.314959
Si Si5 0.336462 0.749739 0.582918
Si Si6 0.720706 0.970324 0.843778
Si Si7 0.419148 0.136403 0.864679
Si Si8 0.731543 0.748197 0.058075
O O1 0.085029 0.352205 0.439218
O O2 0.243044 0.651487 0.429703
O O3 0.889713 0.340960 0.237328
O O4 0.896201 0.206360 0.650134
O O5 0.151415 0.578678 0.709543
O O6 0.045072 0.388160 0.080160
O O7 0.437857 0.828541 0.969512
O O8 0.500000 0.500000 0.500000
O O9 0.943097 0.814730 0.592193
O O10 0.584837 0.392786 0.721828
O O11 0.694011 0.644817 0.300836
O O12 0.714703 0.978309 0.305923
O O13 0.500000 0.000000 0.500000
O O14 0.474361 0.779687 0.749804
O O15 0.740300 0.999856 0.008440
O O16 0.722440 0.856662 0.949337
O O17 0.500000 0.500000 0.000000
O O18 0.000000 0.000000 0.000000
#
# Coordination Sequence:
#
# PCOD9040325 Si02
#       8
#     2   2   2   2   2   2   2   2
#     4  12  25  41  69 104 148 189 244 314 385 440
#     4  10  23  43  65  98 137 190 239 295 363 460
#     4  11  25  50  71 105 145 198 255 309 385 459
#     4  11  26  42  69 102 146 188 243 314 380 455
#     4  11  24  43  69  99 138 194 249 302 369 458
#     4  11  25  44  71 105 142 198 247 314 372 461
#     4  10  24  45  70 101 140 192 254 295 373 459
#     4  12  30  51  80 117 155 198 258 330 399 458
#
# _framework density 23.410540000000001
#
# number of rings (size 3 to 8) (size 9 to 14) (size 15 to 20)
#    0.000    1.000    2.500    2.250   10.500    3.000 
#    0.000    0.000    0.000    0.000    0.000    0.000 
#    0.000    0.000    0.000    0.000    0.000    0.000 
#
# Total GULP energy -89112.948813 kJ/mol
# GULP energy per Si atom -5569.559301 kJ/mol
# Density = 2.335726 g / cm^3
# Si number density = 23.410540 Si / 1000 Ang^3
#
#
#
# Elastic Constant Matrix: (Units=GPa)
#
#
# Indices 1 2 3 4 5 6 
#
# 1 142.4259 31.9244 39.3977 20.4806 32.0544 12.1216
# 2 31.9244 65.4391 19.4563 19.8080 -0.5637 -6.0469
# 3 39.3977 19.4563 123.1297 -1.7333 12.6473 6.4820
# 4 20.4806 19.8080 -1.7333 42.7266 9.7386 -1.6828
# 5 32.0544 -0.5637 12.6473 9.7386 50.6834 -1.0431
# 6 12.1216 -6.0469 6.4820 -1.6828 -1.0431 21.1679
#
#
#
# Elastic Compliance Matrix: (Units=1/GPa)
#
#
# Indices 1 2 3 4 5 6 
#
# 1 0.010974 -0.005067 -0.001676 -0.001826 -0.006385 -0.007678
# 2 -0.005067 0.022438 -0.003211 -0.009131 0.006213 0.009875
# 3 -0.001676 -0.003211 0.009557 0.003027 -0.001999 -0.002742
# 4 -0.001826 -0.009131 0.003027 0.029862 -0.005448 -0.000384
# 5 -0.006385 0.006213 -0.001999 -0.005448 0.025525 0.006868
# 6 -0.007678 0.009875 -0.002742 -0.000384 0.006868 0.055606
#
#
# Mechanical properties :
#
#
# Convention : Reuss Voigt Hill
#
# Bulk Modulus (GPa) = 43.36305 56.95017 50.15661
# Shear Modulus (GPa) = 27.53950 38.93000 33.23475
#
# Velocity S-wave (km/s) = 3.43355 4.08232 3.77191
# Velocity P-wave (km/s) = 5.85509 6.82642 6.35933
#
# Compressibility (1/GPa) = 0.02306111
#
# Stress axis : x y z
#
# Youngs Moduli (GPa) = 91.12630 44.56782 104.63030
#
# Poissons Ratio (x) = 0.22582 0.17539
# Poissons Ratio (y) = 0.46173 0.33595
# Poissons Ratio (z) = 0.15275 0.14310
#
# Static dielectric constant tensor:
#      x y z
#    x 1.991760 0.098380 -0.067140 
#    y 0.098380 2.238910 0.098900 
#    z -0.067140 0.098900 1.927240 
# 
# From -- ./inp_files/336714.got.cif
#   From: 2010.05.17/outbox.cif.g08.bks.cpg/sg2_169_cif.got.tgz:336714.got - 2010.06.03 11:33:40.
