data_PCOD9040856
_publ_section_title
;
Structure prediction by ZEFSAII (Michael W. Deem and Ramdas Pophale) SiO2 
 PCOD9040856
Probable space group: P -1
;
_chemical_formula_sum "Si O2"
_cell_formula_units_Z 16
_cell_length_a 14.136818
_cell_length_b 9.162491
_cell_length_c 8.902811
_cell_angle_alpha 49.404572
_cell_angle_beta 82.212161
_cell_angle_gamma 110.916169
_cell_volume 699.358377
_symmetry_space_group_name_H-M "P -1"
_symmetry_group_IT_number 2
_symmetry_cell_setting 'triclinic'
loop_
_space_group_symop_operation_xyz
x,y,z
-x,-y,-z
loop_
_atom_site_type_symbol
_atom_site_label
_atom_site_fract_x
_atom_site_fract_y
_atom_site_fract_z
Si Si1 0.955541 0.617917 0.540811
Si Si2 0.406319 0.170884 0.148660
Si Si3 0.820656 0.865939 0.844045
Si Si4 0.362266 0.445879 0.321961
Si Si5 0.599162 0.926037 0.439873
Si Si6 0.365706 0.708774 0.436902
Si Si7 0.215656 0.535816 0.067806
Si Si8 0.135222 0.246525 0.796391
O O1 0.879549 0.468877 0.802703
O O2 0.880537 0.681305 0.414649
O O3 0.000000 0.500000 0.500000
O O4 0.070391 0.870491 0.400073
O O5 0.296273 0.180465 0.165581
O O6 0.427313 0.120218 0.346433
O O7 0.381453 0.944027 0.217130
O O8 0.513159 0.405914 0.890621
O O9 0.840142 0.674784 0.902600
O O10 0.808778 0.847973 0.040501
O O11 0.331573 0.189351 0.534049
O O12 0.373940 0.568898 0.393425
O O13 0.280760 0.467840 0.212893
O O14 0.474764 0.789435 0.469632
O O15 0.686012 0.204695 0.194417
O O16 0.230209 0.525959 0.646794
O O17 0.000000 0.000000 0.000000
#
# Coordination Sequence:
#
# PCOD9040856 Si02
#       8
#     2   2   2   2   2   2   2   2
#     4  11  25  49  76 106 144 193 247 306 363 436
#     4  12  25  45  73 110 147 193 245 294 376 442
#     4  11  25  46  76 103 148 200 239 306 365 429
#     4  12  26  45  69 104 155 189 241 306 363 439
#     4  12  27  44  74 109 148 195 242 300 372 443
#     4  12  24  43  69 105 150 192 242 304 370 429
#     4  12  26  49  71 109 151 188 246 305 363 442
#     4  10  23  43  69 103 139 186 244 300 355 429
#
# _framework density 22.878112999999999
#
# number of rings (size 3 to 8) (size 9 to 14) (size 15 to 20)
#    0.000    0.500    3.750    4.125    1.750    2.000 
#    0.000    1.250    0.000    0.000    0.000    0.000 
#    0.000    0.000    0.000    0.000    0.000    0.000 
#
# Total GULP energy -89131.944673 kJ/mol
# GULP energy per Si atom -5570.746542 kJ/mol
# Density = 2.282604 g / cm^3
# Si number density = 22.878113 Si / 1000 Ang^3
#
#
#
# Elastic Constant Matrix: (Units=GPa)
#
#
# Indices 1 2 3 4 5 6 
#
# 1 59.8533 31.8584 42.2878 4.1914 -8.8933 -0.1750
# 2 31.8584 111.2915 45.5815 -0.7552 -12.9234 -22.3096
# 3 42.2878 45.5815 116.6012 -13.6270 -9.1941 2.8847
# 4 4.1914 -0.7552 -13.6270 43.1259 6.6754 3.2138
# 5 -8.8933 -12.9234 -9.1941 6.6754 31.2509 -12.8886
# 6 -0.1750 -22.3096 2.8847 3.2138 -12.8886 37.3120
#
#
#
# Elastic Compliance Matrix: (Units=1/GPa)
#
#
# Indices 1 2 3 4 5 6 
#
# 1 0.025462 -0.002989 -0.008388 -0.006119 0.005418 0.001379
# 2 -0.002989 0.015958 -0.005085 -0.003754 0.010820 0.013982
# 3 -0.008388 -0.005085 0.014164 0.006315 -0.004219 -0.006176
# 4 -0.006119 -0.003754 0.006315 0.028115 -0.011170 -0.009042
# 5 0.005418 0.010820 -0.004219 -0.011170 0.049409 0.024851
# 6 0.001379 0.013982 -0.006176 -0.009042 0.024851 0.045008
#
#
# Mechanical properties :
#
#
# Convention : Reuss Voigt Hill
#
# Bulk Modulus (GPa) = 44.13211 58.57794 51.35503
# Shear Modulus (GPa) = 22.87328 33.53899 28.20614
#
# Velocity S-wave (km/s) = 3.16537 3.83297 3.51506
# Velocity P-wave (km/s) = 5.71764 6.72673 6.24261
#
# Compressibility (1/GPa) = 0.02265924
#
# Stress axis : x y z
#
# Youngs Moduli (GPa) = 39.27350 62.66521 70.59948
#
# Poissons Ratio (x) = 0.18734 0.59218
# Poissons Ratio (y) = 0.11741 0.35903
# Poissons Ratio (z) = 0.32942 0.31868
#
# Static dielectric constant tensor:
#      x y z
#    x 1.955420 -0.081320 -0.119350 
#    y -0.081320 1.986230 0.121230 
#    z -0.119350 0.121230 2.062910 
# 
# From -- ./inp_files/297458.got.cif
#   From: 2010.05.17/outbox.cif.g08.bks.cpg/sg2_149_cif.got.tgz:297458.got - 2010.06.03 11:33:40.
