data_PCOD9040042
_publ_section_title
;
Structure prediction by ZEFSAII (Michael W. Deem and Ramdas Pophale) SiO2 
 PCOD9040042
Probable space group: P -1
;
_chemical_formula_sum "Si O2"
_cell_formula_units_Z 16
_cell_length_a 11.689991
_cell_length_b 17.175040
_cell_length_c 8.856859
_cell_angle_alpha 81.361589
_cell_angle_beta 63.791658
_cell_angle_gamma 135.333353
_cell_volume 759.097340
_symmetry_space_group_name_H-M "P -1"
_symmetry_group_IT_number 2
_symmetry_cell_setting 'triclinic'
loop_
_space_group_symop_operation_xyz
x,y,z
-x,-y,-z
loop_
_atom_site_type_symbol
_atom_site_label
_atom_site_fract_x
_atom_site_fract_y
_atom_site_fract_z
Si Si1 0.810128 0.167271 0.736278
Si Si2 0.183336 0.254165 0.358260
Si Si3 0.520321 0.198714 0.594997
Si Si4 0.616271 0.599936 0.135630
Si Si5 0.042213 0.840506 0.058323
Si Si6 0.856153 0.893539 0.345020
Si Si7 0.026073 0.444530 0.377170
Si Si8 0.561125 0.734171 0.099200
O O1 0.919392 0.305768 0.555595
O O2 0.902074 0.143797 0.584872
O O3 0.932333 0.211105 0.813737
O O4 0.500000 0.000000 0.000000
O O5 0.268525 0.315242 0.120534
O O6 0.189169 0.170990 0.448291
O O7 0.396334 0.416608 0.288609
O O8 0.381693 0.183013 0.561845
O O9 0.836338 0.354343 0.368350
O O10 0.490039 0.221738 0.771323
O O11 0.327215 0.018617 0.769813
O O12 0.845513 0.703413 0.085970
O O13 0.496220 0.617578 0.256256
O O14 0.929253 0.860621 0.196501
O O15 0.122197 0.089090 0.153290
O O16 0.000000 0.500000 0.500000
O O17 0.346644 0.616416 0.122590
#
# Coordination Sequence:
#
# PCOD9040042 Si02
#       8
#     2   2   2   2   2   2   2   2
#     4  11  21  38  59  85 113 148 192 241 283 337
#     4  10  25  36  57  86 120 147 191 240 286 345
#     4  10  17  33  55  89 115 144 192 241 285 328
#     4  11  20  39  56  86 116 154 188 235 297 338
#     4  10  19  33  62  84 111 148 196 241 281 334
#     4  10  19  35  59  87 112 145 198 248 272 330
#     4  10  21  32  55  88 115 149 181 239 293 339
#     4  10  18  33  57  82 116 148 190 231 289 336
#
# _framework density 21.077665
#
# number of rings (size 3 to 8) (size 9 to 14) (size 15 to 20)
#    0.000    1.750    5.000    0.750    1.750    4.500 
#    0.000    0.625    0.000    0.750    0.000    0.000 
#    0.000    0.000    0.000    0.000    0.000    0.000 
#
# Total GULP energy -89149.124208 kJ/mol
# GULP energy per Si atom -5571.820263 kJ/mol
# Density = 2.102969 g / cm^3
# Si number density = 21.077665 Si / 1000 Ang^3
#
#
#
# Elastic Constant Matrix: (Units=GPa)
#
#
# Indices 1 2 3 4 5 6 
#
# 1 121.0276 32.5647 33.7643 -21.1695 1.0857 32.8363
# 2 32.5647 77.0377 26.3169 -26.5023 -8.5264 22.5726
# 3 33.7643 26.3169 60.7021 -16.7024 -6.3856 18.7175
# 4 -21.1695 -26.5023 -16.7024 22.2416 5.3388 -4.2992
# 5 1.0857 -8.5264 -6.3856 5.3388 28.6481 -13.4135
# 6 32.8363 22.5726 18.7175 -4.2992 -13.4135 37.4917
#
#
#
# Elastic Compliance Matrix: (Units=1/GPa)
#
#
# Indices 1 2 3 4 5 6 
#
# 1 0.015379 0.003693 -0.001277 0.017429 -0.010967 -0.016980
# 2 0.003693 0.028281 0.000634 0.035726 -0.007155 -0.019041
# 3 -0.001277 0.000634 0.024373 0.016376 -0.002228 -0.010350
# 4 0.017429 0.035726 0.016376 0.114930 -0.027234 -0.041515
# 5 -0.010967 -0.007155 -0.002228 -0.027234 0.052066 0.030530
# 6 -0.016980 -0.019041 -0.010350 -0.041515 0.030530 0.064338
#
#
# Mechanical properties :
#
#
# Convention : Reuss Voigt Hill
#
# Bulk Modulus (GPa) = 13.48962 49.33991 31.41476
# Shear Modulus (GPa) = 15.72434 28.75105 22.23769
#
# Velocity S-wave (km/s) = 2.73430 3.69732 3.25166
# Velocity P-wave (km/s) = 4.04751 6.45649 5.38835
#
# Compressibility (1/GPa) = 0.07413109
#
# Stress axis : x y z
#
# Youngs Moduli (GPa) = 65.02237 35.35997 41.02937
#
# Poissons Ratio (x) = -0.13058 0.05241
# Poissons Ratio (y) = -0.24012 -0.02600
# Poissons Ratio (z) = 0.08306 -0.02241
#
# Static dielectric constant tensor:
#      x y z
#    x 1.833010 -0.015700 -0.072230 
#    y -0.015700 1.782380 0.008960 
#    z -0.072230 0.008960 1.810660 
# 
# From -- ./inp_files/182580.got.cif
#   From: 2010.05.17/outbox.cif.g08.bks.cpg/sg2_92_cif.got.tgz:182580.got - 2010.06.03 11:33:40.
