data_PCOD9040634
_publ_section_title
;
Structure prediction by ZEFSAII (Michael W. Deem and Ramdas Pophale) SiO2 
 PCOD9040634
Probable space group: P -1
;
_chemical_formula_sum "Si O2"
_cell_formula_units_Z 14
_cell_length_a 18.464249
_cell_length_b 9.515369
_cell_length_c 11.247107
_cell_angle_alpha 140.738573
_cell_angle_beta 27.781561
_cell_angle_gamma 138.947417
_cell_volume 566.675941
_symmetry_space_group_name_H-M "P -1"
_symmetry_group_IT_number 2
_symmetry_cell_setting 'triclinic'
loop_
_space_group_symop_operation_xyz
x,y,z
-x,-y,-z
loop_
_atom_site_type_symbol
_atom_site_label
_atom_site_fract_x
_atom_site_fract_y
_atom_site_fract_z
Si Si1 0.603152 0.880365 0.025774
Si Si2 0.430920 0.267120 0.515667
Si Si3 0.165274 0.422616 0.125311
Si Si4 0.833775 0.897606 0.897837
Si Si5 0.113251 0.236844 0.600774
Si Si6 0.979784 0.341928 0.100461
Si Si7 0.642563 0.121885 0.784963
O O1 0.733103 0.847273 0.718156
O O2 0.667571 0.821338 0.019644
O O3 0.435328 0.755329 0.127810
O O4 0.570605 0.135422 0.252070
O O5 0.500000 0.500000 0.500000
O O6 0.326863 0.330086 0.812996
O O7 0.310957 0.085074 0.486577
O O8 0.050963 0.344820 0.129516
O O9 0.226566 0.693198 0.219158
O O10 0.105984 0.303571 0.257215
O O11 0.960122 0.025525 0.699016
O O12 0.849332 0.107593 0.106656
O O13 0.112811 0.347467 0.806413
O O14 0.087475 0.435603 0.680683
O O15 0.500000 0.000000 0.000000
#
# Coordination Sequence:
#
# PCOD9040634 Si02
#       7
#     2   2   2   2   2   2   2
#     4  10  23  43  68 101 137 171 244 271 338 413
#     4  10  24  42  71  97 132 184 221 285 331 405
#     4  12  23  45  70 105 145 169 235 278 355 406
#     4  10  23  43  70 101 137 189 214 293 345 395
#     4   9  21  43  70 101 132 185 235 278 336 399
#     4   9  23  40  71 102 136 191 221 282 341 407
#     4  10  24  40  68 104 128 185 219 286 336 394
#
# _framework density 24.705477999999999
#
# number of rings (size 3 to 8) (size 9 to 14) (size 15 to 20)
#    1.714    0.286    1.429    0.857    6.000    2.286 
#    5.143    0.714    0.000    0.000    0.000    0.000 
#    0.000    0.000    0.000    0.000    0.000    0.000 
#
# Total GULP energy -78156.254962 kJ/mol
# GULP energy per Si atom -5582.589640 kJ/mol
# Density = 2.464925 g / cm^3
# Si number density = 24.705478 Si / 1000 Ang^3
#
#
#
# Elastic Constant Matrix: (Units=GPa)
#
#
# Indices 1 2 3 4 5 6 
#
# 1 139.5458 21.8234 18.3758 8.5536 -0.4616 -19.2685
# 2 21.8234 93.4519 12.2275 13.8583 1.2851 -9.9741
# 3 18.3758 12.2275 121.7783 14.6445 -4.8018 3.1428
# 4 8.5536 13.8583 14.6445 17.0041 -2.3891 -0.3626
# 5 -0.4616 1.2851 -4.8018 -2.3891 33.4282 16.6383
# 6 -19.2685 -9.9741 3.1428 -0.3626 16.6383 38.2342
#
#
#
# Elastic Compliance Matrix: (Units=1/GPa)
#
#
# Indices 1 2 3 4 5 6 
#
# 1 0.008330 -0.000765 -0.001078 -0.002927 -0.002859 0.005304
# 2 -0.000765 0.012970 -0.000186 -0.010421 -0.003486 0.004432
# 3 -0.001078 -0.000186 0.009391 -0.007167 0.001968 -0.002288
# 4 -0.002927 -0.010421 -0.007167 0.075924 0.007905 -0.006325
# 5 -0.002859 -0.003486 0.001968 0.007905 0.040937 -0.020252
# 6 0.005304 0.004432 -0.002288 -0.006325 -0.020252 0.038924
#
#
# Mechanical properties :
#
#
# Convention : Reuss Voigt Hill
#
# Bulk Modulus (GPa) = 37.54427 51.06993 44.30710
# Shear Modulus (GPa) = 25.07388 37.88990 31.48189
#
# Velocity S-wave (km/s) = 3.18922 3.92045 3.57359
# Velocity P-wave (km/s) = 5.36575 6.41947 5.91612
#
# Compressibility (1/GPa) = 0.02663522
#
# Stress axis : x y z
#
# Youngs Moduli (GPa) = 120.04913 77.10164 106.48018
#
# Poissons Ratio (x) = 0.05896 0.11476
# Poissons Ratio (y) = 0.09181 0.01975
# Poissons Ratio (z) = 0.12938 0.01430
#
# Static dielectric constant tensor:
#      x y z
#    x 2.010060 -0.036610 0.029370 
#    y -0.036610 1.972400 -0.042440 
#    z 0.029370 -0.042440 2.003120 
# 
# From -- ./inp_files/469545.got.cif
#   From: 2010.05.17/outbox.cif.g08.bks.cpg/sg2_235_cif.got.tgz:469545.got - 2010.06.03 11:33:40.
