data_PCOD9040231
_publ_section_title
;
Structure prediction by ZEFSAII (Michael W. Deem and Ramdas Pophale) SiO2 
 PCOD9040231
Probable space group: P -1
;
_chemical_formula_sum "Si O2"
_cell_formula_units_Z 15
_cell_length_a 7.836553
_cell_length_b 15.440741
_cell_length_c 7.706933
_cell_angle_alpha 123.043837
_cell_angle_beta 62.188398
_cell_angle_gamma 80.273727
_cell_volume 567.622298
_symmetry_space_group_name_H-M "P -1"
_symmetry_group_IT_number 2
_symmetry_cell_setting 'triclinic'
loop_
_space_group_symop_operation_xyz
x,y,z
-x,-y,-z
loop_
_atom_site_type_symbol
_atom_site_label
_atom_site_fract_x
_atom_site_fract_y
_atom_site_fract_z
Si Si1 0.451454 0.858750 0.833496
Si Si2 0.086093 0.337680 0.118237
Si Si3 0.000000 0.500000 0.000000
Si Si4 0.771638 0.265329 0.025169
Si Si5 0.647867 0.479576 0.080721
Si Si6 0.033416 0.300306 0.467671
Si Si7 0.458200 0.896403 0.468413
Si Si8 0.968400 0.106887 0.411869
O O1 0.692812 0.799594 0.755014
O O2 0.502539 0.869841 0.622281
O O3 0.358564 0.774329 0.835217
O O4 0.239727 0.996282 0.148414
O O5 0.365558 0.233515 0.861560
O O6 0.970634 0.265360 0.033489
O O7 0.989624 0.379416 0.404126
O O8 0.005801 0.442786 0.129438
O O9 0.307173 0.419239 0.769818
O O10 0.611715 0.402772 0.156526
O O11 0.893228 0.166432 0.702451
O O12 0.932650 0.384192 0.783537
O O13 0.500000 0.500000 0.000000
O O14 0.917931 0.222215 0.439794
O O15 0.192855 0.939354 0.613393
O O16 0.500000 0.000000 0.500000
#
# Coordination Sequence:
#
# PCOD9040231 Si02
#       8
#     2   2   1   2   2   2   2   2
#     4  12  23  41  66 102 139 178 229 277 341 415
#     4  11  24  46  66  99 140 179 236 281 347 410
#     4  10  24  44  72  98 138 184 226 294 344 406
#     4  10  23  43  65 101 134 180 225 285 339 408
#     4  10  24  47  70 100 138 176 234 289 353 410
#     4  11  25  43  69 102 133 182 226 285 341 415
#     4  12  25  42  69  99 141 183 227 283 343 413
#     4  11  23  41  67  99 140 180 223 281 347 406
#
# _framework density 26.426024999999999
#
# number of rings (size 3 to 8) (size 9 to 14) (size 15 to 20)
#    0.000    1.067    0.000    6.800    5.600    2.667 
#    4.800    1.333    0.000    0.000    0.000    0.000 
#    0.000    0.000    0.000    0.000    0.000    0.000 
#
# Total GULP energy -83907.346611 kJ/mol
# GULP energy per Si atom -5593.823107 kJ/mol
# Density = 2.636588 g / cm^3
# Si number density = 26.426025 Si / 1000 Ang^3
#
#
#
# Elastic Constant Matrix: (Units=GPa)
#
#
# Indices 1 2 3 4 5 6 
#
# 1 87.9444 43.6204 19.3996 -2.1215 -9.5207 0.1934
# 2 43.6204 200.9511 40.2749 -54.1149 4.5601 17.8451
# 3 19.3996 40.2749 100.6146 -25.8624 3.7361 -10.9072
# 4 -2.1215 -54.1149 -25.8624 41.2177 -14.1657 2.3808
# 5 -9.5207 4.5601 3.7361 -14.1657 38.4597 -11.1878
# 6 0.1934 17.8451 -10.9072 2.3808 -11.1878 53.4026
#
#
#
# Elastic Compliance Matrix: (Units=1/GPa)
#
#
# Indices 1 2 3 4 5 6 
#
# 1 0.014193 -0.004335 -0.002357 -0.005615 0.002692 0.001730
# 2 -0.004335 0.009817 -0.000099 0.013383 0.001675 -0.003531
# 3 -0.002357 -0.000099 0.012789 0.008318 0.002038 0.002710
# 4 -0.005615 0.013383 0.008318 0.051954 0.014777 -0.001973
# 5 0.002692 0.001675 0.002038 0.014777 0.033520 0.006211
# 6 0.001730 -0.003531 0.002710 -0.001973 0.006211 0.021842
#
#
# Mechanical properties :
#
#
# Convention : Reuss Voigt Hill
#
# Bulk Modulus (GPa) = 43.07201 66.23332 54.65266
# Shear Modulus (GPa) = 30.22327 45.69702 37.96015
#
# Velocity S-wave (km/s) = 3.38552 4.16293 3.79419
# Velocity P-wave (km/s) = 5.62288 6.94440 6.31829
#
# Compressibility (1/GPa) = 0.02321694
#
# Stress axis : x y z
#
# Youngs Moduli (GPa) = 70.45618 101.86884 78.19307
#
# Poissons Ratio (x) = 0.44164 0.18430
# Poissons Ratio (y) = 0.30545 0.00770
# Poissons Ratio (z) = 0.16606 0.01004
#
# Static dielectric constant tensor:
#      x y z
#    x -0.080390 -1.041380 -0.954080 
#    y -1.041380 1.522040 -0.424350 
#    z -0.954080 -0.424350 1.709990 
# 
# From -- ./inp_files/202851.got.cif
#   From: 2010.05.17/outbox.cif.g08.bks.cpg/sg2_102_cif.got.tgz:202851.got - 2010.06.03 11:33:40.
