data_PCOD9040408
_publ_section_title
;
Structure prediction by ZEFSAII (Michael W. Deem and Ramdas Pophale) SiO2 
 PCOD9040408
Probable space group: P -1
;
_chemical_formula_sum "Si O2"
_cell_formula_units_Z 16
_cell_length_a 12.888006
_cell_length_b 14.853734
_cell_length_c 8.434537
_cell_angle_alpha 149.467558
_cell_angle_beta 101.794921
_cell_angle_gamma 87.198996
_cell_volume 776.261615
_symmetry_space_group_name_H-M "P -1"
_symmetry_group_IT_number 2
_symmetry_cell_setting 'triclinic'
loop_
_space_group_symop_operation_xyz
x,y,z
-x,-y,-z
loop_
_atom_site_type_symbol
_atom_site_label
_atom_site_fract_x
_atom_site_fract_y
_atom_site_fract_z
Si Si1 0.332477 0.520014 0.636187
Si Si2 0.224756 0.119307 0.106340
Si Si3 0.827940 0.254647 0.959664
Si Si4 0.949185 0.825094 0.106623
Si Si5 0.751443 0.563015 0.839030
Si Si6 0.268708 0.763345 0.436625
Si Si7 0.477651 0.688991 0.215727
Si Si8 0.714541 0.882645 0.530396
O O1 0.305262 0.318109 0.397227
O O2 0.341160 0.503324 0.425359
O O3 0.225900 0.598163 0.752406
O O4 0.429921 0.648383 0.961139
O O5 0.213541 0.094965 0.254022
O O6 0.113268 0.115566 0.971892
O O7 0.273602 0.960943 0.808825
O O8 0.812146 0.269748 0.789490
O O9 0.952906 0.261949 0.046088
O O10 0.756644 0.056160 0.694416
O O11 0.857715 0.682581 0.962862
O O12 0.000000 0.000000 0.500000
O O13 0.770450 0.389444 0.673496
O O14 0.719625 0.699681 0.161820
O O15 0.383713 0.740338 0.369275
O O16 0.588702 0.848482 0.491732
O O17 0.500000 0.500000 0.000000
#
# Coordination Sequence:
#
# PCOD9040408 Si02
#       8
#     2   2   2   2   2   2   2   2
#     4  10  23  43  66  96 132 169 215 268 316 384
#     4  11  23  41  67  97 133 168 215 267 318 385
#     4  11  23  44  67  94 133 169 217 270 315 381
#     4  11  22  45  68  95 129 172 213 266 328 377
#     4  11  23  41  67  96 133 169 214 266 319 383
#     4  11  23  42  66  96 134 168 215 268 315 385
#     4  11  22  44  68  95 130 172 213 264 328 377
#     4  12  23  42  67  96 133 171 214 268 318 382
#
# _framework density 20.611606999999999
#
# number of rings (size 3 to 8) (size 9 to 14) (size 15 to 20)
#    0.000    1.000    5.000    2.250    0.000    6.000 
#    0.000    0.000    0.000    0.000    0.000    0.000 
#    0.000    0.000    0.000    0.000    0.000    0.000 
#
# Total GULP energy -89479.759120 kJ/mol
# GULP energy per Si atom -5592.484945 kJ/mol
# Density = 2.056469 g / cm^3
# Si number density = 20.611607 Si / 1000 Ang^3
#
#
#
# Elastic Constant Matrix: (Units=GPa)
#
#
# Indices 1 2 3 4 5 6 
#
# 1 99.4402 24.9913 26.5141 -2.5715 -3.2796 -18.3041
# 2 24.9913 114.4574 28.5608 -8.9868 6.6532 -18.8491
# 3 26.5141 28.5608 74.1865 -7.5424 -16.8256 -12.6944
# 4 -2.5715 -8.9868 -7.5424 44.8766 -2.5464 0.7852
# 5 -3.2796 6.6532 -16.8256 -2.5464 42.7520 4.3593
# 6 -18.3041 -18.8491 -12.6944 0.7852 4.3593 20.4005
#
#
#
# Elastic Compliance Matrix: (Units=1/GPa)
#
#
# Indices 1 2 3 4 5 6 
#
# 1 0.012644 -0.000413 -0.003027 -0.000093 -0.001113 0.009321
# 2 -0.000413 0.011512 -0.003552 0.001300 -0.004048 0.008870
# 3 -0.003027 -0.003552 0.018522 0.002579 0.007371 0.003853
# 4 -0.000093 0.001300 0.002579 0.023063 0.002037 0.001399
# 5 -0.001113 -0.004048 0.007371 0.002037 0.027582 -0.006125
# 6 0.009321 0.008870 0.003853 0.001399 -0.006125 0.069230
#
#
# Mechanical properties :
#
#
# Convention : Reuss Voigt Hill
#
# Bulk Modulus (GPa) = 34.85162 49.80184 42.32673
# Shear Modulus (GPa) = 26.86712 35.47368 31.17040
#
# Velocity S-wave (km/s) = 3.61431 4.15306 3.89302
# Velocity P-wave (km/s) = 5.86200 6.87108 6.38650
#
# Compressibility (1/GPa) = 0.02869307
#
# Stress axis : x y z
#
# Youngs Moduli (GPa) = 79.09063 86.86872 53.98913
#
# Poissons Ratio (x) = 0.03588 0.16341
# Poissons Ratio (y) = 0.03267 0.19179
# Poissons Ratio (z) = 0.23939 0.30859
#
# Static dielectric constant tensor:
#      x y z
#    x 1.732220 -0.011810 -0.004560 
#    y -0.011810 1.725050 -0.023450 
#    z -0.004560 -0.023450 1.732830 
# 
# From -- ./inp_files/274907.got.cif
#   From: 2010.05.17/outbox.cif.g08.bks.cpg/sg2_138_cif.got.tgz:274907.got - 2010.06.03 11:33:40.
