data_PCOD9040472
_publ_section_title
;
Structure prediction by ZEFSAII (Michael W. Deem and Ramdas Pophale) SiO2 
 PCOD9040472
Probable space group: P -1
;
_chemical_formula_sum "Si O2"
_cell_formula_units_Z 14
_cell_length_a 6.085602
_cell_length_b 8.509167
_cell_length_c 10.728136
_cell_angle_alpha 85.895684
_cell_angle_beta 84.034381
_cell_angle_gamma 96.462926
_cell_volume 547.067026
_symmetry_space_group_name_H-M "P -1"
_symmetry_group_IT_number 2
_symmetry_cell_setting 'triclinic'
loop_
_space_group_symop_operation_xyz
x,y,z
-x,-y,-z
loop_
_atom_site_type_symbol
_atom_site_label
_atom_site_fract_x
_atom_site_fract_y
_atom_site_fract_z
Si Si1 0.096125 0.809305 0.255764
Si Si2 0.774700 0.604801 0.894737
Si Si3 0.580289 0.666513 0.644549
Si Si4 0.179820 0.464165 0.592275
Si Si5 0.365704 0.738179 0.014239
Si Si6 0.262177 0.996259 0.442434
Si Si7 0.095977 0.920778 0.874988
O O1 0.281886 0.811854 0.139896
O O2 0.229758 0.836770 0.373974
O O3 0.934577 0.647966 0.287444
O O4 0.941351 0.949472 0.232975
O O5 0.664663 0.574163 0.764352
O O6 0.787423 0.433620 0.965326
O O7 0.970186 0.747310 0.861210
O O8 0.607206 0.687625 0.989452
O O9 0.319522 0.612950 0.642587
O O10 0.670308 0.630869 0.502651
O O11 0.675698 0.846914 0.652971
O O12 0.000000 0.500000 0.500000
O O13 0.331779 0.867322 0.902834
O O14 0.500000 0.000000 0.500000
O O15 0.000000 0.000000 0.500000
O O16 0.000000 0.000000 0.000000
#
# Coordination Sequence:
#
# PCOD9040472 Si02
#       7
#     2   2   2   2   2   2   2
#     4  11  23  47  73 109 149 194 255 322 387 456
#     4  11  23  45  68 103 146 189 258 303 391 461
#     4  11  25  43  69 106 145 196 248 313 387 459
#     4  11  24  45  70 103 146 194 252 313 385 466
#     4  10  25  44  71 102 141 196 248 318 376 463
#     4  12  26  49  76 115 156 203 258 321 393 468
#     4  10  23  43  67 101 140 189 248 309 386 443
#
# _framework density 25.591017000000001
#
# number of rings (size 3 to 8) (size 9 to 14) (size 15 to 20)
#    0.000    1.143    2.857    2.143    0.000   11.429 
#    5.143    0.000    0.000    0.000    0.000    0.000 
#    0.000    0.000    0.000    0.000    0.000    0.000 
#
# Total GULP energy -78106.325213 kJ/mol
# GULP energy per Si atom -5579.023230 kJ/mol
# Density = 2.553277 g / cm^3
# Si number density = 25.591017 Si / 1000 Ang^3
#
#
#
# Elastic Constant Matrix: (Units=GPa)
#
#
# Indices 1 2 3 4 5 6 
#
# 1 97.1603 40.0255 46.5658 2.9486 0.2795 11.6219
# 2 40.0255 85.2148 13.6043 -20.2399 10.3485 16.9683
# 3 46.5658 13.6043 82.7259 -12.3936 -2.5457 -2.8735
# 4 2.9486 -20.2399 -12.3936 45.7567 -9.2290 1.0745
# 5 0.2795 10.3485 -2.5457 -9.2290 40.8321 -1.4759
# 6 11.6219 16.9683 -2.8735 1.0745 -1.4759 49.4055
#
#
#
# Elastic Compliance Matrix: (Units=1/GPa)
#
#
# Indices 1 2 3 4 5 6 
#
# 1 0.019769 -0.009046 -0.010968 -0.008294 -0.000474 -0.002015
# 2 -0.009046 0.018912 0.003154 0.009388 -0.002574 -0.004465
# 3 -0.010968 0.003154 0.019049 0.007664 0.002286 0.002506
# 4 -0.008294 0.009388 0.007664 0.029617 0.004801 -0.001328
# 5 -0.000474 -0.002574 0.002286 0.004801 0.026439 0.001814
# 6 -0.002015 -0.004465 0.002506 -0.001328 0.001814 0.022477
#
#
# Mechanical properties :
#
#
# Convention : Reuss Voigt Hill
#
# Bulk Modulus (GPa) = 41.64779 51.72133 46.68456
# Shear Modulus (GPa) = 28.09204 38.19254 33.14229
#
# Velocity S-wave (km/s) = 3.31680 3.86738 3.60262
# Velocity P-wave (km/s) = 5.56578 6.34009 5.96551
#
# Compressibility (1/GPa) = 0.02401088
#
# Stress axis : x y z
#
# Youngs Moduli (GPa) = 50.58340 52.87662 52.49740
#
# Poissons Ratio (x) = 0.47832 0.57577
# Poissons Ratio (y) = 0.45757 -0.16558
# Poissons Ratio (z) = 0.55478 -0.16677
#
# Static dielectric constant tensor:
#      x y z
#    x 2.132890 -0.023720 0.026510 
#    y -0.023720 2.010720 0.022320 
#    z 0.026510 0.022320 2.085120 
# 
# From -- ./inp_files/117151.got.cif
#   From: 2010.05.17/outbox.cif.g08.bks.cpg/sg2_59_cif.got.tgz:117151.got - 2010.06.03 11:33:40.
