data_PCOD9040585
_publ_section_title
;
Structure prediction by ZEFSAII (Michael W. Deem and Ramdas Pophale) SiO2 
 PCOD9040585
Probable space group: P -1
;
_chemical_formula_sum "Si O2"
_cell_formula_units_Z 14
_cell_length_a 18.810355
_cell_length_b 7.331636
_cell_length_c 8.473825
_cell_angle_alpha 124.895528
_cell_angle_beta 123.400730
_cell_angle_gamma 36.951765
_cell_volume 565.785368
_symmetry_space_group_name_H-M "P -1"
_symmetry_group_IT_number 2
_symmetry_cell_setting 'triclinic'
loop_
_space_group_symop_operation_xyz
x,y,z
-x,-y,-z
loop_
_atom_site_type_symbol
_atom_site_label
_atom_site_fract_x
_atom_site_fract_y
_atom_site_fract_z
Si Si1 0.641331 0.761078 0.023847
Si Si2 0.940876 0.326085 0.908758
Si Si3 0.333118 0.354478 0.517495
Si Si4 0.937612 0.568973 0.695169
Si Si5 0.442339 0.834452 0.160384
Si Si6 0.759330 0.251757 0.695344
Si Si7 0.857003 0.341009 0.305936
O O1 0.742662 0.635223 0.211347
O O2 0.679217 0.452099 0.848874
O O3 0.500000 0.000000 0.000000
O O4 0.645589 0.926684 0.967783
O O5 0.906186 0.528792 0.810538
O O6 0.855629 0.276279 0.813063
O O7 0.072886 0.982291 0.858105
O O8 0.956740 0.454722 0.143613
O O9 0.441066 0.223783 0.700037
O O10 0.322559 0.555647 0.463272
O O11 0.209764 0.601487 0.585234
O O12 0.367334 0.050450 0.332635
O O13 0.958117 0.329108 0.481697
O O14 0.830530 0.898029 0.641801
O O15 0.500000 0.500000 0.000000
#
# Coordination Sequence:
#
# PCOD9040585 Si02
#       7
#     2   2   2   2   2   2   2
#     4  11  24  45  69  98 141 178 224 291 347 396
#     4  11  25  49  67 103 144 180 228 297 339 412
#     4  10  23  43  67  97 144 174 228 295 335 400
#     4  11  25  43  72 103 133 191 229 275 359 407
#     4  10  23  44  66  96 134 192 230 275 345 413
#     4  11  24  48  70 101 145 178 229 294 337 420
#     4  12  24  45  69 104 139 180 232 290 339 416
#
# _framework density 24.744365999999999
#
# number of rings (size 3 to 8) (size 9 to 14) (size 15 to 20)
#    0.000    1.143    4.286    0.857    2.000    2.857 
#    2.571    1.429    0.000    0.000    0.000    0.000 
#    0.000    0.000    0.000    0.000    0.000    0.000 
#
# Total GULP energy -78174.837507 kJ/mol
# GULP energy per Si atom -5583.916965 kJ/mol
# Density = 2.468805 g / cm^3
# Si number density = 24.744366 Si / 1000 Ang^3
#
#
#
# Elastic Constant Matrix: (Units=GPa)
#
#
# Indices 1 2 3 4 5 6 
#
# 1 45.8802 34.0024 25.5016 7.2517 -0.8012 -17.5388
# 2 34.0024 127.3552 38.7208 -10.3180 -0.7697 3.8744
# 3 25.5016 38.7208 137.0113 -20.1202 5.7759 9.9094
# 4 7.2517 -10.3180 -20.1202 44.2718 -2.5644 -7.9560
# 5 -0.8012 -0.7697 5.7759 -2.5644 21.8225 -2.3924
# 6 -17.5388 3.8744 9.9094 -7.9560 -2.3924 45.4187
#
#
#
# Elastic Compliance Matrix: (Units=1/GPa)
#
#
# Indices 1 2 3 4 5 6 
#
# 1 0.041614 -0.010026 -0.007693 -0.009331 0.003997 0.017180
# 2 -0.010026 0.011067 -0.000487 0.003262 0.000081 -0.004134
# 3 -0.007693 -0.000487 0.010005 0.004730 -0.002878 -0.004435
# 4 -0.009331 0.003262 0.004730 0.027111 0.001698 -0.000075
# 5 0.003997 0.000081 -0.002878 0.001698 0.047479 0.004963
# 6 0.017180 -0.004134 -0.004435 -0.000075 0.004963 0.030220
#
#
# Mechanical properties :
#
#
# Convention : Reuss Voigt Hill
#
# Bulk Modulus (GPa) = 38.06047 56.29959 47.18003
# Shear Modulus (GPa) = 23.51086 36.43739 29.97412
#
# Velocity S-wave (km/s) = 3.08579 3.84155 3.48422
# Velocity P-wave (km/s) = 5.30198 6.51756 5.94094
#
# Compressibility (1/GPa) = 0.02627398
#
# Stress axis : x y z
#
# Youngs Moduli (GPa) = 24.03024 90.35480 99.95028
#
# Poissons Ratio (x) = 0.90588 0.76896
# Poissons Ratio (y) = 0.24092 0.04869
# Poissons Ratio (z) = 0.18487 0.04401
#
# Static dielectric constant tensor:
#      x y z
#    x 2.063450 -0.000690 -0.030010 
#    y -0.000690 1.976950 0.033520 
#    z -0.030010 0.033520 1.979260 
# 
# From -- ./inp_files/351904.got.cif
#   From: 2010.05.17/outbox.cif.g08.bks.cpg/sg2_176_cif.got.tgz:351904.got - 2010.06.03 11:33:40.
