data_PCOD9040513
_publ_section_title
;
Structure prediction by ZEFSAII (Michael W. Deem and Ramdas Pophale) SiO2 
 PCOD9040513
Probable space group: P -1
;
_chemical_formula_sum "Si O2"
_cell_formula_units_Z 16
_cell_length_a 12.476461
_cell_length_b 15.234626
_cell_length_c 15.291980
_cell_angle_alpha 26.141644
_cell_angle_beta 122.640075
_cell_angle_gamma 140.331837
_cell_volume 688.450029
_symmetry_space_group_name_H-M "P -1"
_symmetry_group_IT_number 2
_symmetry_cell_setting 'triclinic'
loop_
_space_group_symop_operation_xyz
x,y,z
-x,-y,-z
loop_
_atom_site_type_symbol
_atom_site_label
_atom_site_fract_x
_atom_site_fract_y
_atom_site_fract_z
Si Si1 0.627920 0.889271 0.559447
Si Si2 0.103103 0.999823 0.970417
Si Si3 0.167066 0.136467 0.697681
Si Si4 0.768044 0.155504 0.714664
Si Si5 0.551630 0.850500 0.194068
Si Si6 0.864097 0.776615 0.725372
Si Si7 0.254209 0.708662 0.596933
Si Si8 0.393373 0.926922 0.796853
O O1 0.763944 0.186987 0.416458
O O2 0.640816 0.980922 0.384703
O O3 0.709358 0.762803 0.701743
O O4 0.414432 0.717879 0.655440
O O5 0.109023 0.152916 0.751833
O O6 0.267405 0.082473 0.028334
O O7 0.952254 0.645430 0.193390
O O8 0.000000 0.000000 0.000000
O O9 0.349091 0.481272 0.430815
O O10 0.274583 0.067666 0.845984
O O11 0.003823 0.910976 0.752747
O O12 0.694311 0.076659 0.651618
O O13 0.000000 0.500000 0.500000
O O14 0.625557 0.145955 0.704819
O O15 0.637416 0.985147 0.208374
O O16 0.500000 0.000000 0.000000
O O17 0.742131 0.432547 0.951558
O O18 0.000000 0.000000 0.500000
#
# Coordination Sequence:
#
# PCOD9040513 Si02
#       8
#     2   2   2   2   2   2   2   2
#     4  10  23  43  67  91 138 175 227 280 333 415
#     4  11  24  37  65 100 136 171 222 286 341 407
#     4  11  27  45  67 107 136 180 237 281 349 414
#     4   9  21  39  63  96 131 174 226 270 342 405
#     4  11  25  47  73  96 138 181 232 292 343 410
#     4  12  27  44  69 101 136 183 231 287 347 407
#     4   9  21  43  63  95 130 185 222 274 348 403
#     4  11  24  42  69 100 131 180 228 281 346 410
#
# _framework density 23.240611000000001
#
# number of rings (size 3 to 8) (size 9 to 14) (size 15 to 20)
#    0.000    1.500    0.000    3.000    8.750    8.000 
#    0.000    2.500    0.000    0.000    0.000    0.000 
#    0.000    0.000    0.000    0.000    0.000    0.000 
#
# Total GULP energy -89208.381070 kJ/mol
# GULP energy per Si atom -5575.523817 kJ/mol
# Density = 2.318771 g / cm^3
# Si number density = 23.240611 Si / 1000 Ang^3
#
#
#
# Elastic Constant Matrix: (Units=GPa)
#
#
# Indices 1 2 3 4 5 6 
#
# 1 19.6611 10.4198 -0.3292 -11.6592 2.8314 2.0817
# 2 10.4198 89.2366 17.3131 -1.6107 3.3800 5.2578
# 3 -0.3292 17.3131 52.3216 -16.4177 -1.0779 15.3536
# 4 -11.6592 -1.6107 -16.4177 38.6020 -2.5281 6.9394
# 5 2.8314 3.3800 -1.0779 -2.5281 28.3626 8.2344
# 6 2.0817 5.2578 15.3536 6.9394 8.2344 31.5792
#
#
#
# Elastic Compliance Matrix: (Units=1/GPa)
#
#
# Indices 1 2 3 4 5 6 
#
# 1 0.084014 -0.012627 0.025147 0.040547 0.005216 -0.025933
# 2 -0.012627 0.014070 -0.008989 -0.008235 -0.003081 0.005473
# 3 0.025147 -0.008989 0.040847 0.030696 0.011490 -0.029762
# 4 0.040547 -0.008235 0.030696 0.057460 0.012548 -0.032124
# 5 0.005216 -0.003081 0.011490 0.012548 0.042229 -0.019186
# 6 -0.025933 0.005473 -0.029762 -0.032124 -0.019186 0.058997
#
#
# Mechanical properties :
#
#
# Convention : Reuss Voigt Hill
#
# Bulk Modulus (GPa) = 6.84956 24.00298 15.42627
# Shear Modulus (GPa) = 14.73971 28.62980 21.68475
#
# Velocity S-wave (km/s) = 2.52111 3.51363 3.05791
# Velocity P-wave (km/s) = 3.38058 5.17796 4.37262
#
# Compressibility (1/GPa) = 0.14599469
#
# Stress axis : x y z
#
# Youngs Moduli (GPa) = 11.90276 71.07278 24.48146
#
# Poissons Ratio (x) = 0.89742 -0.61564
# Poissons Ratio (y) = 0.15029 0.22006
# Poissons Ratio (z) = -0.29932 0.63886
#
# Static dielectric constant tensor:
#      x y z
#    x 1.963210 0.227440 0.141560 
#    y 0.227440 1.697160 -0.161490 
#    z 0.141560 -0.161490 1.786080 
# 
# From -- ./inp_files/522178.got.cif
#   From: 2010.05.17/outbox.cif.g08.bks.cpg/sg2_262_cif.got.tgz:522178.got - 2010.06.03 11:33:40.
