data_PCOD9040596
_publ_section_title
;
Structure prediction by ZEFSAII (Michael W. Deem and Ramdas Pophale) SiO2 
 PCOD9040596
Probable space group: P -1
;
_chemical_formula_sum "Si O2"
_cell_formula_units_Z 10
_cell_length_a 13.941266
_cell_length_b 4.984059
_cell_length_c 14.643346
_cell_angle_alpha 76.055241
_cell_angle_beta 22.271675
_cell_angle_gamma 74.519171
_cell_volume 371.582550
_symmetry_space_group_name_H-M "P -1"
_symmetry_group_IT_number 2
_symmetry_cell_setting 'triclinic'
loop_
_space_group_symop_operation_xyz
x,y,z
-x,-y,-z
loop_
_atom_site_type_symbol
_atom_site_label
_atom_site_fract_x
_atom_site_fract_y
_atom_site_fract_z
Si Si1 0.744313 0.479840 0.457520
Si Si2 0.911590 0.671902 0.475284
Si Si3 0.776232 0.551652 0.048425
Si Si4 0.400470 0.989590 0.983312
Si Si5 0.469251 0.199834 0.596115
O O1 0.855738 0.464245 0.460917
O O2 0.456065 0.627823 0.713413
O O3 0.696310 0.191092 0.473515
O O4 0.950609 0.604072 0.202778
O O5 0.644120 0.842579 0.725816
O O6 0.000000 0.500000 0.500000
O O7 0.148744 0.831210 0.222948
O O8 0.773271 0.743543 0.126442
O O9 0.686487 0.735973 0.023434
O O10 0.500000 0.000000 0.000000
O O11 0.500000 0.500000 0.500000
O O12 0.500000 0.000000 0.500000
#
# Coordination Sequence:
#
# PCOD9040596 Si02
#       5
#     2   2   2   2   2
#     4  10  23  43  67  98 140 178 242 290 364 418
#     4  12  24  40  67  99 143 188 237 293 359 433
#     4  10  23  43  67  98 140 178 242 290 364 418
#     4  12  24  40  67  99 143 188 237 293 359 433
#     4  10  26  46  74 104 144 190 246 302 364 424
#
# _framework density 26.911923000000002
#
# number of rings (size 3 to 8) (size 9 to 14) (size 15 to 20)
#    1.200    0.000    0.000    6.000    2.800    1.600 
#    0.000    0.000    0.000    0.000    0.000    0.000 
#    0.000    0.000    0.000    0.000    0.000    0.000 
#
# Total GULP energy -55857.056289 kJ/mol
# GULP energy per Si atom -5585.705629 kJ/mol
# Density = 2.685067 g / cm^3
# Si number density = 26.911923 Si / 1000 Ang^3
#
#
#
# Elastic Constant Matrix: (Units=GPa)
#
#
# Indices 1 2 3 4 5 6 
#
# 1 194.9461 64.5815 55.7027 3.3723 32.2038 43.3374
# 2 64.5815 90.3931 56.7258 13.4168 3.0765 26.8097
# 3 55.7027 56.7258 281.2717 4.9061 -3.0438 8.6174
# 4 3.3723 13.4168 4.9061 48.6834 1.6368 5.7224
# 5 32.2038 3.0765 -3.0438 1.6368 51.5240 3.2987
# 6 43.3374 26.8097 8.6174 5.7224 3.2987 69.2687
#
#
#
# Elastic Compliance Matrix: (Units=1/GPa)
#
#
# Indices 1 2 3 4 5 6 
#
# 1 0.008343 -0.004590 -0.000702 0.001300 -0.004816 -0.003234
# 2 -0.004590 0.017339 -0.002396 -0.003897 0.002028 -0.003316
# 3 -0.000702 -0.002396 0.004159 0.000170 0.000771 0.000799
# 4 0.001300 -0.003897 0.000170 0.021672 -0.001190 -0.001060
# 5 -0.004816 0.002028 0.000771 -0.001190 0.022306 0.001168
# 6 -0.003234 -0.003316 0.000799 -0.001060 0.001168 0.017676
#
#
# Mechanical properties :
#
#
# Convention : Reuss Voigt Hill
#
# Bulk Modulus (GPa) = 69.14041 102.29230 85.71635
# Shear Modulus (GPa) = 44.76611 59.86861 52.31736
#
# Velocity S-wave (km/s) = 4.08294 4.72170 4.41389
# Velocity P-wave (km/s) = 6.92635 8.23520 7.60897
#
# Compressibility (1/GPa) = 0.01446332
#
# Stress axis : x y z
#
# Youngs Moduli (GPa) = 119.86444 57.67491 240.46860
#
# Poissons Ratio (x) = 0.26471 0.16888
# Poissons Ratio (y) = 0.55014 0.57624
# Poissons Ratio (z) = 0.08418 0.13821
#
# Static dielectric constant tensor:
#      x y z
#    x 2.179700 0.013820 -0.058400 
#    y 0.013820 2.197350 -0.015030 
#    z -0.058400 -0.015030 2.116640 
# 
# From -- ./inp_files/2364.got.cif
#   From: 2010.05.17/outbox.cif.g08.bks.cpg/sg2_2_cif.got.tgz:2364.got - 2010.06.03 11:33:40.
