data_PCOD9040846
_publ_section_title
;
Structure prediction by ZEFSAII (Michael W. Deem and Ramdas Pophale) SiO2 
 PCOD9040846
Probable space group: P -1
;
_chemical_formula_sum "Si O2"
_cell_formula_units_Z 12
_cell_length_a 13.114652
_cell_length_b 5.111826
_cell_length_c 11.340190
_cell_angle_alpha 123.238991
_cell_angle_beta 47.558087
_cell_angle_gamma 116.238321
_cell_volume 466.020136
_symmetry_space_group_name_H-M "P -1"
_symmetry_group_IT_number 2
_symmetry_cell_setting 'triclinic'
loop_
_space_group_symop_operation_xyz
x,y,z
-x,-y,-z
loop_
_atom_site_type_symbol
_atom_site_label
_atom_site_fract_x
_atom_site_fract_y
_atom_site_fract_z
Si Si1 0.087116 0.566059 0.066807
Si Si2 0.620663 0.284209 0.445705
Si Si3 0.454236 0.837591 0.775079
Si Si4 0.337530 0.453311 0.976267
Si Si5 0.880654 0.452151 0.415723
Si Si6 0.854967 0.757503 0.736282
O O1 0.973922 0.557534 0.257063
O O2 0.166069 0.917158 0.104228
O O3 0.000000 0.500000 0.000000
O O4 0.207406 0.352056 0.960101
O O5 0.577867 0.630682 0.594246
O O6 0.649574 0.284158 0.283243
O O7 0.749117 0.238297 0.416298
O O8 0.500000 0.000000 0.500000
O O9 0.420056 0.735600 0.910041
O O10 0.447274 0.207160 0.856394
O O11 0.251876 0.496932 0.173396
O O12 0.836248 0.722371 0.603155
O O13 0.984723 0.275701 0.369416
#
# Coordination Sequence:
#
# PCOD9040846 Si02
#       6
#     2   2   2   2   2   2
#     4  11  23  38  72 105 136 180 228 289 348 403
#     4  11  24  42  70  97 139 184 234 283 342 402
#     4  11  23  41  68 100 135 179 232 288 333 407
#     4  11  22  42  68  97 139 174 231 285 342 406
#     4  10  24  43  67 103 141 184 226 282 350 417
#     4  10  23  43  69 102 142 181 221 286 354 417
#
# _framework density 25.749960999999999
#
# number of rings (size 3 to 8) (size 9 to 14) (size 15 to 20)
#    0.000    1.333    3.333    1.500    2.333    4.000 
#    0.000    1.667    0.000    0.000    0.000    0.000 
#    0.000    0.000    0.000    0.000    0.000    0.000 
#
# Total GULP energy -66980.726967 kJ/mol
# GULP energy per Si atom -5581.727247 kJ/mol
# Density = 2.569135 g / cm^3
# Si number density = 25.749961 Si / 1000 Ang^3
#
#
#
# Elastic Constant Matrix: (Units=GPa)
#
#
# Indices 1 2 3 4 5 6 
#
# 1 105.5228 45.7284 41.4505 -5.4026 17.9850 -4.0791
# 2 45.7284 100.6385 34.6560 -1.8216 4.3877 -28.2401
# 3 41.4505 34.6560 89.4021 -0.8715 17.3839 -3.5804
# 4 -5.4026 -1.8216 -0.8715 35.9439 -14.9359 -5.6908
# 5 17.9850 4.3877 17.3839 -14.9359 36.4754 6.3118
# 6 -4.0791 -28.2401 -3.5804 -5.6908 6.3118 29.2561
#
#
#
# Elastic Compliance Matrix: (Units=1/GPa)
#
#
# Indices 1 2 3 4 5 6 
#
# 1 0.013971 -0.005924 -0.003520 -0.000542 -0.004129 -0.003416
# 2 -0.005924 0.018896 -0.004011 0.003051 0.000808 0.017342
# 3 -0.003520 -0.004011 0.015468 -0.003195 -0.006157 -0.001763
# 4 -0.000542 0.003051 -0.003195 0.034868 0.014645 0.006102
# 5 -0.004129 0.000808 -0.006157 0.014645 0.039357 -0.006191
# 6 -0.003416 0.017342 -0.001763 0.006102 -0.006191 0.052751
#
#
# Mechanical properties :
#
#
# Convention : Reuss Voigt Hill
#
# Bulk Modulus (GPa) = 46.67730 59.91481 53.29605
# Shear Modulus (GPa) = 23.88203 31.91699 27.89951
#
# Velocity S-wave (km/s) = 3.04872 3.52447 3.29519
# Velocity P-wave (km/s) = 5.52806 6.31514 5.93466
#
# Compressibility (1/GPa) = 0.02142369
#
# Stress axis : x y z
#
# Youngs Moduli (GPa) = 71.57933 52.92138 64.65061
#
# Poissons Ratio (x) = 0.31351 0.22757
# Poissons Ratio (y) = 0.42405 0.25932
# Poissons Ratio (z) = 0.25196 0.21227
#
# Static dielectric constant tensor:
#      x y z
#    x 1.988190 -0.004460 -0.036320 
#    y -0.004460 2.182220 -0.008940 
#    z -0.036320 -0.008940 2.167660 
# 
# From -- ./inp_files/86405.got.cif
#   From: 2010.05.17/outbox.cif.g08.bks.cpg/sg2_44_cif.got.tgz:86405.got - 2010.06.03 11:33:40.
