data_PCOD9040272
_publ_section_title
;
Structure prediction by ZEFSAII (Michael W. Deem and Ramdas Pophale) SiO2 
 PCOD9040272
Probable space group: P -1
;
_chemical_formula_sum "Si O2"
_cell_formula_units_Z 16
_cell_length_a 16.572936
_cell_length_b 8.603861
_cell_length_c 14.410517
_cell_angle_alpha 51.434843
_cell_angle_beta 154.873902
_cell_angle_gamma 116.284989
_cell_volume 634.818426
_symmetry_space_group_name_H-M "P -1"
_symmetry_group_IT_number 2
_symmetry_cell_setting 'triclinic'
loop_
_space_group_symop_operation_xyz
x,y,z
-x,-y,-z
loop_
_atom_site_type_symbol
_atom_site_label
_atom_site_fract_x
_atom_site_fract_y
_atom_site_fract_z
Si Si1 0.131109 0.340015 0.116948
Si Si2 0.192807 0.787198 0.785639
Si Si3 0.436209 0.540816 0.767268
Si Si4 0.552753 0.364249 0.471719
Si Si5 0.223010 0.965346 0.490709
Si Si6 0.016913 0.545555 0.274401
Si Si7 0.802678 0.974158 0.003196
Si Si8 0.509637 0.833864 0.242567
O O1 0.333303 0.376894 0.278035
O O2 0.203194 0.107798 0.324063
O O3 0.992610 0.365556 0.872462
O O4 0.000000 0.500000 0.000000
O O5 0.090790 0.624186 0.776927
O O6 0.346348 0.646282 0.918108
O O7 0.357231 0.840124 0.999757
O O8 0.000000 0.000000 0.500000
O O9 0.450452 0.641541 0.642121
O O10 0.247363 0.460587 0.584912
O O11 0.362734 0.726597 0.697013
O O12 0.575501 0.589135 0.435818
O O13 0.720153 0.161796 0.770908
O O14 0.306240 0.084361 0.610976
O O15 0.990378 0.987269 0.254457
O O16 0.885682 0.746468 0.125503
O O17 0.618742 0.012050 0.867655
#
# Coordination Sequence:
#
# PCOD9040272 Si02
#       8
#     2   2   2   2   2   2   2   2
#     4  12  24  35  62  99 139 177 213 250 306 379
#     4  11  26  47  71  93 118 165 223 283 335 375
#     4  10  23  43  65  93 131 172 220 256 326 385
#     4  11  22  37  60  95 137 182 212 252 303 384
#     4  11  24  36  61  97 137 177 203 260 308 389
#     4  11  24  44  66  93 135 175 211 268 313 388
#     4  11  23  39  62  96 137 175 214 244 320 384
#     4  11  23  38  61  93 126 169 214 272 312 376
#
# _framework density 25.204059000000001
#
# number of rings (size 3 to 8) (size 9 to 14) (size 15 to 20)
#    0.000    1.000    3.750    3.375    5.250    3.500 
#    0.000    2.500    0.000    3.000    0.000    0.000 
#    0.000    0.000    0.000    0.000    0.000    0.000 
#
# Total GULP energy -89613.788067 kJ/mol
# GULP energy per Si atom -5600.861754 kJ/mol
# Density = 2.514669 g / cm^3
# Si number density = 25.204059 Si / 1000 Ang^3
#
#
#
# Elastic Constant Matrix: (Units=GPa)
#
#
# Indices 1 2 3 4 5 6 
#
# 1 78.6994 10.5580 11.2487 -2.8830 15.3036 -17.5830
# 2 10.5580 85.0242 59.6899 14.5502 -8.6282 -1.5438
# 3 11.2487 59.6899 159.2389 -14.8858 25.6847 1.2818
# 4 -2.8830 14.5502 -14.8858 47.4092 -3.7452 7.1031
# 5 15.3036 -8.6282 25.6847 -3.7452 28.7344 -0.1346
# 6 -17.5830 -1.5438 1.2818 7.1031 -0.1346 18.3969
#
#
#
# Elastic Compliance Matrix: (Units=1/GPa)
#
#
# Indices 1 2 3 4 5 6 
#
# 1 0.020102 -0.005857 0.003069 0.000035 -0.015118 0.018383
# 2 -0.005857 0.027013 -0.014485 -0.011762 0.022657 0.002385
# 3 0.003069 -0.014485 0.015294 0.008374 -0.018576 -0.002717
# 4 0.000035 -0.011762 0.008374 0.028648 -0.007361 -0.012652
# 5 -0.015118 0.022657 -0.018576 -0.007361 0.065264 -0.007933
# 6 0.018383 0.002385 -0.002717 -0.012652 -0.007933 0.077143
#
#
# Mechanical properties :
#
#
# Convention : Reuss Voigt Hill
#
# Bulk Modulus (GPa) = 35.89092 53.99506 44.94299
# Shear Modulus (GPa) = 18.03116 35.00583 26.51849
#
# Velocity S-wave (km/s) = 2.67761 3.73083 3.24721
# Velocity P-wave (km/s) = 4.88165 6.32681 5.65062
#
# Compressibility (1/GPa) = 0.02786220
#
# Stress axis : x y z
#
# Youngs Moduli (GPa) = 49.74701 37.01888 65.38649
#
# Poissons Ratio (x) = 0.21683 -0.20069
# Poissons Ratio (y) = 0.29138 0.94714
# Poissons Ratio (z) = -0.15269 0.53623
#
# Static dielectric constant tensor:
#      x y z
#    x 1.995930 0.007290 -0.028310 
#    y 0.007290 1.966010 0.021100 
#    z -0.028310 0.021100 2.029260 
# 
# From -- ./inp_files/577265.got.cif
#   From: 2010.05.17/outbox.cif.g08.bks.cpg/sg2_289_cif.got.tgz:577265.got - 2010.06.03 11:33:40.
