data_PCOD9040780
_publ_section_title
;
Structure prediction by ZEFSAII (Michael W. Deem and Ramdas Pophale) SiO2 
 PCOD9040780
Probable space group: P -1
;
_chemical_formula_sum "Si O2"
_cell_formula_units_Z 16
_cell_length_a 11.656349
_cell_length_b 8.483389
_cell_length_c 16.305326
_cell_angle_alpha 53.133073
_cell_angle_beta 139.995619
_cell_angle_gamma 99.285226
_cell_volume 675.592389
_symmetry_space_group_name_H-M "P -1"
_symmetry_group_IT_number 2
_symmetry_cell_setting 'triclinic'
loop_
_space_group_symop_operation_xyz
x,y,z
-x,-y,-z
loop_
_atom_site_type_symbol
_atom_site_label
_atom_site_fract_x
_atom_site_fract_y
_atom_site_fract_z
Si Si1 0.527389 0.278598 0.530654
Si Si2 0.064078 0.385886 0.662756
Si Si3 0.504958 0.300268 0.939771
Si Si4 0.963777 0.759987 0.900464
Si Si5 0.242406 0.837679 0.647122
Si Si6 0.004951 0.006804 0.700169
Si Si7 0.324215 0.210694 0.576701
Si Si8 0.414879 0.634700 0.226381
O O1 0.500000 0.500000 0.500000
O O2 0.340242 0.265085 0.473904
O O3 0.513495 0.371562 0.402117
O O4 0.739182 0.999991 0.736526
O O5 0.322974 0.245507 0.860772
O O6 0.000000 0.500000 0.500000
O O7 0.917633 0.600564 0.578700
O O8 0.989571 0.208899 0.686046
O O9 0.538131 0.341922 0.849505
O O10 0.380453 0.560599 0.832107
O O11 0.749970 0.118246 0.163964
O O12 0.991030 0.819641 0.803540
O O13 0.158430 0.749709 0.057587
O O14 0.000000 0.500000 0.000000
O O15 0.375750 0.950617 0.698823
O O16 0.180139 0.865116 0.508570
O O17 0.000000 0.000000 0.500000
O O18 0.489461 0.243291 0.708066
#
# Coordination Sequence:
#
# PCOD9040780 Si02
#       8
#     2   2   2   2   2   2   2   2
#     4  10  23  43  68  99 138 177 230 283 353 404
#     4  12  20  44  72  96 133 180 230 276 335 412
#     4  11  23  42  70  98 130 179 229 276 337 406
#     4  11  26  45  71 105 135 183 239 287 340 415
#     4  12  24  43  64  97 146 173 222 280 346 405
#     4  11  25  43  69  98 133 178 233 278 334 414
#     4  11  23  39  69  99 130 183 215 281 345 398
#     4  10  23  45  70  98 134 180 233 279 338 414
#
# _framework density 23.682917
#
# number of rings (size 3 to 8) (size 9 to 14) (size 15 to 20)
#    0.000    1.000    3.750    2.625    5.250    3.000 
#    0.000    2.500    0.000    0.000    0.000    0.000 
#    0.000    0.000    0.000    0.000    0.000    0.000 
#
# Total GULP energy -89390.011181 kJ/mol
# GULP energy per Si atom -5586.875699 kJ/mol
# Density = 2.362901 g / cm^3
# Si number density = 23.682917 Si / 1000 Ang^3
#
#
#
# Elastic Constant Matrix: (Units=GPa)
#
#
# Indices 1 2 3 4 5 6 
#
# 1 100.2719 20.8192 14.0599 6.9884 8.1649 9.3025
# 2 20.8192 96.1528 33.7125 -7.9765 2.8858 19.2232
# 3 14.0599 33.7125 103.2032 2.2255 15.1593 -2.1613
# 4 6.9884 -7.9765 2.2255 33.0915 0.6365 0.1112
# 5 8.1649 2.8858 15.1593 0.6365 39.6446 -8.8989
# 6 9.3025 19.2232 -2.1613 0.1112 -8.8989 28.4374
#
#
#
# Elastic Compliance Matrix: (Units=1/GPa)
#
#
# Indices 1 2 3 4 5 6 
#
# 1 0.011116 -0.001663 -0.000595 -0.002646 -0.002657 -0.003379
# 2 -0.001663 0.014884 -0.004753 0.004318 -0.001306 -0.010304
# 3 -0.000595 -0.004753 0.011918 -0.001769 -0.003324 0.003280
# 4 -0.002646 0.004318 -0.001769 0.031948 -0.000135 -0.002355
# 5 -0.002657 -0.001306 -0.003324 -0.000135 0.029552 0.010748
# 6 -0.003379 -0.010304 0.003280 -0.002355 0.010748 0.046857
#
#
# Mechanical properties :
#
#
# Convention : Reuss Voigt Hill
#
# Bulk Modulus (GPa) = 41.84437 48.53458 45.18947
# Shear Modulus (GPa) = 29.71574 35.63713 32.67644
#
# Velocity S-wave (km/s) = 3.54606 3.88333 3.71852
# Velocity P-wave (km/s) = 5.87137 6.37534 6.12854
#
# Compressibility (1/GPa) = 0.02389808
#
# Stress axis : x y z
#
# Youngs Moduli (GPa) = 89.96341 67.18685 83.90502
#
# Poissons Ratio (x) = 0.11170 0.04990
# Poissons Ratio (y) = 0.14957 0.39876
# Poissons Ratio (z) = 0.05350 0.31931
#
# Static dielectric constant tensor:
#      x y z
#    x 1.937940 -0.043840 0.004020 
#    y -0.043840 1.940420 0.003160 
#    z 0.004020 0.003160 1.921010 
# 
# From -- ./inp_files/446464.got.cif
#   From: 2010.05.17/outbox.cif.g08.bks.cpg/sg2_224_cif.got.tgz:446464.got - 2010.06.03 11:33:40.
