data_PCOD9040876
_publ_section_title
;
Structure prediction by ZEFSAII (Michael W. Deem and Ramdas Pophale) SiO2 
 PCOD9040876
Probable space group: P -1
;
_chemical_formula_sum "Si O2"
_cell_formula_units_Z 14
_cell_length_a 7.508239
_cell_length_b 8.132172
_cell_length_c 11.605834
_cell_angle_alpha 76.833922
_cell_angle_beta 54.418985
_cell_angle_gamma 76.917406
_cell_volume 557.224328
_symmetry_space_group_name_H-M "P -1"
_symmetry_group_IT_number 2
_symmetry_cell_setting 'triclinic'
loop_
_space_group_symop_operation_xyz
x,y,z
-x,-y,-z
loop_
_atom_site_type_symbol
_atom_site_label
_atom_site_fract_x
_atom_site_fract_y
_atom_site_fract_z
Si Si1 0.431598 0.585175 0.381026
Si Si2 0.205498 0.212911 0.671252
Si Si3 0.771009 0.941416 0.553074
Si Si4 0.751282 0.273972 0.365704
Si Si5 0.699706 0.339253 0.833011
Si Si6 0.545518 0.732909 0.859971
Si Si7 0.133293 0.884664 0.869608
O O1 0.637058 0.674806 0.337964
O O2 0.551003 0.392211 0.359359
O O3 0.228427 0.611485 0.545063
O O4 0.347252 0.671133 0.282361
O O5 0.208579 0.198089 0.533729
O O6 0.947268 0.269237 0.783031
O O7 0.257753 0.026236 0.737155
O O8 0.666667 0.865120 0.718397
O O9 0.680939 0.108592 0.484582
O O10 0.000000 0.000000 0.500000
O O11 0.932307 0.214535 0.208158
O O12 0.663445 0.541731 0.838370
O O13 0.521328 0.242596 0.984939
O O14 0.301088 0.747816 0.893632
O O15 0.000000 0.000000 0.000000
#
# Coordination Sequence:
#
# PCOD9040876 Si02
#       7
#     2   2   2   2   2   2   2
#     4  11  23  45  74 109 149 189 248 309 373 444
#     4  11  25  43  77 108 143 196 250 303 376 438
#     4  11  25  46  72 110 148 195 253 303 367 449
#     4  10  23  43  69 105 146 190 243 307 367 432
#     4  11  25  47  72 112 150 192 244 311 371 442
#     4  11  24  46  73 106 154 194 243 309 374 435
#     4  11  21  45  70 103 145 196 245 304 362 447
#
# _framework density 25.12453
#
# number of rings (size 3 to 8) (size 9 to 14) (size 15 to 20)
#    0.000    1.143    2.857    2.571    4.000    2.857 
#    5.143    5.714    0.000    0.000    0.000    0.000 
#    0.000    0.000    0.000    0.000    0.000    0.000 
#
# Total GULP energy -77954.870185 kJ/mol
# GULP energy per Si atom -5568.205013 kJ/mol
# Density = 2.506735 g / cm^3
# Si number density = 25.124530 Si / 1000 Ang^3
#
#
#
# Elastic Constant Matrix: (Units=GPa)
#
#
# Indices 1 2 3 4 5 6 
#
# 1 91.1994 16.1253 38.6030 -2.9562 8.5800 5.8974
# 2 16.1253 95.7255 24.1930 2.3039 -1.7600 -17.2846
# 3 38.6030 24.1930 168.7165 9.7113 28.5677 2.0482
# 4 -2.9562 2.3039 9.7113 49.2815 3.2179 10.2760
# 5 8.5800 -1.7600 28.5677 3.2179 36.9206 -5.7634
# 6 5.8974 -17.2846 2.0482 10.2760 -5.7634 32.6016
#
#
#
# Elastic Compliance Matrix: (Units=1/GPa)
#
#
# Indices 1 2 3 4 5 6 
#
# 1 0.013001 -0.002574 -0.002297 0.002500 -0.002329 -0.004772
# 2 -0.002574 0.013193 -0.002019 -0.002579 0.004448 0.009187
# 3 -0.002297 -0.002019 0.007798 -0.000799 -0.005827 -0.001923
# 4 0.002500 -0.002579 -0.000799 0.022965 -0.003593 -0.009643
# 5 -0.002329 0.004448 -0.005827 -0.003593 0.034274 0.010337
# 6 -0.004772 0.009187 -0.001923 -0.009643 0.010337 0.041395
#
#
# Mechanical properties :
#
#
# Convention : Reuss Voigt Hill
#
# Bulk Modulus (GPa) = 49.47646 57.05378 53.26512
# Shear Modulus (GPa) = 32.64889 42.20875 37.42882
#
# Velocity S-wave (km/s) = 3.60874 4.10320 3.86389
# Velocity P-wave (km/s) = 6.09092 6.72355 6.41504
#
# Compressibility (1/GPa) = 0.02021163
#
# Stress axis : x y z
#
# Youngs Moduli (GPa) = 76.91555 75.79725 128.23506
#
# Poissons Ratio (x) = 0.19512 0.29457
# Poissons Ratio (y) = 0.19800 0.25892
# Poissons Ratio (z) = 0.17669 0.15304
#
# Static dielectric constant tensor:
#      x y z
#    x 2.008530 0.029970 0.001610 
#    y 0.029970 2.133210 0.101400 
#    z 0.001610 0.101400 2.084410 
# 
# From -- ./inp_files/378142.got.cif
#   From: 2010.05.17/outbox.cif.g08.bks.cpg/sg2_190_cif.got.tgz:378142.got - 2010.06.03 11:33:40.
