data_PCOD9040313
_publ_section_title
;
Structure prediction by ZEFSAII (Michael W. Deem and Ramdas Pophale) SiO2 
 PCOD9040313
Probable space group: P -1
;
_chemical_formula_sum "Si O2"
_cell_formula_units_Z 16
_cell_length_a 15.435651
_cell_length_b 18.052296
_cell_length_c 4.987702
_cell_angle_alpha 85.980588
_cell_angle_beta 94.027492
_cell_angle_gamma 31.286253
_cell_volume 696.888736
_symmetry_space_group_name_H-M "P -1"
_symmetry_group_IT_number 2
_symmetry_cell_setting 'triclinic'
loop_
_space_group_symop_operation_xyz
x,y,z
-x,-y,-z
loop_
_atom_site_type_symbol
_atom_site_label
_atom_site_fract_x
_atom_site_fract_y
_atom_site_fract_z
Si Si1 0.187084 0.547154 0.284677
Si Si2 0.625144 0.967181 0.886782
Si Si3 0.603321 0.272471 0.937295
Si Si4 0.865455 0.768463 0.473708
Si Si5 0.425137 0.262452 0.718856
Si Si6 0.932052 0.481685 0.151715
Si Si7 0.815420 0.167699 0.504928
Si Si8 0.662574 0.430862 0.477405
O O1 0.337188 0.377479 0.438107
O O2 0.270062 0.566703 0.268015
O O3 0.057110 0.659403 0.478538
O O4 0.081017 0.582867 0.023223
O O5 0.740109 0.861914 0.680061
O O6 0.519316 0.116211 0.723521
O O7 0.757840 0.882097 0.179328
O O8 0.500000 0.000000 0.000000
O O9 0.557133 0.220585 0.903767
O O10 0.750205 0.189228 0.777264
O O11 0.427162 0.446293 0.781244
O O12 0.674637 0.239790 0.249736
O O13 0.935622 0.631723 0.546220
O O14 0.260817 0.363763 0.835687
O O15 0.000000 0.500000 0.000000
O O16 0.803494 0.266209 0.462960
O O17 0.000000 0.000000 0.500000
O O18 0.500000 0.500000 0.500000
#
# Coordination Sequence:
#
# PCOD9040313 Si02
#       8
#     2   2   2   2   2   2   2   2
#     4  10  23  45  69 103 135 183 231 280 340 407
#     4  12  26  44  67  99 136 182 229 284 345 405
#     4  10  23  43  65  97 134 175 225 271 333 402
#     4  11  25  46  65  97 138 178 227 278 345 407
#     4  10  26  39  70  99 134 183 229 287 333 407
#     4  11  24  44  72 100 139 180 233 284 338 408
#     4  11  23  42  67 101 135 174 218 277 339 403
#     4   9  21  42  69  98 132 177 220 279 329 404
#
# _framework density 22.959188000000001
#
# number of rings (size 3 to 8) (size 9 to 14) (size 15 to 20)
#    0.000    1.500    1.250    1.875    8.750    3.000 
#    6.750    0.000    0.000    0.000    0.000    0.000 
#    0.000    0.000    0.000    0.000    0.000    0.000 
#
# Total GULP energy -89203.941712 kJ/mol
# GULP energy per Si atom -5575.246357 kJ/mol
# Density = 2.290693 g / cm^3
# Si number density = 22.959188 Si / 1000 Ang^3
#
#
#
# Elastic Constant Matrix: (Units=GPa)
#
#
# Indices 1 2 3 4 5 6 
#
# 1 88.2753 35.1361 -2.4794 -0.6075 6.3522 5.8165
# 2 35.1361 151.4020 12.5844 -13.6696 -4.6415 -4.3388
# 3 -2.4794 12.5844 51.5181 9.5643 6.1425 -5.0537
# 4 -0.6075 -13.6696 9.5643 37.2070 -4.4821 -12.8741
# 5 6.3522 -4.6415 6.1425 -4.4821 23.9387 5.9169
# 6 5.8165 -4.3388 -5.0537 -12.8741 5.9169 22.6229
#
#
#
# Elastic Compliance Matrix: (Units=1/GPa)
#
#
# Indices 1 2 3 4 5 6 
#
# 1 0.013621 -0.004020 0.002475 -0.004129 -0.004599 -0.004867
# 2 -0.004020 0.008588 -0.003396 0.005898 0.003638 0.004327
# 3 0.002475 -0.003396 0.023040 -0.007555 -0.009123 0.001946
# 4 -0.004129 0.005898 -0.007555 0.038951 0.006273 0.021030
# 5 -0.004599 0.003638 -0.009123 0.006273 0.049576 -0.009555
# 6 -0.004867 0.004327 0.001946 0.021030 -0.009555 0.061186
#
#
# Mechanical properties :
#
#
# Convention : Reuss Voigt Hill
#
# Bulk Modulus (GPa) = 28.27391 42.40865 35.34128
# Shear Modulus (GPa) = 23.08059 33.15066 28.11563
#
# Velocity S-wave (km/s) = 3.17407 3.80398 3.50321
# Velocity P-wave (km/s) = 5.07686 6.14859 5.63825
#
# Compressibility (1/GPa) = 0.03536829
#
# Stress axis : x y z
#
# Youngs Moduli (GPa) = 73.41616 116.44004 43.40200
#
# Poissons Ratio (x) = 0.46809 -0.10742
# Poissons Ratio (y) = 0.29513 0.14737
# Poissons Ratio (z) = -0.18170 0.39538
#
# Static dielectric constant tensor:
#      x y z
#    x 1.951610 -0.030850 -0.021710 
#    y -0.030850 1.940240 0.056800 
#    z -0.021710 0.056800 1.981290 
# 
# From -- ./inp_files/99678.got.cif
#   From: 2010.05.17/outbox.cif.g08.bks.cpg/sg2_50_cif.got.tgz:99678.got - 2010.06.03 11:33:40.
