data_PCOD9040503
_publ_section_title
;
Structure prediction by ZEFSAII (Michael W. Deem and Ramdas Pophale) SiO2 
 PCOD9040503
Probable space group: P -1
;
_chemical_formula_sum "Si O2"
_cell_formula_units_Z 14
_cell_length_a 19.076095
_cell_length_b 5.069203
_cell_length_c 14.297745
_cell_angle_alpha 53.608060
_cell_angle_beta 149.415509
_cell_angle_gamma 115.429533
_cell_volume 554.998293
_symmetry_space_group_name_H-M "P -1"
_symmetry_group_IT_number 2
_symmetry_cell_setting 'triclinic'
loop_
_space_group_symop_operation_xyz
x,y,z
-x,-y,-z
loop_
_atom_site_type_symbol
_atom_site_label
_atom_site_fract_x
_atom_site_fract_y
_atom_site_fract_z
Si Si1 0.525515 0.431782 0.165933
Si Si2 0.275953 0.357824 0.773803
Si Si3 0.013088 0.613689 0.632980
Si Si4 0.081791 0.746291 0.226510
Si Si5 0.693651 0.407386 0.978743
Si Si6 0.398298 0.296175 0.375729
Si Si7 0.257162 0.186158 0.427216
O O1 0.640545 0.651311 0.227540
O O2 0.460968 0.441153 0.192214
O O3 0.609146 0.056697 0.322916
O O4 0.382019 0.527571 0.921103
O O5 0.111260 0.508702 0.541747
O O6 0.287292 0.985222 0.900937
O O7 0.981694 0.519106 0.725216
O O8 0.179654 0.466514 0.848433
O O9 0.000000 0.000000 0.500000
O O10 0.205398 0.516463 0.357147
O O11 0.132840 0.982926 0.312941
O O12 0.000000 0.000000 0.000000
O O13 0.696714 0.492894 0.856482
O O14 0.500000 0.500000 0.500000
O O15 0.300030 0.226434 0.361079
O O16 0.500000 0.000000 0.500000
#
# Coordination Sequence:
#
# PCOD9040503 Si02
#       7
#     2   2   2   2   2   2   2
#     4  11  23  41  73 109 140 201 250 322 384 464
#     4  10  23  43  67 106 146 198 254 314 384 467
#     4  10  24  49  73 111 155 207 260 327 392 464
#     4  12  27  52  78 111 152 210 259 318 388 477
#     4  11  24  43  70 105 153 193 258 313 398 446
#     4  12  25  44  73 114 155 199 254 328 394 459
#     4  12  26  47  80 109 151 201 263 316 389 468
#
# _framework density 25.225301999999999
#
# number of rings (size 3 to 8) (size 9 to 14) (size 15 to 20)
#    0.000    0.857    2.857    3.429    2.000    5.143 
#    5.143    0.000    0.000    0.000    0.000    0.000 
#    0.000    0.000    0.000    0.000    0.000    0.000 
#
# Total GULP energy -78187.683306 kJ/mol
# GULP energy per Si atom -5584.834522 kJ/mol
# Density = 2.516789 g / cm^3
# Si number density = 25.225302 Si / 1000 Ang^3
#
#
#
# Elastic Constant Matrix: (Units=GPa)
#
#
# Indices 1 2 3 4 5 6 
#
# 1 122.5166 30.2790 42.0923 -24.1443 -9.8501 30.0276
# 2 30.2790 82.9065 45.8355 4.5784 -1.8583 4.9804
# 3 42.0923 45.8355 144.5727 5.7594 -12.9773 15.6242
# 4 -24.1443 4.5784 5.7594 50.6669 5.8396 -1.9105
# 5 -9.8501 -1.8583 -12.9773 5.8396 43.0602 -6.5629
# 6 30.0276 4.9804 15.6242 -1.9105 -6.5629 52.3665
#
#
#
# Elastic Compliance Matrix: (Units=1/GPa)
#
#
# Indices 1 2 3 4 5 6 
#
# 1 0.012413 -0.003332 -0.002140 0.006201 0.000311 -0.005897
# 2 -0.003332 0.015572 -0.004100 -0.002384 -0.000779 0.001468
# 3 -0.002140 -0.004100 0.009220 -0.001990 0.002241 -0.000926
# 4 0.006201 -0.002384 -0.001990 0.023371 -0.002794 -0.002233
# 5 0.000311 -0.000779 0.002241 -0.002794 0.024653 0.002215
# 6 -0.005897 0.001468 -0.000926 -0.002233 0.002215 0.022811
#
#
# Mechanical properties :
#
#
# Convention : Reuss Voigt Hill
#
# Bulk Modulus (GPa) = 55.36638 65.15658 60.26148
# Shear Modulus (GPa) = 37.53647 44.67132 41.10389
#
# Velocity S-wave (km/s) = 3.86171 4.21276 4.04105
# Velocity P-wave (km/s) = 6.47148 7.03911 6.76126
#
# Compressibility (1/GPa) = 0.01806150
#
# Stress axis : x y z
#
# Youngs Moduli (GPa) = 80.55966 64.21966 108.45530
#
# Poissons Ratio (x) = 0.21397 0.23204
# Poissons Ratio (y) = 0.26842 0.44471
# Poissons Ratio (z) = 0.17236 0.26333
#
# Static dielectric constant tensor:
#      x y z
#    x 2.063340 0.033910 -0.075150 
#    y 0.033910 2.008950 0.028590 
#    z -0.075150 0.028590 1.982250 
# 
# From -- ./inp_files/112754.got.cif
#   From: 2010.05.17/outbox.cif.g08.bks.cpg/sg2_57_cif.got.tgz:112754.got - 2010.06.03 11:33:40.
