data_PCOD9040137
_publ_section_title
;
Structure prediction by ZEFSAII (Michael W. Deem and Ramdas Pophale) SiO2 
 PCOD9040137
Probable space group: P -1
;
_chemical_formula_sum "Si O2"
_cell_formula_units_Z 10
_cell_length_a 9.094826
_cell_length_b 17.390876
_cell_length_c 5.209553
_cell_angle_alpha 55.821380
_cell_angle_beta 122.622659
_cell_angle_gamma 142.222835
_cell_volume 410.171115
_symmetry_space_group_name_H-M "P -1"
_symmetry_group_IT_number 2
_symmetry_cell_setting 'triclinic'
loop_
_space_group_symop_operation_xyz
x,y,z
-x,-y,-z
loop_
_atom_site_type_symbol
_atom_site_label
_atom_site_fract_x
_atom_site_fract_y
_atom_site_fract_z
Si Si1 0.618283 0.000832 0.861821
Si Si2 0.319366 0.621262 0.827518
Si Si3 0.150561 0.088432 0.722414
Si Si4 0.147920 0.447250 0.494582
Si Si5 0.176317 0.245014 0.812502
O O1 0.904961 0.131820 0.878038
O O2 0.500000 0.000000 0.500000
O O3 0.500000 0.000000 0.000000
O O4 0.606799 0.884118 0.087132
O O5 0.242815 0.525215 0.703382
O O6 0.147494 0.647979 0.599104
O O7 0.249973 0.546753 0.170396
O O8 0.611696 0.736851 0.886514
O O9 0.178036 0.207396 0.590162
O O10 0.000000 0.000000 0.500000
O O11 0.000000 0.000000 0.000000
O O12 0.229345 0.372849 0.659152
#
# Coordination Sequence:
#
# PCOD9040137 Si02
#       5
#     2   2   2   2   2
#     4  11  25  44  65  98 137 175 229 284 325 401
#     4  10  23  43  66 103 136 168 225 279 330 408
#     4  10  23  43  63  96 133 170 227 280 325 398
#     4  10  23  43  67 102 136 168 223 282 331 403
#     4  11  24  43  75  94 136 185 222 266 357 389
#
# _framework density 24.380068999999999
#
# number of rings (size 3 to 8) (size 9 to 14) (size 15 to 20)
#    0.000    1.600    0.000    3.600    2.800    9.600 
#    7.200    0.000    0.000    0.000    0.000    0.000 
#    0.000    0.000    0.000    0.000    0.000    0.000 
#
# Total GULP energy -55947.546040 kJ/mol
# GULP energy per Si atom -5594.754604 kJ/mol
# Density = 2.432458 g / cm^3
# Si number density = 24.380069 Si / 1000 Ang^3
#
#
#
# Elastic Constant Matrix: (Units=GPa)
#
#
# Indices 1 2 3 4 5 6 
#
# 1 173.4451 34.7472 30.3431 26.4678 32.1152 -2.7070
# 2 34.7472 53.0741 11.3269 25.6528 26.9617 8.0700
# 3 30.3431 11.3269 88.4897 40.8690 32.8464 17.5614
# 4 26.4678 25.6528 40.8690 39.4768 -4.8723 9.8242
# 5 32.1152 26.9617 32.8464 -4.8723 30.6326 -9.1802
# 6 -2.7070 8.0700 17.5614 9.8242 -9.1802 53.7694
#
#
#
# Elastic Compliance Matrix: (Units=1/GPa)
#
#
# Indices 1 2 3 4 5 6 
#
# 1 0.007056 -0.004837 -0.002602 0.000682 0.000316 0.001860
# 2 -0.004837 0.005723 -0.015679 0.017233 0.020919 0.004441
# 3 -0.002602 -0.015679 -0.000358 0.013985 0.020100 0.003216
# 4 0.000682 0.017233 0.013985 -0.001953 -0.035007 -0.012740
# 5 0.000316 0.020919 0.020100 -0.035007 -0.014972 -0.005849
# 6 0.001860 0.004441 0.003216 -0.012740 -0.005849 0.018304
#
#
# Mechanical properties :
#
#
# Convention : Reuss Voigt Hill
#
# Bulk Modulus (GPa) = -29.57147 51.98260 11.20556
# Shear Modulus (GPa) = 102.53250 40.68188 71.60719
#
# Velocity S-wave (km/s) = 6.49209 4.08935 5.42540
# Velocity P-wave (km/s) = 6.63630 6.60795 6.62214
#
# Compressibility (1/GPa) = -0.03381638
#
# Stress axis : x y z
#
# Youngs Moduli (GPa) = 141.71819 174.73467 -2792.29148
#
# Poissons Ratio (x) = 0.84526 -7.26514
# Poissons Ratio (y) = 0.68555 -43.78167
# Poissons Ratio (z) = 0.36873 2.73975
#
# Static dielectric constant tensor:
#      x y z
#    x 1.943560 0.003600 0.012500 
#    y 0.003600 2.077860 -0.050380 
#    z 0.012500 -0.050380 2.006070 
# 
# From -- ./inp_files/43964.got.cif
#   From: 2010.05.17/outbox.cif.g08.bks.cpg/sg2_22_cif.got.tgz:43964.got - 2010.06.03 11:33:40.
