data_PCOD9040485
_publ_section_title
;
Structure prediction by ZEFSAII (Michael W. Deem and Ramdas Pophale) SiO2 
 PCOD9040485
Probable space group: P -1
;
_chemical_formula_sum "Si O2"
_cell_formula_units_Z 16
_cell_length_a 13.850835
_cell_length_b 14.137058
_cell_length_c 6.650732
_cell_angle_alpha 93.707786
_cell_angle_beta 110.448692
_cell_angle_gamma 138.758123
_cell_volume 682.150409
_symmetry_space_group_name_H-M "P -1"
_symmetry_group_IT_number 2
_symmetry_cell_setting 'triclinic'
loop_
_space_group_symop_operation_xyz
x,y,z
-x,-y,-z
loop_
_atom_site_type_symbol
_atom_site_label
_atom_site_fract_x
_atom_site_fract_y
_atom_site_fract_z
Si Si1 0.849905 0.588831 0.618298
Si Si2 0.089651 0.210173 0.993005
Si Si3 0.319789 0.924034 0.309785
Si Si4 0.245277 0.182375 0.401356
Si Si5 0.233601 0.693593 0.927496
Si Si6 0.898863 0.313021 0.526225
Si Si7 0.549654 0.266293 0.610324
Si Si8 0.299215 0.378499 0.774039
O O1 0.946835 0.734688 0.865256
O O2 0.733464 0.425802 0.640276
O O3 0.704011 0.540516 0.379480
O O4 0.981834 0.647559 0.552436
O O5 0.226133 0.239558 0.207200
O O6 0.186362 0.322383 0.880114
O O7 0.910617 0.015100 0.772729
O O8 0.194996 0.827940 0.404633
O O9 0.500000 0.000000 0.500000
O O10 0.404733 0.091415 0.356943
O O11 0.226713 0.786266 0.058485
O O12 0.441902 0.281257 0.577052
O O13 0.208679 0.218929 0.575066
O O14 0.250674 0.738486 0.713321
O O15 0.041107 0.490669 0.766291
O O16 0.387185 0.742874 0.145003
O O17 0.500000 0.500000 0.000000
#
# Coordination Sequence:
#
# PCOD9040485 Si02
#       8
#     2   2   2   2   2   2   2   2
#     4  11  27  42  69 105 134 179 232 274 337 413
#     4  10  23  46  69  97 143 178 225 281 337 401
#     4  10  25  47  68  98 137 176 221 289 343 393
#     4  10  23  43  67 103 133 183 225 281 335 406
#     4  10  26  45  71  94 136 177 226 284 335 404
#     4  11  26  45  72 100 130 185 232 271 343 414
#     4  11  25  44  68 100 140 175 227 283 344 395
#     4  11  23  42  71  99 141 179 228 278 340 401
#
# _framework density 23.45524
#
# number of rings (size 3 to 8) (size 9 to 14) (size 15 to 20)
#    0.000    1.500    0.000    2.250   15.750    4.000 
#    0.000    0.000    0.000    0.000    0.000    0.000 
#    0.000    0.000    0.000    0.000    0.000    0.000 
#
# Total GULP energy -89522.380029 kJ/mol
# GULP energy per Si atom -5595.148752 kJ/mol
# Density = 2.340185 g / cm^3
# Si number density = 23.455240 Si / 1000 Ang^3
#
#
#
# Elastic Constant Matrix: (Units=GPa)
#
#
# Indices 1 2 3 4 5 6 
#
# 1 96.1193 -3.2081 33.4041 11.4970 -0.2816 -1.8788
# 2 -3.2081 74.6946 29.5916 17.4295 -18.3765 -10.2543
# 3 33.4041 29.5916 132.2822 11.9839 -1.1665 -5.3997
# 4 11.4970 17.4295 11.9839 23.0467 -15.2685 -2.6621
# 5 -0.2816 -18.3765 -1.1665 -15.2685 43.1543 0.3854
# 6 -1.8788 -10.2543 -5.3997 -2.6621 0.3854 27.5162
#
#
#
# Elastic Compliance Matrix: (Units=1/GPa)
#
#
# Indices 1 2 3 4 5 6 
#
# 1 0.012610 0.003457 -0.003208 -0.008075 -0.001396 0.000758
# 2 0.003457 0.019482 -0.003978 -0.010888 0.004309 0.005602
# 3 -0.003208 -0.003978 0.009389 -0.001620 -0.002034 0.000013
# 4 -0.008075 -0.010888 -0.001620 0.069919 0.019991 0.001558
# 5 -0.001396 0.004309 -0.002034 0.019991 0.031993 0.002597
# 6 0.000758 0.005602 0.000013 0.001558 0.002597 0.038598
#
#
# Mechanical properties :
#
#
# Convention : Reuss Voigt Hill
#
# Bulk Modulus (GPa) = 29.39076 46.96347 38.17711
# Shear Modulus (GPa) = 24.90156 34.96402 29.93279
#
# Velocity S-wave (km/s) = 3.26185 3.86511 3.57622
# Velocity P-wave (km/s) = 5.17146 6.32335 5.77619
#
# Compressibility (1/GPa) = 0.03402430
#
# Stress axis : x y z
#
# Youngs Moduli (GPa) = 79.29943 51.32910 106.50978
#
# Poissons Ratio (x) = -0.17746 0.34164
# Poissons Ratio (y) = -0.27416 0.42371
# Poissons Ratio (z) = 0.25436 0.20419
#
# Static dielectric constant tensor:
#      x y z
#    x 1.915410 -0.028390 0.018550 
#    y -0.028390 1.838640 0.020550 
#    z 0.018550 0.020550 1.926500 
# 
# From -- ./inp_files/98215.got.cif
#   From: 2010.05.17/outbox.cif.g08.bks.cpg/sg2_50_cif.got.tgz:98215.got - 2010.06.03 11:33:40.
