data_PCOD9040968
_publ_section_title
;
Structure prediction by ZEFSAII (Michael W. Deem and Ramdas Pophale) SiO2 
 PCOD9040968
Probable space group: P -1
;
_chemical_formula_sum "Si O2"
_cell_formula_units_Z 12
_cell_length_a 5.495661
_cell_length_b 9.103126
_cell_length_c 14.534277
_cell_angle_alpha 39.763147
_cell_angle_beta 102.905140
_cell_angle_gamma 101.869447
_cell_volume 452.652825
_symmetry_space_group_name_H-M "P -1"
_symmetry_group_IT_number 2
_symmetry_cell_setting 'triclinic'
loop_
_space_group_symop_operation_xyz
x,y,z
-x,-y,-z
loop_
_atom_site_type_symbol
_atom_site_label
_atom_site_fract_x
_atom_site_fract_y
_atom_site_fract_z
Si Si1 0.402644 0.989535 0.892339
Si Si2 0.147246 0.881533 0.654472
Si Si3 0.609563 0.751575 0.855462
Si Si4 0.146481 0.530952 0.123362
Si Si5 0.508148 0.492741 0.339160
Si Si6 0.023945 0.327501 0.500277
O O1 0.594934 0.899227 0.876019
O O2 0.378053 0.256447 0.740993
O O3 0.171633 0.798046 0.970136
O O4 0.500000 0.000000 0.000000
O O5 0.441339 0.876126 0.705516
O O6 0.075707 0.606660 0.775997
O O7 0.067237 0.057995 0.643925
O O8 0.000000 0.000000 0.500000
O O9 0.837696 0.651059 0.869674
O O10 0.500000 0.500000 0.000000
O O11 0.383744 0.507988 0.221247
O O12 0.271877 0.417512 0.420462
O O13 0.742998 0.336282 0.431182
O O14 0.000000 0.500000 0.500000
#
# Coordination Sequence:
#
# PCOD9040968 Si02
#       6
#     2   2   2   2   2   2
#     4   9  21  45  69  99 140 192 247 305 364 437
#     4  12  25  43  71 106 145 192 240 307 371 444
#     4  10  23  43  70 103 139 188 247 304 366 439
#     4  10  23  43  70 100 143 185 247 301 371 433
#     4  11  24  47  67 104 142 195 245 302 367 437
#     4  12  27  43  71 102 149 193 247 299 371 443
#
# _framework density 26.510386
#
# number of rings (size 3 to 8) (size 9 to 14) (size 15 to 20)
#    0.000    1.333    1.667    2.500    4.667    4.000 
#    6.000    2.500    0.000    0.000    0.000    0.000 
#    0.000    0.000    0.000    0.000    0.000    0.000 
#
# Total GULP energy -66854.730142 kJ/mol
# GULP energy per Si atom -5571.227512 kJ/mol
# Density = 2.645005 g / cm^3
# Si number density = 26.510386 Si / 1000 Ang^3
#
#
#
# Elastic Constant Matrix: (Units=GPa)
#
#
# Indices 1 2 3 4 5 6 
#
# 1 127.5757 32.8772 73.5284 -7.2884 14.6400 -1.9024
# 2 32.8772 160.6675 44.1487 -12.1158 -3.5320 0.6897
# 3 73.5284 44.1487 137.4472 -33.2318 -10.5938 13.7517
# 4 -7.2884 -12.1158 -33.2318 69.6318 13.5503 0.5697
# 5 14.6400 -3.5320 -10.5938 13.5503 55.1246 -4.2291
# 6 -1.9024 0.6897 13.7517 0.5697 -4.2291 49.1793
#
#
#
# Elastic Compliance Matrix: (Units=1/GPa)
#
#
# Indices 1 2 3 4 5 6 
#
# 1 0.012840 -0.000773 -0.007563 -0.001571 -0.004353 0.002266
# 2 -0.000773 0.006888 -0.001763 0.000218 0.000284 0.000388
# 3 -0.007563 -0.001763 0.013690 0.004877 0.003029 -0.003892
# 4 -0.001571 0.000218 0.004877 0.017160 -0.002994 -0.001884
# 5 -0.004353 0.000284 0.003029 -0.002994 0.020694 0.000795
# 6 0.002266 0.000388 -0.003892 -0.001884 0.000795 0.021594
#
#
# Mechanical properties :
#
#
# Convention : Reuss Voigt Hill
#
# Bulk Modulus (GPa) = 75.64606 80.75542 78.20074
# Shear Modulus (GPa) = 42.56384 53.12955 47.84670
#
# Velocity S-wave (km/s) = 4.01128 4.48158 4.25294
# Velocity P-wave (km/s) = 7.07462 7.57016 7.32658
#
# Compressibility (1/GPa) = 0.01321946
#
# Stress axis : x y z
#
# Youngs Moduli (GPa) = 77.88147 145.18607 73.04829
#
# Poissons Ratio (x) = 0.11227 0.55244
# Poissons Ratio (y) = 0.06022 0.12879
# Poissons Ratio (z) = 0.58899 0.25597
#
# Static dielectric constant tensor:
#      x y z
#    x -41.567250 21.400180 43.905190 
#    y 21.400180 -8.324970 -21.350860 
#    z 43.905190 -21.350860 -41.973510 
# 
# From -- ./inp_files/28946.got.cif
#   From: 2010.05.17/outbox.cif.g08.bks.cpg/sg2_15_cif.got.tgz:28946.got - 2010.06.03 11:33:40.
