data_PCOD9040908
_publ_section_title
;
Structure prediction by ZEFSAII (Michael W. Deem and Ramdas Pophale) SiO2 
 PCOD9040908
Probable space group: P -1
;
_chemical_formula_sum "Si O2"
_cell_formula_units_Z 14
_cell_length_a 10.291227
_cell_length_b 9.176022
_cell_length_c 19.062483
_cell_angle_alpha 67.456519
_cell_angle_beta 27.318016
_cell_angle_gamma 56.170169
_cell_volume 656.386609
_symmetry_space_group_name_H-M "P -1"
_symmetry_group_IT_number 2
_symmetry_cell_setting 'triclinic'
loop_
_space_group_symop_operation_xyz
x,y,z
-x,-y,-z
loop_
_atom_site_type_symbol
_atom_site_label
_atom_site_fract_x
_atom_site_fract_y
_atom_site_fract_z
Si Si1 0.956569 0.184484 0.452139
Si Si2 0.849391 0.341476 0.329080
Si Si3 0.157915 0.074534 0.110156
Si Si4 0.761828 0.668936 0.251439
Si Si5 0.663774 0.970661 0.351322
Si Si6 0.314783 0.320391 0.354282
Si Si7 0.035850 0.671735 0.974879
O O1 0.011950 0.194705 0.340614
O O2 0.564834 0.324033 0.624298
O O3 0.188839 0.244790 0.366274
O O4 0.000000 0.000000 0.500000
O O5 0.500000 0.500000 0.500000
O O6 0.994771 0.467423 0.209277
O O7 0.874590 0.229284 0.268272
O O8 0.036651 0.930217 0.184888
O O9 0.152177 0.168274 0.021961
O O10 0.500000 0.000000 0.000000
O O11 0.655019 0.814890 0.338162
O O12 0.905183 0.721791 0.107446
O O13 0.464524 0.158893 0.369245
O O14 0.500000 0.000000 0.500000
O O15 0.594259 0.367800 0.194203
O O16 0.000000 0.500000 0.500000
O O17 0.000000 0.500000 0.000000
#
# Coordination Sequence:
#
# PCOD9040908 Si02
#       7
#     2   2   2   2   2   2   2
#     4  11  23  42  68 100 132 173 233 278 333 410
#     4  10  23  43  69  96 134 184 229 274 343 414
#     4  11  26  43  68 100 137 180 229 289 345 408
#     4  11  23  44  71  97 138 184 219 284 349 402
#     4  11  25  44  68 100 138 179 228 283 342 408
#     4  11  26  42  68 101 133 182 231 279 338 415
#     4  11  24  47  69  96 142 177 227 283 349 401
#
# _framework density 21.328893000000001
#
# number of rings (size 3 to 8) (size 9 to 14) (size 15 to 20)
#    0.000    1.143    2.857    2.571   10.000    4.571 
#    0.000    1.429    0.000    0.000    0.000    0.000 
#    0.000    0.000    0.000    0.000    0.000    0.000 
#
# Total GULP energy -78144.069114 kJ/mol
# GULP energy per Si atom -5581.719222 kJ/mol
# Density = 2.128035 g / cm^3
# Si number density = 21.328893 Si / 1000 Ang^3
#
#
#
# Elastic Constant Matrix: (Units=GPa)
#
#
# Indices 1 2 3 4 5 6 
#
# 1 125.1126 42.6598 54.4149 -23.5797 10.5188 1.2625
# 2 42.6598 82.9351 23.7670 -24.5305 -0.8044 -1.4939
# 3 54.4149 23.7670 99.5221 -23.7832 -8.2815 -7.3159
# 4 -23.5797 -24.5305 -23.7832 36.3621 0.2550 5.5362
# 5 10.5188 -0.8044 -8.2815 0.2550 55.3919 -10.4926
# 6 1.2625 -1.4939 -7.3159 5.5362 -10.4926 39.5085
#
#
#
# Elastic Compliance Matrix: (Units=1/GPa)
#
#
# Indices 1 2 3 4 5 6 
#
# 1 0.012865 -0.004412 -0.006088 0.001873 -0.004000 -0.003030
# 2 -0.004412 0.016783 0.000611 0.008861 0.001122 -0.000055
# 3 -0.006088 0.000611 0.015215 0.005888 0.004034 0.003281
# 4 0.001873 0.008861 0.005888 0.039189 -0.000325 -0.004212
# 5 -0.004000 0.001122 0.004034 -0.000325 0.020655 0.006448
# 6 -0.003030 -0.000055 0.003281 -0.004212 0.006448 0.028316
#
#
# Mechanical properties :
#
#
# Convention : Reuss Voigt Hill
#
# Bulk Modulus (GPa) = 39.86519 61.02814 50.44667
# Shear Modulus (GPa) = 31.02458 38.70106 34.86282
#
# Velocity S-wave (km/s) = 3.81803 4.26430 4.04732
# Velocity P-wave (km/s) = 6.17801 7.27466 6.74865
#
# Compressibility (1/GPa) = 0.02508454
#
# Stress axis : x y z
#
# Youngs Moduli (GPa) = 77.72943 59.58514 65.72492
#
# Poissons Ratio (x) = 0.26289 0.40016
# Poissons Ratio (y) = 0.34294 -0.04018
# Poissons Ratio (z) = 0.47325 -0.03643
#
# Static dielectric constant tensor:
#      x y z
#    x 1.801300 -0.010270 -0.013510 
#    y -0.010270 1.807660 -0.009950 
#    z -0.013510 -0.009950 1.809570 
# 
# From -- ./inp_files/155021.got.cif
#   From: 2010.05.17/outbox.cif.g08.bks.cpg/sg2_78_cif.got.tgz:155021.got - 2010.06.03 11:33:40.
