data_PCOD9040261
_publ_section_title
;
Structure prediction by ZEFSAII (Michael W. Deem and Ramdas Pophale) SiO2 
 PCOD9040261
Probable space group: P -1
;
_chemical_formula_sum "Si O2"
_cell_formula_units_Z 16
_cell_length_a 11.222013
_cell_length_b 8.525015
_cell_length_c 18.151615
_cell_angle_alpha 112.783877
_cell_angle_beta 35.327150
_cell_angle_gamma 126.159850
_cell_volume 794.061519
_symmetry_space_group_name_H-M "P -1"
_symmetry_group_IT_number 2
_symmetry_cell_setting 'triclinic'
loop_
_space_group_symop_operation_xyz
x,y,z
-x,-y,-z
loop_
_atom_site_type_symbol
_atom_site_label
_atom_site_fract_x
_atom_site_fract_y
_atom_site_fract_z
Si Si1 0.108153 0.516700 0.190096
Si Si2 0.600413 0.034035 0.641725
Si Si3 0.210292 0.423391 0.957773
Si Si4 0.724274 0.090444 0.347982
Si Si5 0.344526 0.953719 0.143150
Si Si6 0.325538 0.587810 0.248742
Si Si7 0.689735 0.207148 0.128265
Si Si8 0.982209 0.865350 0.659375
O O1 0.128066 0.727761 0.211925
O O2 0.293160 0.558688 0.171280
O O3 0.856935 0.325539 0.306142
O O4 0.178759 0.475115 0.067107
O O5 0.708096 0.237714 0.670474
O O6 0.801766 0.031634 0.489120
O O7 0.392323 0.017916 0.689261
O O8 0.472411 0.846868 0.726902
O O9 0.418210 0.373155 0.847047
O O10 0.278130 0.608800 0.902868
O O11 0.950980 0.253422 0.028919
O O12 0.920344 0.073009 0.294482
O O13 0.500000 0.000000 0.500000
O O14 0.541623 0.013149 0.118033
O O15 0.226024 0.086931 0.237592
O O16 0.500000 0.000000 0.000000
O O17 0.125837 0.369416 0.337752
#
# Coordination Sequence:
#
# PCOD9040261 Si02
#       8
#     2   2   2   2   2   2   2   2
#     4  11  21  40  65  90 126 166 211 262 308 375
#     4  11  22  42  63  92 127 164 211 255 312 373
#     4  11  23  41  62  91 130 168 206 260 317 369
#     4   9  21  43  64  88 125 163 209 261 311 370
#     4  12  23  42  64  95 128 166 211 255 314 376
#     4  11  22  39  64  97 119 166 211 259 313 368
#     4  11  23  41  60  93 133 164 206 260 312 369
#     4  10  23  43  65  91 127 167 204 262 310 370
#
# _framework density 20.149573
#
# number of rings (size 3 to 8) (size 9 to 14) (size 15 to 20)
#    0.000    1.250    5.000    0.750    0.000    3.000 
#    0.000    2.500    0.000    0.000    0.000    0.000 
#    0.000    0.000    0.000    0.000    0.000    0.000 
#
# Total GULP energy -89190.472919 kJ/mol
# GULP energy per Si atom -5574.404557 kJ/mol
# Density = 2.010371 g / cm^3
# Si number density = 20.149573 Si / 1000 Ang^3
#
#
#
# Elastic Constant Matrix: (Units=GPa)
#
#
# Indices 1 2 3 4 5 6 
#
# 1 97.2068 10.9387 48.2205 -9.3045 12.9078 23.3813
# 2 10.9387 58.8555 30.9170 -23.8254 11.1626 7.5741
# 3 48.2205 30.9170 91.7298 -21.4255 16.5178 -3.1667
# 4 -9.3045 -23.8254 -21.4255 27.5428 -3.4315 7.7002
# 5 12.9078 11.1626 16.5178 -3.4315 35.3538 -7.0598
# 6 23.3813 7.5741 -3.1667 7.7002 -7.0598 32.9923
#
#
#
# Elastic Compliance Matrix: (Units=1/GPa)
#
#
# Indices 1 2 3 4 5 6 
#
# 1 0.026192 0.016706 -0.013527 0.019869 -0.012793 -0.031070
# 2 0.016706 0.047035 -0.012007 0.045399 -0.018595 -0.038365
# 3 -0.013527 -0.012007 0.021867 -0.002028 0.001353 0.015205
# 4 0.019869 0.045399 -0.002028 0.092220 -0.021854 -0.050898
# 5 -0.012793 -0.018595 0.001353 -0.021854 0.041558 0.027458
# 6 -0.031070 -0.038365 0.015205 -0.050898 0.027458 0.080351
#
#
# Mechanical properties :
#
#
# Convention : Reuss Voigt Hill
#
# Bulk Modulus (GPa) = 12.91362 47.54938 30.23150
# Shear Modulus (GPa) = 14.17669 29.69218 21.93443
#
# Velocity S-wave (km/s) = 2.65537 3.84290 3.30294
# Velocity P-wave (km/s) = 3.97796 6.58331 5.43894
#
# Compressibility (1/GPa) = 0.07743762
#
# Stress axis : x y z
#
# Youngs Moduli (GPa) = 38.18007 21.26069 45.73092
#
# Poissons Ratio (x) = -0.35518 0.61861
# Poissons Ratio (y) = -0.63783 0.54909
# Poissons Ratio (z) = 0.51647 0.25527
#
# Static dielectric constant tensor:
#      x y z
#    x 1.767650 -0.000230 0.026600 
#    y -0.000230 1.740360 -0.043250 
#    z 0.026600 -0.043250 1.679380 
# 
# From -- ./inp_files/206891.got.cif
#   From: 2010.05.17/outbox.cif.g08.bks.cpg/sg2_104_cif.got.tgz:206891.got - 2010.06.03 11:33:40.
