data_PCOD9040743
_publ_section_title
;
Structure prediction by ZEFSAII (Michael W. Deem and Ramdas Pophale) SiO2 
 PCOD9040743
Probable space group: P -1
;
_chemical_formula_sum "Si O2"
_cell_formula_units_Z 16
_cell_length_a 18.823061
_cell_length_b 8.938417
_cell_length_c 8.757876
_cell_angle_alpha 120.869754
_cell_angle_beta 99.858544
_cell_angle_gamma 127.131076
_cell_volume 717.315473
_symmetry_space_group_name_H-M "P -1"
_symmetry_group_IT_number 2
_symmetry_cell_setting 'triclinic'
loop_
_space_group_symop_operation_xyz
x,y,z
-x,-y,-z
loop_
_atom_site_type_symbol
_atom_site_label
_atom_site_fract_x
_atom_site_fract_y
_atom_site_fract_z
Si Si1 0.902093 0.817846 0.725961
Si Si2 0.983114 0.651673 0.158892
Si Si3 0.528739 0.854570 0.472710
Si Si4 0.623272 0.861381 0.229777
Si Si5 0.277717 0.823643 0.041014
Si Si6 0.028409 0.750768 0.585536
Si Si7 0.358955 0.774244 0.781224
Si Si8 0.271572 0.139792 0.975230
O O1 0.748094 0.529900 0.524758
O O2 0.927796 0.686095 0.579362
O O3 0.950145 0.071776 0.773755
O O4 0.000000 0.000000 0.000000
O O5 0.032505 0.759259 0.408357
O O6 0.000000 0.500000 0.000000
O O7 0.836551 0.403810 0.002411
O O8 0.626395 0.965674 0.445000
O O9 0.399846 0.495225 0.226308
O O10 0.500000 0.000000 0.500000
O O11 0.590618 0.931871 0.696636
O O12 0.611053 0.986986 0.167170
O O13 0.500000 0.500000 0.000000
O O14 0.729483 0.951547 0.242207
O O15 0.262635 0.970512 0.011091
O O16 0.284607 0.668433 0.854130
O O17 0.000000 0.500000 0.500000
O O18 0.157629 0.047623 0.875614
O O19 0.500000 0.000000 0.000000
#
# Coordination Sequence:
#
# PCOD9040743 Si02
#       8
#     2   2   2   2   2   2   2   2
#     4  12  29  48  74 110 149 193 247 310 366 443
#     4  12  28  48  74 106 146 197 245 302 367 443
#     4  11  24  39  66 105 139 180 238 295 354 428
#     4   9  21  42  63  99 133 185 230 286 349 432
#     4  11  24  45  71 101 145 185 241 294 362 433
#     4  12  23  47  75 102 143 187 243 296 371 432
#     4  11  24  47  72 101 143 185 235 298 367 427
#     4  10  23  43  68  97 139 189 228 293 362 431
#
# _framework density 22.305387
#
# number of rings (size 3 to 8) (size 9 to 14) (size 15 to 20)
#    0.000    1.000    2.500    3.000    5.250    3.000 
#    4.500    0.000    0.000    0.000    0.000    0.000 
#    0.000    0.000    0.000    0.000    0.000    0.000 
#
# Total GULP energy -89211.116193 kJ/mol
# GULP energy per Si atom -5575.694762 kJ/mol
# Density = 2.225462 g / cm^3
# Si number density = 22.305387 Si / 1000 Ang^3
#
#
#
# Elastic Constant Matrix: (Units=GPa)
#
#
# Indices 1 2 3 4 5 6 
#
# 1 80.8706 19.4345 57.3602 3.7735 16.9166 1.4115
# 2 19.4345 86.0567 31.4194 15.6808 1.1094 -12.7277
# 3 57.3602 31.4194 136.8149 -8.5603 35.5327 -3.5480
# 4 3.7735 15.6808 -8.5603 45.6638 0.3854 -2.0436
# 5 16.9166 1.1094 35.5327 0.3854 50.8903 2.3480
# 6 1.4115 -12.7277 -3.5480 -2.0436 2.3480 31.9412
#
#
#
# Elastic Compliance Matrix: (Units=1/GPa)
#
#
# Indices 1 2 3 4 5 6 
#
# 1 0.018211 -0.001286 -0.007358 -0.002536 -0.000766 -0.002240
# 2 -0.001286 0.015026 -0.003791 -0.005559 0.002555 0.005080
# 3 -0.007358 -0.003791 0.013365 0.004522 -0.006888 0.001095
# 4 -0.002536 -0.005559 0.004522 0.024893 -0.002390 0.000168
# 5 -0.000766 0.002555 -0.006888 -0.002390 0.024754 -0.001686
# 6 -0.002240 0.005080 0.001095 0.000168 -0.001686 0.033687
#
#
# Mechanical properties :
#
#
# Convention : Reuss Voigt Hill
#
# Bulk Modulus (GPa) = 46.01411 57.79671 51.90541
# Shear Modulus (GPa) = 30.85498 38.73426 34.79462
#
# Velocity S-wave (km/s) = 3.72331 4.17171 3.95387
# Velocity P-wave (km/s) = 6.25763 7.01227 6.64567
#
# Compressibility (1/GPa) = 0.02173246
#
# Stress axis : x y z
#
# Youngs Moduli (GPa) = 54.91302 66.55144 74.82374
#
# Poissons Ratio (x) = 0.08556 0.55052
# Poissons Ratio (y) = 0.07059 0.28368
# Poissons Ratio (z) = 0.40403 0.25231
#
# Static dielectric constant tensor:
#      x y z
#    x 1.827140 0.069120 -0.155950 
#    y 0.069120 1.684410 -0.026710 
#    z -0.155950 -0.026710 1.505420 
# 
# From -- ./inp_files/343778.got.cif
#   From: 2010.05.17/outbox.cif.g08.bks.cpg/sg2_172_cif.got.tgz:343778.got - 2010.06.03 11:33:40.
