data_PCOD9040239
_publ_section_title
;
Structure prediction by ZEFSAII (Michael W. Deem and Ramdas Pophale) SiO2 
 PCOD9040239
Probable space group: P -1
;
_chemical_formula_sum "Si O2"
_cell_formula_units_Z 10
_cell_length_a 9.199242
_cell_length_b 9.128492
_cell_length_c 5.020589
_cell_angle_alpha 88.050365
_cell_angle_beta 60.216377
_cell_angle_gamma 90.581076
_cell_volume 365.524565
_symmetry_space_group_name_H-M "P -1"
_symmetry_group_IT_number 2
_symmetry_cell_setting 'triclinic'
loop_
_space_group_symop_operation_xyz
x,y,z
-x,-y,-z
loop_
_atom_site_type_symbol
_atom_site_label
_atom_site_fract_x
_atom_site_fract_y
_atom_site_fract_z
Si Si1 0.660188 0.587375 0.969235
Si Si2 0.679488 0.171510 0.356901
Si Si3 0.663928 0.843194 0.604548
Si Si4 0.022544 0.896930 0.233724
Si Si5 0.830756 0.475078 0.326868
O O1 0.641566 0.761123 0.913645
O O2 0.191084 0.466658 0.357474
O O3 0.500000 0.500000 0.000000
O O4 0.696647 0.542330 0.238635
O O5 0.495555 0.207092 0.420375
O O6 0.779268 0.302333 0.405378
O O7 0.666129 0.019573 0.546268
O O8 0.793427 0.158149 0.985416
O O9 0.853773 0.797742 0.364508
O O10 0.000000 0.000000 0.500000
O O11 0.000000 0.000000 0.000000
O O12 0.000000 0.500000 0.000000
#
# Coordination Sequence:
#
# PCOD9040239 Si02
#       5
#     2   2   2   2   2
#     4  12  26  48  71 107 149 193 240 300 372 437
#     4  10  23  46  73 109 139 189 249 294 359 434
#     4  10  23  45  74 103 145 188 239 299 361 426
#     4  10  23  43  65 101 141 178 228 294 356 417
#     4  12  27  49  76 106 149 194 246 302 367 441
#
# _framework density 27.357941
#
# number of rings (size 3 to 8) (size 9 to 14) (size 15 to 20)
#    0.000    1.200    2.000    2.400    0.000   10.400 
#    3.600    0.000    0.000    0.000    0.000    0.000 
#    0.000    0.000    0.000    0.000    0.000    0.000 
#
# Total GULP energy -55920.130316 kJ/mol
# GULP energy per Si atom -5592.013032 kJ/mol
# Density = 2.729567 g / cm^3
# Si number density = 27.357941 Si / 1000 Ang^3
#
#
#
# Elastic Constant Matrix: (Units=GPa)
#
#
# Indices 1 2 3 4 5 6 
#
# 1 115.4219 3.7605 44.4096 5.2103 -36.4204 4.5433
# 2 3.7605 136.4006 48.3489 -21.9861 -9.4087 -1.9013
# 3 44.4096 48.3489 143.1864 8.2749 5.5322 -11.1399
# 4 5.2103 -21.9861 8.2749 66.8873 -1.3774 -2.8164
# 5 -36.4204 -9.4087 5.5322 -1.3774 63.6267 -7.7379
# 6 4.5433 -1.9013 -11.1399 -2.8164 -7.7379 34.0311
#
#
#
# Elastic Compliance Matrix: (Units=1/GPa)
#
#
# Indices 1 2 3 4 5 6 
#
# 1 0.013248 0.002119 -0.005281 0.000424 0.008185 -0.001483
# 2 0.002119 0.009548 -0.004215 0.003552 0.003051 -0.000142
# 3 -0.005281 -0.004215 0.010556 -0.002252 -0.004276 0.002766
# 4 0.000424 0.003552 -0.002252 0.016440 0.001453 0.001096
# 5 0.008185 0.003051 -0.004276 0.001453 0.021585 0.002706
# 6 -0.001483 -0.000142 0.002766 0.001096 0.002706 0.031186
#
#
# Mechanical properties :
#
#
# Convention : Reuss Voigt Hill
#
# Bulk Modulus (GPa) = 53.76972 65.33856 59.55414
# Shear Modulus (GPa) = 40.48026 52.80835 46.64431
#
# Velocity S-wave (km/s) = 3.85080 4.39826 4.13360
# Velocity P-wave (km/s) = 6.28238 7.05178 6.67817
#
# Compressibility (1/GPa) = 0.01859783
#
# Stress axis : x y z
#
# Youngs Moduli (GPa) = 75.48053 104.73297 94.73647
#
# Poissons Ratio (x) = -0.22190 0.50026
# Poissons Ratio (y) = -0.15992 0.39935
# Poissons Ratio (z) = 0.39858 0.44148
#
# Static dielectric constant tensor:
#      x y z
#    x 2.197860 -0.001560 -0.141930 
#    y -0.001560 2.251880 0.083850 
#    z -0.141930 0.083850 2.140950 
# 
# From -- ./inp_files/18791.got.cif
#   From: 2010.05.17/outbox.cif.g08.bks.cpg/sg2_10_cif.got.tgz:18791.got - 2010.06.03 11:33:40.
