data_PCOD9040479
_publ_section_title
;
Structure prediction by ZEFSAII (Michael W. Deem and Ramdas Pophale) SiO2 
 PCOD9040479
Probable space group: P -1
;
_chemical_formula_sum "Si O2"
_cell_formula_units_Z 16
_cell_length_a 8.903177
_cell_length_b 12.950697
_cell_length_c 8.172781
_cell_angle_alpha 82.625141
_cell_angle_beta 77.869880
_cell_angle_gamma 49.044966
_cell_volume 695.732833
_symmetry_space_group_name_H-M "P -1"
_symmetry_group_IT_number 2
_symmetry_cell_setting 'triclinic'
loop_
_space_group_symop_operation_xyz
x,y,z
-x,-y,-z
loop_
_atom_site_type_symbol
_atom_site_label
_atom_site_fract_x
_atom_site_fract_y
_atom_site_fract_z
Si Si1 0.794141 0.089881 0.436468
Si Si2 0.123470 0.405607 0.645018
Si Si3 0.137042 0.038334 0.906316
Si Si4 0.427867 0.145805 0.500573
Si Si5 0.417830 0.212700 0.115028
Si Si6 0.978885 0.678908 0.012915
Si Si7 0.426662 0.436633 0.921241
Si Si8 0.472277 0.631004 0.435515
O O1 0.609271 0.117022 0.568478
O O2 0.695244 0.247944 0.427371
O O3 0.824826 0.009302 0.282776
O O4 0.000000 0.000000 0.500000
O O5 0.217853 0.251542 0.612966
O O6 0.021518 0.417820 0.835535
O O7 0.317369 0.396740 0.603310
O O8 0.000000 0.500000 0.500000
O O9 0.040151 0.193732 0.938002
O O10 0.364707 0.933150 0.950887
O O11 0.000000 0.000000 0.000000
O O12 0.401606 0.208356 0.315775
O O13 0.500000 0.000000 0.500000
O O14 0.221036 0.250484 0.065987
O O15 0.426824 0.329598 0.042876
O O16 0.195631 0.568419 0.898388
O O17 0.573717 0.351489 0.750975
O O18 0.500000 0.500000 0.000000
O O19 0.500000 0.500000 0.500000
#
# Coordination Sequence:
#
# PCOD9040479 Si02
#       8
#     2   2   2   2   2   2   2   2
#     4  10  25  45  69  96 140 181 237 286 357 430
#     4  11  24  43  71 102 142 185 240 295 352 433
#     4  11  26  44  73 108 144 189 241 303 364 428
#     4  10  23  43  67 102 137 182 229 293 353 416
#     4  11  24  47  72 103 148 189 248 298 357 443
#     4  12  26  46  75 108 142 197 244 297 373 432
#     4  12  28  46  74 105 150 189 246 303 364 438
#     4  11  28  46  70 104 143 191 242 294 368 428
#
# _framework density 22.997333999999999
#
# number of rings (size 3 to 8) (size 9 to 14) (size 15 to 20)
#    0.000    1.000    1.250    3.750   14.000    2.000 
#    0.000    0.000    0.000    0.000    0.000    0.000 
#    0.000    0.000    0.000    0.000    0.000    0.000 
#
# Total GULP energy -89239.436525 kJ/mol
# GULP energy per Si atom -5577.464783 kJ/mol
# Density = 2.294499 g / cm^3
# Si number density = 22.997334 Si / 1000 Ang^3
#
#
#
# Elastic Constant Matrix: (Units=GPa)
#
#
# Indices 1 2 3 4 5 6 
#
# 1 98.1587 30.5760 22.2754 -8.6903 14.8354 -1.0460
# 2 30.5760 137.0647 11.8014 8.4855 3.8330 12.1100
# 3 22.2754 11.8014 71.1232 0.8786 3.0003 3.3805
# 4 -8.6903 8.4855 0.8786 30.7416 2.2196 -2.2076
# 5 14.8354 3.8330 3.0003 2.2196 35.9593 -2.5681
# 6 -1.0460 12.1100 3.3805 -2.2076 -2.5681 47.9302
#
#
#
# Elastic Compliance Matrix: (Units=1/GPa)
#
#
# Indices 1 2 3 4 5 6 
#
# 1 0.013116 -0.002903 -0.003535 0.005062 -0.005031 0.001233
# 2 -0.002903 0.008370 -0.000346 -0.003312 0.000376 -0.002286
# 3 -0.003535 -0.000346 0.015286 -0.001438 0.000228 -0.001122
# 4 0.005062 -0.003312 -0.001438 0.035355 -0.003620 0.002483
# 5 -0.005031 0.000376 0.000228 -0.003620 0.030137 0.001227
# 6 0.001233 -0.002286 -0.001122 0.002483 0.001227 0.021727
#
#
# Mechanical properties :
#
#
# Convention : Reuss Voigt Hill
#
# Bulk Modulus (GPa) = 43.09625 48.40582 45.75103
# Shear Modulus (GPa) = 34.41317 39.03915 36.72616
#
# Velocity S-wave (km/s) = 3.87253 4.12460 4.00055
# Velocity P-wave (km/s) = 6.22701 6.61644 6.42468
#
# Compressibility (1/GPa) = 0.02320388
#
# Stress axis : x y z
#
# Youngs Moduli (GPa) = 76.24447 119.47799 65.41908
#
# Poissons Ratio (x) = 0.34685 0.23125
# Poissons Ratio (y) = 0.22134 0.02262
# Poissons Ratio (z) = 0.26952 0.04132
#
# Static dielectric constant tensor:
#      x y z
#    x 1.934760 0.010860 -0.035830 
#    y 0.010860 1.901030 0.010870 
#    z -0.035830 0.010870 1.908780 
# 
# From -- ./inp_files/186644.got.cif
#   From: 2010.05.17/outbox.cif.g08.bks.cpg/sg2_94_cif.got.tgz:186644.got - 2010.06.03 11:33:40.
