data_PCOD9040120
_publ_section_title
;
Structure prediction by ZEFSAII (Michael W. Deem and Ramdas Pophale) SiO2 
 PCOD9040120
Probable space group: P -1
;
_chemical_formula_sum "Si O2"
_cell_formula_units_Z 12
_cell_length_a 16.102606
_cell_length_b 20.161698
_cell_length_c 9.691676
_cell_angle_alpha 139.364912
_cell_angle_beta 39.348841
_cell_angle_gamma 164.480652
_cell_volume 532.024405
_symmetry_space_group_name_H-M "P -1"
_symmetry_group_IT_number 2
_symmetry_cell_setting 'triclinic'
loop_
_space_group_symop_operation_xyz
x,y,z
-x,-y,-z
loop_
_atom_site_type_symbol
_atom_site_label
_atom_site_fract_x
_atom_site_fract_y
_atom_site_fract_z
Si Si1 0.749944 0.253260 0.755504
Si Si2 0.162013 0.004158 0.623895
Si Si3 0.428882 0.093147 0.665723
Si Si4 0.167285 0.244940 0.945527
Si Si5 0.466511 0.758379 0.747976
Si Si6 0.507737 0.555416 0.427869
O O1 0.605138 0.039981 0.574065
O O2 0.112994 0.500669 0.728749
O O3 0.719064 0.294983 0.718778
O O4 0.556494 0.173659 0.997960
O O5 0.411127 0.164415 0.681151
O O6 0.837841 0.715659 0.621333
O O7 0.089847 0.071269 0.799101
O O8 0.296043 0.054559 0.388572
O O9 0.116098 0.889067 0.840959
O O10 0.233310 0.303293 0.789715
O O11 0.500000 0.500000 0.000000
O O12 0.546456 0.704134 0.621338
O O13 0.500000 0.500000 0.500000
#
# Coordination Sequence:
#
# PCOD9040120 Si02
#       6
#     2   2   2   2   2   2
#     4  10  23  43  63  90 133 169 212 262 301 385
#     4  11  23  41  69  93 126 167 211 266 323 369
#     4  11  22  41  66  95 127 170 212 253 326 373
#     4  11  23  41  66  95 131 159 207 273 318 373
#     4  10  23  45  65  92 130 165 216 264 310 374
#     4  11  25  41  66  98 125 163 215 263 323 374
#
# _framework density 22.555357000000001
#
# number of rings (size 3 to 8) (size 9 to 14) (size 15 to 20)
#    0.000    1.333    3.333    1.500    4.667    2.667 
#    0.000    0.000    0.000    0.000    0.000    0.000 
#    0.000    0.000    0.000    0.000    0.000    0.000 
#
# Total GULP energy -67163.869313 kJ/mol
# GULP energy per Si atom -5596.989109 kJ/mol
# Density = 2.250402 g / cm^3
# Si number density = 22.555357 Si / 1000 Ang^3
#
#
#
# Elastic Constant Matrix: (Units=GPa)
#
#
# Indices 1 2 3 4 5 6 
#
# 1 139.0016 4.7989 30.4549 -12.6042 25.8904 -7.0447
# 2 4.7989 41.0741 35.5692 -8.1573 2.0342 -9.3762
# 3 30.4549 35.5692 159.5056 -17.2582 14.4323 -10.0096
# 4 -12.6042 -8.1573 -17.2582 19.8137 -0.0254 12.4756
# 5 25.8904 2.0342 14.4323 -0.0254 24.0701 -3.2709
# 6 -7.0447 -9.3762 -10.0096 12.4756 -3.2709 33.4563
#
#
#
# Elastic Compliance Matrix: (Units=1/GPa)
#
#
# Indices 1 2 3 4 5 6 
#
# 1 0.009794 0.000811 -0.000418 0.007153 -0.010554 -0.001535
# 2 0.000811 0.032056 -0.006571 0.004437 0.001131 0.005644
# 3 -0.000418 -0.006571 0.008732 0.005848 -0.004487 -0.001936
# 4 0.007153 0.004437 0.005848 0.078429 -0.015055 -0.026218
# 5 -0.010554 0.001131 -0.004487 -0.015055 0.056549 0.007895
# 6 -0.001535 0.005644 -0.001936 -0.026218 0.007895 0.041118
#
#
# Mechanical properties :
#
#
# Convention : Reuss Voigt Hill
#
# Bulk Modulus (GPa) = 26.16122 53.46970 39.81546
# Shear Modulus (GPa) = 19.85890 33.38524 26.62207
#
# Velocity S-wave (km/s) = 2.97046 3.85144 3.43928
# Velocity P-wave (km/s) = 4.83619 6.59815 5.78465
#
# Compressibility (1/GPa) = 0.03822451
#
# Stress axis : x y z
#
# Youngs Moduli (GPa) = 102.09948 31.19575 114.52424
#
# Poissons Ratio (x) = -0.02530 0.04791
# Poissons Ratio (y) = -0.08279 0.75255
# Poissons Ratio (z) = 0.04272 0.20499
#
# Static dielectric constant tensor:
#      x y z
#    x 1.887860 0.042150 0.022950 
#    y 0.042150 1.829550 0.011560 
#    z 0.022950 0.011560 1.804380 
# 
# From -- ./inp_files/20306.got.cif
#   From: 2010.05.17/outbox.cif.g08.bks.cpg/sg2_11_cif.got.tgz:20306.got - 2010.06.03 11:33:40.
