data_PCOD9040754
_publ_section_title
;
Structure prediction by ZEFSAII (Michael W. Deem and Ramdas Pophale) SiO2 
 PCOD9040754
Probable space group: P -1
;
_chemical_formula_sum "Si O2"
_cell_formula_units_Z 16
_cell_length_a 8.415542
_cell_length_b 14.228665
_cell_length_c 14.812018
_cell_angle_alpha 29.107141
_cell_angle_beta 54.785319
_cell_angle_gamma 56.336498
_cell_volume 699.165452
_symmetry_space_group_name_H-M "P -1"
_symmetry_group_IT_number 2
_symmetry_cell_setting 'triclinic'
loop_
_space_group_symop_operation_xyz
x,y,z
-x,-y,-z
loop_
_atom_site_type_symbol
_atom_site_label
_atom_site_fract_x
_atom_site_fract_y
_atom_site_fract_z
Si Si1 0.298710 0.589784 0.824491
Si Si2 0.561581 0.268816 0.667341
Si Si3 0.981108 0.260912 0.462688
Si Si4 0.974985 0.029436 0.167446
Si Si5 0.693961 0.063033 0.986372
Si Si6 0.584605 0.257262 0.047162
Si Si7 0.658230 0.978142 0.550377
Si Si8 0.942633 0.624583 0.053800
O O1 0.322264 0.805303 0.605743
O O2 0.228099 0.458003 0.878051
O O3 0.501503 0.483214 0.887556
O O4 0.128447 0.606365 0.941456
O O5 0.500000 0.500000 0.500000
O O6 0.614066 0.183447 0.822111
O O7 0.751691 0.238219 0.565822
O O8 0.398295 0.137394 0.800227
O O9 0.988110 0.480836 0.244737
O O10 0.056994 0.176250 0.606084
O O11 0.127840 0.125321 0.463354
O O12 0.776424 0.174668 0.108521
O O13 0.081147 0.994416 0.067793
O O14 0.107849 0.154259 0.081817
O O15 0.640466 0.192994 0.981626
O O16 0.416764 0.148205 0.239079
O O17 0.500000 0.000000 0.500000
#
# Coordination Sequence:
#
# PCOD9040754 Si02
#       8
#     2   2   2   2   2   2   2   2
#     4  11  27  40  65 104 139 175 226 281 340 406
#     4  10  23  43  68  98 134 177 225 285 338 397
#     4  11  23  40  70  95 134 178 224 272 345 401
#     4  11  24  46  69  95 135 184 228 277 341 405
#     4  10  25  43  67  98 133 180 235 277 338 399
#     4  12  26  42  70  99 144 178 226 285 333 414
#     4  12  25  45  66 102 144 183 223 274 350 414
#     4  11  24  42  67  98 137 174 226 280 339 403
#
# _framework density 22.884426000000001
#
# number of rings (size 3 to 8) (size 9 to 14) (size 15 to 20)
#    0.000    1.000    3.750    1.125   10.500    1.500 
#    0.000    0.000    0.000    6.000    0.000    0.000 
#    0.000    0.000    0.000    0.000    0.000    0.000 
#
# Total GULP energy -89432.763217 kJ/mol
# GULP energy per Si atom -5589.547701 kJ/mol
# Density = 2.283234 g / cm^3
# Si number density = 22.884426 Si / 1000 Ang^3
#
#
#
# Elastic Constant Matrix: (Units=GPa)
#
#
# Indices 1 2 3 4 5 6 
#
# 1 29.7515 14.1168 2.9427 2.8161 9.0391 -2.1732
# 2 14.1168 108.8979 44.5424 13.8593 1.2143 -18.1418
# 3 2.9427 44.5424 127.6209 -3.6437 0.8113 -10.1945
# 4 2.8161 13.8593 -3.6437 46.2223 -8.4293 4.3701
# 5 9.0391 1.2143 0.8113 -8.4293 14.8856 1.4522
# 6 -2.1732 -18.1418 -10.1945 4.3701 1.4522 43.2120
#
#
#
# Elastic Compliance Matrix: (Units=1/GPa)
#
#
# Indices 1 2 3 4 5 6 
#
# 1 0.046442 -0.004590 0.000716 -0.007529 -0.032366 0.002427
# 2 -0.004590 0.012831 -0.004121 -0.004527 -0.001055 0.004677
# 3 0.000716 -0.004121 0.009334 0.001990 0.000492 0.000290
# 4 -0.007529 -0.004527 0.001990 0.027979 0.021198 -0.005352
# 5 -0.032366 -0.001055 0.000492 0.021198 0.099622 -0.007446
# 6 0.002427 0.004677 0.000290 -0.005352 -0.007446 0.026087
#
#
# Mechanical properties :
#
#
# Convention : Reuss Voigt Hill
#
# Bulk Modulus (GPa) = 19.00548 43.27490 31.14019
# Shear Modulus (GPa) = 19.54456 34.50855 27.02655
#
# Velocity S-wave (km/s) = 2.92559 3.88744 3.44030
# Velocity P-wave (km/s) = 4.44242 6.25307 5.42384
#
# Compressibility (1/GPa) = 0.05261639
#
# Stress axis : x y z
#
# Youngs Moduli (GPa) = 21.53222 77.93816 107.12948
#
# Poissons Ratio (x) = 0.35772 -0.07668
# Poissons Ratio (y) = 0.09883 0.44151
# Poissons Ratio (z) = -0.01541 0.32121
#
# Static dielectric constant tensor:
#      x y z
#    x 1.969080 -0.024890 0.019380 
#    y -0.024890 1.804650 0.017880 
#    z 0.019380 0.017880 1.803320 
# 
# From -- ./inp_files/504883.got.cif
#   From: 2010.05.17/outbox.cif.g08.bks.cpg/sg2_253_cif.got.tgz:504883.got - 2010.06.03 11:33:40.
