data_PCOD9040910
_publ_section_title
;
Structure prediction by ZEFSAII (Michael W. Deem and Ramdas Pophale) SiO2 
 PCOD9040910
Probable space group: P -1
;
_chemical_formula_sum "Si O2"
_cell_formula_units_Z 16
_cell_length_a 15.551286
_cell_length_b 25.760742
_cell_length_c 15.670670
_cell_angle_alpha 158.298859
_cell_angle_beta 26.230020
_cell_angle_gamma 164.380495
_cell_volume 624.860366
_symmetry_space_group_name_H-M "P -1"
_symmetry_group_IT_number 2
_symmetry_cell_setting 'triclinic'
loop_
_space_group_symop_operation_xyz
x,y,z
-x,-y,-z
loop_
_atom_site_type_symbol
_atom_site_label
_atom_site_fract_x
_atom_site_fract_y
_atom_site_fract_z
Si Si1 0.684386 0.960855 0.763953
Si Si2 0.352645 0.692945 0.279296
Si Si3 0.805770 0.567356 0.641146
Si Si4 0.819709 0.718535 0.689881
Si Si5 0.516104 0.194024 0.852280
Si Si6 0.947985 0.214728 0.578979
Si Si7 0.961124 0.062020 0.497599
Si Si8 0.260201 0.538073 0.291045
O O1 0.418181 0.695876 0.568650
O O2 0.932824 0.108642 0.689724
O O3 0.838833 0.967878 0.717640
O O4 0.500000 0.000000 0.000000
O O5 0.290789 0.651634 0.170050
O O6 0.236621 0.502432 0.155702
O O7 0.153203 0.707473 0.520962
O O8 0.722963 0.949839 0.351963
O O9 0.692732 0.600068 0.714530
O O10 0.778762 0.603616 0.818209
O O11 0.796400 0.621455 0.474335
O O12 0.660681 0.776547 0.902551
O O13 0.203326 0.935247 0.698202
O O14 0.725317 0.223747 0.777093
O O15 0.063172 0.236819 0.604188
O O16 0.603402 0.807202 0.405090
O O17 0.000000 0.500000 0.500000
#
# Coordination Sequence:
#
# PCOD9040910 Si02
#       8
#     2   2   2   2   2   2   2   2
#     4  10  22  41  60  77 103 144 191 233 270 318
#     4   9  15  31  52  79 110 144 171 214 277 322
#     4  10  17  34  55  77 109 143 180 226 270 313
#     4  10  19  31  51  83 113 145 179 213 267 331
#     4  10  18  30  52  81 115 148 175 208 268 336
#     4  10  17  33  57  77 115 142 171 220 274 331
#     4   9  20  38  59  80 105 146 183 222 283 324
#     4   8  16  29  57  80 109 141 173 220 279 329
#
# _framework density 25.605720999999999
#
# number of rings (size 3 to 8) (size 9 to 14) (size 15 to 20)
#    0.000    2.500    2.500    0.750    0.000    1.000 
#    6.750    1.250    0.000    1.500    0.000    0.000 
#    0.000    0.000    0.000    0.000    0.000    0.000 
#
# Total GULP energy -89172.151094 kJ/mol
# GULP energy per Si atom -5573.259443 kJ/mol
# Density = 2.554744 g / cm^3
# Si number density = 25.605721 Si / 1000 Ang^3
#
#
#
# Elastic Constant Matrix: (Units=GPa)
#
#
# Indices 1 2 3 4 5 6 
#
# 1 219.8543 44.4461 58.8895 -23.4487 -28.0455 -41.6655
# 2 44.4461 70.5473 3.9216 -12.5036 2.1421 -16.6039
# 3 58.8895 3.9216 64.6605 -21.6418 -29.1616 -7.8293
# 4 -23.4487 -12.5036 -21.6418 24.2285 16.0045 6.4992
# 5 -28.0455 2.1421 -29.1616 16.0045 33.8870 -4.4878
# 6 -41.6655 -16.6039 -7.8293 6.4992 -4.4878 54.7377
#
#
#
# Elastic Compliance Matrix: (Units=1/GPa)
#
#
# Indices 1 2 3 4 5 6 
#
# 1 0.008056 -0.004451 -0.005788 -0.003881 0.004434 0.004778
# 2 -0.004451 0.019827 0.004223 0.014941 -0.008257 0.000779
# 3 -0.005788 0.004223 0.033053 0.014868 0.016523 0.001192
# 4 -0.003881 0.014941 0.014868 0.081115 -0.030791 -0.008451
# 5 0.004434 -0.008257 0.016523 -0.030791 0.064070 0.012142
# 6 0.004778 0.000779 0.001192 -0.008451 0.012142 0.024312
#
#
# Mechanical properties :
#
#
# Convention : Reuss Voigt Hill
#
# Bulk Modulus (GPa) = 20.44862 63.28628 41.86745
# Shear Modulus (GPa) = 19.32247 39.09096 29.20672
#
# Velocity S-wave (km/s) = 2.75001 3.91147 3.38099
# Velocity P-wave (km/s) = 4.25284 6.72078 5.62386
#
# Compressibility (1/GPa) = 0.04890307
#
# Stress axis : x y z
#
# Youngs Moduli (GPa) = 124.13348 50.43675 30.25472
#
# Poissons Ratio (x) = 0.22452 0.17511
# Poissons Ratio (y) = 0.55258 -0.12777
# Poissons Ratio (z) = 0.71845 -0.21300
#
# Static dielectric constant tensor:
#      x y z
#    x 2.279070 -0.045270 0.005450 
#    y -0.045270 2.093630 0.032810 
#    z 0.005450 0.032810 2.007550 
# 
# From -- ./inp_files/517858.got.cif
#   From: 2010.05.17/outbox.cif.g08.bks.cpg/sg2_259_cif.got.tgz:517858.got - 2010.06.03 11:33:40.
