data_PCOD9040710
_publ_section_title
;
Structure prediction by ZEFSAII (Michael W. Deem and Ramdas Pophale) SiO2 
 PCOD9040710
Probable space group: P -1
;
_chemical_formula_sum "Si O2"
_cell_formula_units_Z 16
_cell_length_a 8.599198
_cell_length_b 10.160784
_cell_length_c 15.574106
_cell_angle_alpha 114.666966
_cell_angle_beta 140.002723
_cell_angle_gamma 72.341300
_cell_volume 794.519367
_symmetry_space_group_name_H-M "P -1"
_symmetry_group_IT_number 2
_symmetry_cell_setting 'triclinic'
loop_
_space_group_symop_operation_xyz
x,y,z
-x,-y,-z
loop_
_atom_site_type_symbol
_atom_site_label
_atom_site_fract_x
_atom_site_fract_y
_atom_site_fract_z
Si Si1 0.572387 0.773077 0.524909
Si Si2 0.049439 0.267775 0.001297
Si Si3 0.818346 0.479385 0.495819
Si Si4 0.309060 0.913193 0.310342
Si Si5 0.794690 0.615582 0.231776
Si Si6 0.469568 0.217880 0.286545
Si Si7 0.727214 0.938813 0.353237
Si Si8 0.710819 0.529650 0.979484
O O1 0.695478 0.630272 0.505273
O O2 0.344645 0.805689 0.376227
O O3 0.524608 0.759762 0.602102
O O4 0.725792 0.924924 0.625717
O O5 0.203823 0.218741 0.134343
O O6 0.228574 0.348419 0.031722
O O7 0.902056 0.140399 0.856117
O O8 0.856518 0.386815 0.978413
O O9 0.623720 0.354748 0.354768
O O10 0.000000 0.500000 0.500000
O O11 0.967274 0.426832 0.627383
O O12 0.560424 0.916192 0.362129
O O13 0.742373 0.783506 0.272763
O O14 0.569763 0.517785 0.145993
O O15 0.802683 0.583847 0.125788
O O16 0.591719 0.064807 0.279208
O O17 0.000000 0.000000 0.500000
#
# Coordination Sequence:
#
# PCOD9040710 Si02
#       8
#     2   2   2   2   2   2   2   2
#     4  10  24  41  65  98 125 164 220 259 315 383
#     4  11  23  43  66  93 129 165 216 264 319 377
#     4  12  24  39  67  93 132 164 216 270 315 371
#     4  10  23  43  68  94 129 173 210 262 324 378
#     4  11  22  43  63  94 127 172 214 261 324 378
#     4  11  25  41  65  98 124 170 216 264 319 374
#     4  11  22  42  66  93 133 168 212 263 324 382
#     4  10  24  40  67  91 127 170 215 261 320 386
#
# _framework density 20.137961000000001
#
# number of rings (size 3 to 8) (size 9 to 14) (size 15 to 20)
#    0.000    1.250    2.500    2.625    5.250    3.000 
#    4.500    0.625    0.000    0.000    0.000    0.000 
#    0.000    0.000    0.000    0.000    0.000    0.000 
#
# Total GULP energy -89433.504705 kJ/mol
# GULP energy per Si atom -5589.594044 kJ/mol
# Density = 2.009213 g / cm^3
# Si number density = 20.137961 Si / 1000 Ang^3
#
#
#
# Elastic Constant Matrix: (Units=GPa)
#
#
# Indices 1 2 3 4 5 6 
#
# 1 24.9849 13.2759 8.3734 -0.2251 -2.5291 18.4116
# 2 13.2759 105.1041 21.5330 7.5019 -4.8236 -12.9220
# 3 8.3734 21.5330 114.2779 -1.6230 4.3934 12.6970
# 4 -0.2251 7.5019 -1.6230 33.3559 -5.1944 -5.8436
# 5 -2.5291 -4.8236 4.3934 -5.1944 24.4704 2.1669
# 6 18.4116 -12.9220 12.6970 -5.8436 2.1669 20.0467
#
#
#
# Elastic Compliance Matrix: (Units=1/GPa)
#
#
# Indices 1 2 3 4 5 6 
#
# 1 -1.761012 0.501965 -0.193559 0.211666 -0.193418 2.146141
# 2 0.501965 -0.131657 0.051941 -0.061203 0.056987 -0.602785
# 3 -0.193559 0.051941 -0.010894 0.022697 -0.023117 0.227267
# 4 0.211666 -0.061203 0.022697 0.007169 0.029335 -0.249310
# 5 -0.193418 0.056987 -0.023117 0.029335 0.021657 0.235228
# 6 2.146141 -0.602785 0.227267 -0.249310 0.235228 -2.551803
#
#
# Mechanical properties :
#
#
# Convention : Reuss Voigt Hill
#
# Bulk Modulus (GPa) = -0.84540 36.74792 17.95126
# Shear Modulus (GPa) = -0.90228 28.98692 14.04232
#
# Velocity S-wave (km/s) = -0.67009 3.79808 2.64352
# Velocity P-wave (km/s) = 1.00966 6.12549 4.27213
#
# Compressibility (1/GPa) = -1.18286949
#
# Stress axis : x y z
#
# Youngs Moduli (GPa) = -0.56786 -7.59551 -91.79487
#
# Poissons Ratio (x) = 3.81268 -17.76774
# Poissons Ratio (y) = 0.28504 4.76793
# Poissons Ratio (z) = -0.10991 0.39452
#
# Static dielectric constant tensor:
#      x y z
#    x 1.715830 0.028250 0.001180 
#    y 0.028250 1.712920 -0.008970 
#    z 0.001180 -0.008970 1.703960 
# 
# From -- ./inp_files/343640.got.cif
#   From: 2010.05.17/outbox.cif.g08.bks.cpg/sg2_172_cif.got.tgz:343640.got - 2010.06.03 11:33:40.
