data_PCOD9040523
_publ_section_title
;
Structure prediction by ZEFSAII (Michael W. Deem and Ramdas Pophale) SiO2 
 PCOD9040523
Probable space group: P -1
;
_chemical_formula_sum "Si O2"
_cell_formula_units_Z 12
_cell_length_a 17.585055
_cell_length_b 11.512481
_cell_length_c 5.008359
_cell_angle_alpha 64.212001
_cell_angle_beta 106.547635
_cell_angle_gamma 151.604423
_cell_volume 422.663514
_symmetry_space_group_name_H-M "P -1"
_symmetry_group_IT_number 2
_symmetry_cell_setting 'triclinic'
loop_
_space_group_symop_operation_xyz
x,y,z
-x,-y,-z
loop_
_atom_site_type_symbol
_atom_site_label
_atom_site_fract_x
_atom_site_fract_y
_atom_site_fract_z
Si Si1 0.820474 0.576339 0.382604
Si Si2 0.063453 0.808277 0.744056
Si Si3 0.749999 0.250000 0.270566
Si Si4 0.679528 0.923666 0.894338
Si Si5 0.249999 0.249998 0.852844
Si Si6 0.563455 0.308280 0.766291
O O1 0.996135 0.764156 0.439340
O O2 0.724840 0.337392 0.349633
O O3 0.813119 0.708362 0.117601
O O4 0.726801 0.463476 0.686661
O O5 0.913159 0.510977 0.006040
O O6 0.102095 0.992234 0.769115
O O7 0.226799 0.963472 0.839985
O O8 0.775160 0.162614 0.574739
O O9 0.586838 0.989020 0.201679
O O10 0.686883 0.791644 0.908089
O O11 0.503865 0.735846 0.975387
O O12 0.397905 0.507766 0.549399
#
# Coordination Sequence:
#
# PCOD9040523 Si02
#       6
#     2   2   2   2   2   2
#     4  10  23  43  67  93 125 167 212 259 312 369
#     4  10  23  43  67  93 125 167 212 259 312 369
#     4  12  24  38  64 100 130 162 206 258 318 380
#     4  10  23  43  67  93 125 167 212 259 312 369
#     4   8  22  44  66  92 122 168 212 260 310 364
#     4  10  23  43  67  93 125 167 212 259 312 369
#
# _framework density 28.391375
#
# number of rings (size 3 to 8) (size 9 to 14) (size 15 to 20)
#    2.000    0.000    0.000    3.000    0.000    9.333 
#    0.000    3.333    0.000    0.000    0.000    0.000 
#    0.000    0.000    0.000    0.000    0.000    0.000 
#
# Total GULP energy -67109.575333 kJ/mol
# GULP energy per Si atom -5592.464611 kJ/mol
# Density = 2.832676 g / cm^3
# Si number density = 28.391375 Si / 1000 Ang^3
#
#
#
# Elastic Constant Matrix: (Units=GPa)
#
#
# Indices 1 2 3 4 5 6 
#
# 1 161.6679 44.5451 45.3269 -10.3679 21.7954 -13.4831
# 2 44.5451 131.8309 29.2817 -16.7060 7.4923 5.1789
# 3 45.3269 29.2817 89.5096 -9.3143 10.8119 -8.5346
# 4 -10.3679 -16.7060 -9.3143 43.5601 -1.8300 6.2429
# 5 21.7954 7.4923 10.8119 -1.8300 48.0704 -16.6719
# 6 -13.4831 5.1789 -8.5346 6.2429 -16.6719 62.7281
#
#
#
# Elastic Compliance Matrix: (Units=1/GPa)
#
#
# Indices 1 2 3 4 5 6 
#
# 1 0.007952 -0.001874 -0.003022 0.000315 -0.002345 0.000798
# 2 -0.001874 0.009104 -0.001822 0.002895 -0.000700 -0.001877
# 3 -0.003022 -0.001822 0.013652 0.001321 -0.001036 0.000952
# 4 0.000315 0.002895 0.001321 0.024773 -0.000882 -0.002691
# 5 -0.002345 -0.000700 -0.001036 -0.000882 0.024235 0.005942
# 6 0.000798 -0.001877 0.000952 -0.002691 0.005942 0.018245
#
#
# Mechanical properties :
#
#
# Convention : Reuss Voigt Hill
#
# Bulk Modulus (GPa) = 57.89851 69.03507 63.46679
# Shear Modulus (GPa) = 42.67889 48.46205 45.57047
#
# Velocity S-wave (km/s) = 3.88136 4.13598 4.01069
# Velocity P-wave (km/s) = 6.36584 6.86853 6.62196
#
# Compressibility (1/GPa) = 0.01727160
#
# Stress axis : x y z
#
# Youngs Moduli (GPa) = 125.75544 109.84370 73.25142
#
# Poissons Ratio (x) = 0.20584 0.22134
# Poissons Ratio (y) = 0.23566 0.13349
# Poissons Ratio (z) = 0.37999 0.20017
#
# Static dielectric constant tensor:
#      x y z
#    x 2.229200 -0.021330 0.025520 
#    y -0.021330 2.124840 0.015970 
#    z 0.025520 0.015970 2.172890 
# 
# From -- ./inp_files/83924.got.cif
#   From: 2010.05.17/outbox.cif.g08.bks.cpg/sg2_42_cif.got.tgz:83924.got - 2010.06.03 11:33:40.
