data_PCOD9040316
_publ_section_title
;
Structure prediction by ZEFSAII (Michael W. Deem and Ramdas Pophale) SiO2 
 PCOD9040316
Probable space group: P -1
;
_chemical_formula_sum "Si O2"
_cell_formula_units_Z 16
_cell_length_a 11.431404
_cell_length_b 9.413211
_cell_length_c 13.654391
_cell_angle_alpha 109.490260
_cell_angle_beta 123.773867
_cell_angle_gamma 115.900726
_cell_volume 699.717374
_symmetry_space_group_name_H-M "P -1"
_symmetry_group_IT_number 2
_symmetry_cell_setting 'triclinic'
loop_
_space_group_symop_operation_xyz
x,y,z
-x,-y,-z
loop_
_atom_site_type_symbol
_atom_site_label
_atom_site_fract_x
_atom_site_fract_y
_atom_site_fract_z
Si Si1 0.495116 0.759322 0.607052
Si Si2 0.757782 0.238945 0.638571
Si Si3 0.707139 0.060876 0.088451
Si Si4 0.631843 0.497659 0.184573
Si Si5 0.194744 0.730943 0.030878
Si Si6 0.122055 0.308375 0.468006
Si Si7 0.660821 0.477469 0.960369
Si Si8 0.133322 0.991328 0.317701
O O1 0.283851 0.679642 0.448263
O O2 0.365292 0.555716 0.583627
O O3 0.639333 0.797518 0.597183
O O4 0.687860 0.038775 0.800330
O O5 0.835854 0.134398 0.632577
O O6 0.927246 0.451997 0.848994
O O7 0.500000 0.000000 0.500000
O O8 0.801270 0.202697 0.062788
O O9 0.905101 0.212078 0.297736
O O10 0.500000 0.000000 0.000000
O O11 0.585374 0.795228 0.960290
O O12 0.836910 0.629816 0.384006
O O13 0.553549 0.603373 0.190804
O O14 0.674804 0.510353 0.092501
O O15 0.342306 0.702464 0.102497
O O16 0.086139 0.101638 0.380877
O O17 0.899246 0.751977 0.093640
#
# Coordination Sequence:
#
# PCOD9040316 Si02
#       8
#     2   2   2   2   2   2   2   2
#     4  11  23  42  68 100 134 179 225 270 332 397
#     4   9  21  40  62  94 132 171 221 270 314 393
#     4  12  24  46  67  98 135 172 227 284 332 400
#     4  11  24  45  67  99 131 177 222 279 342 393
#     4  11  22  42  69  96 133 176 219 276 333 390
#     4  12  25  44  69  99 136 177 224 273 344 398
#     4  10  23  45  67  95 138 171 225 278 331 402
#     4  10  23  43  65  97 138 177 220 273 326 404
#
# _framework density 22.866375999999999
#
# number of rings (size 3 to 8) (size 9 to 14) (size 15 to 20)
#    0.000    1.250    5.000    0.375    1.750    5.500 
#    6.750    1.250    0.000    0.000    0.000    0.000 
#    0.000    0.000    0.000    0.000    0.000    0.000 
#
# Total GULP energy -89330.373170 kJ/mol
# GULP energy per Si atom -5583.148323 kJ/mol
# Density = 2.281433 g / cm^3
# Si number density = 22.866376 Si / 1000 Ang^3
#
#
#
# Elastic Constant Matrix: (Units=GPa)
#
#
# Indices 1 2 3 4 5 6 
#
# 1 52.3296 11.1198 14.8124 -6.8984 13.4919 -11.1621
# 2 11.1198 49.7543 18.3106 0.1729 1.1847 -7.9020
# 3 14.8124 18.3106 108.0176 -8.0889 4.1244 -2.6386
# 4 -6.8984 0.1729 -8.0889 44.3366 -3.9927 0.1468
# 5 13.4919 1.1847 4.1244 -3.9927 28.3275 -0.5492
# 6 -11.1621 -7.9020 -2.6386 0.1468 -0.5492 26.4183
#
#
#
# Elastic Compliance Matrix: (Units=1/GPa)
#
#
# Indices 1 2 3 4 5 6 
#
# 1 0.025628 -0.003193 -0.002122 0.002571 -0.011219 0.009414
# 2 -0.003193 0.022880 -0.003438 -0.001140 0.001004 0.005178
# 3 -0.002122 -0.003438 0.010230 0.001540 -0.000135 -0.000915
# 4 0.002571 -0.001140 0.001540 0.023410 0.001914 0.000809
# 5 -0.011219 0.001004 -0.000135 0.001914 0.040822 -0.003615
# 6 0.009414 0.005178 -0.000915 0.000809 -0.003615 0.043208
#
#
# Mechanical properties :
#
#
# Convention : Reuss Voigt Hill
#
# Bulk Modulus (GPa) = 24.25344 33.17633 28.71488
# Shear Modulus (GPa) = 25.32555 30.87372 28.09963
#
# Velocity S-wave (km/s) = 3.33159 3.67847 3.50932
# Velocity P-wave (km/s) = 5.04271 5.70804 5.38566
#
# Compressibility (1/GPa) = 0.04123127
#
# Stress axis : x y z
#
# Youngs Moduli (GPa) = 39.01920 43.70606 97.75451
#
# Poissons Ratio (x) = 0.13957 0.20745
# Poissons Ratio (y) = 0.12461 0.33606
# Poissons Ratio (z) = 0.08281 0.15025
#
# Static dielectric constant tensor:
#      x y z
#    x 1.867510 0.019150 0.032070 
#    y 0.019150 1.972560 -0.023800 
#    z 0.032070 -0.023800 1.868880 
# 
# From -- ./inp_files/95458.got.cif
#   From: 2010.05.17/outbox.cif.g08.bks.cpg/sg2_48_cif.got.tgz:95458.got - 2010.06.03 11:33:40.
