data_PCOD9040197
_publ_section_title
;
Structure prediction by ZEFSAII (Michael W. Deem and Ramdas Pophale) SiO2 
 PCOD9040197
Probable space group: P -1
;
_chemical_formula_sum "Si O2"
_cell_formula_units_Z 16
_cell_length_a 19.513641
_cell_length_b 24.105106
_cell_length_c 15.345898
_cell_angle_alpha 160.957582
_cell_angle_beta 151.293864
_cell_angle_gamma 20.283360
_cell_volume 813.510775
_symmetry_space_group_name_H-M "P -1"
_symmetry_group_IT_number 2
_symmetry_cell_setting 'triclinic'
loop_
_space_group_symop_operation_xyz
x,y,z
-x,-y,-z
loop_
_atom_site_type_symbol
_atom_site_label
_atom_site_fract_x
_atom_site_fract_y
_atom_site_fract_z
Si Si1 0.769307 0.520174 0.246718
Si Si2 0.192339 0.228952 0.783142
Si Si3 0.973879 0.737170 0.532776
Si Si4 0.122957 0.370484 0.302851
Si Si5 0.525926 0.096661 0.083934
Si Si6 0.602055 0.464421 0.317246
Si Si7 0.627622 0.297237 0.765568
Si Si8 0.433254 0.866319 0.256021
O O1 0.772589 0.595893 0.458897
O O2 0.557783 0.732935 0.284146
O O3 0.930786 0.468498 0.286412
O O4 0.800890 0.293211 0.941692
O O5 0.144438 0.253708 0.664129
O O6 0.262916 0.973590 0.502108
O O7 0.365866 0.181382 0.957650
O O8 0.000000 0.500000 0.000000
O O9 0.066623 0.522394 0.381019
O O10 0.159514 0.700711 0.657776
O O11 0.798119 0.964459 0.729963
O O12 0.266245 0.108752 0.036638
O O13 0.494025 0.316130 0.402088
O O14 0.500000 0.000000 0.000000
O O15 0.516208 0.583463 0.302020
O O16 0.530808 0.329600 0.054877
O O17 0.500000 0.500000 0.000000
O O18 0.500000 0.000000 0.500000
#
# Coordination Sequence:
#
# PCOD9040197 Si02
#       8
#     2   2   2   2   2   2   2   2
#     4  10  23  43  64  96 125 180 224 266 328 395
#     4  12  23  39  64  98 134 163 215 282 336 379
#     4  12  22  39  66  98 130 169 215 278 333 380
#     4  11  22  41  68  93 131 177 218 266 330 403
#     4  12  21  42  65  93 132 173 217 269 328 399
#     4  11  23  39  66  96 124 175 221 263 328 397
#     4  11  22  41  66  93 130 172 229 274 319 397
#     4  11  23  42  62  95 134 164 213 279 333 380
#
# _framework density 19.667840999999999
#
# number of rings (size 3 to 8) (size 9 to 14) (size 15 to 20)
#    0.000    0.750    5.000    4.125    0.000    1.000 
#    0.000    3.750    0.000    2.250    0.000    0.000 
#    0.000    0.000    0.000    0.000    0.000    0.000 
#
# Total GULP energy -89083.274464 kJ/mol
# GULP energy per Si atom -5567.704654 kJ/mol
# Density = 1.962308 g / cm^3
# Si number density = 19.667841 Si / 1000 Ang^3
#
#
#
# Elastic Constant Matrix: (Units=GPa)
#
#
# Indices 1 2 3 4 5 6 
#
# 1 41.5545 11.3052 35.8413 -3.6909 4.9652 4.2438
# 2 11.3052 84.0095 45.7467 1.3035 8.9770 1.0812
# 3 35.8413 45.7467 172.6834 -0.9818 0.6091 5.3789
# 4 -3.6909 1.3035 -0.9818 37.5921 -1.9529 -12.6576
# 5 4.9652 8.9770 0.6091 -1.9529 15.7351 4.4775
# 6 4.2438 1.0812 5.3789 -12.6576 4.4775 28.8154
#
#
#
# Elastic Compliance Matrix: (Units=1/GPa)
#
#
# Indices 1 2 3 4 5 6 
#
# 1 0.030893 0.000290 -0.006412 0.002026 -0.009113 -0.001058
# 2 0.000290 0.015019 -0.004050 -0.000639 -0.008941 0.001258
# 3 -0.006412 -0.004050 0.008218 -0.000497 0.004333 -0.001329
# 4 0.002026 -0.000639 -0.000497 0.031391 -0.000242 0.013645
# 5 -0.009113 -0.008941 0.004333 -0.000242 0.074404 -0.010799
# 6 -0.001058 0.001258 -0.001329 0.013645 -0.010799 0.042732
#
#
# Mechanical properties :
#
#
# Convention : Reuss Voigt Hill
#
# Bulk Modulus (GPa) = 29.59807 53.78154 41.68981
# Shear Modulus (GPa) = 21.34339 30.11881 25.73110
#
# Velocity S-wave (km/s) = 3.29780 3.91752 3.62094
# Velocity P-wave (km/s) = 5.43896 6.91859 6.22291
#
# Compressibility (1/GPa) = 0.03378599
#
# Stress axis : x y z
#
# Youngs Moduli (GPa) = 32.36935 66.58223 121.68132
#
# Poissons Ratio (x) = -0.01934 0.78027
# Poissons Ratio (y) = -0.00940 0.49286
# Poissons Ratio (z) = 0.20757 0.26968
#
# Static dielectric constant tensor:
#      x y z
#    x 1.749010 -0.033230 0.026930 
#    y -0.033230 1.822770 0.094340 
#    z 0.026930 0.094340 1.824650 
# 
# From -- ./inp_files/396984.got.cif
#   From: 2010.05.17/outbox.cif.g08.bks.cpg/sg2_199_cif.got.tgz:396984.got - 2010.06.03 11:33:40.
