data_PCOD9040127
_publ_section_title
;
Structure prediction by ZEFSAII (Michael W. Deem and Ramdas Pophale) SiO2 
 PCOD9040127
Probable space group: P -1
;
_chemical_formula_sum "Si O2"
_cell_formula_units_Z 14
_cell_length_a 21.371388
_cell_length_b 9.619899
_cell_length_c 9.281545
_cell_angle_alpha 132.445690
_cell_angle_beta 29.677820
_cell_angle_gamma 122.465791
_cell_volume 690.733013
_symmetry_space_group_name_H-M "P -1"
_symmetry_group_IT_number 2
_symmetry_cell_setting 'triclinic'
loop_
_space_group_symop_operation_xyz
x,y,z
-x,-y,-z
loop_
_atom_site_type_symbol
_atom_site_label
_atom_site_fract_x
_atom_site_fract_y
_atom_site_fract_z
Si Si1 0.515971 0.498741 0.294746
Si Si2 0.885305 0.671059 0.334970
Si Si3 0.333747 0.223896 0.347678
Si Si4 0.049276 0.866467 0.942672
Si Si5 0.251604 0.126379 0.757144
Si Si6 0.518682 0.081584 0.363870
Si Si7 0.192646 0.457868 0.302288
O O1 0.500000 0.500000 0.500000
O O2 0.449798 0.333457 0.240068
O O3 0.448404 0.706748 0.531918
O O4 0.664199 0.486930 0.948581
O O5 0.774738 0.636510 0.420173
O O6 0.825014 0.676903 0.618894
O O7 0.000000 0.500000 0.000000
O O8 0.946414 0.843407 0.257924
O O9 0.279576 0.142423 0.543723
O O10 0.380472 0.054659 0.026311
O O11 0.097540 0.653265 0.640567
O O12 0.167718 0.959301 0.834376
O O13 0.000000 0.000000 0.000000
O O14 0.385578 0.098437 0.553831
O O15 0.179541 0.327921 0.098575
O O16 0.500000 0.000000 0.500000
#
# Coordination Sequence:
#
# PCOD9040127 Si02
#       7
#     2   2   2   2   2   2   2
#     4  11  23  40  67 101 128 171 211 259 336 392
#     4  10  24  45  63  92 131 171 218 270 317 375
#     4  12  22  41  71  93 133 172 213 268 323 383
#     4  11  23  42  67  93 123 176 223 263 316 373
#     4  11  23  40  67  99 124 170 217 263 326 384
#     4  11  25  41  65 102 135 162 213 272 328 390
#     4  10  23  43  63  93 140 156 215 278 316 386
#
# _framework density 20.268322999999999
#
# number of rings (size 3 to 8) (size 9 to 14) (size 15 to 20)
#    0.000    1.143    4.286    3.000    2.000    5.714 
#    0.000    0.000    0.000    0.000    0.000    0.000 
#    0.000    0.000    0.000    0.000    0.000    0.000 
#
# Total GULP energy -78183.481787 kJ/mol
# GULP energy per Si atom -5584.534413 kJ/mol
# Density = 2.022219 g / cm^3
# Si number density = 20.268323 Si / 1000 Ang^3
#
#
#
# Elastic Constant Matrix: (Units=GPa)
#
#
# Indices 1 2 3 4 5 6 
#
# 1 46.9896 5.7328 25.0960 -4.1033 7.6843 -26.1610
# 2 5.7328 101.6913 33.0734 -15.3541 18.0073 -21.3773
# 3 25.0960 33.0734 94.6340 -10.5978 17.8928 -11.1955
# 4 -4.1033 -15.3541 -10.5978 41.7081 -6.8060 3.5438
# 5 7.6843 18.0073 17.8928 -6.8060 31.2226 -2.4491
# 6 -26.1610 -21.3773 -11.1955 3.5438 -2.4491 37.4925
#
#
#
# Elastic Compliance Matrix: (Units=1/GPa)
#
#
# Indices 1 2 3 4 5 6 
#
# 1 0.045265 0.009191 -0.009614 0.001251 -0.008046 0.033310
# 2 0.009191 0.015196 -0.004597 0.003136 -0.006690 0.012971
# 3 -0.009614 -0.004597 0.014922 0.000988 -0.003727 -0.005211
# 4 0.001251 0.003136 0.000988 0.025939 0.003027 0.000702
# 5 -0.008046 -0.006690 -0.003727 0.003027 0.040018 -0.008214
# 6 0.033310 0.012971 -0.005211 0.000702 -0.008214 0.055152
#
#
# Mechanical properties :
#
#
# Convention : Reuss Voigt Hill
#
# Bulk Modulus (GPa) = 15.30406 41.23549 28.26978
# Shear Modulus (GPa) = 21.89976 34.04548 27.97262
#
# Velocity S-wave (km/s) = 3.29065 4.10291 3.71902
# Velocity P-wave (km/s) = 4.69094 6.54478 5.69381
#
# Compressibility (1/GPa) = 0.06534214
#
# Stress axis : x y z
#
# Youngs Moduli (GPa) = 22.09228 65.80775 67.01423
#
# Poissons Ratio (x) = -0.60484 0.64426
# Poissons Ratio (y) = -0.20305 0.30809
# Poissons Ratio (z) = 0.21239 0.30254
#
# Static dielectric constant tensor:
#      x y z
#    x 1.704300 0.000770 -0.022160 
#    y 0.000770 1.680960 0.013170 
#    z -0.022160 0.013170 1.750980 
# 
# From -- ./inp_files/178605.got.cif
#   From: 2010.05.17/outbox.cif.g08.bks.cpg/sg2_90_cif.got.tgz:178605.got - 2010.06.03 11:33:40.
