data_PCOD9040160
_publ_section_title
;
Structure prediction by ZEFSAII (Michael W. Deem and Ramdas Pophale) SiO2 
 PCOD9040160
Probable space group: P -1
;
_chemical_formula_sum "Si O2"
_cell_formula_units_Z 16
_cell_length_a 7.863482
_cell_length_b 17.498544
_cell_length_c 12.293283
_cell_angle_alpha 149.000232
_cell_angle_beta 121.040058
_cell_angle_gamma 57.878147
_cell_volume 730.860217
_symmetry_space_group_name_H-M "P -1"
_symmetry_group_IT_number 2
_symmetry_cell_setting 'triclinic'
loop_
_space_group_symop_operation_xyz
x,y,z
-x,-y,-z
loop_
_atom_site_type_symbol
_atom_site_label
_atom_site_fract_x
_atom_site_fract_y
_atom_site_fract_z
Si Si1 0.452601 0.039279 0.381067
Si Si2 0.901274 0.862972 0.344724
Si Si3 0.971939 0.323396 0.623230
Si Si4 0.388934 0.376605 0.860691
Si Si5 0.137755 0.122298 0.218795
Si Si6 0.723925 0.631807 0.856534
Si Si7 0.061706 0.344495 0.266936
Si Si8 0.641731 0.256162 0.996015
O O1 0.441502 0.210155 0.621829
O O2 0.369648 0.056209 0.251087
O O3 0.667189 0.947746 0.380438
O O4 0.312763 0.923265 0.233277
O O5 0.009173 0.785349 0.395945
O O6 0.866663 0.730517 0.088451
O O7 0.000000 0.000000 0.500000
O O8 0.149333 0.417040 0.819276
O O9 0.035991 0.224346 0.413674
O O10 0.777845 0.455558 0.697677
O O11 0.500000 0.500000 0.000000
O O12 0.471322 0.347011 0.971876
O O13 0.142951 0.219394 0.231321
O O14 0.000000 0.000000 0.000000
O O15 0.485787 0.707199 0.889452
O O16 0.789179 0.641418 0.764881
O O17 0.848325 0.310130 0.114609
O O18 0.000000 0.500000 0.500000
#
# Coordination Sequence:
#
# PCOD9040160 Si02
#       8
#     2   2   2   2   2   2   2   2
#     4  10  23  43  64 101 135 185 233 275 358 414
#     4  11  26  41  68 103 143 185 227 296 358 415
#     4  11  23  44  66 102 141 180 226 290 359 409
#     4  11  23  36  69 102 134 181 229 288 351 414
#     4  11  24  43  72  95 136 187 231 289 342 416
#     4  11  25  46  69 103 141 181 231 289 352 420
#     4  12  26  48  71 102 135 186 245 279 348 421
#     4  11  24  44  71  96 141 185 224 296 349 405
#
# _framework density 21.892012000000001
#
# number of rings (size 3 to 8) (size 9 to 14) (size 15 to 20)
#    0.000    1.000    5.000    1.500    8.750    0.500 
#    0.000    2.500    0.000    0.000    0.000    0.000 
#    0.000    0.000    0.000    0.000    0.000    0.000 
#
# Total GULP energy -89202.436381 kJ/mol
# GULP energy per Si atom -5575.152274 kJ/mol
# Density = 2.184218 g / cm^3
# Si number density = 21.892012 Si / 1000 Ang^3
#
#
#
# Elastic Constant Matrix: (Units=GPa)
#
#
# Indices 1 2 3 4 5 6 
#
# 1 53.1475 17.2302 9.9280 9.2865 3.3542 19.4685
# 2 17.2302 105.6041 16.5738 12.6467 -20.5582 11.0273
# 3 9.9280 16.5738 69.3609 16.1307 -2.7761 9.4551
# 4 9.2865 12.6467 16.1307 44.6352 4.9893 1.9355
# 5 3.3542 -20.5582 -2.7761 4.9893 37.7317 1.1643
# 6 19.4685 11.0273 9.4551 1.9355 1.1643 29.6181
#
#
#
# Elastic Compliance Matrix: (Units=1/GPa)
#
#
# Indices 1 2 3 4 5 6 
#
# 1 0.026385 -0.002737 -0.000229 -0.003620 -0.002884 -0.015901
# 2 -0.002737 0.012145 -0.001152 -0.003162 0.007269 -0.002434
# 3 -0.000229 -0.001152 0.016702 -0.005637 0.001504 -0.004443
# 4 -0.003620 -0.003162 -0.005637 0.026532 -0.005443 0.003836
# 5 -0.002884 0.007269 0.001504 -0.005443 0.031617 -0.002178
# 6 -0.015901 -0.002434 -0.004443 0.003836 -0.002178 0.046375
#
#
# Mechanical properties :
#
#
# Convention : Reuss Voigt Hill
#
# Bulk Modulus (GPa) = 21.27798 35.06406 28.17102
# Shear Modulus (GPa) = 27.22473 34.68904 30.95689
#
# Velocity S-wave (km/s) = 3.53029 3.98496 3.76449
# Velocity P-wave (km/s) = 5.13399 6.10122 5.63838
#
# Compressibility (1/GPa) = 0.04699695
#
# Stress axis : x y z
#
# Youngs Moduli (GPa) = 37.90063 82.34162 59.87176
#
# Poissons Ratio (x) = 0.22533 0.01369
# Poissons Ratio (y) = 0.10372 0.06898
# Poissons Ratio (z) = 0.00867 0.09487
#
# Static dielectric constant tensor:
#      x y z
#    x 1.055250 -0.339220 -0.176890 
#    y -0.339220 1.704030 -0.066230 
#    z -0.176890 -0.066230 1.830080 
# 
# From -- ./inp_files/271838.got.cif
#   From: 2010.05.17/outbox.cif.g08.bks.cpg/sg2_136_cif.got.tgz:271838.got - 2010.06.03 11:33:40.
