data_PCOD9040000
_publ_section_title
;
Structure prediction by ZEFSAII (Michael W. Deem and Ramdas Pophale) SiO2 
 PCOD9040000
Probable space group: P -1
;
_chemical_formula_sum "Si O2"
_cell_formula_units_Z 12
_cell_length_a 10.561958
_cell_length_b 16.251841
_cell_length_c 15.678307
_cell_angle_alpha 26.291336
_cell_angle_beta 35.126518
_cell_angle_gamma 24.388661
_cell_volume 492.204477
_symmetry_space_group_name_H-M "P -1"
_symmetry_group_IT_number 2
_symmetry_cell_setting 'triclinic'
loop_
_space_group_symop_operation_xyz
x,y,z
-x,-y,-z
loop_
_atom_site_type_symbol
_atom_site_label
_atom_site_fract_x
_atom_site_fract_y
_atom_site_fract_z
Si Si1 0.118535 0.980904 0.046183
Si Si2 0.321214 0.757984 0.804978
Si Si3 0.055753 0.492412 0.374896
Si Si4 0.789408 0.446176 0.227303
Si Si5 0.872190 0.780279 0.918690
Si Si6 0.470889 0.347552 0.591670
O O1 0.912562 0.025457 0.196682
O O2 0.465518 0.709445 0.121781
O O3 0.072906 0.229119 0.839706
O O4 0.000000 0.000000 0.000000
O O5 0.583192 0.727712 0.643906
O O6 0.133264 0.747764 0.849846
O O7 0.500000 0.500000 0.000000
O O8 0.000000 0.500000 0.500000
O O9 0.845325 0.484522 0.440441
O O10 0.725149 0.277380 0.451374
O O11 0.051738 0.279182 0.167997
O O12 0.869165 0.561512 0.145390
O O13 0.577676 0.083570 0.810623
O O14 0.500000 0.500000 0.500000
#
# Coordination Sequence:
#
# PCOD9040000 Si02
#       6
#     2   2   2   2   2   2
#     4  11  22  43  71 104 141 190 244 293 366 433
#     4  10  23  42  73  99 142 187 239 293 362 433
#     4  11  24  46  71 106 150 185 242 305 362 434
#     4  11  24  43  72 101 143 188 239 295 363 428
#     4  11  24  46  71 104 139 190 241 297 359 437
#     4  12  26  44  71 107 144 188 239 300 364 434
#
# _framework density 24.380112
#
# number of rings (size 3 to 8) (size 9 to 14) (size 15 to 20)
#    0.000    1.000    1.667    5.500    4.667    1.333 
#    0.000    5.833    0.000    0.000    0.000    0.000 
#    0.000    0.000    0.000    0.000    0.000    0.000 
#
# Total GULP energy -67051.932009 kJ/mol
# GULP energy per Si atom -5587.661001 kJ/mol
# Density = 2.432462 g / cm^3
# Si number density = 24.380112 Si / 1000 Ang^3
#
#
#
# Elastic Constant Matrix: (Units=GPa)
#
#
# Indices 1 2 3 4 5 6 
#
# 1 183.4689 59.6373 30.8292 17.9100 -34.2248 -5.1320
# 2 59.6373 113.4612 34.6431 16.0659 -9.9533 16.2158
# 3 30.8292 34.6431 127.8599 1.0522 -13.2641 5.6109
# 4 17.9100 16.0659 1.0522 53.0382 2.7192 -4.5255
# 5 -34.2248 -9.9533 -13.2641 2.7192 32.0664 4.6723
# 6 -5.1320 16.2158 5.6109 -4.5255 4.6723 41.8013
#
#
#
# Elastic Compliance Matrix: (Units=1/GPa)
#
#
# Indices 1 2 3 4 5 6 
#
# 1 0.008296 -0.003509 -0.000303 -0.002007 0.007613 0.001352
# 2 -0.003509 0.012573 -0.002273 -0.003049 0.000256 -0.005362
# 3 -0.000303 -0.002273 0.008809 0.000429 0.002665 -0.000589
# 4 -0.002007 -0.003049 0.000429 0.021035 -0.005240 0.003742
# 5 0.007613 0.000256 0.002665 -0.005240 0.041628 -0.004743
# 6 0.001352 -0.005362 -0.000589 0.003742 -0.004743 0.027183
#
#
# Mechanical properties :
#
#
# Convention : Reuss Voigt Hill
#
# Bulk Modulus (GPa) = 57.11980 75.00101 66.06040
# Shear Modulus (GPa) = 36.35569 45.35987 40.85778
#
# Velocity S-wave (km/s) = 3.86580 4.31806 4.09817
# Velocity P-wave (km/s) = 6.58829 7.46263 7.03905
#
# Compressibility (1/GPa) = 0.01750707
#
# Stress axis : x y z
#
# Youngs Moduli (GPa) = 120.53934 79.53665 113.52404
#
# Poissons Ratio (x) = 0.27912 0.03434
# Poissons Ratio (y) = 0.42301 0.25809
# Poissons Ratio (z) = 0.03646 0.18082
#
# Static dielectric constant tensor:
#      x y z
#    x 1.973660 0.004160 0.009370 
#    y 0.004160 1.986090 0.057900 
#    z 0.009370 0.057900 2.033070 
# 
# From -- ./inp_files/242525.got.cif
#   From: 2010.05.17/outbox.cif.g08.bks.cpg/sg2_122_cif.got.tgz:242525.got - 2010.06.03 11:33:40.
