data_PCOD9040734
_publ_section_title
;
Structure prediction by ZEFSAII (Michael W. Deem and Ramdas Pophale) SiO2 
 PCOD9040734
Probable space group: P -1
;
_chemical_formula_sum "Si O2"
_cell_formula_units_Z 16
_cell_length_a 10.514441
_cell_length_b 14.843894
_cell_length_c 8.974012
_cell_angle_alpha 124.593702
_cell_angle_beta 68.401792
_cell_angle_gamma 69.551731
_cell_volume 733.267840
_symmetry_space_group_name_H-M "P -1"
_symmetry_group_IT_number 2
_symmetry_cell_setting 'triclinic'
loop_
_space_group_symop_operation_xyz
x,y,z
-x,-y,-z
loop_
_atom_site_type_symbol
_atom_site_label
_atom_site_fract_x
_atom_site_fract_y
_atom_site_fract_z
Si Si1 0.924081 0.711016 0.635369
Si Si2 0.698991 0.033758 0.511559
Si Si3 0.293160 0.351758 0.476859
Si Si4 0.709495 0.444634 0.869455
Si Si5 0.307836 0.299334 0.763274
Si Si6 0.020267 0.307608 0.059007
Si Si7 0.304487 0.970404 0.132483
Si Si8 0.084786 0.885707 0.493921
O O1 0.870564 0.620108 0.521417
O O2 0.147308 0.615750 0.393884
O O3 0.752507 0.883514 0.788034
O O4 0.909107 0.732156 0.837749
O O5 0.495893 0.129855 0.600539
O O6 0.676947 0.028409 0.694299
O O7 0.740514 0.137177 0.551482
O O8 0.887398 0.855253 0.204260
O O9 0.310331 0.292517 0.578766
O O10 0.503332 0.206037 0.171457
O O11 0.213459 0.522866 0.680457
O O12 0.844526 0.275395 0.735137
O O13 0.500000 0.500000 0.000000
O O14 0.693744 0.571699 0.070678
O O15 0.117656 0.347435 0.955535
O O16 0.103458 0.018718 0.228411
O O17 0.000000 0.000000 0.500000
#
# Coordination Sequence:
#
# PCOD9040734 Si02
#       8
#     2   2   2   2   2   2   2   2
#     4  11  24  44  69  97 138 179 223 278 342 396
#     4  11  23  44  69  97 139 181 225 275 337 407
#     4  12  25  41  66 101 136 172 225 279 334 398
#     4  11  23  43  70 102 131 180 223 278 335 401
#     4  12  25  42  69 101 140 174 226 277 341 399
#     4  12  26  42  68 104 136 173 226 282 338 394
#     4  10  23  43  68  96 135 183 227 273 337 401
#     4   9  21  40  68  92 133 181 225 265 334 402
#
# _framework density 21.820129000000001
#
# number of rings (size 3 to 8) (size 9 to 14) (size 15 to 20)
#    0.000    1.000    2.500    3.750    7.000    0.000 
#    2.250    2.500    0.000    0.000    0.000    0.000 
#    0.000    0.000    0.000    0.000    0.000    0.000 
#
# Total GULP energy -89283.053870 kJ/mol
# GULP energy per Si atom -5580.190867 kJ/mol
# Density = 2.177047 g / cm^3
# Si number density = 21.820129 Si / 1000 Ang^3
#
#
#
# Elastic Constant Matrix: (Units=GPa)
#
#
# Indices 1 2 3 4 5 6 
#
# 1 38.3557 13.0386 19.6653 -0.9747 3.4242 0.6976
# 2 13.0386 100.9795 49.8817 6.1421 21.2944 -10.6379
# 3 19.6653 49.8817 140.4975 10.2976 15.1810 -13.9533
# 4 -0.9747 6.1421 10.2976 40.3589 -7.9479 13.5144
# 5 3.4242 21.2944 15.1810 -7.9479 33.0926 4.5506
# 6 0.6976 -10.6379 -13.9533 13.5144 4.5506 41.8496
#
#
#
# Elastic Compliance Matrix: (Units=1/GPa)
#
#
# Indices 1 2 3 4 5 6 
#
# 1 0.029077 -0.002932 -0.003961 0.003955 0.002204 -0.004067
# 2 -0.002932 0.014684 -0.002754 -0.005485 -0.009986 0.005720
# 3 -0.003961 -0.002754 0.009873 -0.004522 -0.004060 0.004559
# 4 0.003955 -0.005485 -0.004522 0.035396 0.015914 -0.016129
# 5 0.002204 -0.009986 -0.004060 0.015914 0.044005 -0.013853
# 6 -0.004067 0.005720 0.004559 -0.016129 -0.013853 0.033652
#
#
# Mechanical properties :
#
#
# Convention : Reuss Voigt Hill
#
# Bulk Modulus (GPa) = 29.12018 49.44487 39.28253
# Shear Modulus (GPa) = 25.32581 36.21005 30.76793
#
# Velocity S-wave (km/s) = 3.41055 4.07809 3.75916
# Velocity P-wave (km/s) = 5.37435 6.69954 6.07320
#
# Compressibility (1/GPa) = 0.03434044
#
# Stress axis : x y z
#
# Youngs Moduli (GPa) = 34.39156 68.10132 101.29011
#
# Poissons Ratio (x) = 0.19965 0.40121
# Poissons Ratio (y) = 0.10082 0.27894
# Poissons Ratio (z) = 0.13623 0.18754
#
# Static dielectric constant tensor:
#      x y z
#    x 1.919450 0.048490 -0.038750 
#    y 0.048490 1.820450 0.033240 
#    z -0.038750 0.033240 1.818590 
# 
# From -- ./inp_files/245563.got.cif
#   From: 2010.05.17/outbox.cif.g08.bks.cpg/sg2_123_cif.got.tgz:245563.got - 2010.06.03 11:33:40.
