data_PCOD9040806
_publ_section_title
;
Structure prediction by ZEFSAII (Michael W. Deem and Ramdas Pophale) SiO2 
 PCOD9040806
Probable space group: P -1
;
_chemical_formula_sum "Si O2"
_cell_formula_units_Z 16
_cell_length_a 15.522966
_cell_length_b 12.905473
_cell_length_c 12.609844
_cell_angle_alpha 129.709024
_cell_angle_beta 145.191450
_cell_angle_gamma 27.776319
_cell_volume 634.558186
_symmetry_space_group_name_H-M "P -1"
_symmetry_group_IT_number 2
_symmetry_cell_setting 'triclinic'
loop_
_space_group_symop_operation_xyz
x,y,z
-x,-y,-z
loop_
_atom_site_type_symbol
_atom_site_label
_atom_site_fract_x
_atom_site_fract_y
_atom_site_fract_z
Si Si1 0.986411 0.121163 0.928015
Si Si2 0.233288 0.350478 0.395071
Si Si3 0.253988 0.101711 0.022621
Si Si4 0.980368 0.182421 0.356035
Si Si5 0.692977 0.826007 0.425421
Si Si6 0.809804 0.013471 0.331184
Si Si7 0.551598 0.353631 0.786150
Si Si8 0.688333 0.739916 0.976814
O O1 0.744457 0.310065 0.888048
O O2 0.054022 0.197102 0.972301
O O3 0.944128 0.017651 0.746666
O O4 0.249335 0.891899 0.111350
O O5 0.202214 0.343043 0.484429
O O6 0.379256 0.386446 0.555473
O O7 0.955832 0.546033 0.185153
O O8 0.439551 0.091601 0.389222
O O9 0.264136 0.248484 0.088633
O O10 0.166376 0.083985 0.818467
O O11 0.550883 0.852901 0.201923
O O12 0.097067 0.215263 0.423031
O O13 0.665679 0.419369 0.210293
O O14 0.102308 0.113555 0.550879
O O15 0.494891 0.255871 0.189595
O O16 0.000000 0.000000 0.500000
O O17 0.500000 0.000000 0.000000
#
# Coordination Sequence:
#
# PCOD9040806 Si02
#       8
#     2   2   2   2   2   2   2   2
#     4  11  24  46  67 105 149 185 242 301 363 433
#     4  11  24  46  71 109 144 188 250 299 362 432
#     4  11  22  44  72  99 140 194 234 296 362 419
#     4  12  24  46  71 102 143 193 242 297 372 424
#     4  11  25  45  76 103 143 193 241 303 364 435
#     4  11  23  43  66 100 143 184 237 298 350 434
#     4  11  24  42  73 104 145 191 238 310 353 436
#     4  10  23  43  69 100 142 183 238 298 348 428
#
# _framework density 25.214393999999999
#
# number of rings (size 3 to 8) (size 9 to 14) (size 15 to 20)
#    0.000    1.000    5.000    1.875    1.750    3.000 
#    4.500    2.500    0.000    0.000    0.000    0.000 
#    0.000    0.000    0.000    0.000    0.000    0.000 
#
# Total GULP energy -89542.620411 kJ/mol
# GULP energy per Si atom -5596.413776 kJ/mol
# Density = 2.515701 g / cm^3
# Si number density = 25.214394 Si / 1000 Ang^3
#
#
#
# Elastic Constant Matrix: (Units=GPa)
#
#
# Indices 1 2 3 4 5 6 
#
# 1 176.0184 14.3276 51.7693 -31.7604 21.3538 -22.5473
# 2 14.3276 76.8551 27.4291 -18.5968 2.0480 -13.5035
# 3 51.7693 27.4291 150.7155 -23.4776 -4.6680 -13.4774
# 4 -31.7604 -18.5968 -23.4776 47.2971 4.2168 4.1804
# 5 21.3538 2.0480 -4.6680 4.2168 49.1198 -6.3836
# 6 -22.5473 -13.5035 -13.4774 4.1804 -6.3836 22.0726
#
#
#
# Elastic Compliance Matrix: (Units=1/GPa)
#
#
# Indices 1 2 3 4 5 6 
#
# 1 0.008217 0.001523 -0.001877 0.004937 -0.003425 0.006253
# 2 0.001523 0.016417 -0.001808 0.005846 -0.000831 0.009147
# 3 -0.001877 -0.001808 0.008122 0.001712 0.001793 0.002130
# 4 0.004937 0.005846 0.001712 0.027696 -0.004188 0.003208
# 5 -0.003425 -0.000831 0.001793 -0.004188 0.023001 0.004533
# 6 0.006253 0.009147 0.002130 0.003208 0.004533 0.059293
#
#
# Mechanical properties :
#
#
# Convention : Reuss Voigt Hill
#
# Bulk Modulus (GPa) = 35.17397 65.62679 50.40038
# Shear Modulus (GPa) = 31.93934 44.36876 38.15405
#
# Velocity S-wave (km/s) = 3.56295 4.19938 3.89419
# Velocity P-wave (km/s) = 5.55935 7.04252 6.34443
#
# Compressibility (1/GPa) = 0.02843011
#
# Stress axis : x y z
#
# Youngs Moduli (GPa) = 121.70153 60.91352 123.12955
#
# Poissons Ratio (x) = -0.09276 0.23116
# Poissons Ratio (y) = -0.18533 0.22261
# Poissons Ratio (z) = 0.22848 0.11013
#
# Static dielectric constant tensor:
#      x y z
#    x 2.044870 -0.022720 -0.010650 
#    y -0.022720 2.086960 0.036730 
#    z -0.010650 0.036730 1.999990 
# 
# From -- ./inp_files/455819.got.cif
#   From: 2010.05.17/outbox.cif.g08.bks.cpg/sg2_228_cif.got.tgz:455819.got - 2010.06.03 11:33:40.
