data_PCOD9040159
_publ_section_title
;
Structure prediction by ZEFSAII (Michael W. Deem and Ramdas Pophale) SiO2 
 PCOD9040159
Probable space group: P -1
;
_chemical_formula_sum "Si O2"
_cell_formula_units_Z 16
_cell_length_a 15.042222
_cell_length_b 11.287036
_cell_length_c 14.975313
_cell_angle_alpha 121.035088
_cell_angle_beta 152.899633
_cell_angle_gamma 41.008841
_cell_volume 648.005525
_symmetry_space_group_name_H-M "P -1"
_symmetry_group_IT_number 2
_symmetry_cell_setting 'triclinic'
loop_
_space_group_symop_operation_xyz
x,y,z
-x,-y,-z
loop_
_atom_site_type_symbol
_atom_site_label
_atom_site_fract_x
_atom_site_fract_y
_atom_site_fract_z
Si Si1 0.072725 0.158832 0.107254
Si Si2 0.976168 0.602557 0.374685
Si Si3 0.777271 0.998709 0.274824
Si Si4 0.654579 0.272261 0.650263
Si Si5 0.315072 0.053590 0.479562
Si Si6 0.948494 0.263970 0.756402
Si Si7 0.237115 0.534826 0.757472
Si Si8 0.873912 0.564375 0.082007
O O1 0.409392 0.988711 0.302514
O O2 0.922409 0.383371 0.027913
O O3 0.118749 0.152471 0.251627
O O4 0.828635 0.179564 0.863495
O O5 0.829483 0.829782 0.311310
O O6 0.772977 0.595233 0.238656
O O7 0.072954 0.493874 0.321470
O O8 0.234439 0.491320 0.634900
O O9 0.849399 0.917771 0.206847
O O10 0.000000 0.000000 0.500000
O O11 0.452572 0.231900 0.092320
O O12 0.565029 0.168175 0.495313
O O13 0.904666 0.194679 0.775633
O O14 0.380581 0.526031 0.496851
O O15 0.084684 0.220066 0.414871
O O16 0.076859 0.348566 0.916339
O O17 0.500000 0.500000 0.000000
#
# Coordination Sequence:
#
# PCOD9040159 Si02
#       8
#     2   2   2   2   2   2   2   2
#     4  11  24  44  68  92 132 176 223 268 331 385
#     4  10  24  45  67 103 136 172 221 281 335 394
#     4  11  25  40  71 102 133 182 223 275 341 405
#     4  11  24  43  68  96 135 175 215 277 327 398
#     4  11  25  44  66  97 128 172 228 270 322 405
#     4  10  23  43  64 101 135 165 227 272 328 402
#     4  11  26  44  72 101 136 176 221 283 338 397
#     4  11  22  45  69  95 137 173 222 277 331 403
#
# _framework density 24.691147000000001
#
# number of rings (size 3 to 8) (size 9 to 14) (size 15 to 20)
#    0.000    1.250    2.500    2.625    3.500    7.500 
#    0.000    0.000    0.000    0.000    0.000    0.000 
#    0.000    0.000    0.000    0.000    0.000    0.000 
#
# Total GULP energy -89520.515500 kJ/mol
# GULP energy per Si atom -5595.032219 kJ/mol
# Density = 2.463495 g / cm^3
# Si number density = 24.691147 Si / 1000 Ang^3
#
#
#
# Elastic Constant Matrix: (Units=GPa)
#
#
# Indices 1 2 3 4 5 6 
#
# 1 58.9268 -10.3916 0.0573 0.8548 2.0414 -8.3520
# 2 -10.3916 87.9069 13.6797 -0.9233 6.1295 0.8885
# 3 0.0573 13.6797 78.5289 15.6506 8.6210 -5.0650
# 4 0.8548 -0.9233 15.6506 39.2597 3.0667 8.7435
# 5 2.0414 6.1295 8.6210 3.0667 26.9660 -3.3826
# 6 -8.3520 0.8885 -5.0650 8.7435 -3.3826 23.3171
#
#
#
# Elastic Compliance Matrix: (Units=1/GPa)
#
#
# Indices 1 2 3 4 5 6 
#
# 1 0.018434 0.002046 0.000636 -0.002173 -0.000895 0.007348
# 2 0.002046 0.012171 -0.002238 0.001595 -0.002536 -0.001183
# 3 0.000636 -0.002238 0.015264 -0.007250 -0.002851 0.005934
# 4 -0.002173 0.001595 -0.007250 0.032034 -0.003395 -0.014919
# 5 -0.000895 -0.002536 -0.002851 -0.003395 0.039803 0.006204
# 6 0.007348 -0.001183 0.005934 -0.014919 0.006204 0.053347
#
#
# Mechanical properties :
#
#
# Convention : Reuss Voigt Hill
#
# Bulk Modulus (GPa) = 21.38732 25.78370 23.58551
# Shear Modulus (GPa) = 26.91742 32.70971 29.81357
#
# Velocity S-wave (km/s) = 3.30535 3.64367 3.47862
# Velocity P-wave (km/s) = 4.82160 5.30725 5.07024
#
# Compressibility (1/GPa) = 0.04675667
#
# Stress axis : x y z
#
# Youngs Moduli (GPa) = 54.24652 82.16107 65.51323
#
# Poissons Ratio (x) = -0.16806 -0.04164
# Poissons Ratio (y) = -0.11096 0.14659
# Poissons Ratio (z) = -0.03448 0.18384
#
# Static dielectric constant tensor:
#      x y z
#    x 1.954730 0.044040 -0.011290 
#    y 0.044040 1.938610 0.001940 
#    z -0.011290 0.001940 2.038790 
# 
# From -- ./inp_files/532645.got.cif
#   From: 2010.05.17/outbox.cif.g08.bks.cpg/sg2_267_cif.got.tgz:532645.got - 2010.06.03 11:33:40.
