data_PCOD9040838
_publ_section_title
;
Structure prediction by ZEFSAII (Michael W. Deem and Ramdas Pophale) SiO2 
 PCOD9040838
Probable space group: P -1
;
_chemical_formula_sum "Si O2"
_cell_formula_units_Z 13
_cell_length_a 13.641636
_cell_length_b 18.105474
_cell_length_c 8.443415
_cell_angle_alpha 52.385749
_cell_angle_beta 60.828472
_cell_angle_gamma 19.741922
_cell_volume 527.649850
_symmetry_space_group_name_H-M "P -1"
_symmetry_group_IT_number 2
_symmetry_cell_setting 'triclinic'
loop_
_space_group_symop_operation_xyz
x,y,z
-x,-y,-z
loop_
_atom_site_type_symbol
_atom_site_label
_atom_site_fract_x
_atom_site_fract_y
_atom_site_fract_z
Si Si1 0.350798 0.554466 0.186188
Si Si2 0.307070 0.206038 0.514863
Si Si3 0.866477 0.853085 0.664308
Si Si4 0.816753 0.854912 0.061685
Si Si5 0.832358 0.558550 0.176755
Si Si6 0.221162 0.765801 0.460814
Si Si7 0.000000 0.000000 0.000000
O O1 0.619877 0.310648 0.410501
O O2 0.500000 0.500000 0.000000
O O3 0.133278 0.790811 0.150735
O O4 0.132600 0.646673 0.160118
O O5 0.980057 0.472189 0.342254
O O6 0.500000 0.000000 0.500000
O O7 0.532257 0.115740 0.501758
O O8 0.274624 0.166638 0.744328
O O9 0.850143 0.819970 0.893803
O O10 0.074058 0.619936 0.705148
O O11 0.010525 0.842631 0.580657
O O12 0.529949 0.146533 0.932341
O O13 0.000000 0.500000 0.000000
O O14 0.500000 0.500000 0.500000
O O15 0.061428 0.950326 0.211351
#
# Coordination Sequence:
#
# PCOD9040838 Si02
#       7
#     2   2   2   2   2   2   1
#     4  11  25  46  69 104 140 181 236 288 346 412
#     4  10  23  43  69 102 136 176 231 290 339 414
#     4  11  24  48  69 100 145 176 236 292 342 417
#     4  12  25  45  71 102 140 186 227 289 350 414
#     4  11  25  44  71 100 137 186 228 282 353 412
#     4  10  24  46  69 103 139 183 230 293 345 413
#     4  10  26  44  74  92 138 186 228 284 350 406
#
# _framework density 24.637550999999998
#
# number of rings (size 3 to 8) (size 9 to 14) (size 15 to 20)
#    0.000    1.231    4.615    0.462   12.923    1.231 
#    2.769    0.000    0.000    0.000    0.000    0.000 
#    0.000    0.000    0.000    0.000    0.000    0.000 
#
# Total GULP energy -72533.920052 kJ/mol
# GULP energy per Si atom -5579.532312 kJ/mol
# Density = 2.458148 g / cm^3
# Si number density = 24.637551 Si / 1000 Ang^3
#
#
#
# Elastic Constant Matrix: (Units=GPa)
#
#
# Indices 1 2 3 4 5 6 
#
# 1 106.2471 49.7834 31.3206 -22.3352 28.0192 -17.5632
# 2 49.7834 80.7265 23.9092 -0.1831 8.0961 -13.7189
# 3 31.3206 23.9092 171.9720 -9.5874 35.9132 -17.1454
# 4 -22.3352 -0.1831 -9.5874 27.4939 3.1477 3.2471
# 5 28.0192 8.0961 35.9132 3.1477 45.5455 -11.5451
# 6 -17.5632 -13.7189 -17.1454 3.2471 -11.5451 48.9569
#
#
#
# Elastic Compliance Matrix: (Units=1/GPa)
#
#
# Indices 1 2 3 4 5 6 
#
# 1 0.023864 -0.013660 0.001977 0.021679 -0.015208 0.000402
# 2 -0.013660 0.021232 -0.002655 -0.013192 0.008388 0.002972
# 3 0.001977 -0.002655 0.007612 0.004956 -0.006919 0.000671
# 4 0.021679 -0.013192 0.004956 0.058181 -0.019595 -0.002664
# 5 -0.015208 0.008388 -0.006919 -0.019595 0.037820 0.004690
# 6 0.000402 0.002972 0.000671 -0.002664 0.004690 0.022921
#
#
# Mechanical properties :
#
#
# Convention : Reuss Voigt Hill
#
# Bulk Modulus (GPa) = 41.60862 63.21913 52.41387
# Shear Modulus (GPa) = 24.00217 41.32808 32.66513
#
# Velocity S-wave (km/s) = 3.12462 4.10010 3.64514
# Velocity P-wave (km/s) = 5.47199 6.93757 6.24790
#
# Compressibility (1/GPa) = 0.02403348
#
# Stress axis : x y z
#
# Youngs Moduli (GPa) = 41.90440 47.09958 131.37195
#
# Poissons Ratio (x) = 0.64336 -0.25978
# Poissons Ratio (y) = 0.57240 0.34876
# Poissons Ratio (z) = -0.08286 0.12504
#
# Static dielectric constant tensor:
#      x y z
#    x 1.932960 0.018440 0.031210 
#    y 0.018440 1.975030 -0.013400 
#    z 0.031210 -0.013400 1.909020 
# 
# From -- ./inp_files/318540.got.cif
#   From: 2010.05.17/outbox.cif.g08.bks.cpg/sg2_160_cif.got.tgz:318540.got - 2010.06.03 11:33:40.
