data_PCOD9040131
_publ_section_title
;
Structure prediction by ZEFSAII (Michael W. Deem and Ramdas Pophale) SiO2 
 PCOD9040131
Probable space group: P -1
;
_chemical_formula_sum "Si O2"
_cell_formula_units_Z 16
_cell_length_a 23.823403
_cell_length_b 5.205269
_cell_length_c 5.160083
_cell_angle_alpha 88.426971
_cell_angle_beta 84.515037
_cell_angle_gamma 110.425841
_cell_volume 595.639170
_symmetry_space_group_name_H-M "P -1"
_symmetry_group_IT_number 2
_symmetry_cell_setting 'triclinic'
loop_
_space_group_symop_operation_xyz
x,y,z
-x,-y,-z
loop_
_atom_site_type_symbol
_atom_site_label
_atom_site_fract_x
_atom_site_fract_y
_atom_site_fract_z
Si Si1 0.464141 0.618724 0.816866
Si Si2 0.162409 0.205704 0.907428
Si Si3 0.625431 0.333900 0.807694
Si Si4 0.746111 0.313599 0.957425
Si Si5 0.783858 0.076998 0.470166
Si Si6 0.589834 0.803370 0.532853
Si Si7 0.044833 0.188746 0.767094
Si Si8 0.914719 0.244629 0.350418
O O1 0.518424 0.763834 0.592760
O O2 0.411555 0.353838 0.729884
O O3 0.500000 0.500000 0.000000
O O4 0.432083 0.798450 0.973740
O O5 0.201023 0.387831 0.111802
O O6 0.112729 0.334820 0.849777
O O7 0.210607 0.192366 0.666094
O O8 0.115657 0.890911 0.911699
O O9 0.684408 0.365020 0.943144
O O10 0.616073 0.610659 0.704141
O O11 0.622021 0.119757 0.583525
O O12 0.748899 0.097281 0.743244
O O13 0.759651 0.212078 0.236647
O O14 0.853995 0.226273 0.523040
O O15 0.034283 0.462979 0.693985
O O16 0.058240 0.985384 0.559178
O O17 0.000000 0.000000 0.000000
#
# Coordination Sequence:
#
# PCOD9040131 Si02
#       8
#     2   2   2   2   2   2   2   2
#     4   9  21  43  68  91 129 167 214 261 334 390
#     4   8  20  37  62  90 129 177 217 271 329 406
#     4  11  26  38  65  95 127 166 216 274 323 391
#     4  12  23  43  64  95 133 176 223 277 333 394
#     4   9  23  40  63  91 128 176 222 265 333 397
#     4  10  23  43  63  95 126 170 209 270 327 397
#     4   9  15  30  61  94 126 167 218 275 329 389
#     4   8  17  35  53  91 121 172 212 270 324 400
#
# _framework density 26.861901
#
# number of rings (size 3 to 8) (size 9 to 14) (size 15 to 20)
#    1.500    0.750    1.250    0.750    3.500    8.500 
#    0.000    0.000    0.000    3.750    0.000    0.000 
#    0.000    0.000    0.000    0.000    0.000    0.000 
#
# Total GULP energy -89100.219937 kJ/mol
# GULP energy per Si atom -5568.763746 kJ/mol
# Density = 2.680076 g / cm^3
# Si number density = 26.861901 Si / 1000 Ang^3
#
#
#
# Elastic Constant Matrix: (Units=GPa)
#
#
# Indices 1 2 3 4 5 6 
#
# 1 106.5160 28.7143 39.0829 5.6525 2.3420 -14.5663
# 2 28.7143 115.8780 23.0787 17.3824 13.6073 -10.9308
# 3 39.0829 23.0787 108.6281 9.6112 17.9735 -15.6648
# 4 5.6525 17.3824 9.6112 25.5927 -3.5838 8.1722
# 5 2.3420 13.6073 17.9735 -3.5838 32.2482 6.9742
# 6 -14.5663 -10.9308 -15.6648 8.1722 6.9742 30.2927
#
#
#
# Elastic Compliance Matrix: (Units=1/GPa)
#
#
# Indices 1 2 3 4 5 6 
#
# 1 0.011604 -0.001917 -0.003447 -0.000782 0.001140 0.003054
# 2 -0.001917 0.013250 0.002788 -0.015012 -0.011256 0.011942
# 3 -0.003447 0.002788 0.015415 -0.013420 -0.014076 0.014181
# 4 -0.000782 -0.015012 -0.013420 0.071119 0.030180 -0.038867
# 5 0.001140 -0.011256 -0.014076 0.030180 0.053641 -0.031284
# 6 0.003054 0.011942 0.014181 -0.038867 -0.031284 0.063810
#
#
# Mechanical properties :
#
#
# Convention : Reuss Voigt Hill
#
# Bulk Modulus (GPa) = 28.47719 56.97489 42.72604
# Shear Modulus (GPa) = 20.35027 33.63647 26.99337
#
# Velocity S-wave (km/s) = 2.75542 3.54248 3.17345
# Velocity P-wave (km/s) = 4.55494 6.16349 5.41923
#
# Compressibility (1/GPa) = 0.03511583
#
# Stress axis : x y z
#
# Youngs Moduli (GPa) = 86.17834 75.47214 64.87273
#
# Poissons Ratio (x) = 0.14472 0.22359
# Poissons Ratio (y) = 0.16525 -0.18084
# Poissons Ratio (z) = 0.29702 -0.21039
#
# Static dielectric constant tensor:
#      x y z
#    x 2.188000 -0.016050 -0.032190 
#    y -0.016050 2.266920 -0.083160 
#    z -0.032190 -0.083160 2.168120 
# 
# From -- ./inp_files/121252.got.cif
#   From: 2010.05.17/outbox.cif.g08.bks.cpg/sg2_61_cif.got.tgz:121252.got - 2010.06.03 11:33:40.
