data_PCOD9040540
_publ_section_title
;
Structure prediction by ZEFSAII (Michael W. Deem and Ramdas Pophale) SiO2 
 PCOD9040540
Probable space group: P -1
;
_chemical_formula_sum "Si O2"
_cell_formula_units_Z 16
_cell_length_a 10.069905
_cell_length_b 8.760114
_cell_length_c 8.145224
_cell_angle_alpha 76.377490
_cell_angle_beta 107.750823
_cell_angle_gamma 109.255188
_cell_volume 638.708471
_symmetry_space_group_name_H-M "P -1"
_symmetry_group_IT_number 2
_symmetry_cell_setting 'triclinic'
loop_
_space_group_symop_operation_xyz
x,y,z
-x,-y,-z
loop_
_atom_site_type_symbol
_atom_site_label
_atom_site_fract_x
_atom_site_fract_y
_atom_site_fract_z
Si Si1 0.113677 0.364798 0.405758
Si Si2 0.590279 0.464457 0.696386
Si Si3 0.420282 0.905837 0.156532
Si Si4 0.318824 0.910647 0.610985
Si Si5 0.212925 0.035344 0.877229
Si Si6 0.818813 0.453505 0.278100
Si Si7 0.115727 0.059911 0.292903
Si Si8 0.301525 0.326559 0.044036
O O1 0.243491 0.466997 0.316279
O O2 0.151061 0.418464 0.593247
O O3 0.097269 0.176141 0.408744
O O4 0.965841 0.408234 0.301363
O O5 0.500000 0.500000 0.500000
O O6 0.568054 0.276217 0.775563
O O7 0.568659 0.573279 0.816419
O O8 0.509860 0.003169 0.320010
O O9 0.500000 0.000000 0.000000
O O10 0.256863 0.915287 0.058300
O O11 0.288753 0.716819 0.659173
O O12 0.252469 0.974722 0.731929
O O13 0.223028 0.955980 0.418384
O O14 0.313459 0.214303 0.922553
O O15 0.044585 0.031469 0.808113
O O16 0.764681 0.533872 0.083677
O O17 0.195647 0.190357 0.153217
#
# Coordination Sequence:
#
# PCOD9040540 Si02
#       8
#     2   2   2   2   2   2   2   2
#     4  10  24  41  69  98 136 173 225 275 337 395
#     4  11  25  47  70  97 137 179 225 277 339 403
#     4  10  23  43  67  95 132 177 222 272 332 402
#     4  11  23  44  68  95 133 179 224 273 334 403
#     4  11  23  40  65  98 134 173 221 272 335 397
#     4  11  24  43  69 102 133 175 229 277 337 398
#     4  11  23  41  66  98 135 174 221 277 336 395
#     4  11  25  40  67  98 135 171 222 278 333 399
#
# _framework density 25.050552
#
# number of rings (size 3 to 8) (size 9 to 14) (size 15 to 20)
#    0.000    1.250    1.250    4.500    5.250    4.000 
#    0.000    5.625    0.000    0.000    0.000    0.000 
#    0.000    0.000    0.000    0.000    0.000    0.000 
#
# Total GULP energy -89578.927687 kJ/mol
# GULP energy per Si atom -5598.682980 kJ/mol
# Density = 2.499354 g / cm^3
# Si number density = 25.050552 Si / 1000 Ang^3
#
#
#
# Elastic Constant Matrix: (Units=GPa)
#
#
# Indices 1 2 3 4 5 6 
#
# 1 80.9366 27.7727 46.2178 -6.4112 20.7498 2.7424
# 2 27.7727 158.0496 74.4049 -8.2745 24.6229 -3.2136
# 3 46.2178 74.4049 182.1884 -15.4766 41.2500 -7.5286
# 4 -6.4112 -8.2745 -15.4766 46.3997 -2.7755 3.9647
# 5 20.7498 24.6229 41.2500 -2.7755 29.5732 3.7989
# 6 2.7424 -3.2136 -7.5286 3.9647 3.7989 31.2090
#
#
#
# Elastic Compliance Matrix: (Units=1/GPa)
#
#
# Indices 1 2 3 4 5 6 
#
# 1 0.015758 -0.000627 -0.002003 0.001048 -0.007493 -0.001153
# 2 -0.000627 0.008063 -0.002411 0.000317 -0.002961 0.000624
# 3 -0.002003 -0.002411 0.009560 0.001593 -0.010193 0.003272
# 4 0.001048 0.000317 0.001593 0.022444 -0.000802 -0.002429
# 5 -0.007493 -0.002961 -0.010193 -0.000802 0.056825 -0.008920
# 6 -0.001153 0.000624 0.003272 -0.002429 -0.008920 0.034391
#
#
# Mechanical properties :
#
#
# Convention : Reuss Voigt Hill
#
# Bulk Modulus (GPa) = 42.92208 79.77392 61.34800
# Shear Modulus (GPa) = 30.32349 39.62165 34.97257
#
# Velocity S-wave (km/s) = 3.48299 3.98133 3.74047
# Velocity P-wave (km/s) = 5.77463 7.28347 6.57249
#
# Compressibility (1/GPa) = 0.02329803
#
# Stress axis : x y z
#
# Youngs Moduli (GPa) = 63.46121 124.02738 104.60496
#
# Poissons Ratio (x) = 0.07777 0.20957
# Poissons Ratio (y) = 0.03979 0.25216
# Poissons Ratio (z) = 0.12714 0.29898
#
# Static dielectric constant tensor:
#      x y z
#    x 2.067700 0.000090 -0.044640 
#    y 0.000090 1.956610 0.053470 
#    z -0.044640 0.053470 2.026320 
# 
# From -- ./inp_files/243200.got.cif
#   From: 2010.05.17/outbox.cif.g08.bks.cpg/sg2_122_cif.got.tgz:243200.got - 2010.06.03 11:33:40.
