data_PCOD9040931
_publ_section_title
;
Structure prediction by ZEFSAII (Michael W. Deem and Ramdas Pophale) SiO2 
 PCOD9040931
Probable space group: P -1
;
_chemical_formula_sum "Si O2"
_cell_formula_units_Z 12
_cell_length_a 9.865359
_cell_length_b 9.298522
_cell_length_c 11.933227
_cell_angle_alpha 39.620205
_cell_angle_beta 123.934499
_cell_angle_gamma 103.238221
_cell_volume 535.744119
_symmetry_space_group_name_H-M "P -1"
_symmetry_group_IT_number 2
_symmetry_cell_setting 'triclinic'
loop_
_space_group_symop_operation_xyz
x,y,z
-x,-y,-z
loop_
_atom_site_type_symbol
_atom_site_label
_atom_site_fract_x
_atom_site_fract_y
_atom_site_fract_z
Si Si1 0.897750 0.881570 0.943107
Si Si2 0.736125 0.167572 0.298412
Si Si3 0.446884 0.037446 0.137520
Si Si4 0.004874 0.626797 0.806829
Si Si5 0.749777 0.706414 0.334044
Si Si6 0.108837 0.769873 0.447831
O O1 0.696242 0.981510 0.831550
O O2 0.911066 0.978034 0.768084
O O3 0.971738 0.588783 0.143552
O O4 0.000000 0.000000 0.000000
O O5 0.548897 0.189697 0.152292
O O6 0.756304 0.287926 0.352855
O O7 0.831961 0.283572 0.184979
O O8 0.843373 0.878373 0.549258
O O9 0.602358 0.794023 0.309057
O O10 0.339203 0.160713 0.902427
O O11 0.000000 0.500000 0.000000
O O12 0.822884 0.426000 0.502128
O O13 0.918047 0.777370 0.392003
#
# Coordination Sequence:
#
# PCOD9040931 Si02
#       6
#     2   2   2   2   2   2
#     4  12  26  44  68 103 140 183 235 285 348 417
#     4  11  25  45  73 103 139 183 230 291 345 406
#     4  11  25  44  67 104 139 180 231 293 347 399
#     4  11  24  46  72 102 139 186 232 279 349 420
#     4  10  23  43  69  98 137 189 230 277 350 417
#     4  11  23  45  71  99 138 188 232 278 349 424
#
# _framework density 22.398752999999999
#
# number of rings (size 3 to 8) (size 9 to 14) (size 15 to 20)
#    0.000    1.000    3.333    3.000    4.667    4.000 
#    3.000    0.000    0.000    0.000    0.000    0.000 
#    0.000    0.000    0.000    0.000    0.000    0.000 
#
# Total GULP energy -67073.176405 kJ/mol
# GULP energy per Si atom -5589.431367 kJ/mol
# Density = 2.234777 g / cm^3
# Si number density = 22.398753 Si / 1000 Ang^3
#
#
#
# Elastic Constant Matrix: (Units=GPa)
#
#
# Indices 1 2 3 4 5 6 
#
# 1 122.1394 63.5090 59.2619 -4.3110 -8.2852 9.9183
# 2 63.5090 152.0075 37.4619 0.1863 6.6840 8.6143
# 3 59.2619 37.4619 91.1389 -12.6892 -12.4962 3.2586
# 4 -4.3110 0.1863 -12.6892 54.6506 -2.9066 5.4816
# 5 -8.2852 6.6840 -12.4962 -2.9066 41.0304 3.7167
# 6 9.9183 8.6143 3.2586 5.4816 3.7167 31.5298
#
#
#
# Elastic Compliance Matrix: (Units=1/GPa)
#
#
# Indices 1 2 3 4 5 6 
#
# 1 0.014113 -0.004024 -0.007242 -0.000198 0.001533 -0.002738
# 2 -0.004024 0.008764 -0.001443 -0.000772 -0.002687 -0.000529
# 3 -0.007242 -0.001443 0.017404 0.003736 0.004364 -0.000290
# 4 -0.000198 -0.000772 0.003736 0.019700 0.002971 -0.003888
# 5 0.001533 -0.002687 0.004364 0.002971 0.027012 -0.003900
# 6 -0.002738 -0.000529 -0.000290 -0.003888 -0.003900 0.033887
#
#
# Mechanical properties :
#
#
# Convention : Reuss Voigt Hill
#
# Bulk Modulus (GPa) = 67.28312 76.19463 71.73887
# Shear Modulus (GPa) = 33.05713 39.11236 36.08475
#
# Velocity S-wave (km/s) = 3.84584 4.18327 4.01810
# Velocity P-wave (km/s) = 7.05866 7.57788 7.32287
#
# Compressibility (1/GPa) = 0.01486257
#
# Stress axis : x y z
#
# Youngs Moduli (GPa) = 70.85766 114.09804 57.45953
#
# Poissons Ratio (x) = 0.45908 0.41614
# Poissons Ratio (y) = 0.28510 0.08293
# Poissons Ratio (z) = 0.51317 0.16467
#
# Static dielectric constant tensor:
#      x y z
#    x 1.786230 -0.043250 0.017760 
#    y -0.043250 1.875420 -0.031050 
#    z 0.017760 -0.031050 1.869090 
# 
# From -- ./inp_files/380910.got.cif
#   From: 2010.05.17/outbox.cif.g08.bks.cpg/sg2_191_cif.got.tgz:380910.got - 2010.06.03 11:33:40.
