data_PCOD9040375
_publ_section_title
;
Structure prediction by ZEFSAII (Michael W. Deem and Ramdas Pophale) SiO2 
 PCOD9040375
Probable space group: P -1
;
_chemical_formula_sum "Si O2"
_cell_formula_units_Z 14
_cell_length_a 26.047513
_cell_length_b 26.072355
_cell_length_c 8.562502
_cell_angle_alpha 32.522076
_cell_angle_beta 147.184872
_cell_angle_gamma 168.651621
_cell_volume 609.969901
_symmetry_space_group_name_H-M "P -1"
_symmetry_group_IT_number 2
_symmetry_cell_setting 'triclinic'
loop_
_space_group_symop_operation_xyz
x,y,z
-x,-y,-z
loop_
_atom_site_type_symbol
_atom_site_label
_atom_site_fract_x
_atom_site_fract_y
_atom_site_fract_z
Si Si1 0.466359 0.354754 0.780294
Si Si2 0.932318 0.654440 0.155782
Si Si3 0.024081 0.417817 0.852306
Si Si4 0.773357 0.838757 0.660815
Si Si5 0.503619 0.913620 0.014628
Si Si6 0.668536 0.737159 0.992559
Si Si7 0.465113 0.097418 0.526319
O O1 0.500000 0.500000 0.500000
O O2 0.309656 0.188588 0.643483
O O3 0.348919 0.222022 0.993509
O O4 0.752905 0.577300 0.924858
O O5 0.957963 0.648350 0.058359
O O6 0.221883 0.924457 0.273788
O O7 0.747134 0.397676 0.416386
O O8 0.279694 0.657204 0.997244
O O9 0.000000 0.500000 0.500000
O O10 0.770995 0.165995 0.956485
O O11 0.596571 0.575671 0.890335
O O12 0.709548 0.826248 0.699283
O O13 0.078341 0.095126 0.777221
O O14 0.426207 0.950885 0.755089
O O15 0.537254 0.896741 0.309956
#
# Coordination Sequence:
#
# PCOD9040375 Si02
#       7
#     2   2   2   2   2   2   2
#     4  10  23  43  66  88 128 176 216 267 327 373
#     4  12  25  40  65  98 131 163 228 264 319 389
#     4  12  21  39  67  98 129 172 210 267 324 394
#     4   9  18  35  60  88 106 154 207 256 308 382
#     4  11  22  41  68  92 134 174 208 256 343 387
#     4   9  18  35  61  83 114 149 207 259 315 360
#     4  11  23  42  64  98 128 172 215 266 317 409
#
# _framework density 22.951953
#
# number of rings (size 3 to 8) (size 9 to 14) (size 15 to 20)
#    0.000    1.429    2.857    2.571    0.000    6.857 
#    5.143    0.000    3.143    0.000    0.000    0.000 
#    0.000    0.000    0.000    0.000    0.000    0.000 
#
# Total GULP energy -78335.891271 kJ/mol
# GULP energy per Si atom -5595.420805 kJ/mol
# Density = 2.289971 g / cm^3
# Si number density = 22.951953 Si / 1000 Ang^3
#
#
#
# Elastic Constant Matrix: (Units=GPa)
#
#
# Indices 1 2 3 4 5 6 
#
# 1 201.5522 52.1920 66.7555 21.3109 -48.4355 11.0040
# 2 52.1920 97.1663 2.0722 -24.8456 -31.9097 20.4806
# 3 66.7555 2.0722 70.8445 -6.3336 -25.3528 6.5255
# 4 21.3109 -24.8456 -6.3336 -53.2060 -10.8121 27.8977
# 5 -48.4355 -31.9097 -25.3528 -10.8121 48.5619 2.3265
# 6 11.0040 20.4806 6.5255 27.8977 2.3265 30.0153
#
#
#
# Elastic Compliance Matrix: (Units=1/GPa)
#
#
# Indices 1 2 3 4 5 6 
#
# 1 0.008363 -0.001532 -0.005559 0.002065 0.005042 -0.003122
# 2 -0.001532 0.011058 0.002436 -0.007606 0.005358 -0.000859
# 3 -0.005559 0.002436 0.020513 -0.006216 0.005320 0.001281
# 4 0.002065 -0.007606 -0.006216 -0.005836 -0.008050 0.011833
# 5 0.005042 0.005358 0.005320 -0.008050 0.030200 -0.001520
# 6 -0.003122 -0.000859 0.001281 0.011833 -0.001520 0.023889
#
#
# Mechanical properties :
#
#
# Convention : Reuss Voigt Hill
#
# Bulk Modulus (GPa) = 32.65305 67.95583 50.30444
# Shear Modulus (GPa) = 46.42372 21.64379 34.03375
#
# Velocity S-wave (km/s) = 4.50226 3.07417 3.85493
# Velocity P-wave (km/s) = 6.42532 6.50176 6.46365
#
# Compressibility (1/GPa) = 0.03062501
#
# Stress axis : x y z
#
# Youngs Moduli (GPa) = 119.57291 90.43187 48.75069
#
# Poissons Ratio (x) = 0.13851 0.27101
# Poissons Ratio (y) = 0.18314 -0.11877
# Poissons Ratio (z) = 0.66471 -0.22032
#
# Static dielectric constant tensor:
#      x y z
#    x 1.838180 -0.025780 -0.017940 
#    y -0.025780 1.789110 -0.026360 
#    z -0.017940 -0.026360 1.882690 
# 
# From -- ./inp_files/357975.got.cif
#   From: 2010.05.17/outbox.cif.g08.bks.cpg/sg2_179_cif.got.tgz:357975.got - 2010.06.03 11:33:40.
