data_PCOD9040904
_publ_section_title
;
Structure prediction by ZEFSAII (Michael W. Deem and Ramdas Pophale) SiO2 
 PCOD9040904
Probable space group: P -1
;
_chemical_formula_sum "Si O2"
_cell_formula_units_Z 14
_cell_length_a 9.253351
_cell_length_b 10.972917
_cell_length_c 9.175652
_cell_angle_alpha 104.568701
_cell_angle_beta 56.767670
_cell_angle_gamma 134.951399
_cell_volume 536.835214
_symmetry_space_group_name_H-M "P -1"
_symmetry_group_IT_number 2
_symmetry_cell_setting 'triclinic'
loop_
_space_group_symop_operation_xyz
x,y,z
-x,-y,-z
loop_
_atom_site_type_symbol
_atom_site_label
_atom_site_fract_x
_atom_site_fract_y
_atom_site_fract_z
Si Si1 0.019190 0.001251 0.813353
Si Si2 0.935959 0.551905 0.857572
Si Si3 0.619030 0.421992 0.238209
Si Si4 0.824808 0.271528 0.633275
Si Si5 0.577677 0.262548 0.493104
Si Si6 0.341270 0.024655 0.173871
Si Si7 0.739808 0.609973 0.748202
O O1 0.287633 0.118410 0.635157
O O2 0.884846 0.049792 0.824199
O O3 0.868130 0.803248 0.785038
O O4 0.000000 0.000000 0.000000
O O5 0.871016 0.380885 0.780913
O O6 0.729915 0.527719 0.878395
O O7 0.214707 0.719092 0.702625
O O8 0.879925 0.551459 0.055316
O O9 0.613584 0.401791 0.407549
O O10 0.479362 0.467679 0.259334
O O11 0.483398 0.224611 0.197505
O O12 0.652024 0.257698 0.614332
O O13 0.739511 0.089641 0.670507
O O14 0.075256 0.379769 0.443928
O O15 0.500000 0.000000 0.000000
#
# Coordination Sequence:
#
# PCOD9040904 Si02
#       7
#     2   2   2   2   2   2   2
#     4  11  25  44  69 104 132 171 233 287 334 388
#     4  11  24  45  68  96 143 184 217 266 344 409
#     4  11  23  43  69 100 134 175 230 276 333 397
#     4  11  23  44  68  99 136 183 222 270 343 397
#     4  11  24  42  66  99 135 169 228 280 326 395
#     4  11  22  41  70  93 131 177 221 277 332 398
#     4  10  23  43  69  96 131 182 223 280 334 396
#
# _framework density 26.078766999999999
#
# number of rings (size 3 to 8) (size 9 to 14) (size 15 to 20)
#    0.000    1.143    1.429    5.143    2.000    9.714 
#    5.143    3.571    0.000    0.000    0.000    0.000 
#    0.000    0.000    0.000    0.000    0.000    0.000 
#
# Total GULP energy -78192.756195 kJ/mol
# GULP energy per Si atom -5585.196871 kJ/mol
# Density = 2.601941 g / cm^3
# Si number density = 26.078767 Si / 1000 Ang^3
#
#
#
# Elastic Constant Matrix: (Units=GPa)
#
#
# Indices 1 2 3 4 5 6 
#
# 1 224.0290 26.8738 61.5742 5.5602 -3.5620 19.1478
# 2 26.8738 59.3336 46.7487 5.2728 -4.7594 -4.7042
# 3 61.5742 46.7487 153.6987 0.5692 20.8879 11.0432
# 4 5.5602 5.2728 0.5692 37.1437 -2.5627 1.7221
# 5 -3.5620 -4.7594 20.8879 -2.5627 46.0541 -1.1261
# 6 19.1478 -4.7042 11.0432 1.7221 -1.1261 34.8245
#
#
#
# Elastic Compliance Matrix: (Units=1/GPa)
#
#
# Indices 1 2 3 4 5 6 
#
# 1 0.005315 -0.001103 -0.001752 -0.000428 0.001008 -0.002462
# 2 -0.001103 0.025626 -0.008746 -0.003223 0.006527 0.007212
# 3 -0.001752 -0.008746 0.010970 0.001101 -0.006050 -0.003947
# 4 -0.000428 -0.003223 0.001101 0.027558 0.000622 -0.001892
# 5 0.001008 0.006527 -0.006050 0.000622 0.025319 0.003034
# 6 -0.002462 0.007212 -0.003947 -0.001892 0.003034 0.032486
#
#
# Mechanical properties :
#
#
# Convention : Reuss Voigt Hill
#
# Bulk Modulus (GPa) = 53.45044 78.60608 66.02826
# Shear Modulus (GPa) = 31.90589 43.72876 37.81732
#
# Velocity S-wave (km/s) = 3.50157 4.09931 3.81217
# Velocity P-wave (km/s) = 6.07357 7.25348 6.68959
#
# Compressibility (1/GPa) = 0.01870892
#
# Stress axis : x y z
#
# Youngs Moduli (GPa) = 188.15896 39.02333 91.15822
#
# Poissons Ratio (x) = 0.04304 0.15973
# Poissons Ratio (y) = 0.20752 0.79724
# Poissons Ratio (z) = 0.32969 0.34128
#
# Static dielectric constant tensor:
#      x y z
#    x 2.107590 0.017000 0.040320 
#    y 0.017000 2.146880 -0.027420 
#    z 0.040320 -0.027420 2.107750 
# 
# From -- ./inp_files/188340.got.cif
#   From: 2010.05.17/outbox.cif.g08.bks.cpg/sg2_95_cif.got.tgz:188340.got - 2010.06.03 11:33:40.
