data_PCOD9040332
_publ_section_title
;
Structure prediction by ZEFSAII (Michael W. Deem and Ramdas Pophale) SiO2 
 PCOD9040332
Probable space group: P -1
;
_chemical_formula_sum "Si O2"
_cell_formula_units_Z 12
_cell_length_a 10.565628
_cell_length_b 5.240514
_cell_length_c 14.561771
_cell_angle_alpha 118.919702
_cell_angle_beta 42.957391
_cell_angle_gamma 100.773819
_cell_volume 461.693833
_symmetry_space_group_name_H-M "P -1"
_symmetry_group_IT_number 2
_symmetry_cell_setting 'triclinic'
loop_
_space_group_symop_operation_xyz
x,y,z
-x,-y,-z
loop_
_atom_site_type_symbol
_atom_site_label
_atom_site_fract_x
_atom_site_fract_y
_atom_site_fract_z
Si Si1 0.582118 0.783206 0.502001
Si Si2 0.934864 0.687986 0.367571
Si Si3 0.187427 0.595197 0.447959
Si Si4 0.708844 0.773064 0.837128
Si Si5 0.113922 0.860741 0.061745
Si Si6 0.743172 0.861370 0.143167
O O1 0.500000 0.500000 0.500000
O O2 0.814473 0.672197 0.338076
O O3 0.500000 0.000000 0.500000
O O4 0.474943 0.996349 0.680857
O O5 0.808731 0.520066 0.470419
O O6 0.161067 0.532421 0.232423
O O7 0.866391 0.049219 0.482734
O O8 0.331036 0.376975 0.264574
O O9 0.000000 0.500000 0.500000
O O10 0.500000 0.000000 0.000000
O O11 0.849181 0.981563 0.834016
O O12 0.203850 0.500796 0.957727
O O13 0.222095 0.996790 0.947992
O O14 0.896419 0.926156 0.147590
#
# Coordination Sequence:
#
# PCOD9040332 Si02
#       6
#     2   2   2   2   2   2
#     4  12  25  42  73 102 133 183 244 284 354 419
#     4  11  25  46  70  98 147 181 233 295 345 419
#     4  10  23  46  67  96 138 189 230 283 350 406
#     4  11  25  42  71 104 140 183 239 278 346 416
#     4  10  23  43  65  99 135 178 222 293 342 414
#     4  10  23  43  68  93 137 177 227 284 359 396
#
# _framework density 25.991247999999999
#
# number of rings (size 3 to 8) (size 9 to 14) (size 15 to 20)
#    0.000    1.333    0.000    5.000    4.667    8.000 
#    0.000    8.333    0.000    0.000    0.000    0.000 
#    0.000    0.000    0.000    0.000    0.000    0.000 
#
# Total GULP energy -66834.975023 kJ/mol
# GULP energy per Si atom -5569.581252 kJ/mol
# Density = 2.593209 g / cm^3
# Si number density = 25.991248 Si / 1000 Ang^3
#
#
#
# Elastic Constant Matrix: (Units=GPa)
#
#
# Indices 1 2 3 4 5 6 
#
# 1 80.5173 33.0110 20.0483 -5.8104 -24.1712 0.0060
# 2 33.0110 165.3868 63.8726 40.9607 1.5814 -14.4901
# 3 20.0483 63.8726 167.0177 30.1351 -24.4320 -17.6363
# 4 -5.8104 40.9607 30.1351 44.3117 3.1418 9.9966
# 5 -24.1712 1.5814 -24.4320 3.1418 50.1897 3.1748
# 6 0.0060 -14.4901 -17.6363 9.9966 3.1748 50.4687
#
#
#
# Elastic Compliance Matrix: (Units=1/GPa)
#
#
# Indices 1 2 3 4 5 6 
#
# 1 0.018169 -0.005968 -0.000704 0.008739 0.008315 -0.004216
# 2 -0.005968 0.010959 -0.001545 -0.010725 -0.003614 0.004959
# 3 -0.000704 -0.001545 0.008623 -0.005588 0.004040 0.003423
# 4 0.008739 -0.010725 -0.005588 0.040359 0.000125 -0.013035
# 5 0.008315 -0.003614 0.004040 0.000125 0.026083 -0.001292
# 6 -0.004216 0.004959 0.003423 -0.013035 -0.001292 0.025098
#
#
# Mechanical properties :
#
#
# Convention : Reuss Voigt Hill
#
# Bulk Modulus (GPa) = 46.90868 71.86507 59.38688
# Shear Modulus (GPa) = 32.71566 48.72668 40.72117
#
# Velocity S-wave (km/s) = 3.55169 4.33452 3.96248
# Velocity P-wave (km/s) = 5.90816 7.26364 6.62068
#
# Compressibility (1/GPa) = 0.02131802
#
# Stress axis : x y z
#
# Youngs Moduli (GPa) = 55.03915 91.24510 115.96487
#
# Poissons Ratio (x) = 0.54453 0.08169
# Poissons Ratio (y) = 0.32846 0.17912
# Poissons Ratio (z) = 0.03877 0.14094
#
# Static dielectric constant tensor:
#      x y z
#    x 2.171040 0.104450 -0.193710 
#    y 0.104450 2.496800 -0.262220 
#    z -0.193710 -0.262220 2.234740 
# 
# From -- ./inp_files/563737.got.cif
#   From: 2010.05.17/outbox.cif.g08.bks.cpg/sg2_282_cif.got.tgz:563737.got - 2010.06.03 11:33:40.
