data_PCOD9040212
_publ_section_title
;
Structure prediction by ZEFSAII (Michael W. Deem and Ramdas Pophale) SiO2 
 PCOD9040212
Probable space group: P -1
;
_chemical_formula_sum "Si O2"
_cell_formula_units_Z 16
_cell_length_a 10.064018
_cell_length_b 9.356244
_cell_length_c 19.842897
_cell_angle_alpha 138.686955
_cell_angle_beta 46.633493
_cell_angle_gamma 106.414007
_cell_volume 783.756750
_symmetry_space_group_name_H-M "P -1"
_symmetry_group_IT_number 2
_symmetry_cell_setting 'triclinic'
loop_
_space_group_symop_operation_xyz
x,y,z
-x,-y,-z
loop_
_atom_site_type_symbol
_atom_site_label
_atom_site_fract_x
_atom_site_fract_y
_atom_site_fract_z
Si Si1 0.802278 0.215661 0.277443
Si Si2 0.624988 0.129489 0.777672
Si Si3 0.501903 0.406434 0.674676
Si Si4 0.212666 0.952849 0.445029
Si Si5 0.125048 0.654508 0.001380
Si Si6 0.378867 0.360571 0.402729
Si Si7 0.801114 0.416061 0.897005
Si Si8 0.811995 0.599770 0.312786
O O1 0.582498 0.238453 0.337664
O O2 0.767892 0.384533 0.415827
O O3 0.861159 0.345376 0.242151
O O4 0.965374 0.932746 0.132713
O O5 0.615381 0.180654 0.719644
O O6 0.777382 0.217012 0.788961
O O7 0.695648 0.840752 0.655260
O O8 0.396846 0.313608 0.951774
O O9 0.706093 0.211729 0.574673
O O10 0.555357 0.580863 0.671654
O O11 0.406385 0.295457 0.613510
O O12 0.313449 0.540958 0.841600
O O13 0.200190 0.211305 0.559215
O O14 0.000000 0.000000 0.500000
O O15 0.201398 0.659140 0.051994
O O16 0.000000 0.500000 0.000000
O O17 0.008866 0.426135 0.809418
#
# Coordination Sequence:
#
# PCOD9040212 Si02
#       8
#     2   2   2   2   2   2   2   2
#     4  10  24  40  66 100 134 171 221 270 334 392
#     4  11  23  44  66  93 139 178 224 265 334 393
#     4  11  26  41  67 100 131 171 225 276 334 388
#     4  12  24  44  67  96 133 177 225 269 335 398
#     4  12  24  42  66 101 134 170 219 275 331 388
#     4  10  23  43  64  97 137 177 214 274 328 389
#     4  11  24  41  67 101 129 180 223 271 326 400
#     4  11  23  42  68 101 132 172 222 278 327 390
#
# _framework density 20.414497000000001
#
# number of rings (size 3 to 8) (size 9 to 14) (size 15 to 20)
#    0.000    1.000    5.000    1.125    3.500    1.000 
#    2.250    1.875    0.000    0.000    0.000    0.000 
#    0.000    0.000    0.000    0.000    0.000    0.000 
#
# Total GULP energy -89353.839617 kJ/mol
# GULP energy per Si atom -5584.614976 kJ/mol
# Density = 2.036803 g / cm^3
# Si number density = 20.414497 Si / 1000 Ang^3
#
#
#
# Elastic Constant Matrix: (Units=GPa)
#
#
# Indices 1 2 3 4 5 6 
#
# 1 86.3315 42.5912 31.7944 15.2767 3.9684 -7.5512
# 2 42.5912 105.7508 39.3853 6.7248 6.0662 -12.4363
# 3 31.7944 39.3853 76.3378 17.3003 1.5890 -0.5087
# 4 15.2767 6.7248 17.3003 37.8000 -4.3691 -0.9107
# 5 3.9684 6.0662 1.5890 -4.3691 35.0512 1.8270
# 6 -7.5512 -12.4363 -0.5087 -0.9107 1.8270 23.8312
#
#
#
# Elastic Compliance Matrix: (Units=1/GPa)
#
#
# Indices 1 2 3 4 5 6 
#
# 1 0.016132 -0.004590 -0.003327 -0.004297 -0.001552 0.002600
# 2 -0.004590 0.014123 -0.005732 0.001909 -0.001740 0.006000
# 3 -0.003327 -0.005732 0.018862 -0.006371 -0.000078 -0.003880
# 4 -0.004297 0.001909 -0.006371 0.031277 0.004325 0.000362
# 5 -0.001552 -0.001740 -0.000078 0.004325 0.029732 -0.003515
# 6 0.002600 0.006000 -0.003880 0.000362 -0.003515 0.046117
#
#
# Mechanical properties :
#
#
# Convention : Reuss Voigt Hill
#
# Bulk Modulus (GPa) = 45.82918 55.10688 50.46803
# Shear Modulus (GPa) = 26.20335 29.64641 27.92488
#
# Velocity S-wave (km/s) = 3.58658 3.81494 3.70252
# Velocity P-wave (km/s) = 6.29678 6.81598 6.56152
#
# Compressibility (1/GPa) = 0.02182016
#
# Stress axis : x y z
#
# Youngs Moduli (GPa) = 61.98738 70.80452 53.01603
#
# Poissons Ratio (x) = 0.32499 0.17641
# Poissons Ratio (y) = 0.28452 0.30386
# Poissons Ratio (z) = 0.20626 0.40582
#
# Static dielectric constant tensor:
#      x y z
#    x 1.724660 0.010510 -0.001160 
#    y 0.010510 1.730010 -0.040130 
#    z -0.001160 -0.040130 1.757570 
# 
# From -- ./inp_files/205392.got.cif
#   From: 2010.05.17/outbox.cif.g08.bks.cpg/sg2_103_cif.got.tgz:205392.got - 2010.06.03 11:33:40.
