data_PCOD9040381
_publ_section_title
;
Structure prediction by ZEFSAII (Michael W. Deem and Ramdas Pophale) SiO2 
 PCOD9040381
Probable space group: P -1
;
_chemical_formula_sum "Si O2"
_cell_formula_units_Z 16
_cell_length_a 11.287527
_cell_length_b 18.217433
_cell_length_c 9.054067
_cell_angle_alpha 136.755666
_cell_angle_beta 37.502001
_cell_angle_gamma 137.758225
_cell_volume 715.230998
_symmetry_space_group_name_H-M "P -1"
_symmetry_group_IT_number 2
_symmetry_cell_setting 'triclinic'
loop_
_space_group_symop_operation_xyz
x,y,z
-x,-y,-z
loop_
_atom_site_type_symbol
_atom_site_label
_atom_site_fract_x
_atom_site_fract_y
_atom_site_fract_z
Si Si1 0.471804 0.333270 0.051161
Si Si2 0.330342 0.828382 0.857434
Si Si3 0.191067 0.681819 0.500592
Si Si4 0.798949 0.326593 0.969832
Si Si5 0.238347 0.056777 0.295947
Si Si6 0.154517 0.445272 0.567918
Si Si7 0.129465 0.112005 0.188757
Si Si8 0.253760 0.924063 0.642781
O O1 0.626108 0.327852 0.022521
O O2 0.373428 0.429205 0.311355
O O3 0.268926 0.211158 0.082173
O O4 0.612327 0.349824 0.790097
O O5 0.206774 0.724812 0.715587
O O6 0.267555 0.785719 0.025033
O O7 0.583461 0.867072 0.654455
O O8 0.294704 0.946316 0.035036
O O9 0.225549 0.800582 0.552551
O O10 0.977288 0.588487 0.504451
O O11 0.824620 0.431199 0.210242
O O12 0.012369 0.358051 0.709275
O O13 0.233211 0.138240 0.284485
O O14 0.000000 0.000000 0.500000
O O15 0.885802 0.093110 0.391666
O O16 0.151066 0.992596 0.947629
O O17 0.500000 0.000000 0.500000
#
# Coordination Sequence:
#
# PCOD9040381 Si02
#       8
#     2   2   2   2   2   2   2   2
#     4  11  21  39  65  92 119 156 213 262 303 361
#     4  11  25  42  61  90 134 165 204 249 316 370
#     4  11  23  38  60  92 127 162 199 261 311 365
#     4  10  23  43  67  89 119 166 204 264 313 366
#     4  11  26  39  59  91 130 170 205 246 303 379
#     4  10  23  43  66  92 118 155 219 263 309 361
#     4  11  22  36  60  89 117 163 208 243 299 360
#     4  11  22  35  58  87 123 156 200 250 298 358
#
# _framework density 22.370394000000001
#
# number of rings (size 3 to 8) (size 9 to 14) (size 15 to 20)
#    0.000    1.250    5.000    0.375    3.500    1.500 
#    0.000    0.625    0.000    0.000    0.000    0.000 
#    0.000    0.000    0.000    0.000    0.000    0.000 
#
# Total GULP energy -89391.695254 kJ/mol
# GULP energy per Si atom -5586.980953 kJ/mol
# Density = 2.231948 g / cm^3
# Si number density = 22.370394 Si / 1000 Ang^3
#
#
#
# Elastic Constant Matrix: (Units=GPa)
#
#
# Indices 1 2 3 4 5 6 
#
# 1 102.1568 2.2576 26.4015 -9.9044 -4.5840 16.7802
# 2 2.2576 31.3438 -11.7442 1.8454 0.1888 6.7321
# 3 26.4015 -11.7442 77.4577 0.7896 -7.9671 7.4414
# 4 -9.9044 1.8454 0.7896 29.4048 14.6020 3.8946
# 5 -4.5840 0.1888 -7.9671 14.6020 32.2349 2.8467
# 6 16.7802 6.7321 7.4414 3.8946 2.8467 30.6353
#
#
#
# Elastic Compliance Matrix: (Units=1/GPa)
#
#
# Indices 1 2 3 4 5 6 
#
# 1 0.012374 -0.001433 -0.004046 0.005839 -0.001338 -0.006098
# 2 -0.001433 0.036907 0.007388 -0.003739 0.003895 -0.009006
# 3 -0.004046 0.007388 0.016382 -0.004742 0.005872 -0.003329
# 4 0.005839 -0.003739 -0.004742 0.047693 -0.021456 -0.005294
# 5 -0.001338 0.003895 0.005872 -0.021456 0.042222 -0.002745
# 6 -0.006098 -0.009006 -0.003329 -0.005294 -0.002745 0.039698
#
#
# Mechanical properties :
#
#
# Convention : Reuss Voigt Hill
#
# Bulk Modulus (GPa) = 14.39259 27.19867 20.79563
# Shear Modulus (GPa) = 23.29714 31.39124 27.34419
#
# Velocity S-wave (km/s) = 3.23062 3.75006 3.49999
# Velocity P-wave (km/s) = 4.51260 5.56195 5.06453
#
# Compressibility (1/GPa) = 0.06948019
#
# Stress axis : x y z
#
# Youngs Moduli (GPa) = 80.81489 27.09513 61.04301
#
# Poissons Ratio (x) = 0.03884 0.24700
# Poissons Ratio (y) = 0.11584 -0.45101
# Poissons Ratio (z) = 0.32701 -0.20019
#
# Static dielectric constant tensor:
#      x y z
#    x 1.861650 -0.000010 0.029020 
#    y -0.000010 1.848040 -0.008950 
#    z 0.029020 -0.008950 1.841340 
# 
# From -- ./inp_files/81019.got.cif
#   From: 2010.05.17/outbox.cif.g08.bks.cpg/sg2_41_cif.got.tgz:81019.got - 2010.06.03 11:33:40.
