data_PCOD9040162
_publ_section_title
;
Structure prediction by ZEFSAII (Michael W. Deem and Ramdas Pophale) SiO2 
 PCOD9040162
Probable space group: P -1
;
_chemical_formula_sum "Si O2"
_cell_formula_units_Z 12
_cell_length_a 6.303917
_cell_length_b 13.038118
_cell_length_c 7.896417
_cell_angle_alpha 108.946569
_cell_angle_beta 52.683749
_cell_angle_gamma 101.008698
_cell_volume 488.183824
_symmetry_space_group_name_H-M "P -1"
_symmetry_group_IT_number 2
_symmetry_cell_setting 'triclinic'
loop_
_space_group_symop_operation_xyz
x,y,z
-x,-y,-z
loop_
_atom_site_type_symbol
_atom_site_label
_atom_site_fract_x
_atom_site_fract_y
_atom_site_fract_z
Si Si1 0.993848 0.818121 0.473716
Si Si2 0.977659 0.179253 0.141883
Si Si3 0.523370 0.710375 0.147486
Si Si4 0.508455 0.327439 0.343680
Si Si5 0.283529 0.094003 0.650453
Si Si6 0.319575 0.517946 0.349758
O O1 0.789471 0.717921 0.521162
O O2 0.863648 0.903819 0.455553
O O3 0.271723 0.778122 0.236191
O O4 0.032877 0.850195 0.669812
O O5 0.199850 0.275353 0.076158
O O6 0.100740 0.091744 0.905285
O O7 0.712648 0.226585 0.206475
O O8 0.591917 0.785370 0.320679
O O9 0.421501 0.594256 0.190450
O O10 0.490427 0.407126 0.232258
O O11 0.607948 0.407121 0.484696
O O12 0.500000 0.000000 0.500000
O O13 0.000000 0.500000 0.500000
#
# Coordination Sequence:
#
# PCOD9040162 Si02
#       6
#     2   2   2   2   2   2
#     4  12  21  45  70  92 148 174 215 297 332 391
#     4  10  24  42  68 104 132 177 235 269 342 404
#     4  10  23  43  64 102 137 174 228 276 330 404
#     4  11  21  38  68 101 135 183 222 272 338 397
#     4  10  25  46  70 100 133 177 231 281 342 405
#     4  11  20  39  69 100 141 182 222 275 335 397
#
# _framework density 24.580905000000001
#
# number of rings (size 3 to 8) (size 9 to 14) (size 15 to 20)
#    1.000    0.333    5.000    0.000    2.333    2.000 
#    0.000    6.667    0.000    0.000    0.000    0.000 
#    0.000    0.000    0.000    0.000    0.000    0.000 
#
# Total GULP energy -66972.675796 kJ/mol
# GULP energy per Si atom -5581.056316 kJ/mol
# Density = 2.452496 g / cm^3
# Si number density = 24.580905 Si / 1000 Ang^3
#
#
#
# Elastic Constant Matrix: (Units=GPa)
#
#
# Indices 1 2 3 4 5 6 
#
# 1 126.8598 51.4552 43.0218 -6.0394 -0.6708 -21.7890
# 2 51.4552 89.8391 21.5144 -9.7257 6.6758 -3.5395
# 3 43.0218 21.5144 88.1785 2.2617 -2.1004 -17.1290
# 4 -6.0394 -9.7257 2.2617 51.7160 0.3911 -6.2063
# 5 -0.6708 6.6758 -2.1004 0.3911 45.7755 -5.0245
# 6 -21.7890 -3.5395 -17.1290 -6.2063 -5.0245 69.7596
#
#
#
# Elastic Compliance Matrix: (Units=1/GPa)
#
#
# Indices 1 2 3 4 5 6 
#
# 1 0.012110 -0.005885 -0.003948 0.000792 0.001141 0.002667
# 2 -0.005885 0.015147 -0.001202 0.002069 -0.002518 -0.001362
# 3 -0.003948 -0.001202 0.014024 -0.001053 0.001004 0.002128
# 4 0.000792 0.002069 -0.001053 0.020089 -0.000306 0.001859
# 5 0.001141 -0.002518 0.001004 -0.000306 0.022505 0.002069
# 6 0.002667 -0.001362 0.002128 0.001859 0.002069 0.015936
#
#
# Mechanical properties :
#
#
# Convention : Reuss Voigt Hill
#
# Bulk Modulus (GPa) = 52.05012 59.65111 55.85062
# Shear Modulus (GPa) = 38.97567 46.04260 42.50913
#
# Velocity S-wave (km/s) = 3.98629 4.33263 4.16306
# Velocity P-wave (km/s) = 6.51217 7.02488 6.77337
#
# Compressibility (1/GPa) = 0.01921225
#
# Stress axis : x y z
#
# Youngs Moduli (GPa) = 82.57502 66.02065 71.30464
#
# Poissons Ratio (x) = 0.38851 0.28149
# Poissons Ratio (y) = 0.48593 0.08572
# Poissons Ratio (z) = 0.32599 0.07936
#
# Static dielectric constant tensor:
#      x y z
#    x 1.940920 0.015490 0.055240 
#    y 0.015490 2.008660 -0.015050 
#    z 0.055240 -0.015050 2.000710 
# 
# From -- ./inp_files/112747.got.cif
#   From: 2010.05.17/outbox.cif.g08.bks.cpg/sg2_57_cif.got.tgz:112747.got - 2010.06.03 11:33:40.
