data_PCOD9040115
_publ_section_title
;
Structure prediction by ZEFSAII (Michael W. Deem and Ramdas Pophale) SiO2 
 PCOD9040115
Probable space group: P -1
;
_chemical_formula_sum "Si O2"
_cell_formula_units_Z 15
_cell_length_a 9.148607
_cell_length_b 20.129134
_cell_length_c 8.358228
_cell_angle_alpha 68.670901
_cell_angle_beta 109.955624
_cell_angle_gamma 152.650792
_cell_volume 658.095546
_symmetry_space_group_name_H-M "P -1"
_symmetry_group_IT_number 2
_symmetry_cell_setting 'triclinic'
loop_
_space_group_symop_operation_xyz
x,y,z
-x,-y,-z
loop_
_atom_site_type_symbol
_atom_site_label
_atom_site_fract_x
_atom_site_fract_y
_atom_site_fract_z
Si Si1 0.812438 0.628581 0.616407
Si Si2 0.465051 0.124261 0.047532
Si Si3 0.585054 0.439574 0.260819
Si Si4 0.185398 0.760425 0.337758
Si Si5 0.061113 0.025785 0.243339
Si Si6 0.500000 0.000000 0.000000
Si Si7 0.919301 0.548290 0.974190
Si Si8 0.582223 0.773777 0.504651
O O1 0.500000 0.500000 0.500000
O O2 0.738402 0.655898 0.705604
O O3 0.092903 0.753855 0.484011
O O4 0.858176 0.572052 0.774862
O O5 0.150458 0.011922 0.921947
O O6 0.761474 0.292381 0.964962
O O7 0.353849 0.105997 0.195106
O O8 0.550003 0.077035 0.098410
O O9 0.621316 0.378589 0.417907
O O10 0.857139 0.603989 0.268196
O O11 0.633009 0.443080 0.087330
O O12 0.363652 0.884947 0.177258
O O13 0.384939 0.767644 0.428594
O O14 0.821152 0.870789 0.359625
O O15 0.191382 0.128057 0.342005
O O16 0.000000 0.500000 0.000000
#
# Coordination Sequence:
#
# PCOD9040115 Si02
#       8
#     2   2   2   2   2   1   2   2
#     4  10  25  44  66 105 139 173 227 286 347 402
#     4  11  24  44  67  97 131 186 223 284 331 414
#     4  11  23  43  70 104 138 177 231 287 344 405
#     4  11  23  46  67 101 136 186 229 277 355 402
#     4  10  23  43  63 101 132 170 238 265 355 389
#     4  12  24  44  70  94 144 180 232 280 336 426
#     4  12  24  47  74 101 138 184 233 280 348 416
#     4  11  22  43  69 102 136 179 224 296 332 418
#
# _framework density 22.793043999999998
#
# number of rings (size 3 to 8) (size 9 to 14) (size 15 to 20)
#    0.000    1.067    2.667    3.200    1.867    4.267 
#   12.000    1.333    0.000    0.000    0.000    0.000 
#    0.000    0.000    0.000    0.000    0.000    0.000 
#
# Total GULP energy -83578.029532 kJ/mol
# GULP energy per Si atom -5571.868635 kJ/mol
# Density = 2.274117 g / cm^3
# Si number density = 22.793044 Si / 1000 Ang^3
#
#
#
# Elastic Constant Matrix: (Units=GPa)
#
#
# Indices 1 2 3 4 5 6 
#
# 1 127.1484 28.3432 62.2795 -22.5727 -17.8616 -7.5477
# 2 28.3432 38.7970 7.6964 -8.7142 23.4100 -9.9170
# 3 62.2795 7.6964 130.4747 -25.0669 -8.0204 6.6448
# 4 -22.5727 -8.7142 -25.0669 43.2845 1.2069 9.6642
# 5 -17.8616 23.4100 -8.0204 1.2069 46.8795 -8.4739
# 6 -7.5477 -9.9170 6.6448 9.6642 -8.4739 32.1181
#
#
#
# Elastic Compliance Matrix: (Units=1/GPa)
#
#
# Indices 1 2 3 4 5 6 
#
# 1 0.018859 -0.022198 -0.006756 0.000151 0.017765 0.003617
# 2 -0.022198 0.067595 0.005062 0.005650 -0.041120 0.002058
# 3 -0.006756 0.005062 0.011660 0.005528 -0.004190 -0.005206
# 4 0.000151 0.005650 0.005528 0.029749 -0.004292 -0.009447
# 5 0.017765 -0.041120 -0.004190 -0.004292 0.049225 0.006624
# 6 0.003617 0.002058 -0.005206 -0.009447 0.006624 0.038288
#
#
# Mechanical properties :
#
#
# Convention : Reuss Voigt Hill
#
# Bulk Modulus (GPa) = 19.86920 54.78426 37.32673
# Shear Modulus (GPa) = 17.86111 37.66315 27.76213
#
# Velocity S-wave (km/s) = 2.80236 4.06938 3.49378
# Velocity P-wave (km/s) = 4.38259 6.79467 5.71728
#
# Compressibility (1/GPa) = 0.05032914
#
# Stress axis : x y z
#
# Youngs Moduli (GPa) = 53.02394 14.79400 85.76278
#
# Poissons Ratio (x) = 0.32840 0.57941
# Poissons Ratio (y) = 1.17705 -0.43411
# Poissons Ratio (z) = 0.35823 -0.07488
#
# Static dielectric constant tensor:
#      x y z
#    x 1.893360 0.020020 -0.036520 
#    y 0.020020 1.900560 0.024930 
#    z -0.036520 0.024930 1.868910 
# 
# From -- ./inp_files/217141.got.cif
#   From: 2010.05.17/outbox.cif.g08.bks.cpg/sg2_109_cif.got.tgz:217141.got - 2010.06.03 11:33:40.
