data_PCOD9040772
_publ_section_title
;
Structure prediction by ZEFSAII (Michael W. Deem and Ramdas Pophale) SiO2 
 PCOD9040772
Probable space group: P -1
;
_chemical_formula_sum "Si O2"
_cell_formula_units_Z 16
_cell_length_a 12.144242
_cell_length_b 18.036041
_cell_length_c 16.647933
_cell_angle_alpha 16.563295
_cell_angle_beta 139.787259
_cell_angle_gamma 137.555976
_cell_volume 670.785145
_symmetry_space_group_name_H-M "P -1"
_symmetry_group_IT_number 2
_symmetry_cell_setting 'triclinic'
loop_
_space_group_symop_operation_xyz
x,y,z
-x,-y,-z
loop_
_atom_site_type_symbol
_atom_site_label
_atom_site_fract_x
_atom_site_fract_y
_atom_site_fract_z
Si Si1 0.543056 0.166392 0.270129
Si Si2 0.374211 0.703493 0.572646
Si Si3 0.468515 0.728442 0.308639
Si Si4 0.069968 0.882648 0.463722
Si Si5 0.808072 0.381161 0.605738
Si Si6 0.211754 0.398550 0.286843
Si Si7 0.974758 0.774078 0.785305
Si Si8 0.010436 0.889161 0.238547
O O1 0.743917 0.233631 0.312431
O O2 0.500000 0.000000 0.500000
O O3 0.499563 0.955185 0.395000
O O4 0.830049 0.312917 0.007661
O O5 0.323627 0.643737 0.514977
O O6 0.441344 0.433864 0.927505
O O7 0.198888 0.801280 0.412887
O O8 0.500000 0.500000 0.500000
O O9 0.286889 0.699929 0.280533
O O10 0.608129 0.697510 0.488715
O O11 0.500000 0.000000 0.000000
O O12 0.931743 0.744158 0.588547
O O13 0.001060 0.887328 0.331411
O O14 0.092282 0.159616 0.233611
O O15 0.881348 0.672626 0.354715
O O16 0.957371 0.177224 0.884155
O O17 0.159885 0.397508 0.165172
O O18 0.000000 0.000000 0.500000
#
# Coordination Sequence:
#
# PCOD9040772 Si02
#       8
#     2   2   2   2   2   2   2   2
#     4  12  27  46  73 110 147 182 238 295 372 421
#     4  12  27  49  75 106 148 190 238 307 354 441
#     4  12  28  47  71 105 145 187 243 300 353 424
#     4  11  25  40  73  99 144 186 233 292 366 432
#     4  12  27  48  75 107 140 197 243 299 361 422
#     4  10  23  43  68  98 142 187 238 294 355 429
#     4   9  22  41  66 100 132 185 234 290 351 427
#     4  12  26  47  76 104 144 186 248 294 362 431
#
# _framework density 23.852644999999999
#
# number of rings (size 3 to 8) (size 9 to 14) (size 15 to 20)
#    0.000    0.750    1.250    4.875   10.500    2.000 
#    0.000    0.000    0.000    0.000    0.000    0.000 
#    0.000    0.000    0.000    0.000    0.000    0.000 
#
# Total GULP energy -89438.424677 kJ/mol
# GULP energy per Si atom -5589.901542 kJ/mol
# Density = 2.379836 g / cm^3
# Si number density = 23.852645 Si / 1000 Ang^3
#
#
#
# Elastic Constant Matrix: (Units=GPa)
#
#
# Indices 1 2 3 4 5 6 
#
# 1 105.7058 20.6723 28.4525 3.2246 7.0364 -10.9451
# 2 20.6723 106.8402 18.0419 9.4119 2.2612 -24.5698
# 3 28.4525 18.0419 102.5028 10.5611 22.4247 -15.9930
# 4 3.2246 9.4119 10.5611 31.0748 1.8148 3.0748
# 5 7.0364 2.2612 22.4247 1.8148 41.3403 4.7375
# 6 -10.9451 -24.5698 -15.9930 3.0748 4.7375 42.6743
#
#
#
# Elastic Compliance Matrix: (Units=1/GPa)
#
#
# Indices 1 2 3 4 5 6 
#
# 1 0.010520 -0.001382 -0.002402 0.000070 -0.000536 0.001057
# 2 -0.001382 0.011532 0.000025 -0.003961 -0.001002 0.006691
# 3 -0.002402 0.000025 0.013320 -0.004407 -0.007256 0.005513
# 4 0.000070 -0.003961 -0.004407 0.035425 0.001804 -0.006667
# 5 -0.000536 -0.001002 -0.007256 0.001804 0.028969 -0.006780
# 6 0.001057 0.006691 0.005513 -0.006667 -0.006780 0.030856
#
#
# Mechanical properties :
#
#
# Convention : Reuss Voigt Hill
#
# Bulk Modulus (GPa) = 35.90030 49.93137 42.91584
# Shear Modulus (GPa) = 33.91583 39.54337 36.72960
#
# Velocity S-wave (km/s) = 3.77489 4.07605 3.92836
# Velocity P-wave (km/s) = 5.83808 6.56742 6.21346
#
# Compressibility (1/GPa) = 0.02785492
#
# Stress axis : x y z
#
# Youngs Moduli (GPa) = 95.05769 86.71683 75.07598
#
# Poissons Ratio (x) = 0.11981 0.18032
# Poissons Ratio (y) = 0.13133 -0.00189
# Poissons Ratio (z) = 0.22831 -0.00218
#
# Static dielectric constant tensor:
#      x y z
#    x 1.918880 -0.039680 0.071700 
#    y -0.039680 2.062480 -0.174710 
#    z 0.071700 -0.174710 2.073110 
# 
# From -- ./inp_files/523420.got.cif
#   From: 2010.05.17/outbox.cif.g08.bks.cpg/sg2_262_cif.got.tgz:523420.got - 2010.06.03 11:33:40.
