data_PCOD9040071
_publ_section_title
;
Structure prediction by ZEFSAII (Michael W. Deem and Ramdas Pophale) SiO2 
 PCOD9040071
Probable space group: P -1
;
_chemical_formula_sum "Si O2"
_cell_formula_units_Z 16
_cell_length_a 11.581128
_cell_length_b 17.479293
_cell_length_c 10.316269
_cell_angle_alpha 135.761543
_cell_angle_beta 110.401470
_cell_angle_gamma 37.227709
_cell_volume 749.809095
_symmetry_space_group_name_H-M "P -1"
_symmetry_group_IT_number 2
_symmetry_cell_setting 'triclinic'
loop_
_space_group_symop_operation_xyz
x,y,z
-x,-y,-z
loop_
_atom_site_type_symbol
_atom_site_label
_atom_site_fract_x
_atom_site_fract_y
_atom_site_fract_z
Si Si1 0.418803 0.884403 0.815739
Si Si2 0.320644 0.339473 0.610747
Si Si3 0.397510 0.928603 0.373302
Si Si4 0.835361 0.720144 0.864038
Si Si5 0.338860 0.576059 0.914109
Si Si6 0.601070 0.351930 0.475476
Si Si7 0.056307 0.985526 0.352534
Si Si8 0.788060 0.729574 0.155410
O O1 0.485726 0.814717 0.606958
O O2 0.392915 0.780031 0.728644
O O3 0.221342 0.121423 0.034382
O O4 0.635831 0.784642 0.834931
O O5 0.409256 0.208727 0.608450
O O6 0.285791 0.490797 0.823374
O O7 0.076904 0.489401 0.646398
O O8 0.551834 0.837115 0.197834
O O9 0.261906 0.917393 0.328757
O O10 0.234989 0.149551 0.611398
O O11 0.827896 0.743105 0.043196
O O12 0.448169 0.486560 0.706252
O O13 0.500000 0.500000 0.000000
O O14 0.131272 0.812532 0.116607
O O15 0.500000 0.500000 0.500000
O O16 0.848516 0.186956 0.433151
O O17 0.000000 0.000000 0.500000
O O18 0.000000 0.500000 0.000000
#
# Coordination Sequence:
#
# PCOD9040071 Si02
#       8
#     2   2   2   2   2   2   2   2
#     4  10  23  43  60  93 128 169 226 268 318 413
#     4  11  20  39  64  95 129 158 220 275 321 397
#     4  11  24  39  61  99 135 164 219 279 333 402
#     4  11  22  38  69  89 122 179 218 263 336 394
#     4  11  22  40  69 103 130 176 230 275 340 416
#     4  11  26  46  66  98 142 180 227 289 349 401
#     4  12  24  42  72 101 134 182 230 286 339 410
#     4  11  24  41  61  94 135 170 208 277 341 389
#
# _framework density 21.338764000000001
#
# number of rings (size 3 to 8) (size 9 to 14) (size 15 to 20)
#    0.000    1.000    5.000    1.875    1.750    3.500 
#    0.000    2.500    0.000    0.000    0.000    0.000 
#    0.000    0.000    0.000    0.000    0.000    0.000 
#
# Total GULP energy -89288.921397 kJ/mol
# GULP energy per Si atom -5580.557587 kJ/mol
# Density = 2.129020 g / cm^3
# Si number density = 21.338764 Si / 1000 Ang^3
#
#
#
# Elastic Constant Matrix: (Units=GPa)
#
#
# Indices 1 2 3 4 5 6 
#
# 1 80.2077 24.9635 9.1780 0.5076 10.7844 4.3494
# 2 24.9635 105.4205 20.1719 22.3608 14.2678 8.8081
# 3 9.1780 20.1719 82.5342 21.0891 6.4222 3.9425
# 4 0.5076 22.3608 21.0891 38.0241 1.1133 3.4277
# 5 10.7844 14.2678 6.4222 1.1133 28.6185 -0.5339
# 6 4.3494 8.8081 3.9425 3.4277 -0.5339 31.2482
#
#
#
# Elastic Compliance Matrix: (Units=1/GPa)
#
#
# Indices 1 2 3 4 5 6 
#
# 1 0.014086 -0.003037 -0.001098 0.002431 -0.003667 -0.001295
# 2 -0.003037 0.012578 -0.000537 -0.006702 -0.004790 -0.002402
# 3 -0.001098 -0.000537 0.014523 -0.007591 -0.002296 -0.000735
# 4 0.002431 -0.006702 -0.007591 0.034447 0.002766 -0.001223
# 5 -0.003667 -0.004790 -0.002296 0.002766 0.039167 0.002516
# 6 -0.001295 -0.002402 -0.000735 -0.001223 0.002516 0.033129
#
#
# Mechanical properties :
#
#
# Convention : Reuss Voigt Hill
#
# Bulk Modulus (GPa) = 31.40266 41.86549 36.63407
# Shear Modulus (GPa) = 29.78174 33.83476 31.80825
#
# Velocity S-wave (km/s) = 3.73991 3.98628 3.86506
# Velocity P-wave (km/s) = 5.77905 6.39134 6.09289
#
# Compressibility (1/GPa) = 0.03184444
#
# Stress axis : x y z
#
# Youngs Moduli (GPa) = 70.99113 79.50321 68.85680
#
# Poissons Ratio (x) = 0.24142 0.07562
# Poissons Ratio (y) = 0.21557 0.03695
# Poissons Ratio (z) = 0.07796 0.04266
#
# Static dielectric constant tensor:
#      x y z
#    x 1.822400 -0.033740 -0.019060 
#    y -0.033740 1.796020 0.017210 
#    z -0.019060 0.017210 1.788580 
# 
# From -- ./inp_files/437402.got.cif
#   From: 2010.05.17/outbox.cif.g08.bks.cpg/sg2_219_cif.got.tgz:437402.got - 2010.06.03 11:33:40.
