data_PCOD9040225
_publ_section_title
;
Structure prediction by ZEFSAII (Michael W. Deem and Ramdas Pophale) SiO2 
 PCOD9040225
Probable space group: P -1
;
_chemical_formula_sum "Si O2"
_cell_formula_units_Z 16
_cell_length_a 7.030585
_cell_length_b 7.951682
_cell_length_c 15.899969
_cell_angle_alpha 58.147786
_cell_angle_beta 110.228663
_cell_angle_gamma 99.631596
_cell_volume 708.333329
_symmetry_space_group_name_H-M "P -1"
_symmetry_group_IT_number 2
_symmetry_cell_setting 'triclinic'
loop_
_space_group_symop_operation_xyz
x,y,z
-x,-y,-z
loop_
_atom_site_type_symbol
_atom_site_label
_atom_site_fract_x
_atom_site_fract_y
_atom_site_fract_z
Si Si1 0.088065 0.231131 0.545532
Si Si2 0.993808 0.103553 0.253759
Si Si3 0.187030 0.729318 0.069147
Si Si4 0.803439 0.915010 0.891089
Si Si5 0.653766 0.654327 0.710659
Si Si6 0.600051 0.281359 0.070715
Si Si7 0.452178 0.033870 0.581361
Si Si8 0.331087 0.615658 0.531313
O O1 0.222366 0.094180 0.542935
O O2 0.223857 0.425164 0.527399
O O3 0.859250 0.288910 0.471811
O O4 0.073044 0.102727 0.662361
O O5 0.115414 0.059937 0.197380
O O6 0.144392 0.219295 0.308409
O O7 0.802950 0.243990 0.165283
O O8 0.269700 0.521874 0.172156
O O9 0.181251 0.889311 0.100975
O O10 0.330751 0.776233 0.998883
O O11 0.956108 0.742572 0.996313
O O12 0.573823 0.854881 0.883384
O O13 0.523003 0.576660 0.632319
O O14 0.510391 0.824300 0.686418
O O15 0.500000 0.500000 0.000000
O O16 0.593579 0.224504 0.568365
O O17 0.500000 0.000000 0.500000
#
# Coordination Sequence:
#
# PCOD9040225 Si02
#       8
#     2   2   2   2   2   2   2   2
#     4  11  24  45  72  97 133 177 228 273 335 407
#     4  11  25  41  68 103 132 176 227 273 333 401
#     4  10  23  43  65 100 134 182 223 272 334 397
#     4  10  23  46  66  94 144 176 220 281 328 397
#     4  11  23  43  65 102 137 171 222 276 337 392
#     4  11  23  40  70  97 135 179 224 272 336 398
#     4  10  23  44  66  95 134 172 217 277 334 391
#     4  10  24  47  67  98 131 177 222 280 338 394
#
# _framework density 22.588234
#
# number of rings (size 3 to 8) (size 9 to 14) (size 15 to 20)
#    0.000    1.500    1.250    2.250    5.250    4.000 
#    9.000    0.000    0.000    0.000    0.000    0.000 
#    0.000    0.000    0.000    0.000    0.000    0.000 
#
# Total GULP energy -89322.588966 kJ/mol
# GULP energy per Si atom -5582.661810 kJ/mol
# Density = 2.253682 g / cm^3
# Si number density = 22.588234 Si / 1000 Ang^3
#
#
#
# Elastic Constant Matrix: (Units=GPa)
#
#
# Indices 1 2 3 4 5 6 
#
# 1 159.4337 42.3945 33.7031 6.3191 15.3849 -21.1632
# 2 42.3945 69.6332 29.7335 -2.9205 6.0640 2.6696
# 3 33.7031 29.7335 102.8892 -8.0459 20.3577 -8.8790
# 4 6.3191 -2.9205 -8.0459 30.5159 1.9820 0.2949
# 5 15.3849 6.0640 20.3577 1.9820 37.1527 0.2923
# 6 -21.1632 2.6696 -8.8790 0.2949 0.2923 37.2365
#
#
#
# Elastic Compliance Matrix: (Units=1/GPa)
#
#
# Indices 1 2 3 4 5 6 
#
# 1 0.008808 -0.005179 -0.000655 -0.002390 -0.002357 0.005259
# 2 -0.005179 0.019635 -0.004596 0.001701 0.001411 -0.005472
# 3 -0.000655 -0.004596 0.013060 0.003522 -0.006347 0.003093
# 4 -0.002390 0.001701 0.003522 0.034563 -0.003054 -0.000890
# 5 -0.002357 0.001411 -0.006347 -0.003054 0.031327 -0.003176
# 6 0.005259 -0.005472 0.003093 -0.000890 -0.003176 0.031006
#
#
# Mechanical properties :
#
#
# Convention : Reuss Voigt Hill
#
# Bulk Modulus (GPa) = 48.44454 60.40201 54.42327
# Shear Modulus (GPa) = 30.09481 36.05604 33.07542
#
# Velocity S-wave (km/s) = 3.65406 3.99962 3.83074
# Velocity P-wave (km/s) = 6.26867 6.93742 6.61151
#
# Compressibility (1/GPa) = 0.02064216
#
# Stress axis : x y z
#
# Youngs Moduli (GPa) = 113.53119 50.92921 76.56898
#
# Poissons Ratio (x) = 0.26378 0.05017
# Poissons Ratio (y) = 0.58803 0.35190
# Poissons Ratio (z) = 0.07439 0.23407
#
# Static dielectric constant tensor:
#      x y z
#    x 1.829110 -0.008460 0.019570 
#    y -0.008460 1.912110 -0.014730 
#    z 0.019570 -0.014730 1.879350 
# 
# From -- ./inp_files/547791.got.cif
#   From: 2010.05.17/outbox.cif.g08.bks.cpg/sg2_274_cif.got.tgz:547791.got - 2010.06.03 11:33:40.
