data_PCOD9040584
_publ_section_title
;
Structure prediction by ZEFSAII (Michael W. Deem and Ramdas Pophale) SiO2 
 PCOD9040584
Probable space group: P -1
;
_chemical_formula_sum "Si O2"
_cell_formula_units_Z 14
_cell_length_a 11.018668
_cell_length_b 11.896881
_cell_length_c 19.671605
_cell_angle_alpha 142.160562
_cell_angle_beta 155.832906
_cell_angle_gamma 49.200919
_cell_volume 624.083602
_symmetry_space_group_name_H-M "P -1"
_symmetry_group_IT_number 2
_symmetry_cell_setting 'triclinic'
loop_
_space_group_symop_operation_xyz
x,y,z
-x,-y,-z
loop_
_atom_site_type_symbol
_atom_site_label
_atom_site_fract_x
_atom_site_fract_y
_atom_site_fract_z
Si Si1 0.634018 0.939035 0.706861
Si Si2 0.264059 0.121093 0.077362
Si Si3 0.288469 0.241569 0.619553
Si Si4 0.163341 0.030472 0.834899
Si Si5 0.196553 0.880422 0.580693
Si Si6 0.879440 0.566869 0.042466
Si Si7 0.567872 0.463479 0.596761
O O1 0.416937 0.851458 0.618362
O O2 0.652339 0.738654 0.587930
O O3 0.457090 0.076899 0.646227
O O4 0.976857 0.069202 0.956706
O O5 0.532607 0.018203 0.179717
O O6 0.449297 0.341988 0.282268
O O7 0.090423 0.072498 0.894887
O O8 0.546927 0.428067 0.821538
O O9 0.066467 0.265054 0.579810
O O10 0.066137 0.153549 0.402086
O O11 0.138991 0.217390 0.871304
O O12 0.500000 0.000000 0.000000
O O13 0.000000 0.000000 0.500000
O O14 0.000000 0.500000 0.000000
O O15 0.100401 0.550096 0.210956
O O16 0.500000 0.500000 0.500000
#
# Coordination Sequence:
#
# PCOD9040584 Si02
#       7
#     2   2   2   2   2   2   2
#     4  11  23  43  73  97 138 182 230 290 350 411
#     4  12  24  44  69 105 136 181 242 291 342 428
#     4  11  24  46  72 100 140 185 226 293 358 412
#     4  12  26  45  72 104 143 185 235 288 362 422
#     4  10  23  43  67  97 141 183 227 286 358 424
#     4  12  26  47  73 104 142 186 243 290 343 429
#     4  12  25  41  70 107 137 178 243 290 343 413
#
# _framework density 22.432891999999999
#
# number of rings (size 3 to 8) (size 9 to 14) (size 15 to 20)
#    0.000    0.571    7.143    0.429    2.000    1.714 
#    2.571    2.143    0.000    0.000    0.000    0.000 
#    0.000    0.000    0.000    0.000    0.000    0.000 
#
# Total GULP energy -77989.006526 kJ/mol
# GULP energy per Si atom -5570.643323 kJ/mol
# Density = 2.238183 g / cm^3
# Si number density = 22.432892 Si / 1000 Ang^3
#
#
#
# Elastic Constant Matrix: (Units=GPa)
#
#
# Indices 1 2 3 4 5 6 
#
# 1 78.6869 9.9683 27.8599 -6.8810 12.3890 13.6692
# 2 9.9683 99.2568 47.0067 -20.0815 4.7766 2.4463
# 3 27.8599 47.0067 136.2760 -16.6112 12.1161 14.3681
# 4 -6.8810 -20.0815 -16.6112 48.3986 1.2670 -4.1247
# 5 12.3890 4.7766 12.1161 1.2670 43.0051 -7.8671
# 6 13.6692 2.4463 14.3681 -4.1247 -7.8671 27.4720
#
#
#
# Elastic Compliance Matrix: (Units=1/GPa)
#
#
# Indices 1 2 3 4 5 6 
#
# 1 0.015751 -0.000099 -0.001671 0.001056 -0.005625 -0.008407
# 2 -0.000099 0.012790 -0.004064 0.004038 -0.000069 0.001622
# 3 -0.001671 -0.004064 0.009957 0.001171 -0.002753 -0.004627
# 4 0.001056 0.004038 0.001171 0.023059 -0.001480 0.001541
# 5 -0.005625 -0.000069 -0.002753 -0.001480 0.027898 0.012012
# 6 -0.008407 0.001622 -0.004627 0.001541 0.012012 0.046530
#
#
# Mechanical properties :
#
#
# Convention : Reuss Voigt Hill
#
# Bulk Modulus (GPa) = 37.27223 53.76552 45.51888
# Shear Modulus (GPa) = 31.92920 39.06748 35.49834
#
# Velocity S-wave (km/s) = 3.77679 4.17769 3.98228
# Velocity P-wave (km/s) = 5.97243 6.87678 6.44049
#
# Compressibility (1/GPa) = 0.02682962
#
# Stress axis : x y z
#
# Youngs Moduli (GPa) = 63.48785 78.18713 100.43277
#
# Poissons Ratio (x) = 0.00775 0.16780
# Poissons Ratio (y) = 0.00630 0.40817
# Poissons Ratio (z) = 0.10607 0.31776
#
# Static dielectric constant tensor:
#      x y z
#    x 2.142070 -0.056950 -0.091170 
#    y -0.056950 1.874460 -0.017230 
#    z -0.091170 -0.017230 1.817430 
# 
# From -- ./inp_files/542900.got.cif
#   From: 2010.05.17/outbox.cif.g08.bks.cpg/sg2_272_cif.got.tgz:542900.got - 2010.06.03 11:33:40.
