data_PCOD9040353
_publ_section_title
;
Structure prediction by ZEFSAII (Michael W. Deem and Ramdas Pophale) SiO2 
 PCOD9040353
Probable space group: P -1
;
_chemical_formula_sum "Si O2"
_cell_formula_units_Z 12
_cell_length_a 8.997596
_cell_length_b 20.936814
_cell_length_c 9.492846
_cell_angle_alpha 137.361917
_cell_angle_beta 137.271838
_cell_angle_gamma 29.979005
_cell_volume 579.692018
_symmetry_space_group_name_H-M "P -1"
_symmetry_group_IT_number 2
_symmetry_cell_setting 'triclinic'
loop_
_space_group_symop_operation_xyz
x,y,z
-x,-y,-z
loop_
_atom_site_type_symbol
_atom_site_label
_atom_site_fract_x
_atom_site_fract_y
_atom_site_fract_z
Si Si1 0.103752 0.448951 0.646853
Si Si2 0.756414 0.371486 0.378705
Si Si3 0.207594 0.949816 0.203710
Si Si4 0.100997 0.192540 0.590195
Si Si5 0.251136 0.750459 0.086642
Si Si6 0.157678 0.633911 0.040894
O O1 0.947527 0.400474 0.501716
O O2 0.000000 0.500000 0.500000
O O3 0.464542 0.320871 0.724311
O O4 0.004451 0.577581 0.860833
O O5 0.500000 0.500000 0.500000
O O6 0.963474 0.248109 0.429035
O O7 0.636793 0.344887 0.124347
O O8 0.568978 0.853080 0.251026
O O9 0.152750 0.878795 0.156289
O O10 0.140906 0.068285 0.430703
O O11 0.000000 0.000000 0.000000
O O12 0.873281 0.304733 0.732145
O O13 0.031074 0.746578 0.017615
O O14 0.500000 0.500000 0.000000
#
# Coordination Sequence:
#
# PCOD9040353 Si02
#       6
#     2   2   2   2   2   2
#     4  11  23  40  63  96 139 175 210 279 339 397
#     4  12  24  38  69 102 131 175 225 278 344 399
#     4  11  24  46  71  95 135 183 233 279 321 396
#     4  11  25  44  69 101 135 177 230 280 333 398
#     4  11  23  43  65  97 135 175 228 273 333 406
#     4  10  23  43  66 101 138 170 218 277 344 405
#
# _framework density 20.700648000000001
#
# number of rings (size 3 to 8) (size 9 to 14) (size 15 to 20)
#    0.000    1.000    5.000    2.000    4.667    2.000 
#    0.000    0.833    0.000    0.000    0.000    0.000 
#    0.000    0.000    0.000    0.000    0.000    0.000 
#
# Total GULP energy -66893.847461 kJ/mol
# GULP energy per Si atom -5574.487288 kJ/mol
# Density = 2.065353 g / cm^3
# Si number density = 20.700648 Si / 1000 Ang^3
#
#
#
# Elastic Constant Matrix: (Units=GPa)
#
#
# Indices 1 2 3 4 5 6 
#
# 1 63.8055 28.3238 14.3845 16.1535 -2.6346 35.1418
# 2 28.3238 66.6366 22.5035 -3.2562 0.2300 25.3644
# 3 14.3845 22.5035 80.1745 8.0973 -12.0624 3.5992
# 4 16.1535 -3.2562 8.0973 46.0430 11.7798 4.0433
# 5 -2.6346 0.2300 -12.0624 11.7798 37.9203 7.6222
# 6 35.1418 25.3644 3.5992 4.0433 7.6222 48.9780
#
#
#
# Elastic Compliance Matrix: (Units=1/GPa)
#
#
# Indices 1 2 3 4 5 6 
#
# 1 0.034813 -0.007083 -0.000252 -0.013561 0.010993 -0.021883
# 2 -0.007083 0.022770 -0.005997 0.006549 -0.003307 -0.006295
# 3 -0.000252 -0.005997 0.015533 -0.004774 0.006124 0.001586
# 4 -0.013561 0.006549 -0.004774 0.030626 -0.013266 0.006226
# 5 0.010993 -0.003307 0.006124 -0.013266 0.035444 -0.011046
# 6 -0.021883 -0.006295 0.001586 0.006226 -0.011046 0.040467
#
#
# Mechanical properties :
#
#
# Convention : Reuss Voigt Hill
#
# Bulk Modulus (GPa) = 21.52708 37.89336 29.71022
# Shear Modulus (GPa) = 22.54252 36.28192 29.41222
#
# Velocity S-wave (km/s) = 3.30354 4.19106 3.77349
# Velocity P-wave (km/s) = 4.99730 6.46259 5.77660
#
# Compressibility (1/GPa) = 0.04645313
#
# Stress axis : x y z
#
# Youngs Moduli (GPa) = 28.72459 43.91710 64.37715
#
# Poissons Ratio (x) = 0.31108 0.01622
# Poissons Ratio (y) = 0.20347 0.38604
# Poissons Ratio (z) = 0.00724 0.26335
#
# Static dielectric constant tensor:
#      x y z
#    x 1.612050 -0.005670 0.033220 
#    y -0.005670 1.800180 -0.019440 
#    z 0.033220 -0.019440 1.766880 
# 
# From -- ./inp_files/43158.got.cif
#   From: 2010.05.17/outbox.cif.g08.bks.cpg/sg2_22_cif.got.tgz:43158.got - 2010.06.03 11:33:40.
