data_PCOD9040735
_publ_section_title
;
Structure prediction by ZEFSAII (Michael W. Deem and Ramdas Pophale) SiO2 
 PCOD9040735
Probable space group: P -1
;
_chemical_formula_sum "Si O2"
_cell_formula_units_Z 14
_cell_length_a 6.006905
_cell_length_b 9.046626
_cell_length_c 18.935238
_cell_angle_alpha 141.301922
_cell_angle_beta 91.538977
_cell_angle_gamma 83.908651
_cell_volume 637.107967
_symmetry_space_group_name_H-M "P -1"
_symmetry_group_IT_number 2
_symmetry_cell_setting 'triclinic'
loop_
_space_group_symop_operation_xyz
x,y,z
-x,-y,-z
loop_
_atom_site_type_symbol
_atom_site_label
_atom_site_fract_x
_atom_site_fract_y
_atom_site_fract_z
Si Si1 0.776899 0.821271 0.105291
Si Si2 0.020132 0.718394 0.686277
Si Si3 0.268260 0.887352 0.470822
Si Si4 0.117885 0.518738 0.896174
Si Si5 0.630173 0.021524 0.936556
Si Si6 0.725789 0.406258 0.503462
Si Si7 0.066498 0.483496 0.256793
O O1 0.757040 0.683634 0.127180
O O2 0.547376 0.952509 0.119453
O O3 0.943011 0.018412 0.193414
O O4 0.890864 0.628629 0.977336
O O5 0.124177 0.674343 0.593239
O O6 0.783851 0.628825 0.634115
O O7 0.097992 0.535001 0.683364
O O8 0.280169 0.808528 0.522954
O O9 0.257183 0.650739 0.335433
O O10 0.500000 0.000000 0.500000
O O11 0.000000 0.000000 0.500000
O O12 0.059071 0.439811 0.788044
O O13 0.257654 0.738250 0.971588
O O14 0.814608 0.788662 0.848773
O O15 0.500000 0.000000 0.000000
O O16 0.500000 0.500000 0.500000
#
# Coordination Sequence:
#
# PCOD9040735 Si02
#       7
#     2   2   2   2   2   2   2
#     4  11  24  40  68  96 139 174 228 287 358 415
#     4  10  23  43  68  96 137 179 238 290 363 425
#     4  11  29  50  74 110 151 188 244 310 373 436
#     4  11  24  44  62 102 138 177 223 296 347 428
#     4  12  23  42  67 100 136 187 235 287 343 441
#     4  10  25  44  72 101 134 185 242 302 356 441
#     4  11  24  45  72  98 137 191 235 293 362 435
#
# _framework density 21.974295999999999
#
# number of rings (size 3 to 8) (size 9 to 14) (size 15 to 20)
#    0.000    1.143    2.857    1.714   12.000    1.143 
#    0.000    0.000    0.000    0.000    0.000    0.000 
#    0.000    0.000    0.000    0.000    0.000    0.000 
#
# Total GULP energy -78049.458885 kJ/mol
# GULP energy per Si atom -5574.961349 kJ/mol
# Density = 2.192428 g / cm^3
# Si number density = 21.974296 Si / 1000 Ang^3
#
#
#
# Elastic Constant Matrix: (Units=GPa)
#
#
# Indices 1 2 3 4 5 6 
#
# 1 79.4720 70.5267 18.2150 -2.0469 18.0049 8.0872
# 2 70.5267 190.3612 43.9623 -30.8312 17.7637 5.7330
# 3 18.2150 43.9623 78.1785 -14.8671 25.3687 16.5096
# 4 -2.0469 -30.8312 -14.8671 43.9986 3.4669 4.5729
# 5 18.0049 17.7637 25.3687 3.4669 29.0997 4.3724
# 6 8.0872 5.7330 16.5096 4.5729 4.3724 42.3667
#
#
#
# Elastic Compliance Matrix: (Units=1/GPa)
#
#
# Indices 1 2 3 4 5 6 
#
# 1 0.021610 -0.008051 0.002958 -0.002529 -0.010305 -0.002852
# 2 -0.008051 0.009669 -0.003058 0.005210 0.001011 0.000753
# 3 0.002958 -0.003058 0.023846 0.008527 -0.020529 -0.008245
# 4 -0.002529 0.005210 0.008527 0.030662 -0.011856 -0.005631
# 5 -0.010305 0.001011 -0.020529 -0.011856 0.058673 0.005054
# 6 -0.002852 0.000753 -0.008245 -0.005631 0.005054 0.027345
#
#
# Mechanical properties :
#
#
# Convention : Reuss Voigt Hill
#
# Bulk Modulus (GPa) = 25.75868 68.15776 46.95822
# Shear Modulus (GPa) = 24.86972 37.44685 31.15828
#
# Velocity S-wave (km/s) = 3.36782 4.13258 3.76964
# Velocity P-wave (km/s) = 5.18368 7.33862 6.35318
#
# Compressibility (1/GPa) = 0.03882186
#
# Stress axis : x y z
#
# Youngs Moduli (GPa) = 46.27504 103.42318 41.93602
#
# Poissons Ratio (x) = 0.83270 -0.12404
# Poissons Ratio (y) = 0.37258 0.12823
# Poissons Ratio (z) = -0.13687 0.31625
#
# Static dielectric constant tensor:
#      x y z
#    x -1.226660 -3.817630 2.281150 
#    y -3.817630 -2.991750 2.904480 
#    z 2.281150 2.904480 0.117210 
# 
# From -- ./inp_files/49444.got.cif
#   From: 2010.05.17/outbox.cif.g08.bks.cpg/sg2_25_cif.got.tgz:49444.got - 2010.06.03 11:33:40.
