data_PCOD9040645
_publ_section_title
;
Structure prediction by ZEFSAII (Michael W. Deem and Ramdas Pophale) SiO2 
 PCOD9040645
Probable space group: P -1
;
_chemical_formula_sum "Si O2"
_cell_formula_units_Z 16
_cell_length_a 15.546926
_cell_length_b 8.123848
_cell_length_c 28.019394
_cell_angle_alpha 138.310010
_cell_angle_beta 19.202072
_cell_angle_gamma 128.931126
_cell_volume 724.827339
_symmetry_space_group_name_H-M "P -1"
_symmetry_group_IT_number 2
_symmetry_cell_setting 'triclinic'
loop_
_space_group_symop_operation_xyz
x,y,z
-x,-y,-z
loop_
_atom_site_type_symbol
_atom_site_label
_atom_site_fract_x
_atom_site_fract_y
_atom_site_fract_z
Si Si1 0.958519 0.747005 0.226822
Si Si2 0.031243 0.261159 0.018891
Si Si3 0.471646 0.044135 0.418380
Si Si4 0.407845 0.565272 0.796980
Si Si5 0.062391 0.008871 0.138404
Si Si6 0.684809 0.000949 0.605993
Si Si7 0.186721 0.164464 0.391831
Si Si8 0.629628 0.645475 0.000583
O O1 0.016859 0.961407 0.207993
O O2 0.204694 0.568936 0.093537
O O3 0.904494 0.527096 0.173679
O O4 0.709281 0.878923 0.422661
O O5 0.363745 0.178936 0.822487
O O6 0.853410 0.307656 0.074217
O O7 0.000000 0.000000 0.000000
O O8 0.526507 0.741435 0.310784
O O9 0.764212 0.075500 0.282960
O O10 0.316614 0.172100 0.477980
O O11 0.679311 0.630949 0.654158
O O12 0.280081 0.721569 0.945837
O O13 0.189909 0.217900 0.095382
O O14 0.799379 0.832043 0.557230
O O15 0.883887 0.175654 0.535394
O O16 0.398134 0.881983 0.201139
O O17 0.500000 0.500000 0.000000
#
# Coordination Sequence:
#
# PCOD9040645 Si02
#       8
#     2   2   2   2   2   2   2   2
#     4  12  26  45  67 105 145 174 232 293 345 419
#     4  12  21  42  73 101 133 186 231 287 344 410
#     4  12  25  42  66 107 141 175 228 292 349 408
#     4  11  22  42  73  99 137 176 234 281 341 416
#     4  11  24  45  73 101 136 187 230 289 349 409
#     4  11  22  41  68  97 135 177 230 276 350 403
#     4  10  23  43  68 102 131 180 237 284 334 424
#     4  11  25  48  69  99 142 185 233 287 350 415
#
# _framework density 22.074221000000001
#
# number of rings (size 3 to 8) (size 9 to 14) (size 15 to 20)
#    0.000    0.750    5.000    3.000    0.000    1.500 
#    9.000    1.250    0.000    0.000    0.000    0.000 
#    0.000    0.000    0.000    0.000    0.000    0.000 
#
# Total GULP energy -89435.421799 kJ/mol
# GULP energy per Si atom -5589.713862 kJ/mol
# Density = 2.202398 g / cm^3
# Si number density = 22.074221 Si / 1000 Ang^3
#
#
#
# Elastic Constant Matrix: (Units=GPa)
#
#
# Indices 1 2 3 4 5 6 
#
# 1 113.5892 72.7330 43.7271 -26.1120 21.0346 -11.8660
# 2 72.7330 75.9934 43.1988 -37.3981 -13.7544 16.4978
# 3 43.7271 43.1988 102.3967 -36.1236 8.2795 9.4479
# 4 -26.1120 -37.3981 -36.1236 34.0331 2.4121 -6.2127
# 5 21.0346 -13.7544 8.2795 2.4121 40.3696 -1.1893
# 6 -11.8660 16.4978 9.4479 -6.2127 -1.1893 20.7995
#
#
#
# Elastic Compliance Matrix: (Units=1/GPa)
#
#
# Indices 1 2 3 4 5 6 
#
# 1 -0.017564 0.037370 0.000482 0.020770 0.019585 -0.032556
# 2 0.037370 -0.042275 -0.004112 -0.010500 -0.030878 0.051817
# 3 0.000482 -0.004112 0.016729 0.013987 -0.005926 -0.000223
# 4 0.020770 -0.010500 0.013987 0.055361 -0.019715 0.029233
# 5 0.019585 -0.030878 -0.005926 -0.019715 0.007408 0.032891
# 6 -0.032556 0.051817 -0.000223 0.029233 0.032891 -0.000882
#
#
# Mechanical properties :
#
#
# Convention : Reuss Voigt Hill
#
# Bulk Modulus (GPa) = 41.03337 67.92191 54.47764
# Shear Modulus (GPa) = -123.21267 27.86182 -47.67543
#
# Velocity S-wave (km/s) = -7.47921 3.55658 -4.65238
# Velocity P-wave (km/s) = 7.48035 6.90668 2.03142
#
# Compressibility (1/GPa) = 0.02437041
#
# Stress axis : x y z
#
# Youngs Moduli (GPa) = -56.93597 -23.65451 59.77718
#
# Poissons Ratio (x) = 0.88396 -0.02884
# Poissons Ratio (y) = 2.12768 0.24579
# Poissons Ratio (z) = 0.02747 -0.09726
#
# Static dielectric constant tensor:
#      x y z
#    x 1.847570 -0.045910 0.011470 
#    y -0.045910 1.820600 -0.009810 
#    z 0.011470 -0.009810 1.809370 
# 
# From -- ./inp_files/619289.got.cif
#   From: 2010.05.17/outbox.cif.g08.bks.cpg/sg2_310_cif.got.tgz:619289.got - 2010.06.03 11:33:40.
