data_PCOD9040364
_publ_section_title
;
Structure prediction by ZEFSAII (Michael W. Deem and Ramdas Pophale) SiO2 
 PCOD9040364
Probable space group: P -1
;
_chemical_formula_sum "Si O2"
_cell_formula_units_Z 14
_cell_length_a 17.515699
_cell_length_b 6.996413
_cell_length_c 7.378307
_cell_angle_alpha 47.190967
_cell_angle_beta 111.557701
_cell_angle_gamma 123.524396
_cell_volume 552.943225
_symmetry_space_group_name_H-M "P -1"
_symmetry_group_IT_number 2
_symmetry_cell_setting 'triclinic'
loop_
_space_group_symop_operation_xyz
x,y,z
-x,-y,-z
loop_
_atom_site_type_symbol
_atom_site_label
_atom_site_fract_x
_atom_site_fract_y
_atom_site_fract_z
Si Si1 0.102222 0.061769 0.520800
Si Si2 0.383938 0.079968 0.672681
Si Si3 0.801910 0.288549 0.152901
Si Si4 0.785966 0.290177 0.724871
Si Si5 0.892285 0.919298 0.919246
Si Si6 0.515670 0.545779 0.199897
Si Si7 0.608636 0.214531 0.434404
O O1 0.161519 0.361130 0.486880
O O2 0.116853 0.072147 0.311295
O O3 0.114089 0.781907 0.771375
O O4 0.000000 0.000000 0.500000
O O5 0.442369 0.147360 0.862520
O O6 0.435920 0.327515 0.405500
O O7 0.277961 0.998063 0.646364
O O8 0.379229 0.784429 0.770777
O O9 0.765059 0.294323 0.917257
O O10 0.832747 0.571626 0.121401
O O11 0.847269 0.119341 0.838082
O O12 0.687592 0.152060 0.629621
O O13 0.000000 0.000000 0.000000
O O14 0.607121 0.492936 0.341990
O O15 0.500000 0.500000 0.000000
O O16 0.500000 0.000000 0.500000
#
# Coordination Sequence:
#
# PCOD9040364 Si02
#       7
#     2   2   2   2   2   2   2
#     4  11  24  44  71 106 148 189 247 316 377 454
#     4  10  23  43  66 103 140 182 249 296 374 437
#     4  11  25  44  70 107 148 192 246 313 372 445
#     4  11  25  45  71 105 151 193 250 310 376 449
#     4  11  25  45  73 107 145 199 249 301 385 455
#     4  10  23  45  72 101 140 192 244 315 371 442
#     4  10  23  44  65 100 142 187 246 301 365 433
#
# _framework density 25.319054999999999
#
# number of rings (size 3 to 8) (size 9 to 14) (size 15 to 20)
#    0.000    1.429    0.000    3.429    4.000   10.857 
#   10.286    0.000    0.000    0.000    0.000    0.000 
#    0.000    0.000    0.000    0.000    0.000    0.000 
#
# Total GULP energy -78014.476172 kJ/mol
# GULP energy per Si atom -5572.462584 kJ/mol
# Density = 2.526143 g / cm^3
# Si number density = 25.319055 Si / 1000 Ang^3
#
#
#
# Elastic Constant Matrix: (Units=GPa)
#
#
# Indices 1 2 3 4 5 6 
#
# 1 116.0756 53.0763 17.7490 7.0343 19.4584 7.6458
# 2 53.0763 166.3021 40.3219 18.2629 7.4818 4.7209
# 3 17.7490 40.3219 48.7956 17.9778 1.4097 0.9519
# 4 7.0343 18.2629 17.9778 46.9422 -8.0809 1.9806
# 5 19.4584 7.4818 1.4097 -8.0809 42.5086 -0.8894
# 6 7.6458 4.7209 0.9519 1.9806 -0.8894 41.2120
#
#
#
# Elastic Compliance Matrix: (Units=1/GPa)
#
#
# Indices 1 2 3 4 5 6 
#
# 1 0.011075 -0.002902 -0.001156 -0.000825 -0.004714 -0.001758
# 2 -0.002902 0.008388 -0.005616 -0.000683 -0.000097 -0.000262
# 3 -0.001156 -0.005616 0.028859 -0.008912 -0.001121 0.000595
# 4 -0.000825 -0.000683 -0.008912 0.026124 0.005745 -0.000694
# 5 -0.004714 -0.000097 -0.001121 0.005745 0.026854 0.001215
# 6 -0.001758 -0.000262 0.000595 -0.000694 0.001215 0.024667
#
#
# Mechanical properties :
#
#
# Convention : Reuss Voigt Hill
#
# Bulk Modulus (GPa) = 34.51337 61.49641 48.00489
# Shear Modulus (GPa) = 32.26384 40.80097 36.53241
#
# Velocity S-wave (km/s) = 3.57359 4.01867 3.80265
# Velocity P-wave (km/s) = 5.53971 6.77305 6.18719
#
# Compressibility (1/GPa) = 0.02897428
#
# Stress axis : x y z
#
# Youngs Moduli (GPa) = 90.29620 119.22135 34.65086
#
# Poissons Ratio (x) = 0.34594 0.04006
# Poissons Ratio (y) = 0.26201 0.19460
# Poissons Ratio (z) = 0.10439 0.66955
#
# Static dielectric constant tensor:
#      x y z
#    x 2.116200 -0.034180 0.076410 
#    y -0.034180 2.101890 -0.096490 
#    z 0.076410 -0.096490 2.262800 
# 
# From -- ./inp_files/323344.got.cif
#   From: 2010.05.17/outbox.cif.g08.bks.cpg/sg2_162_cif.got.tgz:323344.got - 2010.06.03 11:33:40.
