data_PCOD9040512
_publ_section_title
;
Structure prediction by ZEFSAII (Michael W. Deem and Ramdas Pophale) SiO2 
 PCOD9040512
Probable space group: P -1
;
_chemical_formula_sum "Si O2"
_cell_formula_units_Z 16
_cell_length_a 8.710788
_cell_length_b 8.687480
_cell_length_c 24.745917
_cell_angle_alpha 137.693735
_cell_angle_beta 136.553279
_cell_angle_gamma 73.646148
_cell_volume 722.951817
_symmetry_space_group_name_H-M "P -1"
_symmetry_group_IT_number 2
_symmetry_cell_setting 'triclinic'
loop_
_space_group_symop_operation_xyz
x,y,z
-x,-y,-z
loop_
_atom_site_type_symbol
_atom_site_label
_atom_site_fract_x
_atom_site_fract_y
_atom_site_fract_z
Si Si1 0.894597 0.548924 0.930263
Si Si2 0.065191 0.687530 0.406738
Si Si3 0.723050 0.916346 0.339292
Si Si4 0.485451 0.563624 0.450049
Si Si5 0.289699 0.945856 0.849390
Si Si6 0.928919 0.867902 0.837962
Si Si7 0.083734 0.039676 0.710683
Si Si8 0.104156 0.572827 0.875612
O O1 0.574552 0.342353 0.792157
O O2 0.019986 0.500427 0.897383
O O3 0.000000 0.500000 0.000000
O O4 0.997306 0.867101 0.041014
O O5 0.289653 0.674076 0.427772
O O6 0.943563 0.843882 0.389003
O O7 0.822146 0.372402 0.269677
O O8 0.198072 0.835557 0.535829
O O9 0.747903 0.982905 0.299608
O O10 0.500000 0.500000 0.500000
O O11 0.342184 0.285938 0.306373
O O12 0.777146 0.790703 0.563305
O O13 0.159609 0.961702 0.875961
O O14 0.184639 0.028810 0.792942
O O15 0.605362 0.149719 0.983852
O O16 0.911306 0.640366 0.813657
O O17 0.109785 0.327170 0.787026
#
# Coordination Sequence:
#
# PCOD9040512 Si02
#       8
#     2   2   2   2   2   2   2   2
#     4  12  26  43  66  96 137 176 219 275 324 386
#     4  10  23  43  67  91 137 177 212 276 324 386
#     4  11  25  42  65  99 134 173 222 266 331 388
#     4  11  23  44  69  96 130 169 222 271 330 390
#     4  11  22  42  65  94 132 171 217 269 327 387
#     4  11  24  42  67  94 130 176 214 275 330 387
#     4  12  23  40  68  97 128 174 217 273 324 391
#     4  12  25  41  67  97 132 173 225 266 326 394
#
# _framework density 22.131488999999998
#
# number of rings (size 3 to 8) (size 9 to 14) (size 15 to 20)
#    0.000    0.750    2.500    6.375    1.750    5.500 
#    0.000    0.000    0.000    0.000    0.000    0.000 
#    0.000    0.000    0.000    0.000    0.000    0.000 
#
# Total GULP energy -89582.024969 kJ/mol
# GULP energy per Si atom -5598.876561 kJ/mol
# Density = 2.208112 g / cm^3
# Si number density = 22.131489 Si / 1000 Ang^3
#
#
#
# Elastic Constant Matrix: (Units=GPa)
#
#
# Indices 1 2 3 4 5 6 
#
# 1 39.5873 13.3732 35.0508 -1.7723 -64.7412 -1.3575
# 2 13.3732 18.2681 -20.1424 -0.4254 26.2654 14.7919
# 3 35.0508 -20.1424 129.4162 6.8300 3.0893 -0.1391
# 4 -1.7723 -0.4254 6.8300 30.6751 -6.9779 -6.1975
# 5 -64.7412 26.2654 3.0893 -6.9779 -18.8882 -12.6071
# 6 -1.3575 14.7919 -0.1391 -6.1975 -12.6071 26.1826
#
#
#
# Elastic Compliance Matrix: (Units=1/GPa)
#
#
# Indices 1 2 3 4 5 6 
#
# 1 0.009194 0.011692 -0.000350 -0.002981 -0.007300 -0.010351
# 2 0.011692 0.034941 0.001782 0.002034 0.015510 -0.011175
# 3 -0.000350 0.001782 0.008022 -0.000548 0.004490 0.001050
# 4 -0.002981 0.002034 -0.000548 0.033012 -0.002712 0.005202
# 5 -0.007300 0.015510 0.004490 -0.002712 0.001436 -0.009068
# 6 -0.010351 -0.011175 0.001050 0.005202 -0.009068 0.040840
#
#
# Mechanical properties :
#
#
# Convention : Reuss Voigt Hill
#
# Bulk Modulus (GPa) = 12.75427 27.09276 19.92351
# Shear Modulus (GPa) = 39.26796 18.19323 28.73060
#
# Velocity S-wave (km/s) = 4.21682 2.87026 3.60693
# Velocity P-wave (km/s) = 5.42993 4.82211 5.13503
#
# Compressibility (1/GPa) = 0.07840514
#
# Stress axis : x y z
#
# Youngs Moduli (GPa) = 108.77172 28.61972 124.65816
#
# Poissons Ratio (x) = -0.33463 0.04360
# Poissons Ratio (y) = -1.27178 -0.22213
# Poissons Ratio (z) = 0.03804 -0.05100
#
# Static dielectric constant tensor:
#      x y z
#    x 1.766690 -0.008010 -0.011970 
#    y -0.008010 1.833760 -0.022280 
#    z -0.011970 -0.022280 1.787010 
# 
# From -- ./inp_files/209457.got.cif
#   From: 2010.05.17/outbox.cif.g08.bks.cpg/sg2_105_cif.got.tgz:209457.got - 2010.06.03 11:33:40.
