data_PCOD9040415
_publ_section_title
;
Structure prediction by ZEFSAII (Michael W. Deem and Ramdas Pophale) SiO2 
 PCOD9040415
Probable space group: P -1
;
_chemical_formula_sum "Si O2"
_cell_formula_units_Z 13
_cell_length_a 8.685256
_cell_length_b 9.303106
_cell_length_c 6.988693
_cell_angle_alpha 56.021427
_cell_angle_beta 88.473304
_cell_angle_gamma 82.102265
_cell_volume 462.956586
_symmetry_space_group_name_H-M "P -1"
_symmetry_group_IT_number 2
_symmetry_cell_setting 'triclinic'
loop_
_space_group_symop_operation_xyz
x,y,z
-x,-y,-z
loop_
_atom_site_type_symbol
_atom_site_label
_atom_site_fract_x
_atom_site_fract_y
_atom_site_fract_z
Si Si1 0.327107 0.086218 0.487700
Si Si2 0.330363 0.452335 0.336851
Si Si3 0.000000 0.000000 0.500000
Si Si4 0.389032 0.373442 0.832645
Si Si5 0.252732 0.066787 0.950482
Si Si6 0.903524 0.241336 0.877413
Si Si7 0.097266 0.641294 0.797049
O O1 0.322199 0.294783 0.311729
O O2 0.307983 0.058871 0.736397
O O3 0.184791 0.017271 0.436922
O O4 0.500000 0.000000 0.500000
O O5 0.389629 0.387719 0.589937
O O6 0.443608 0.579430 0.150603
O O7 0.160950 0.558327 0.300889
O O8 0.981787 0.204377 0.452107
O O9 0.356554 0.173284 0.001009
O O10 0.252716 0.525531 0.798445
O O11 0.082017 0.182091 0.875168
O O12 0.213093 0.873329 0.133095
O O13 0.893002 0.219922 0.127271
O O14 0.000000 0.500000 0.000000
#
# Coordination Sequence:
#
# PCOD9040415 Si02
#       7
#     2   2   1   2   2   2   2
#     4  11  24  46  67 104 139 182 240 290 348 431
#     4  10  24  43  70  99 135 188 233 294 354 425
#     4  12  26  44  76 100 146 198 226 298 364 410
#     4  10  23  44  68  98 140 183 235 288 361 421
#     4  10  23  43  66  96 140 178 224 300 345 425
#     4  11  23  43  67 100 142 174 239 292 355 421
#     4  12  24  43  69 107 136 184 242 290 347 441
#
# _framework density 28.080387000000002
#
# number of rings (size 3 to 8) (size 9 to 14) (size 15 to 20)
#    0.000    1.231    3.077    1.846    2.154    2.462 
#    2.769    0.000    0.000    0.000    0.000    0.000 
#    0.000    0.000    0.000    0.000    0.000    0.000 
#
# Total GULP energy -72612.617855 kJ/mol
# GULP energy per Si atom -5585.585989 kJ/mol
# Density = 2.801647 g / cm^3
# Si number density = 28.080387 Si / 1000 Ang^3
#
#
#
# Elastic Constant Matrix: (Units=GPa)
#
#
# Indices 1 2 3 4 5 6 
#
# 1 149.3450 89.5672 30.4345 -23.7463 -29.9511 10.4862
# 2 89.5672 196.5905 31.2700 -18.9749 -23.2268 4.1990
# 3 30.4345 31.2700 51.0970 1.3321 -16.5220 15.9078
# 4 -23.7463 -18.9749 1.3321 55.4760 8.2350 1.0524
# 5 -29.9511 -23.2268 -16.5220 8.2350 44.1865 -8.3766
# 6 10.4862 4.1990 15.9078 1.0524 -8.3766 47.3914
#
#
#
# Elastic Compliance Matrix: (Units=1/GPa)
#
#
# Indices 1 2 3 4 5 6 
#
# 1 0.010723 -0.003716 -0.002860 0.002860 0.003616 -0.000508
# 2 -0.003716 0.007283 -0.002457 0.000876 0.000428 0.001058
# 3 -0.002860 -0.002457 0.027075 -0.003502 0.006207 -0.007063
# 4 0.002860 0.000876 -0.003502 0.020049 -0.002735 -0.000463
# 5 0.003616 0.000428 0.006207 -0.002735 0.028553 0.002186
# 6 -0.000508 0.001058 -0.007063 -0.000463 0.002186 0.023887
#
#
# Mechanical properties :
#
#
# Convention : Reuss Voigt Hill
#
# Bulk Modulus (GPa) = 37.01751 77.73065 57.37408
# Shear Modulus (GPa) = 34.56810 45.79484 40.18147
#
# Velocity S-wave (km/s) = 3.51243 4.04276 3.78689
# Velocity P-wave (km/s) = 5.44617 7.03800 6.29262
#
# Compressibility (1/GPa) = 0.02701424
#
# Stress axis : x y z
#
# Youngs Moduli (GPa) = 93.25471 137.29992 36.93429
#
# Poissons Ratio (x) = 0.51027 0.10562
# Poissons Ratio (y) = 0.34658 0.09077
# Poissons Ratio (z) = 0.26669 0.33741
#
# Static dielectric constant tensor:
#      x y z
#    x 1.996290 0.079150 -0.327010 
#    y 0.079150 2.254040 0.035520 
#    z -0.327010 0.035520 1.681920 
# 
# From -- ./inp_files/150489.got.cif
#   From: 2010.05.17/outbox.cif.g08.bks.cpg/sg2_76_cif.got.tgz:150489.got - 2010.06.03 11:33:40.
