data_PCOD9040782
_publ_section_title
;
Structure prediction by ZEFSAII (Michael W. Deem and Ramdas Pophale) SiO2 
 PCOD9040782
Probable space group: P -1
;
_chemical_formula_sum "Si O2"
_cell_formula_units_Z 16
_cell_length_a 17.868060
_cell_length_b 11.491119
_cell_length_c 16.114730
_cell_angle_alpha 148.281733
_cell_angle_beta 23.223996
_cell_angle_gamma 134.819015
_cell_volume 637.084546
_symmetry_space_group_name_H-M "P -1"
_symmetry_group_IT_number 2
_symmetry_cell_setting 'triclinic'
loop_
_space_group_symop_operation_xyz
x,y,z
-x,-y,-z
loop_
_atom_site_type_symbol
_atom_site_label
_atom_site_fract_x
_atom_site_fract_y
_atom_site_fract_z
Si Si1 0.034820 0.159614 0.358514
Si Si2 0.158408 0.509551 0.729728
Si Si3 0.078143 0.804789 0.230360
Si Si4 0.526691 0.651589 0.447700
Si Si5 0.894850 0.404504 0.359503
Si Si6 0.559642 0.324386 0.754525
Si Si7 0.237602 0.101760 0.933522
Si Si8 0.238325 0.058307 0.556868
O O1 0.051933 0.383951 0.523204
O O2 0.152512 0.931529 0.157546
O O3 0.121844 0.150936 0.171148
O O4 0.811542 0.136759 0.566297
O O5 0.368040 0.527071 0.557536
O O6 0.127723 0.557297 0.691776
O O7 0.111896 0.272147 0.647812
O O8 0.975411 0.723286 0.087341
O O9 0.262286 0.560924 0.919936
O O10 0.000000 0.000000 0.500000
O O11 0.589945 0.823845 0.551235
O O12 0.402637 0.834763 0.612813
O O13 0.680221 0.415658 0.621483
O O14 0.073160 0.167600 0.068523
O O15 0.363705 0.271529 0.895322
O O16 0.711352 0.073611 0.485635
O O17 0.500000 0.500000 0.000000
#
# Coordination Sequence:
#
# PCOD9040782 Si02
#       8
#     2   2   2   2   2   2   2   2
#     4  12  22  46  73  98 140 185 224 289 343 397
#     4  11  24  48  70 100 141 183 229 283 344 409
#     4  11  26  49  69 101 141 180 231 285 347 410
#     4  10  24  46  68 101 138 178 237 275 342 408
#     4  12  24  42  73 102 144 184 223 284 351 401
#     4  11  21  37  62 102 140 176 226 274 336 416
#     4  11  23  43  69 104 140 177 232 284 341 409
#     4  10  23  43  68  99 139 176 232 283 341 403
#
# _framework density 25.114405999999999
#
# number of rings (size 3 to 8) (size 9 to 14) (size 15 to 20)
#    0.000    1.000    5.000    1.125    0.000    7.000 
#    6.750    4.375    0.000    0.000    0.000    0.000 
#    0.000    0.000    0.000    0.000    0.000    0.000 
#
# Total GULP energy -89512.141242 kJ/mol
# GULP energy per Si atom -5594.508828 kJ/mol
# Density = 2.505724 g / cm^3
# Si number density = 25.114406 Si / 1000 Ang^3
#
#
#
# Elastic Constant Matrix: (Units=GPa)
#
#
# Indices 1 2 3 4 5 6 
#
# 1 127.3798 82.6432 48.8856 -12.5431 13.3713 17.3835
# 2 82.6432 206.8544 54.2927 -14.7893 -5.7249 34.2647
# 3 48.8856 54.2927 73.0527 -3.6448 -12.4844 12.9709
# 4 -12.5431 -14.7893 -3.6448 43.7253 6.0984 -4.2352
# 5 13.3713 -5.7249 -12.4844 6.0984 27.5328 -5.6369
# 6 17.3835 34.2647 12.9709 -4.2352 -5.6369 69.7075
#
#
#
# Elastic Compliance Matrix: (Units=1/GPa)
#
#
# Indices 1 2 3 4 5 6 
#
# 1 0.016321 -0.003718 -0.010204 0.004486 -0.014576 -0.001250
# 2 -0.003718 0.007370 -0.002289 0.000797 0.001697 -0.002084
# 3 -0.010204 -0.002289 0.024839 -0.003937 0.016646 0.000155
# 4 0.004486 0.000797 -0.003937 0.025413 -0.009426 0.000004
# 5 -0.014576 0.001697 0.016646 -0.009426 0.054105 0.003506
# 6 -0.001250 -0.002084 0.000155 0.000004 0.003506 0.015937
#
#
# Mechanical properties :
#
#
# Convention : Reuss Voigt Hill
#
# Bulk Modulus (GPa) = 62.08217 86.54778 74.31497
# Shear Modulus (GPa) = 27.50630 42.95747 35.23189
#
# Velocity S-wave (km/s) = 3.31303 4.14027 3.74953
# Velocity P-wave (km/s) = 6.27760 7.57575 6.95702
#
# Compressibility (1/GPa) = 0.01610769
#
# Stress axis : x y z
#
# Youngs Moduli (GPa) = 61.27040 135.68893 40.25913
#
# Poissons Ratio (x) = 0.50452 0.41079
# Poissons Ratio (y) = 0.22781 0.09217
# Poissons Ratio (z) = 0.62518 0.31064
#
# Static dielectric constant tensor:
#      x y z
#    x 2.003730 0.009860 -0.025740 
#    y 0.009860 2.039880 0.028870 
#    z -0.025740 0.028870 1.972920 
# 
# From -- ./inp_files/578015.got.cif
#   From: 2010.05.17/outbox.cif.g08.bks.cpg/sg2_290_cif.got.tgz:578015.got - 2010.06.03 11:33:40.
