data_PCOD9040224
_publ_section_title
;
Structure prediction by ZEFSAII (Michael W. Deem and Ramdas Pophale) SiO2 
 PCOD9040224
Probable space group: P -1
;
_chemical_formula_sum "Si O2"
_cell_formula_units_Z 14
_cell_length_a 20.479477
_cell_length_b 11.801330
_cell_length_c 15.270425
_cell_angle_alpha 28.760788
_cell_angle_beta 152.360538
_cell_angle_gamma 158.873826
_cell_volume 588.505944
_symmetry_space_group_name_H-M "P -1"
_symmetry_group_IT_number 2
_symmetry_cell_setting 'triclinic'
loop_
_space_group_symop_operation_xyz
x,y,z
-x,-y,-z
loop_
_atom_site_type_symbol
_atom_site_label
_atom_site_fract_x
_atom_site_fract_y
_atom_site_fract_z
Si Si1 0.050755 0.503056 0.418723
Si Si2 0.312177 0.612147 0.174436
Si Si3 0.057635 0.118020 0.354821
Si Si4 0.409758 0.472952 0.003007
Si Si5 0.286342 0.124179 0.767090
Si Si6 0.320099 0.907111 0.614352
Si Si7 0.007022 0.146537 0.000206
O O1 0.864863 0.314685 0.389697
O O2 0.230612 0.834049 0.460744
O O3 0.011444 0.601601 0.217702
O O4 0.061759 0.240039 0.588201
O O5 0.149583 0.398554 0.202600
O O6 0.511513 0.763106 0.355526
O O7 0.211827 0.343047 0.160491
O O8 0.335939 0.905043 0.966556
O O9 0.232343 0.196113 0.565119
O O10 0.911495 0.081725 0.270354
O O11 0.541546 0.554241 0.188391
O O12 0.183734 0.138498 0.976634
O O13 0.500000 0.500000 0.000000
O O14 0.413418 0.758310 0.815822
O O15 0.000000 0.000000 0.000000
#
# Coordination Sequence:
#
# PCOD9040224 Si02
#       7
#     2   2   2   2   2   2   2
#     4  11  23  44  64  99 138 174 226 278 332 407
#     4  11  24  43  68  98 130 180 222 281 337 396
#     4  11  23  42  68  97 138 175 222 283 335 398
#     4  11  23  44  69  96 135 181 226 275 335 402
#     4  10  23  43  65 100 134 176 226 277 334 403
#     4  10  24  42  66  96 133 176 225 277 335 400
#     4  12  25  43  69  99 136 180 227 273 342 400
#
# _framework density 23.789055999999999
#
# number of rings (size 3 to 8) (size 9 to 14) (size 15 to 20)
#    0.000    1.143    2.857    3.000    4.000    3.429 
#    0.000    1.429    0.000    0.000    0.000    0.000 
#    0.000    0.000    0.000    0.000    0.000    0.000 
#
# Total GULP energy -78267.387219 kJ/mol
# GULP energy per Si atom -5590.527659 kJ/mol
# Density = 2.373491 g / cm^3
# Si number density = 23.789056 Si / 1000 Ang^3
#
#
#
# Elastic Constant Matrix: (Units=GPa)
#
#
# Indices 1 2 3 4 5 6 
#
# 1 89.2781 26.0839 1.7174 5.0729 -0.7933 -13.9170
# 2 26.0839 135.1178 26.6065 40.9736 -17.5739 -24.9927
# 3 1.7174 26.6065 61.1592 13.0793 -10.7915 -14.9532
# 4 5.0729 40.9736 13.0793 43.0551 -13.6818 -10.5733
# 5 -0.7933 -17.5739 -10.7915 -13.6818 35.5752 6.6992
# 6 -13.9170 -24.9927 -14.9532 -10.5733 6.6992 25.3875
#
#
#
# Elastic Compliance Matrix: (Units=1/GPa)
#
#
# Indices 1 2 3 4 5 6 
#
# 1 0.012747 -0.002071 0.001750 0.001287 -0.000989 0.006777
# 2 -0.002071 0.012043 -0.001700 -0.009025 0.000835 0.005740
# 3 0.001750 -0.001700 0.020272 -0.001383 0.002958 0.009869
# 4 0.001287 -0.009025 -0.001383 0.035572 0.008140 0.003673
# 5 -0.000989 0.000835 0.002958 0.008140 0.033156 -0.003337
# 6 0.006777 0.005740 0.009869 0.003673 -0.003337 0.056978
#
#
# Mechanical properties :
#
#
# Convention : Reuss Voigt Hill
#
# Bulk Modulus (GPa) = 24.37845 43.81897 34.09871
# Shear Modulus (GPa) = 26.52769 36.21337 31.37053
#
# Velocity S-wave (km/s) = 3.34297 3.90586 3.63532
# Velocity P-wave (km/s) = 5.01703 6.22903 5.65559
#
# Compressibility (1/GPa) = 0.04101984
#
# Stress axis : x y z
#
# Youngs Moduli (GPa) = 78.45137 83.03906 49.32927
#
# Poissons Ratio (x) = 0.17195 -0.08633
# Poissons Ratio (y) = 0.16245 0.08386
# Poissons Ratio (z) = -0.13729 0.14117
#
# Static dielectric constant tensor:
#      x y z
#    x 1.836370 -0.082780 -0.009810 
#    y -0.082780 1.944070 0.032770 
#    z -0.009810 0.032770 1.934370 
# 
# From -- ./inp_files/189721.got.cif
#   From: 2010.05.17/outbox.cif.g08.bks.cpg/sg2_95_cif.got.tgz:189721.got - 2010.06.03 11:33:40.
