data_PCOD9040709
_publ_section_title
;
Structure prediction by ZEFSAII (Michael W. Deem and Ramdas Pophale) SiO2 
 PCOD9040709
Probable space group: P -1
;
_chemical_formula_sum "Si O2"
_cell_formula_units_Z 12
_cell_length_a 8.001019
_cell_length_b 16.844848
_cell_length_c 5.218263
_cell_angle_alpha 69.323590
_cell_angle_beta 92.553938
_cell_angle_gamma 48.945882
_cell_volume 456.507261
_symmetry_space_group_name_H-M "P -1"
_symmetry_group_IT_number 2
_symmetry_cell_setting 'triclinic'
loop_
_space_group_symop_operation_xyz
x,y,z
-x,-y,-z
loop_
_atom_site_type_symbol
_atom_site_label
_atom_site_fract_x
_atom_site_fract_y
_atom_site_fract_z
Si Si1 0.908261 0.713009 0.744939
Si Si2 0.622489 0.868746 0.047183
Si Si3 0.195566 0.755269 0.761549
Si Si4 0.550162 0.579193 0.354104
Si Si5 0.699013 0.607796 0.834837
Si Si6 0.112289 0.000980 0.756605
O O1 0.860564 0.630246 0.880200
O O2 0.167071 0.665558 0.804470
O O3 0.783946 0.809034 0.868493
O O4 0.773488 0.775734 0.395918
O O5 0.396652 0.892775 0.928939
O O6 0.500000 0.000000 0.000000
O O7 0.409684 0.732805 0.678878
O O8 0.962201 0.876245 0.463508
O O9 0.289756 0.718483 0.105752
O O10 0.500000 0.500000 0.500000
O O11 0.704162 0.564169 0.607271
O O12 0.699243 0.543456 0.147444
O O13 0.000000 0.000000 0.500000
O O14 0.000000 0.000000 0.000000
#
# Coordination Sequence:
#
# PCOD9040709 Si02
#       6
#     2   2   2   2   2   2
#     4  12  25  43  63  96 131 173 217 266 321 383
#     4  12  25  41  59  90 137 170 217 266 311 370
#     4  10  26  40  71  91 132 173 217 263 331 377
#     4  10  23  45  71  96 130 166 212 273 332 388
#     4  10  23  43  68  94 128 167 213 267 326 388
#     4  12  26  40  63  94 129 174 221 259 312 383
#
# _framework density 26.286546000000001
#
# number of rings (size 3 to 8) (size 9 to 14) (size 15 to 20)
#    1.000    0.000    1.667    5.000    9.333    0.000 
#    0.000    1.667    0.000    0.000    0.000    0.000 
#    0.000    0.000    0.000    0.000    0.000    0.000 
#
# Total GULP energy -66967.031046 kJ/mol
# GULP energy per Si atom -5580.585921 kJ/mol
# Density = 2.622672 g / cm^3
# Si number density = 26.286546 Si / 1000 Ang^3
#
#
#
# Elastic Constant Matrix: (Units=GPa)
#
#
# Indices 1 2 3 4 5 6 
#
# 1 134.8567 25.5949 56.7800 7.1211 13.6102 23.9411
# 2 25.5949 84.3037 42.4141 20.3385 -13.2648 29.7710
# 3 56.7800 42.4141 236.1444 15.3315 3.4453 9.0299
# 4 7.1211 20.3385 15.3315 41.5299 4.6374 0.6558
# 5 13.6102 -13.2648 3.4453 4.6374 62.5290 2.4255
# 6 23.9411 29.7710 9.0299 0.6558 2.4255 43.5589
#
#
#
# Elastic Compliance Matrix: (Units=1/GPa)
#
#
# Indices 1 2 3 4 5 6 
#
# 1 0.009283 -0.000584 -0.001919 -0.000324 -0.001852 -0.004197
# 2 -0.000584 0.021809 -0.002670 -0.010062 0.006199 -0.014225
# 3 -0.001919 -0.002670 0.005127 -0.000231 -0.000486 0.001847
# 4 -0.000324 -0.010062 -0.000231 0.029542 -0.004510 0.006910
# 5 -0.001852 0.006199 -0.000486 -0.004510 0.018230 -0.004065
# 6 -0.004197 -0.014225 0.001847 0.006910 -0.004065 0.034726
#
#
# Mechanical properties :
#
#
# Convention : Reuss Voigt Hill
#
# Bulk Modulus (GPa) = 38.64918 78.32033 58.48475
# Shear Modulus (GPa) = 36.31453 51.55793 43.93623
#
# Velocity S-wave (km/s) = 3.72087 4.43355 4.09275
# Velocity P-wave (km/s) = 5.76149 7.48786 6.68067
#
# Compressibility (1/GPa) = 0.02587377
#
# Stress axis : x y z
#
# Youngs Moduli (GPa) = 107.72244 45.85360 195.04470
#
# Poissons Ratio (x) = 0.02678 0.37422
# Poissons Ratio (y) = 0.06291 0.52074
# Poissons Ratio (z) = 0.20668 0.12242
#
# Static dielectric constant tensor:
#      x y z
#    x 2.088190 0.000860 -0.000430 
#    y 0.000860 2.575310 -0.083000 
#    z -0.000430 -0.083000 2.011460 
# 
# From -- ./inp_files/41803.got.cif
#   From: 2010.05.17/outbox.cif.g08.bks.cpg/sg2_21_cif.got.tgz:41803.got - 2010.06.03 11:33:40.
