data_PCOD9040265
_publ_section_title
;
Structure prediction by ZEFSAII (Michael W. Deem and Ramdas Pophale) SiO2 
 PCOD9040265
Probable space group: P -1
;
_chemical_formula_sum "Si O2"
_cell_formula_units_Z 14
_cell_length_a 8.828472
_cell_length_b 13.593547
_cell_length_c 13.805159
_cell_angle_alpha 141.953905
_cell_angle_beta 78.989791
_cell_angle_gamma 128.266872
_cell_volume 633.215715
_symmetry_space_group_name_H-M "P -1"
_symmetry_group_IT_number 2
_symmetry_cell_setting 'triclinic'
loop_
_space_group_symop_operation_xyz
x,y,z
-x,-y,-z
loop_
_atom_site_type_symbol
_atom_site_label
_atom_site_fract_x
_atom_site_fract_y
_atom_site_fract_z
Si Si1 0.008688 0.182477 0.188118
Si Si2 0.797777 0.472796 0.128710
Si Si3 0.260652 0.864444 0.980647
Si Si4 0.337261 0.972679 0.718765
Si Si5 0.300275 0.973916 0.509952
Si Si6 0.727530 0.767945 0.397099
Si Si7 0.497072 0.746006 0.588060
O O1 0.273911 0.446093 0.398930
O O2 0.813443 0.063764 0.204801
O O3 0.941018 0.246571 0.157490
O O4 0.000000 0.000000 0.000000
O O5 0.677253 0.540713 0.234319
O O6 0.808627 0.337417 0.098489
O O7 0.611770 0.265586 0.908625
O O8 0.078799 0.744228 0.287979
O O9 0.346347 0.080955 0.203737
O O10 0.500000 0.000000 0.000000
O O11 0.211580 0.903663 0.577468
O O12 0.379735 0.820238 0.621575
O O13 0.411437 0.232371 0.663890
O O14 0.500000 0.000000 0.500000
O O15 0.673441 0.808944 0.536224
O O16 0.000000 0.000000 0.500000
#
# Coordination Sequence:
#
# PCOD9040265 Si02
#       7
#     2   2   2   2   2   2   2
#     4  12  26  42  68 104 136 168 223 280 331 403
#     4  10  23  43  65  91 140 164 225 275 322 393
#     4  11  24  43  67 100 133 180 216 265 345 400
#     4  11  23  42  67 101 129 178 220 266 341 397
#     4  11  23  41  68  97 128 181 223 269 331 382
#     4  10  23  45  66  96 135 173 225 278 321 389
#     4  11  23  42  71  95 138 175 221 273 334 393
#
# _framework density 22.109369000000001
#
# number of rings (size 3 to 8) (size 9 to 14) (size 15 to 20)
#    0.000    1.143    4.286    2.143    2.000    4.000 
#    2.571    0.000    0.000    0.000    0.000    0.000 
#    0.000    0.000    0.000    0.000    0.000    0.000 
#
# Total GULP energy -78155.702873 kJ/mol
# GULP energy per Si atom -5582.550205 kJ/mol
# Density = 2.205905 g / cm^3
# Si number density = 22.109369 Si / 1000 Ang^3
#
#
#
# Elastic Constant Matrix: (Units=GPa)
#
#
# Indices 1 2 3 4 5 6 
#
# 1 73.5174 8.4394 25.5889 -0.5917 -17.5949 10.7012
# 2 8.4394 58.5503 31.3472 -13.8960 -3.1757 18.6845
# 3 25.5889 31.3472 127.5304 2.3432 -5.6304 14.0548
# 4 -0.5917 -13.8960 2.3432 31.1720 6.5454 -3.8371
# 5 -17.5949 -3.1757 -5.6304 6.5454 40.5405 -8.8385
# 6 10.7012 18.6845 14.0548 -3.8371 -8.8385 36.0639
#
#
#
# Elastic Compliance Matrix: (Units=1/GPa)
#
#
# Indices 1 2 3 4 5 6 
#
# 1 0.016423 -0.000108 -0.002709 -0.001167 0.006428 -0.002310
# 2 -0.000108 0.026027 -0.005522 0.011305 -0.002960 -0.010823
# 3 -0.002709 -0.005522 0.009866 -0.003356 0.000197 -0.000489
# 4 -0.001167 0.011305 -0.003356 0.038540 -0.006689 -0.001742
# 5 0.006428 -0.002960 0.000197 -0.006689 0.029663 0.006108
# 6 -0.002310 -0.010823 -0.000489 -0.001742 0.006108 0.035524
#
#
# Mechanical properties :
#
#
# Convention : Reuss Voigt Hill
#
# Bulk Modulus (GPa) = 28.05843 43.37213 35.71528
# Shear Modulus (GPa) = 27.08560 34.50347 30.79454
#
# Velocity S-wave (km/s) = 3.50390 3.95470 3.73611
# Velocity P-wave (km/s) = 5.39334 6.36495 5.89918
#
# Compressibility (1/GPa) = 0.03563991
#
# Stress axis : x y z
#
# Youngs Moduli (GPa) = 60.89146 38.42098 101.35509
#
# Poissons Ratio (x) = 0.00414 0.27456
# Poissons Ratio (y) = 0.00657 0.55963
# Poissons Ratio (z) = 0.16495 0.21214
#
# Static dielectric constant tensor:
#      x y z
#    x 1.824270 -0.041190 -0.053600 
#    y -0.041190 1.828700 0.033320 
#    z -0.053600 0.033320 1.847380 
# 
# From -- ./inp_files/207157.got.cif
#   From: 2010.05.17/outbox.cif.g08.bks.cpg/sg2_104_cif.got.tgz:207157.got - 2010.06.03 11:33:40.
