data_PCOD9040158
_publ_section_title
;
Structure prediction by ZEFSAII (Michael W. Deem and Ramdas Pophale) SiO2 
 PCOD9040158
Probable space group: P -1
;
_chemical_formula_sum "Si O2"
_cell_formula_units_Z 16
_cell_length_a 14.684042
_cell_length_b 6.303193
_cell_length_c 23.660917
_cell_angle_alpha 80.004176
_cell_angle_beta 18.442329
_cell_angle_gamma 80.920360
_cell_volume 682.114802
_symmetry_space_group_name_H-M "P -1"
_symmetry_group_IT_number 2
_symmetry_cell_setting 'triclinic'
loop_
_space_group_symop_operation_xyz
x,y,z
-x,-y,-z
loop_
_atom_site_type_symbol
_atom_site_label
_atom_site_fract_x
_atom_site_fract_y
_atom_site_fract_z
Si Si1 0.734426 0.923222 0.939017
Si Si2 0.452811 0.043834 0.261939
Si Si3 0.713145 0.813692 0.364968
Si Si4 0.304944 0.288912 0.138779
Si Si5 0.431678 0.414118 0.326380
Si Si6 0.414305 0.508723 0.641008
Si Si7 0.806194 0.714404 0.013239
Si Si8 0.054026 0.312132 0.406945
O O1 0.849718 0.789065 0.824109
O O2 0.636893 0.755198 0.052463
O O3 0.975040 0.079334 0.816913
O O4 0.489433 0.081948 0.056903
O O5 0.479162 0.162608 0.300806
O O6 0.329735 0.219470 0.281697
O O7 0.741383 0.931223 0.076586
O O8 0.205663 0.859766 0.420472
O O9 0.650912 0.629018 0.456856
O O10 0.662621 0.708544 0.338148
O O11 0.500000 0.000000 0.500000
O O12 0.122805 0.328538 0.299543
O O13 0.500000 0.500000 0.000000
O O14 0.479497 0.502127 0.356914
O O15 0.665929 0.528549 0.142597
O O16 0.106024 0.465144 0.496271
O O17 0.125175 0.650540 0.810349
#
# Coordination Sequence:
#
# PCOD9040158 Si02
#       8
#     2   2   2   2   2   2   2   2
#     4  11  26  45  67 103 134 183 229 277 353 415
#     4  10  23  44  68  93 134 187 221 285 345 400
#     4  11  26  46  71  96 137 185 223 289 346 406
#     4  11  27  42  73 102 137 177 227 290 341 415
#     4  11  26  40  70  99 137 180 231 287 333 407
#     4  11  27  44  68 106 131 184 238 279 341 406
#     4  11  24  45  66  97 138 178 232 278 339 413
#     4  10  23  43  64 101 133 173 231 280 345 408
#
# _framework density 23.456461999999998
#
# number of rings (size 3 to 8) (size 9 to 14) (size 15 to 20)
#    0.000    1.250    2.500    0.750   10.500    2.500 
#    0.000    0.000    0.000    0.000    0.000    0.000 
#    0.000    0.000    0.000    0.000    0.000    0.000 
#
# Total GULP energy -89416.570180 kJ/mol
# GULP energy per Si atom -5588.535636 kJ/mol
# Density = 2.340307 g / cm^3
# Si number density = 23.456462 Si / 1000 Ang^3
#
#
#
# Elastic Constant Matrix: (Units=GPa)
#
#
# Indices 1 2 3 4 5 6 
#
# 1 110.9779 25.6144 13.9174 1.1897 12.6319 18.9832
# 2 25.6144 69.8880 16.9822 24.5501 -1.1468 17.5959
# 3 13.9174 16.9822 70.2342 19.3880 12.6105 8.5034
# 4 1.1897 24.5501 19.3880 43.6464 1.3330 7.0017
# 5 12.6319 -1.1468 12.6105 1.3330 29.6634 2.3415
# 6 18.9832 17.5959 8.5034 7.0017 2.3415 43.2382
#
#
#
# Elastic Compliance Matrix: (Units=1/GPa)
#
#
# Indices 1 2 3 4 5 6 
#
# 1 0.011116 -0.004207 -0.000854 0.003101 -0.004415 -0.003264
# 2 -0.004207 0.021233 -0.001547 -0.010462 0.004137 -0.005019
# 3 -0.000854 -0.001547 0.018019 -0.006726 -0.006970 -0.001073
# 4 0.003101 -0.010462 -0.006726 0.031855 -0.000224 -0.000927
# 5 -0.004415 0.004137 -0.006970 -0.000224 0.038759 -0.000437
# 6 -0.003264 -0.005019 -0.001073 -0.000927 -0.000437 0.026988
#
#
# Mechanical properties :
#
#
# Convention : Reuss Voigt Hill
#
# Bulk Modulus (GPa) = 26.91556 40.45871 33.68713
# Shear Modulus (GPa) = 28.80661 36.28200 32.54431
#
# Velocity S-wave (km/s) = 3.50821 3.93718 3.72887
# Velocity P-wave (km/s) = 5.28296 6.16071 5.73864
#
# Compressibility (1/GPa) = 0.03715323
#
# Stress axis : x y z
#
# Youngs Moduli (GPa) = 89.95714 47.09598 55.49607
#
# Poissons Ratio (x) = 0.19812 0.04738
# Poissons Ratio (y) = 0.37843 0.08587
# Poissons Ratio (z) = 0.07680 0.07287
#
# Static dielectric constant tensor:
#      x y z
#    x 1.942440 -0.013330 -0.010510 
#    y -0.013330 1.929350 0.035760 
#    z -0.010510 0.035760 1.869420 
# 
# From -- ./inp_files/118589.got.cif
#   From: 2010.05.17/outbox.cif.g08.bks.cpg/sg2_60_cif.got.tgz:118589.got - 2010.06.03 11:33:40.
