data_PCOD9040866
_publ_section_title
;
Structure prediction by ZEFSAII (Michael W. Deem and Ramdas Pophale) SiO2 
 PCOD9040866
Probable space group: P -1
;
_chemical_formula_sum "Si O2"
_cell_formula_units_Z 16
_cell_length_a 7.853273
_cell_length_b 7.964594
_cell_length_c 11.220518
_cell_angle_alpha 117.791831
_cell_angle_beta 90.191750
_cell_angle_gamma 98.287885
_cell_volume 612.382490
_symmetry_space_group_name_H-M "P -1"
_symmetry_group_IT_number 2
_symmetry_cell_setting 'triclinic'
loop_
_space_group_symop_operation_xyz
x,y,z
-x,-y,-z
loop_
_atom_site_type_symbol
_atom_site_label
_atom_site_fract_x
_atom_site_fract_y
_atom_site_fract_z
Si Si1 0.911867 0.327731 0.862301
Si Si2 0.698243 0.274842 0.567856
Si Si3 0.867350 0.913740 0.823592
Si Si4 0.214098 0.387319 0.700627
Si Si5 0.636684 0.897583 0.038904
Si Si6 0.318468 0.115965 0.423098
Si Si7 0.573903 0.457976 0.839230
Si Si8 0.195083 0.767933 0.699559
O O1 0.708403 0.345268 0.870157
O O2 0.029064 0.359045 0.754059
O O3 0.941967 0.129566 0.853846
O O4 0.000000 0.500000 0.000000
O O5 0.514099 0.200015 0.481220
O O6 0.668075 0.456593 0.707826
O O7 0.819936 0.286802 0.457813
O O8 0.723096 0.102077 0.600618
O O9 0.800304 0.916143 0.957066
O O10 0.716730 0.863495 0.708569
O O11 0.008518 0.781700 0.756291
O O12 0.208051 0.236745 0.544014
O O13 0.376145 0.364699 0.779736
O O14 0.263161 0.599831 0.716310
O O15 0.578771 0.667260 0.966134
O O16 0.500000 0.000000 0.000000
O O17 0.689337 0.025469 0.198970
#
# Coordination Sequence:
#
# PCOD9040866 Si02
#       8
#     2   2   2   2   2   2   2   2
#     4  12  26  47  71 103 147 185 244 296 350 426
#     4  10  23  45  71 104 140 185 238 295 351 424
#     4  12  26  44  73 104 142 186 234 299 358 420
#     4  11  26  45  69 108 143 188 238 292 356 426
#     4  12  25  47  71 102 142 187 237 287 355 429
#     4  10  23  43  69 104 141 182 239 290 356 423
#     4  11  25  47  75 103 146 187 238 297 355 424
#     4  12  25  44  72 104 144 186 235 293 358 424
#
# _framework density 26.127461
#
# number of rings (size 3 to 8) (size 9 to 14) (size 15 to 20)
#    0.000    0.750    2.500    4.125    3.500    3.000 
#    2.250    0.000    0.000    0.000    0.000    0.000 
#    0.000    0.000    0.000    0.000    0.000    0.000 
#
# Total GULP energy -89654.042993 kJ/mol
# GULP energy per Si atom -5603.377687 kJ/mol
# Density = 2.606799 g / cm^3
# Si number density = 26.127461 Si / 1000 Ang^3
#
#
#
# Elastic Constant Matrix: (Units=GPa)
#
#
# Indices 1 2 3 4 5 6 
#
# 1 113.2443 14.4960 17.6965 2.5814 -15.2093 -22.6921
# 2 14.4960 86.0093 21.0899 9.0891 -3.6052 -17.0877
# 3 17.6965 21.0899 146.2750 6.3068 -22.6830 -7.2680
# 4 2.5814 9.0891 6.3068 38.3600 -1.3312 -0.7832
# 5 -15.2093 -3.6052 -22.6830 -1.3312 52.6557 -4.1202
# 6 -22.6921 -17.0877 -7.2680 -0.7832 -4.1202 39.7606
#
#
#
# Elastic Compliance Matrix: (Units=1/GPa)
#
#
# Indices 1 2 3 4 5 6 
#
# 1 0.010633 -0.000282 -0.000402 -0.000339 0.003357 0.006215
# 2 -0.000282 0.013404 -0.001424 -0.002794 0.000570 0.005343
# 3 -0.000402 -0.001424 0.007652 -0.000767 0.003131 0.000867
# 4 -0.000339 -0.002794 -0.000767 0.026859 -0.000020 -0.001008
# 5 0.003357 0.000570 0.003131 -0.000020 0.021738 0.004985
# 6 0.006215 0.005343 0.000867 -0.001008 0.004985 0.031649
#
#
# Mechanical properties :
#
#
# Convention : Reuss Voigt Hill
#
# Bulk Modulus (GPa) = 36.39907 50.23259 43.31583
# Shear Modulus (GPa) = 39.90116 45.63833 42.76974
#
# Velocity S-wave (km/s) = 3.91215 4.18396 4.05033
# Velocity P-wave (km/s) = 5.86243 6.52751 6.20389
#
# Compressibility (1/GPa) = 0.02747323
#
# Stress axis : x y z
#
# Youngs Moduli (GPa) = 94.04407 74.60381 130.68342
#
# Poissons Ratio (x) = 0.02106 0.05250
# Poissons Ratio (y) = 0.02655 0.18610
# Poissons Ratio (z) = 0.03778 0.10624
#
# Static dielectric constant tensor:
#      x y z
#    x 2.082890 0.043710 0.016020 
#    y 0.043710 2.024480 -0.047830 
#    z 0.016020 -0.047830 2.052260 
# 
# From -- ./inp_files/383544.got.cif
#   From: 2010.05.17/outbox.cif.g08.bks.cpg/sg2_192_cif.got.tgz:383544.got - 2010.06.03 11:33:40.
