data_PCOD9040344
_publ_section_title
;
Structure prediction by ZEFSAII (Michael W. Deem and Ramdas Pophale) SiO2 
 PCOD9040344
Probable space group: P -1
;
_chemical_formula_sum "Si O2"
_cell_formula_units_Z 12
_cell_length_a 13.850260
_cell_length_b 11.978778
_cell_length_c 9.789400
_cell_angle_alpha 144.060100
_cell_angle_beta 132.621217
_cell_angle_gamma 31.163980
_cell_volume 492.653728
_symmetry_space_group_name_H-M "P -1"
_symmetry_group_IT_number 2
_symmetry_cell_setting 'triclinic'
loop_
_space_group_symop_operation_xyz
x,y,z
-x,-y,-z
loop_
_atom_site_type_symbol
_atom_site_label
_atom_site_fract_x
_atom_site_fract_y
_atom_site_fract_z
Si Si1 0.763960 0.885657 0.730882
Si Si2 0.220133 0.831255 0.196118
Si Si3 0.442079 0.646841 0.811059
Si Si4 0.915164 0.205647 0.495832
Si Si5 0.665651 0.700941 0.918329
Si Si6 0.831139 0.566909 0.232878
O O1 0.724737 0.783629 0.467811
O O2 0.948943 0.620522 0.720662
O O3 0.806419 0.038737 0.843299
O O4 0.608493 0.110144 0.910933
O O5 0.432852 0.626259 0.250822
O O6 0.188645 0.638717 0.970227
O O7 0.075507 0.064790 0.397864
O O8 0.251487 0.747474 0.682133
O O9 0.573101 0.592571 0.762880
O O10 0.822936 0.490984 0.750087
O O11 0.000000 0.000000 0.500000
O O12 0.758426 0.685803 0.129867
O O13 0.500000 0.000000 0.000000
#
# Coordination Sequence:
#
# PCOD9040344 Si02
#       6
#     2   2   2   2   2   2
#     4  11  23  43  70 102 138 177 231 283 349 406
#     4  11  24  43  71 101 135 185 223 284 349 406
#     4  11  24  43  69 100 135 179 230 286 337 410
#     4  12  23  45  69  95 142 182 228 282 336 410
#     4  11  26  44  68 102 137 182 231 282 347 407
#     4  10  23  43  66 100 139 177 229 285 334 410
#
# _framework density 24.357877999999999
#
# number of rings (size 3 to 8) (size 9 to 14) (size 15 to 20)
#    0.000    1.000    5.000    1.500    2.333    5.333 
#    0.000    2.500    0.000    0.000    0.000    0.000 
#    0.000    0.000    0.000    0.000    0.000    0.000 
#
# Total GULP energy -67239.302004 kJ/mol
# GULP energy per Si atom -5603.275167 kJ/mol
# Density = 2.430244 g / cm^3
# Si number density = 24.357878 Si / 1000 Ang^3
#
#
#
# Elastic Constant Matrix: (Units=GPa)
#
#
# Indices 1 2 3 4 5 6 
#
# 1 41.3536 9.6928 18.6764 1.4016 -19.4043 -5.0473
# 2 9.6928 176.0052 59.6194 -9.1104 -10.3175 -7.3025
# 3 18.6764 59.6194 165.8630 4.8176 -20.1990 -14.7071
# 4 1.4016 -9.1104 4.8176 47.5755 -10.2454 -0.9381
# 5 -19.4043 -10.3175 -20.1990 -10.2454 33.4292 9.8547
# 6 -5.0473 -7.3025 -14.7071 -0.9381 9.8547 41.1008
#
#
#
# Elastic Compliance Matrix: (Units=1/GPa)
#
#
# Indices 1 2 3 4 5 6 
#
# 1 0.034153 -0.000027 -0.001570 0.003492 0.020278 -0.001155
# 2 -0.000027 0.006617 -0.002275 0.001749 0.001152 0.000122
# 3 -0.001570 -0.002275 0.007450 -0.000630 0.002248 0.001515
# 4 0.003492 0.001749 -0.000630 0.023385 0.009732 -0.001286
# 5 0.020278 0.001152 0.002248 0.009732 0.048728 -0.007962
# 6 -0.001155 0.000122 0.001515 -0.001286 -0.007962 0.026632
#
#
# Mechanical properties :
#
#
# Convention : Reuss Voigt Hill
#
# Bulk Modulus (GPa) = 24.70698 62.13320 43.42009
# Shear Modulus (GPa) = 29.72606 44.10330 36.91468
#
# Velocity S-wave (km/s) = 3.49719 4.25978 3.89718
# Velocity P-wave (km/s) = 5.14514 7.05394 6.17376
#
# Compressibility (1/GPa) = 0.04047439
#
# Stress axis : x y z
#
# Youngs Moduli (GPa) = 29.28017 151.12814 134.22617
#
# Poissons Ratio (x) = 0.00415 0.21076
# Poissons Ratio (y) = 0.00080 0.30538
# Poissons Ratio (z) = 0.04597 0.34383
#
# Static dielectric constant tensor:
#      x y z
#    x 1.911760 -0.017500 0.026060 
#    y -0.017500 1.921540 -0.012900 
#    z 0.026060 -0.012900 1.953400 
# 
# From -- ./inp_files/183767.got.cif
#   From: 2010.05.17/outbox.cif.g08.bks.cpg/sg2_92_cif.got.tgz:183767.got - 2010.06.03 11:33:40.
