data_PCOD9040595
_publ_section_title
;
Structure prediction by ZEFSAII (Michael W. Deem and Ramdas Pophale) SiO2 
 PCOD9040595
Probable space group: P -1
;
_chemical_formula_sum "Si O2"
_cell_formula_units_Z 14
_cell_length_a 11.450016
_cell_length_b 9.507629
_cell_length_c 10.412871
_cell_angle_alpha 126.369166
_cell_angle_beta 41.014355
_cell_angle_gamma 127.874635
_cell_volume 568.488493
_symmetry_space_group_name_H-M "P -1"
_symmetry_group_IT_number 2
_symmetry_cell_setting 'triclinic'
loop_
_space_group_symop_operation_xyz
x,y,z
-x,-y,-z
loop_
_atom_site_type_symbol
_atom_site_label
_atom_site_fract_x
_atom_site_fract_y
_atom_site_fract_z
Si Si1 0.461353 0.043623 0.749468
Si Si2 0.215107 0.267067 0.130417
Si Si3 0.187923 0.871946 0.658102
Si Si4 0.643526 0.169897 0.045414
Si Si5 0.765912 0.495229 0.506441
Si Si6 0.660379 0.575220 0.163234
Si Si7 0.058154 0.326116 0.803885
O O1 0.677103 0.115498 0.569447
O O2 0.324317 0.006331 0.719539
O O3 0.415215 0.860745 0.773495
O O4 0.386071 0.186534 0.967774
O O5 0.190549 0.382519 0.335592
O O6 0.014667 0.111623 0.191441
O O7 0.270549 0.384229 0.017483
O O8 0.144737 0.667630 0.642374
O O9 0.636946 0.364620 0.105522
O O10 0.859415 0.173003 0.860754
O O11 0.500000 0.000000 0.000000
O O12 0.542378 0.401607 0.641185
O O13 0.834496 0.612911 0.385603
O O14 0.805478 0.702505 0.214030
O O15 0.000000 0.500000 0.000000
#
# Coordination Sequence:
#
# PCOD9040595 Si02
#       7
#     2   2   2   2   2   2   2
#     4  11  25  46  66 104 144 188 231 288 360 431
#     4  12  25  45  76 104 142 181 245 297 350 413
#     4  11  24  42  73 101 142 185 237 286 361 421
#     4  11  24  42  68  96 146 180 226 294 359 406
#     4  12  24  43  74 109 134 184 247 294 349 421
#     4  11  23  45  72 100 141 188 235 294 346 429
#     4  10  23  43  67  98 138 187 235 278 353 426
#
# _framework density 24.626707
#
# number of rings (size 3 to 8) (size 9 to 14) (size 15 to 20)
#    0.000    0.857    1.429    6.857    4.000    0.000 
#    2.571    1.429    0.000    0.000    0.000    0.000 
#    0.000    0.000    0.000    0.000    0.000    0.000 
#
# Total GULP energy -78467.171109 kJ/mol
# GULP energy per Si atom -5604.797936 kJ/mol
# Density = 2.457066 g / cm^3
# Si number density = 24.626707 Si / 1000 Ang^3
#
#
#
# Elastic Constant Matrix: (Units=GPa)
#
#
# Indices 1 2 3 4 5 6 
#
# 1 107.5226 40.1220 63.0890 -28.5910 7.9406 11.2459
# 2 40.1220 98.7155 19.7530 -18.8610 9.6929 11.1593
# 3 63.0890 19.7530 100.9450 -30.5588 8.1556 16.0155
# 4 -28.5910 -18.8610 -30.5588 38.7856 0.4266 -4.1595
# 5 7.9406 9.6929 8.1556 0.4266 48.7005 -9.8433
# 6 11.2459 11.1593 16.0155 -4.1595 -9.8433 49.7347
#
#
#
# Elastic Compliance Matrix: (Units=1/GPa)
#
#
# Indices 1 2 3 4 5 6 
#
# 1 0.017024 -0.004480 -0.008678 0.003556 -0.000429 0.000163
# 2 -0.004480 0.012956 0.002322 0.004556 -0.002848 -0.002824
# 3 -0.008678 0.002322 0.018513 0.008881 -0.003113 -0.004394
# 4 0.003556 0.004556 0.008881 0.037411 -0.003767 -0.002303
# 5 -0.000429 -0.002848 -0.003113 -0.003767 0.022930 0.005962
# 6 0.000163 -0.002824 -0.004394 -0.002303 0.005962 0.023106
#
#
# Mechanical properties :
#
#
# Convention : Reuss Voigt Hill
#
# Bulk Modulus (GPa) = 37.28400 61.45680 49.37040
# Shear Modulus (GPa) = 30.75972 39.72542 35.24257
#
# Velocity S-wave (km/s) = 3.53801 4.02070 3.78705
# Velocity P-wave (km/s) = 5.64469 6.82380 6.26206
#
# Compressibility (1/GPa) = 0.02682116
#
# Stress axis : x y z
#
# Youngs Moduli (GPa) = 58.74128 77.18705 54.01707
#
# Poissons Ratio (x) = 0.34577 0.46874
# Poissons Ratio (y) = 0.26314 -0.12542
# Poissons Ratio (z) = 0.50974 -0.17922
#
# Static dielectric constant tensor:
#      x y z
#    x 2.008130 -0.006020 0.004010 
#    y -0.006020 1.987240 0.041040 
#    z 0.004010 0.041040 1.941220 
# 
# From -- ./inp_files/262872.got.cif
#   From: 2010.05.17/outbox.cif.g08.bks.cpg/sg2_132_cif.got.tgz:262872.got - 2010.06.03 11:33:40.
