data_PCOD9040850
_publ_section_title
;
Structure prediction by ZEFSAII (Michael W. Deem and Ramdas Pophale) SiO2 
 PCOD9040850
Probable space group: P -1
;
_chemical_formula_sum "Si O2"
_cell_formula_units_Z 14
_cell_length_a 7.240515
_cell_length_b 9.530146
_cell_length_c 12.907849
_cell_angle_alpha 66.627934
_cell_angle_beta 59.022332
_cell_angle_gamma 48.473455
_cell_volume 569.561269
_symmetry_space_group_name_H-M "P -1"
_symmetry_group_IT_number 2
_symmetry_cell_setting 'triclinic'
loop_
_space_group_symop_operation_xyz
x,y,z
-x,-y,-z
loop_
_atom_site_type_symbol
_atom_site_label
_atom_site_fract_x
_atom_site_fract_y
_atom_site_fract_z
Si Si1 0.112072 0.969204 0.815442
Si Si2 0.105718 0.337749 0.383342
Si Si3 0.677612 0.591756 0.138844
Si Si4 0.644333 0.256478 0.999761
Si Si5 0.368765 0.485777 0.380768
Si Si6 0.922825 0.696356 0.195809
Si Si7 0.057231 0.771757 0.710724
O O1 0.047912 0.928214 0.734373
O O2 0.178574 0.120527 0.759870
O O3 0.338308 0.791490 0.870794
O O4 0.846144 0.059382 0.936597
O O5 0.891111 0.376433 0.518901
O O6 0.965813 0.530817 0.301441
O O7 0.151933 0.187649 0.328204
O O8 0.331194 0.337652 0.378277
O O9 0.618259 0.643178 0.021654
O O10 0.421038 0.604716 0.252390
O O11 0.737327 0.719025 0.148895
O O12 0.904824 0.375449 0.168423
O O13 0.797137 0.353919 0.912133
O O14 0.653851 0.354787 0.392173
#
# Coordination Sequence:
#
# PCOD9040850 Si02
#       7
#     2   2   2   2   2   2   2
#     4   9  19  36  51  69 111 126 167 203 258 271
#     4  10  17  33  57  72  99 133 169 193 259 291
#     4   9  18  31  55  71  98 128 178 190 252 287
#     4   9  18  36  51  69 102 142 159 202 241 313
#     4   9  18  31  55  76  98 130 164 208 243 300
#     4   9  17  32  52  72  96 138 162 199 239 313
#     4   9  19  33  49  82  98 126 162 225 228 292
#
# _framework density 24.580323
#
# number of rings (size 3 to 8) (size 9 to 14) (size 15 to 20)
#    1.714    1.143    1.429    0.429    0.000    1.143 
#    2.571    3.571    0.000    2.571    0.000    0.000 
#    0.000    0.000    0.000    0.000    0.000    0.000 
#
# Total GULP energy -78045.304542 kJ/mol
# GULP energy per Si atom -5574.664610 kJ/mol
# Density = 2.452438 g / cm^3
# Si number density = 24.580323 Si / 1000 Ang^3
#
#
#
# Elastic Constant Matrix: (Units=GPa)
#
#
# Indices 1 2 3 4 5 6 
#
# 1 129.3775 23.3477 30.3442 11.2930 0.6167 44.2029
# 2 23.3477 81.1143 9.2644 19.1207 5.3571 41.6919
# 3 30.3442 9.2644 53.9774 7.9919 -13.0574 11.2924
# 4 11.2930 19.1207 7.9919 25.1239 10.4922 10.3814
# 5 0.6167 5.3571 -13.0574 10.4922 36.5879 11.0890
# 6 44.2029 41.6919 11.2924 10.3814 11.0890 43.6906
#
#
#
# Elastic Compliance Matrix: (Units=1/GPa)
#
#
# Indices 1 2 3 4 5 6 
#
# 1 0.015244 0.008844 -0.002917 -0.005549 0.006069 -0.023330
# 2 0.008844 0.034998 0.004701 -0.020941 0.015279 -0.042462
# 3 -0.002917 0.004701 0.027147 -0.013645 0.015785 -0.009316
# 4 -0.005549 -0.020941 -0.013645 0.065267 -0.026599 0.020367
# 5 0.006069 0.015279 0.015785 -0.026599 0.047509 -0.030538
# 6 -0.023330 -0.042462 -0.009316 0.020367 -0.030538 0.092330
#
#
# Mechanical properties :
#
#
# Convention : Reuss Voigt Hill
#
# Bulk Modulus (GPa) = 10.13736 43.37576 26.75656
# Shear Modulus (GPa) = 16.99989 34.51466 25.75728
#
# Velocity S-wave (km/s) = 2.63269 3.75127 3.24061
# Velocity P-wave (km/s) = 3.65712 6.03718 4.99110
#
# Compressibility (1/GPa) = 0.09864500
#
# Stress axis : x y z
#
# Youngs Moduli (GPa) = 65.60046 28.57323 36.83676
#
# Poissons Ratio (x) = -0.25270 0.10745
# Poissons Ratio (y) = -0.58018 -0.17317
# Poissons Ratio (z) = 0.19135 -0.13432
#
# Static dielectric constant tensor:
#      x y z
#    x 1.998680 -0.032020 -0.008580 
#    y -0.032020 2.043030 0.043800 
#    z -0.008580 0.043800 1.951180 
# 
# From -- ./inp_files/182733.got.cif
#   From: 2010.05.17/outbox.cif.g08.bks.cpg/sg2_92_cif.got.tgz:182733.got - 2010.06.03 11:33:40.
