data_PCOD9040572
_publ_section_title
;
Structure prediction by ZEFSAII (Michael W. Deem and Ramdas Pophale) SiO2 
 PCOD9040572
Probable space group: P -1
;
_chemical_formula_sum "Si O2"
_cell_formula_units_Z 15
_cell_length_a 19.029261
_cell_length_b 10.068171
_cell_length_c 5.900803
_cell_angle_alpha 41.701211
_cell_angle_beta 64.148839
_cell_angle_gamma 63.553793
_cell_volume 663.131866
_symmetry_space_group_name_H-M "P -1"
_symmetry_group_IT_number 2
_symmetry_cell_setting 'triclinic'
loop_
_space_group_symop_operation_xyz
x,y,z
-x,-y,-z
loop_
_atom_site_type_symbol
_atom_site_label
_atom_site_fract_x
_atom_site_fract_y
_atom_site_fract_z
Si Si1 0.308767 0.427426 0.504302
Si Si2 0.020662 0.149908 0.583667
Si Si3 0.000000 0.500000 0.500000
Si Si4 0.298890 0.824572 0.267668
Si Si5 0.282753 0.114896 0.299575
Si Si6 0.407555 0.093721 0.520316
Si Si7 0.130395 0.832926 0.541363
Si Si8 0.176100 0.449981 0.302662
O O1 0.326478 0.592370 0.447348
O O2 0.385160 0.306994 0.414380
O O3 0.240909 0.505657 0.314685
O O4 0.273891 0.263021 0.908319
O O5 0.033299 0.351299 0.430549
O O6 0.945431 0.189679 0.471368
O O7 0.096331 0.024578 0.505586
O O8 0.000000 0.000000 0.000000
O O9 0.908589 0.541807 0.470643
O O10 0.206976 0.874170 0.249408
O O11 0.289254 0.893321 0.457860
O O12 0.358670 0.945642 0.909023
O O13 0.366202 0.118400 0.301633
O O14 0.216322 0.230303 0.419889
O O15 0.500000 0.000000 0.500000
O O16 0.157421 0.629095 0.911755
#
# Coordination Sequence:
#
# PCOD9040572 Si02
#       8
#     2   2   1   2   2   2   2   2
#     4  10  23  43  68  97 129 167 220 265 314 391
#     4  11  25  43  59  92 130 171 220 275 313 380
#     4  12  24  40  64  88 130 174 214 270 324 360
#     4  11  23  40  71  95 126 175 211 260 328 384
#     4  10  23  43  67  97 127 170 212 269 315 389
#     4  10  25  46  67 100 134 163 209 267 324 394
#     4  11  24  43  64  91 131 170 222 269 322 377
#     4  11  23  42  64  92 132 170 220 272 314 383
#
# _framework density 22.619935000000002
#
# number of rings (size 3 to 8) (size 9 to 14) (size 15 to 20)
#    0.000    1.333    2.667    1.600    1.867    6.400 
#    0.000    1.333    0.000    0.000    0.000    0.000 
#    0.000    0.000    0.000    0.000    0.000    0.000 
#
# Total GULP energy -83563.844166 kJ/mol
# GULP energy per Si atom -5570.922944 kJ/mol
# Density = 2.256845 g / cm^3
# Si number density = 22.619935 Si / 1000 Ang^3
#
#
#
# Elastic Constant Matrix: (Units=GPa)
#
#
# Indices 1 2 3 4 5 6 
#
# 1 106.6470 65.3127 22.1900 -8.8401 3.8062 -39.0279
# 2 65.3127 210.8476 12.8830 -17.1775 -7.6799 6.9411
# 3 22.1900 12.8830 30.6190 -3.4106 1.9709 -9.7012
# 4 -8.8401 -17.1775 -3.4106 16.8854 0.3661 -7.9695
# 5 3.8062 -7.6799 1.9709 0.3661 31.9926 3.5282
# 6 -39.0279 6.9411 -9.7012 -7.9695 3.5282 46.6781
#
#
#
# Elastic Compliance Matrix: (Units=1/GPa)
#
#
# Indices 1 2 3 4 5 6 
#
# 1 0.025870 -0.007408 -0.005316 0.016936 -0.007489 0.025085
# 2 -0.007408 0.007437 -0.000431 -0.000098 0.003541 -0.007673
# 3 -0.005316 -0.000431 0.039318 0.007240 -0.002552 0.005220
# 4 0.016936 -0.000098 0.007240 0.084014 -0.006814 0.030539
# 5 -0.007489 0.003541 -0.002552 -0.006814 0.034456 -0.011086
# 6 0.025085 -0.007673 0.005220 0.030539 -0.011086 0.050675
#
#
# Mechanical properties :
#
#
# Convention : Reuss Voigt Hill
#
# Bulk Modulus (GPa) = 21.59019 60.98724 41.28872
# Shear Modulus (GPa) = 17.63562 35.62640 26.63101
#
# Velocity S-wave (km/s) = 2.79525 3.97293 3.43494
# Velocity P-wave (km/s) = 4.47028 6.93295 5.83306
#
# Compressibility (1/GPa) = 0.04631733
#
# Stress axis : x y z
#
# Youngs Moduli (GPa) = 38.65408 134.45690 25.43395
#
# Poissons Ratio (x) = 0.99602 0.13519
# Poissons Ratio (y) = 0.28634 0.01096
# Poissons Ratio (z) = 0.20547 0.05792
#
# Static dielectric constant tensor:
#      x y z
#    x 1.810120 0.038090 -0.002840 
#    y 0.038090 1.880810 -0.022800 
#    z -0.002840 -0.022800 1.896520 
# 
# From -- ./inp_files/104267.got.cif
#   From: 2010.05.17/outbox.cif.g08.bks.cpg/sg2_53_cif.got.tgz:104267.got - 2010.06.03 11:33:40.
