data_PCOD9040900
_publ_section_title
;
Structure prediction by ZEFSAII (Michael W. Deem and Ramdas Pophale) SiO2 
 PCOD9040900
Probable space group: P -1
;
_chemical_formula_sum "Si O2"
_cell_formula_units_Z 16
_cell_length_a 12.404820
_cell_length_b 7.614253
_cell_length_c 15.294703
_cell_angle_alpha 85.964994
_cell_angle_beta 151.735264
_cell_angle_gamma 83.542549
_cell_volume 634.170855
_symmetry_space_group_name_H-M "P -1"
_symmetry_group_IT_number 2
_symmetry_cell_setting 'triclinic'
loop_
_space_group_symop_operation_xyz
x,y,z
-x,-y,-z
loop_
_atom_site_type_symbol
_atom_site_label
_atom_site_fract_x
_atom_site_fract_y
_atom_site_fract_z
Si Si1 0.740753 0.563192 0.363807
Si Si2 0.783067 0.858381 0.520901
Si Si3 0.195133 0.932898 0.719174
Si Si4 0.697642 0.768435 0.832393
Si Si5 0.671613 0.687712 0.617021
Si Si6 0.950668 0.725387 0.288673
Si Si7 0.372147 0.420701 0.037266
Si Si8 0.137255 0.764201 0.242879
O O1 0.706164 0.741137 0.394070
O O2 0.514505 0.564675 0.142726
O O3 0.000000 0.500000 0.500000
O O4 0.798022 0.386560 0.477802
O O5 0.048389 0.856519 0.685894
O O6 0.790824 0.775389 0.626089
O O7 0.565927 0.063668 0.356204
O O8 0.427493 0.774549 0.849611
O O9 0.000000 0.000000 0.500000
O O10 0.222303 0.117528 0.774715
O O11 0.734755 0.694685 0.763059
O O12 0.708842 0.617138 0.922178
O O13 0.924706 0.829490 0.017591
O O14 0.378937 0.805642 0.395224
O O15 0.749327 0.465576 0.659509
O O16 0.006732 0.826245 0.240492
O O17 0.843422 0.569386 0.184341
#
# Coordination Sequence:
#
# PCOD9040900 Si02
#       8
#     2   2   2   2   2   2   2   2
#     4  12  23  43  64  94 145 172 220 279 339 394
#     4  12  24  41  70 105 136 178 219 289 342 386
#     4  12  21  43  70  96 136 179 217 273 342 402
#     4  11  24  43  69  98 130 179 231 269 337 401
#     4  11  23  43  69  96 137 173 225 280 338 397
#     4  11  23  43  68  96 128 177 232 267 331 413
#     4  11  24  42  70  95 128 183 225 270 328 414
#     4  10  23  43  69  96 129 184 222 274 334 410
#
# _framework density 25.229794999999999
#
# number of rings (size 3 to 8) (size 9 to 14) (size 15 to 20)
#    0.000    0.750    5.000    2.625    1.750    1.000 
#    0.000    2.500    0.000    0.000    0.000    0.000 
#    0.000    0.000    0.000    0.000    0.000    0.000 
#
# Total GULP energy -89590.703773 kJ/mol
# GULP energy per Si atom -5599.418986 kJ/mol
# Density = 2.517237 g / cm^3
# Si number density = 25.229795 Si / 1000 Ang^3
#
#
#
# Elastic Constant Matrix: (Units=GPa)
#
#
# Indices 1 2 3 4 5 6 
#
# 1 143.8870 21.2992 19.3617 21.1702 -7.2357 -5.5535
# 2 21.2992 82.0503 -1.8214 21.6378 -8.3396 -17.1768
# 3 19.3617 -1.8214 105.8280 21.7178 4.4031 -2.5534
# 4 21.1702 21.6378 21.7178 40.5844 -6.6015 -1.7451
# 5 -7.2357 -8.3396 4.4031 -6.6015 27.4499 3.1022
# 6 -5.5535 -17.1768 -2.5534 -1.7451 3.1022 40.9984
#
#
#
# Elastic Compliance Matrix: (Units=1/GPa)
#
#
# Indices 1 2 3 4 5 6 
#
# 1 0.007710 -0.001116 -0.000907 -0.002742 0.001144 0.000317
# 2 -0.001116 0.016363 0.002412 -0.008927 0.001424 0.006367
# 3 -0.000907 0.002412 0.011337 -0.007345 -0.003264 0.001528
# 4 -0.002742 -0.008927 -0.007345 0.035702 0.006731 -0.003559
# 5 0.001144 0.001424 -0.003264 0.006731 0.039550 -0.002158
# 6 0.000317 0.006367 0.001528 -0.003559 -0.002158 0.027209
#
#
# Mechanical properties :
#
#
# Convention : Reuss Voigt Hill
#
# Bulk Modulus (GPa) = 27.63343 45.49381 36.56362
# Shear Modulus (GPa) = 33.52223 41.33494 37.42859
#
# Velocity S-wave (km/s) = 3.64906 4.05203 3.85581
# Velocity P-wave (km/s) = 5.36010 6.32162 5.86061
#
# Compressibility (1/GPa) = 0.03618805
#
# Stress axis : x y z
#
# Youngs Moduli (GPa) = 129.69631 61.11484 88.20926
#
# Poissons Ratio (x) = 0.06820 0.08001
# Poissons Ratio (y) = 0.14473 -0.21278
# Poissons Ratio (z) = 0.11764 -0.14742
#
# Static dielectric constant tensor:
#      x y z
#    x 2.014650 0.048110 0.026550 
#    y 0.048110 2.033820 0.021880 
#    z 0.026550 0.021880 1.968800 
# 
# From -- ./inp_files/221650.got.cif
#   From: 2010.05.17/outbox.cif.g08.bks.cpg/sg2_111_cif.got.tgz:221650.got - 2010.06.03 11:33:40.
