data_PCOD9040016
_publ_section_title
;
Structure prediction by ZEFSAII (Michael W. Deem and Ramdas Pophale) SiO2 
 PCOD9040016
Probable space group: P -1
;
_chemical_formula_sum "Si O2"
_cell_formula_units_Z 16
_cell_length_a 16.711623
_cell_length_b 8.174939
_cell_length_c 14.031927
_cell_angle_alpha 42.639065
_cell_angle_beta 147.120012
_cell_angle_gamma 134.984606
_cell_volume 683.930050
_symmetry_space_group_name_H-M "P -1"
_symmetry_group_IT_number 2
_symmetry_cell_setting 'triclinic'
loop_
_space_group_symop_operation_xyz
x,y,z
-x,-y,-z
loop_
_atom_site_type_symbol
_atom_site_label
_atom_site_fract_x
_atom_site_fract_y
_atom_site_fract_z
Si Si1 0.084692 0.717160 0.923441
Si Si2 0.129060 0.974035 0.523138
Si Si3 0.290665 0.813088 0.578975
Si Si4 0.357028 0.326663 0.746374
Si Si5 0.951317 0.451719 0.234452
Si Si6 0.838860 0.066528 0.789437
Si Si7 0.381105 0.088942 0.069348
Si Si8 0.677035 0.641270 0.936543
O O1 0.140033 0.613235 0.926691
O O2 0.975133 0.882166 0.701848
O O3 0.000000 0.500000 0.000000
O O4 0.234676 0.886484 0.045488
O O5 0.255600 0.169561 0.627874
O O6 0.196138 0.814474 0.580425
O O7 0.033881 0.778467 0.588130
O O8 0.301174 0.553005 0.648560
O O9 0.218252 0.962843 0.363578
O O10 0.460466 0.953684 0.718917
O O11 0.528688 0.449615 0.829366
O O12 0.369413 0.136875 0.925610
O O13 0.106697 0.634584 0.275284
O O14 0.839117 0.576003 0.128218
O O15 0.711554 0.897380 0.800614
O O16 0.000000 0.000000 0.000000
O O17 0.367887 0.332051 0.010711
#
# Coordination Sequence:
#
# PCOD9040016 Si02
#       8
#     2   2   2   2   2   2   2   2
#     4  12  28  44  68 105 148 188 236 306 367 426
#     4  12  27  45  76 111 140 194 250 298 360 438
#     4  11  26  45  74 107 142 193 246 291 370 428
#     4  11  24  47  71 108 149 185 245 306 358 429
#     4  11  23  44  72 102 142 193 240 298 364 426
#     4  10  24  43  70 103 146 190 242 299 361 433
#     4  11  24  45  70 104 147 184 244 297 360 438
#     4  10  23  42  74 102 142 195 237 298 373 422
#
# _framework density 23.394207999999999
#
# number of rings (size 3 to 8) (size 9 to 14) (size 15 to 20)
#    0.000    1.000    1.250    4.875   10.500    4.500 
#    0.000    1.250    0.000    0.000    0.000    0.000 
#    0.000    0.000    0.000    0.000    0.000    0.000 
#
# Total GULP energy -89307.738306 kJ/mol
# GULP energy per Si atom -5581.733644 kJ/mol
# Density = 2.334096 g / cm^3
# Si number density = 23.394208 Si / 1000 Ang^3
#
#
#
# Elastic Constant Matrix: (Units=GPa)
#
#
# Indices 1 2 3 4 5 6 
#
# 1 87.8880 27.2161 32.6379 -8.1821 -20.4271 15.1670
# 2 27.2161 121.5467 45.3080 3.0167 -13.4576 42.3241
# 3 32.6379 45.3080 121.1672 4.0327 -25.9179 14.4655
# 4 -8.1821 3.0167 4.0327 36.9544 1.9955 -7.3820
# 5 -20.4271 -13.4576 -25.9179 1.9955 33.3489 -0.9162
# 6 15.1670 42.3241 14.4655 -7.3820 -0.9162 42.1824
#
#
#
# Elastic Compliance Matrix: (Units=1/GPa)
#
#
# Indices 1 2 3 4 5 6 
#
# 1 0.014743 -0.000715 -0.001880 0.002478 0.007041 -0.003352
# 2 -0.000715 0.014913 -0.002841 -0.004113 0.003223 -0.014382
# 3 -0.001880 -0.002841 0.011372 -0.001896 0.006638 -0.000561
# 4 0.002478 -0.004113 -0.001896 0.030139 -0.003169 0.009091
# 5 0.007041 0.003223 0.006638 -0.003169 0.040736 -0.007712
# 6 -0.003352 -0.014382 -0.000561 0.009091 -0.007712 0.040958
#
#
# Mechanical properties :
#
#
# Convention : Reuss Voigt Hill
#
# Bulk Modulus (GPa) = 33.16030 60.10289 46.63160
# Shear Modulus (GPa) = 28.77131 37.52647 33.14889
#
# Velocity S-wave (km/s) = 3.51072 4.00946 3.76835
# Velocity P-wave (km/s) = 5.53524 6.86888 6.23780
#
# Compressibility (1/GPa) = 0.03015654
#
# Stress axis : x y z
#
# Youngs Moduli (GPa) = 67.82712 67.05514 87.93844
#
# Poissons Ratio (x) = 0.04795 0.16534
# Poissons Ratio (y) = 0.04850 0.24979
# Poissons Ratio (z) = 0.12753 0.19047
#
# Static dielectric constant tensor:
#      x y z
#    x 1.917820 -0.098080 0.041670 
#    y -0.098080 2.009080 -0.051810 
#    z 0.041670 -0.051810 1.934480 
# 
# From -- ./inp_files/537592.got.cif
#   From: 2010.05.17/outbox.cif.g08.bks.cpg/sg2_269_cif.got.tgz:537592.got - 2010.06.03 11:33:40.
