data_PCOD9040147
_publ_section_title
;
Structure prediction by ZEFSAII (Michael W. Deem and Ramdas Pophale) SiO2 
 PCOD9040147
Probable space group: P -1
;
_chemical_formula_sum "Si O2"
_cell_formula_units_Z 16
_cell_length_a 10.710319
_cell_length_b 10.779548
_cell_length_c 11.635948
_cell_angle_alpha 48.550406
_cell_angle_beta 97.396259
_cell_angle_gamma 63.916423
_cell_volume 707.017195
_symmetry_space_group_name_H-M "P -1"
_symmetry_group_IT_number 2
_symmetry_cell_setting 'triclinic'
loop_
_space_group_symop_operation_xyz
x,y,z
-x,-y,-z
loop_
_atom_site_type_symbol
_atom_site_label
_atom_site_fract_x
_atom_site_fract_y
_atom_site_fract_z
Si Si1 0.008114 0.336093 0.691484
Si Si2 0.619279 0.760800 0.443182
Si Si3 0.316677 0.926862 0.676538
Si Si4 0.087888 0.933661 0.828605
Si Si5 0.971396 0.864591 0.654803
Si Si6 0.810422 0.620759 0.955797
Si Si7 0.379080 0.406252 0.231983
Si Si8 0.626383 0.970782 0.936857
O O1 0.000000 0.500000 0.500000
O O2 0.829408 0.529589 0.622775
O O3 0.990731 0.169616 0.738193
O O4 0.196303 0.152462 0.893093
O O5 0.535903 0.741722 0.551602
O O6 0.615457 0.964907 0.326660
O O7 0.527664 0.784433 0.300194
O O8 0.212411 0.919949 0.763090
O O9 0.468685 0.677847 0.786325
O O10 0.180961 0.092628 0.454805
O O11 0.951469 0.946113 0.732712
O O12 0.225358 0.684306 0.061460
O O13 0.000000 0.000000 0.500000
O O14 0.148115 0.592091 0.846495
O O15 0.699018 0.677994 0.795110
O O16 0.720587 0.808970 0.930589
O O17 0.000000 0.500000 0.000000
O O18 0.500000 0.000000 0.000000
#
# Coordination Sequence:
#
# PCOD9040147 Si02
#       8
#     2   2   2   2   2   2   2   2
#     4  12  24  46  69  92 136 183 231 279 332 414
#     4  12  25  44  72 103 135 180 230 284 341 409
#     4  11  19  40  67  98 134 169 223 285 337 404
#     4  10  23  43  63  97 134 182 221 276 348 405
#     4   9  21  36  62  99 128 174 221 276 349 397
#     4  11  23  41  68 100 137 175 226 289 344 409
#     4  11  24  41  66 102 137 169 220 293 348 391
#     4  12  25  42  69 105 136 181 239 276 339 416
#
# _framework density 22.630284
#
# number of rings (size 3 to 8) (size 9 to 14) (size 15 to 20)
#    0.000    1.000    3.750    3.000    3.500    0.500 
#    2.250    0.625    0.000    0.000    0.000    0.000 
#    0.000    0.000    0.000    0.000    0.000    0.000 
#
# Total GULP energy -89096.839516 kJ/mol
# GULP energy per Si atom -5568.552470 kJ/mol
# Density = 2.257878 g / cm^3
# Si number density = 22.630284 Si / 1000 Ang^3
#
#
#
# Elastic Constant Matrix: (Units=GPa)
#
#
# Indices 1 2 3 4 5 6 
#
# 1 40.5846 12.5072 11.2666 3.1513 1.7913 -10.2182
# 2 12.5072 61.3416 0.6642 -3.6716 -4.5592 -9.2531
# 3 11.2666 0.6642 96.4413 26.1207 2.1353 3.3205
# 4 3.1513 -3.6716 26.1207 34.5435 4.0496 4.8037
# 5 1.7913 -4.5592 2.1353 4.0496 45.0769 2.7372
# 6 -10.2182 -9.2531 3.3205 4.8037 2.7372 35.7510
#
#
#
# Elastic Compliance Matrix: (Units=1/GPa)
#
#
# Indices 1 2 3 4 5 6 
#
# 1 0.029206 -0.004994 -0.003150 -0.001671 -0.001835 0.007712
# 2 -0.004994 0.017994 -0.000197 0.001922 0.001681 0.002861
# 3 -0.003150 -0.000197 0.013415 -0.009798 0.000405 -0.000912
# 4 -0.001671 0.001922 -0.009798 0.037544 -0.002409 -0.003930
# 5 -0.001835 0.001681 0.000405 -0.002409 0.022718 -0.001543
# 6 0.007712 0.002861 -0.000912 -0.003930 -0.001543 0.031647
#
#
# Mechanical properties :
#
#
# Convention : Reuss Voigt Hill
#
# Bulk Modulus (GPa) = 22.76181 27.47151 25.11666
# Shear Modulus (GPa) = 27.19626 34.66955 30.93290
#
# Velocity S-wave (km/s) = 3.47041 3.91832 3.70115
# Velocity P-wave (km/s) = 5.11256 5.71285 5.42102
#
# Compressibility (1/GPa) = 0.04393323
#
# Stress axis : x y z
#
# Youngs Moduli (GPa) = 34.23974 55.57374 74.54617
#
# Poissons Ratio (x) = 0.27752 0.23482
# Poissons Ratio (y) = 0.17099 0.01467
# Poissons Ratio (z) = 0.10785 0.01094
#
# Static dielectric constant tensor:
#      x y z
#    x 1.926010 -0.009390 0.039360 
#    y -0.009390 1.872790 0.003270 
#    z 0.039360 0.003270 1.964420 
# 
# From -- ./inp_files/427597.got.cif
#   From: 2010.05.17/outbox.cif.g08.bks.cpg/sg2_214_cif.got.tgz:427597.got - 2010.06.03 11:33:40.
