data_PCOD9040400
_publ_section_title
;
Structure prediction by ZEFSAII (Michael W. Deem and Ramdas Pophale) SiO2 
 PCOD9040400
Probable space group: P -1
;
_chemical_formula_sum "Si O2"
_cell_formula_units_Z 14
_cell_length_a 8.619230
_cell_length_b 24.448884
_cell_length_c 12.721767
_cell_angle_alpha 28.732022
_cell_angle_beta 36.007242
_cell_angle_gamma 28.602483
_cell_volume 607.993389
_symmetry_space_group_name_H-M "P -1"
_symmetry_group_IT_number 2
_symmetry_cell_setting 'triclinic'
loop_
_space_group_symop_operation_xyz
x,y,z
-x,-y,-z
loop_
_atom_site_type_symbol
_atom_site_label
_atom_site_fract_x
_atom_site_fract_y
_atom_site_fract_z
Si Si1 0.253756 0.025553 0.182535
Si Si2 0.406742 0.604212 0.497045
Si Si3 0.759791 0.308419 0.109097
Si Si4 0.308933 0.222042 0.477661
Si Si5 0.728206 0.391687 0.209880
Si Si6 0.354550 0.916282 0.688214
Si Si7 0.638069 0.640469 0.112057
O O1 0.020471 0.180452 0.104948
O O2 0.006640 0.998917 0.307799
O O3 0.478538 0.917201 0.333781
O O4 0.500000 0.000000 0.000000
O O5 0.338422 0.659574 0.560137
O O6 0.659099 0.609003 0.278767
O O7 0.474207 0.450937 0.723145
O O8 0.076555 0.697564 0.450106
O O9 0.438449 0.311027 0.290859
O O10 0.871689 0.293308 0.193493
O O11 0.614345 0.461926 0.883161
O O12 0.416202 0.182493 0.365852
O O13 0.011129 0.412997 0.037555
O O14 0.500000 0.000000 0.500000
O O15 0.397290 0.807629 0.936080
#
# Coordination Sequence:
#
# PCOD9040400 Si02
#       7
#     2   2   2   2   2   2   2
#     4  11  25  45  66  97 140 185 234 289 345 420
#     4  11  22  41  70 102 133 181 229 284 349 413
#     4  10  23  43  66  95 131 184 226 274 355 413
#     4  11  22  40  65  91 132 183 224 277 350 415
#     4  11  22  43  69  98 139 174 226 294 343 413
#     4  11  24  43  70  99 133 185 236 285 347 412
#     4  11  23  40  70 101 137 175 234 284 345 416
#
# _framework density 23.026567
#
# number of rings (size 3 to 8) (size 9 to 14) (size 15 to 20)
#    0.000    1.143    2.857    4.714    4.000    1.143 
#    5.143    2.857    0.000    0.000    0.000    0.000 
#    0.000    0.000    0.000    0.000    0.000    0.000 
#
# Total GULP energy -78196.703892 kJ/mol
# GULP energy per Si atom -5585.478849 kJ/mol
# Density = 2.297416 g / cm^3
# Si number density = 23.026567 Si / 1000 Ang^3
#
#
#
# Elastic Constant Matrix: (Units=GPa)
#
#
# Indices 1 2 3 4 5 6 
#
# 1 102.0659 39.6304 38.7689 0.2120 8.7074 17.0892
# 2 39.6304 94.0545 37.9848 10.7459 10.2028 -4.3385
# 3 38.7689 37.9848 111.0686 3.1132 21.1457 8.7744
# 4 0.2120 10.7459 3.1132 42.5331 4.5832 14.0553
# 5 8.7074 10.2028 21.1457 4.5832 34.5566 -0.0635
# 6 17.0892 -4.3385 8.7744 14.0553 -0.0635 34.5588
#
#
#
# Elastic Compliance Matrix: (Units=1/GPa)
#
#
# Indices 1 2 3 4 5 6 
#
# 1 0.014711 -0.006189 -0.002173 0.004922 -0.001220 -0.009504
# 2 -0.006189 0.015923 -0.003803 -0.006600 0.000077 0.008710
# 3 -0.002173 -0.003803 0.012454 0.001825 -0.006198 -0.003318
# 4 0.004922 -0.006600 0.001825 0.030895 -0.004535 -0.016299
# 5 -0.001220 0.000077 -0.006198 -0.004535 0.033625 0.004093
# 6 -0.009504 0.008710 -0.003318 -0.016299 0.004093 0.042208
#
#
# Mechanical properties :
#
#
# Convention : Reuss Voigt Hill
#
# Bulk Modulus (GPa) = 53.31250 59.99524 56.65387
# Shear Modulus (GPa) = 27.71612 35.05004 31.38308
#
# Velocity S-wave (km/s) = 3.47314 3.90572 3.69576
# Velocity P-wave (km/s) = 6.26789 6.81549 6.54742
#
# Compressibility (1/GPa) = 0.01875733
#
# Stress axis : x y z
#
# Youngs Moduli (GPa) = 67.97442 62.80031 80.29784
#
# Poissons Ratio (x) = 0.38870 0.17451
# Poissons Ratio (y) = 0.42072 0.30537
# Poissons Ratio (z) = 0.14772 0.23883
#
# Static dielectric constant tensor:
#      x y z
#    x 1.912100 0.003480 0.141600 
#    y 0.003480 1.875320 -0.146770 
#    z 0.141600 -0.146770 1.486400 
# 
# From -- ./inp_files/191066.got.cif
#   From: 2010.05.17/outbox.cif.g08.bks.cpg/sg2_96_cif.got.tgz:191066.got - 2010.06.03 11:33:40.
