data_PCOD9040706
_publ_section_title
;
Structure prediction by ZEFSAII (Michael W. Deem and Ramdas Pophale) SiO2 
 PCOD9040706
Probable space group: P -1
;
_chemical_formula_sum "Si O2"
_cell_formula_units_Z 13
_cell_length_a 16.089120
_cell_length_b 9.164455
_cell_length_c 8.504987
_cell_angle_alpha 69.639893
_cell_angle_beta 41.815423
_cell_angle_gamma 44.670219
_cell_volume 541.630796
_symmetry_space_group_name_H-M "P -1"
_symmetry_group_IT_number 2
_symmetry_cell_setting 'triclinic'
loop_
_space_group_symop_operation_xyz
x,y,z
-x,-y,-z
loop_
_atom_site_type_symbol
_atom_site_label
_atom_site_fract_x
_atom_site_fract_y
_atom_site_fract_z
Si Si1 0.024873 0.347889 0.883112
Si Si2 0.211033 0.971036 0.308563
Si Si3 0.000000 0.000000 0.000000
Si Si4 0.242449 0.281865 0.139749
Si Si5 0.583317 0.891962 0.591791
Si Si6 0.371685 0.414153 0.154668
Si Si7 0.865296 0.112735 0.843031
O O1 0.237546 0.170069 0.615563
O O2 0.000000 0.500000 0.000000
O O3 0.981700 0.202368 0.013671
O O4 0.898617 0.523127 0.856476
O O5 0.072855 0.984941 0.589989
O O6 0.160954 0.018250 0.173818
O O7 0.176162 0.176611 0.336883
O O8 0.420117 0.742887 0.123128
O O9 0.826735 0.172303 0.056711
O O10 0.429465 0.074787 0.864802
O O11 0.287043 0.359544 0.184232
O O12 0.627643 0.668753 0.644791
O O13 0.500000 0.000000 0.500000
O O14 0.250949 0.670372 0.188305
#
# Coordination Sequence:
#
# PCOD9040706 Si02
#       7
#     2   2   1   2   2   2   2
#     4  12  25  47  71  99 146 182 226 291 348 407
#     4  10  23  43  68  93 137 177 227 283 345 412
#     4  12  28  42  72 106 138 180 240 280 340 416
#     4  11  23  44  71  99 130 180 235 278 346 412
#     4  11  24  42  72 102 131 180 233 285 345 414
#     4  11  24  42  70  99 130 176 234 278 343 416
#     4  11  24  45  63  98 137 182 221 287 345 404
#
# _framework density 24.001591000000001
#
# number of rings (size 3 to 8) (size 9 to 14) (size 15 to 20)
#    0.000    0.923    3.077    4.154    6.462    2.462 
#    0.000    1.538    0.000    0.000    0.000    0.000 
#    0.000    0.000    0.000    0.000    0.000    0.000 
#
# Total GULP energy -72437.424817 kJ/mol
# GULP energy per Si atom -5572.109601 kJ/mol
# Density = 2.394696 g / cm^3
# Si number density = 24.001591 Si / 1000 Ang^3
#
#
#
# Elastic Constant Matrix: (Units=GPa)
#
#
# Indices 1 2 3 4 5 6 
#
# 1 140.4979 43.5533 15.1549 1.0612 -20.9647 2.6593
# 2 43.5533 100.5197 32.0898 -5.3143 -9.3296 -5.7200
# 3 15.1549 32.0898 60.4886 7.6330 -28.9608 -0.7167
# 4 1.0612 -5.3143 7.6330 20.3761 -5.1593 -2.5934
# 5 -20.9647 -9.3296 -28.9608 -5.1593 37.8079 2.5603
# 6 2.6593 -5.7200 -0.7167 -2.5934 2.5603 53.8101
#
#
#
# Elastic Compliance Matrix: (Units=1/GPa)
#
#
# Indices 1 2 3 4 5 6 
#
# 1 0.009179 -0.004619 0.003409 -0.001491 0.006444 -0.001278
# 2 -0.004619 0.015332 -0.010843 0.007008 -0.006286 0.002350
# 3 0.003409 -0.010843 0.034292 -0.010021 0.024284 -0.002503
# 4 -0.001491 0.007008 -0.010021 0.055298 0.000548 0.003324
# 5 0.006444 -0.006286 0.024284 0.000548 0.047344 -0.002889
# 6 -0.001278 0.002350 -0.002503 0.003324 -0.002889 0.019161
#
#
# Mechanical properties :
#
#
# Convention : Reuss Voigt Hill
#
# Bulk Modulus (GPa) = 28.82052 53.67801 41.24927
# Shear Modulus (GPa) = 23.11869 36.44604 29.78237
#
# Velocity S-wave (km/s) = 3.10694 3.90100 3.52639
# Velocity P-wave (km/s) = 4.99045 6.53478 5.81412
#
# Compressibility (1/GPa) = 0.03469750
#
# Stress axis : x y z
#
# Youngs Moduli (GPa) = 108.94917 65.22463 29.16162
#
# Poissons Ratio (x) = 0.30124 -0.09941
# Poissons Ratio (y) = 0.50319 0.31619
# Poissons Ratio (z) = -0.37140 0.70720
#
# Static dielectric constant tensor:
#      x y z
#    x 1.992790 -0.045810 0.105350 
#    y -0.045810 2.003920 -0.112510 
#    z 0.105350 -0.112510 2.004940 
# 
# From -- ./inp_files/167101.got.cif
#   From: 2010.05.17/outbox.cif.g08.bks.cpg/sg2_84_cif.got.tgz:167101.got - 2010.06.03 11:33:40.
