data_PCOD9040039
_publ_section_title
;
Structure prediction by ZEFSAII (Michael W. Deem and Ramdas Pophale) SiO2 
 PCOD9040039
Probable space group: P -1
;
_chemical_formula_sum "Si O2"
_cell_formula_units_Z 15
_cell_length_a 7.877425
_cell_length_b 9.520151
_cell_length_c 10.599485
_cell_angle_alpha 74.472621
_cell_angle_beta 126.234148
_cell_angle_gamma 118.848067
_cell_volume 561.433015
_symmetry_space_group_name_H-M "P -1"
_symmetry_group_IT_number 2
_symmetry_cell_setting 'triclinic'
loop_
_space_group_symop_operation_xyz
x,y,z
-x,-y,-z
loop_
_atom_site_type_symbol
_atom_site_label
_atom_site_fract_x
_atom_site_fract_y
_atom_site_fract_z
Si Si1 0.000000 0.500000 0.500000
Si Si2 0.438843 0.816138 0.558913
Si Si3 0.626863 0.798691 0.380361
Si Si4 0.562285 0.099386 0.197053
Si Si5 0.754777 0.600548 0.156172
Si Si6 0.044294 0.238696 0.309742
Si Si7 0.851115 0.436783 0.827550
Si Si8 0.112281 0.027973 0.902761
O O1 0.178271 0.683447 0.491106
O O2 0.213353 0.482407 0.681449
O O3 0.535844 0.758694 0.494929
O O4 0.530542 0.840880 0.736403
O O5 0.500000 0.000000 0.500000
O O6 0.862191 0.779134 0.506641
O O7 0.406772 0.692391 0.227703
O O8 0.666905 0.976757 0.320040
O O9 0.788206 0.236891 0.205680
O O10 0.350774 0.011815 0.034443
O O11 0.804795 0.788085 0.148646
O O12 0.979063 0.615201 0.167807
O O13 0.500000 0.500000 0.000000
O O14 0.190090 0.419298 0.288671
O O15 0.025761 0.101486 0.233852
O O16 0.000000 0.500000 0.000000
O O17 0.000000 0.000000 0.000000
#
# Coordination Sequence:
#
# PCOD9040039 Si02
#       8
#     1   2   2   2   2   2   2   2
#     4  12  24  46  80 112 160 198 264 334 392 472
#     4  10  23  42  75 105 154 201 262 323 392 475
#     4  11  24  45  72 107 147 205 255 316 398 481
#     4  11  24  45  70 109 152 197 255 333 391 467
#     4  12  28  51  76 118 152 206 267 326 403 477
#     4  12  26  45  72 112 151 196 259 318 402 470
#     4  12  26  50  72 104 156 197 254 327 392 474
#     4  12  26  47  79 110 151 211 265 320 397 486
#
# _framework density 26.717345000000002
#
# number of rings (size 3 to 8) (size 9 to 14) (size 15 to 20)
#    0.000    0.533    1.333    6.800    5.600    2.133 
#    7.200    0.000    0.000    0.000    0.000    0.000 
#    0.000    0.000    0.000    0.000    0.000    0.000 
#
# Total GULP energy -83643.110256 kJ/mol
# GULP energy per Si atom -5576.207350 kJ/mol
# Density = 2.665654 g / cm^3
# Si number density = 26.717345 Si / 1000 Ang^3
#
#
#
# Elastic Constant Matrix: (Units=GPa)
#
#
# Indices 1 2 3 4 5 6 
#
# 1 91.6922 18.4759 18.5417 7.5739 0.5624 4.6506
# 2 18.4759 133.0236 33.8602 5.0098 11.6772 30.1539
# 3 18.5417 33.8602 165.4927 12.6255 30.1994 2.6570
# 4 7.5739 5.0098 12.6255 57.9756 1.0510 5.6153
# 5 0.5624 11.6772 30.1994 1.0510 40.5106 12.6494
# 6 4.6506 30.1539 2.6570 5.6153 12.6494 36.4500
#
#
#
# Elastic Compliance Matrix: (Units=1/GPa)
#
#
# Indices 1 2 3 4 5 6 
#
# 1 0.011508 -0.001222 -0.001184 -0.001100 0.001308 -0.000656
# 2 -0.001222 0.010003 -0.002053 0.000543 0.001306 -0.008506
# 3 -0.001184 -0.002053 0.007816 -0.001616 -0.006341 0.003729
# 4 -0.001100 0.000543 -0.001616 0.018011 0.001707 -0.003558
# 5 0.001308 0.001306 -0.006341 0.001707 0.032861 -0.012452
# 6 -0.000656 -0.008506 0.003729 -0.003558 -0.012452 0.039153
#
#
# Mechanical properties :
#
#
# Convention : Reuss Voigt Hill
#
# Bulk Modulus (GPa) = 48.99615 59.10710 54.05162
# Shear Modulus (GPa) = 37.01766 48.27597 42.64682
#
# Velocity S-wave (km/s) = 3.72631 4.25539 3.99961
# Velocity P-wave (km/s) = 6.07391 6.80556 6.45012
#
# Compressibility (1/GPa) = 0.02040977
#
# Stress axis : x y z
#
# Youngs Moduli (GPa) = 86.89835 99.97162 127.94834
#
# Poissons Ratio (x) = 0.12215 0.15143
# Poissons Ratio (y) = 0.10617 0.26266
# Poissons Ratio (z) = 0.10285 0.20523
#
# Static dielectric constant tensor:
#      x y z
#    x 2.510970 -0.098630 0.094650 
#    y -0.098630 2.052100 0.006480 
#    z 0.094650 0.006480 2.152650 
# 
# From -- ./inp_files/381834.got.cif
#   From: 2010.05.17/outbox.cif.g08.bks.cpg/sg2_191_cif.got.tgz:381834.got - 2010.06.03 11:33:40.
