data_PCOD9040324
_publ_section_title
;
Structure prediction by ZEFSAII (Michael W. Deem and Ramdas Pophale) SiO2 
 PCOD9040324
Probable space group: P -1
;
_chemical_formula_sum "Si O2"
_cell_formula_units_Z 16
_cell_length_a 12.621215
_cell_length_b 9.211161
_cell_length_c 8.830392
_cell_angle_alpha 87.154921
_cell_angle_beta 49.850290
_cell_angle_gamma 64.181423
_cell_volume 665.290590
_symmetry_space_group_name_H-M "P -1"
_symmetry_group_IT_number 2
_symmetry_cell_setting 'triclinic'
loop_
_space_group_symop_operation_xyz
x,y,z
-x,-y,-z
loop_
_atom_site_type_symbol
_atom_site_label
_atom_site_fract_x
_atom_site_fract_y
_atom_site_fract_z
Si Si1 0.426105 0.054786 0.897622
Si Si2 0.906896 0.453848 0.467674
Si Si3 0.931171 0.693066 0.987137
Si Si4 0.588331 0.295260 0.436552
Si Si5 0.331806 0.220860 0.530003
Si Si6 0.486476 0.335757 0.846815
Si Si7 0.253548 0.700759 0.166533
Si Si8 0.838309 0.028438 0.986650
O O1 0.569565 0.949362 0.649955
O O2 0.288249 0.016206 0.977447
O O3 0.380319 0.249655 0.927769
O O4 0.500000 0.000000 0.000000
O O5 0.765688 0.626297 0.508451
O O6 0.831927 0.355938 0.628290
O O7 0.000000 0.500000 0.500000
O O8 0.030069 0.352006 0.223313
O O9 0.777116 0.788309 0.238116
O O10 0.973524 0.844481 0.940403
O O11 0.000000 0.500000 0.000000
O O12 0.500000 0.500000 0.500000
O O13 0.452606 0.259462 0.504157
O O14 0.611107 0.268746 0.595864
O O15 0.739241 0.169948 0.199001
O O16 0.602710 0.283904 0.888439
O O17 0.357414 0.538308 0.967201
O O18 0.129052 0.870515 0.179099
#
# Coordination Sequence:
#
# PCOD9040324 Si02
#       8
#     2   2   2   2   2   2   2   2
#     4  11  21  36  67 107 132 169 215 287 354 413
#     4  11  26  42  68  94 131 194 240 279 334 401
#     4  10  24  46  65  88 130 187 235 287 319 395
#     4  11  21  37  66 104 137 177 209 283 364 412
#     4  10  23  43  65  98 137 172 244 278 336 422
#     4  11  22  38  67 100 144 176 209 284 368 407
#     4  11  24  41  63 105 142 172 230 286 342 420
#     4  11  23  41  67 106 139 172 233 279 351 421
#
# _framework density 24.049641000000001
#
# number of rings (size 3 to 8) (size 9 to 14) (size 15 to 20)
#    0.000    1.250    2.500    3.000    8.750    2.500 
#    0.000    0.000    0.000   15.000    0.000    0.000 
#    0.000    0.000    0.000    0.000    0.000    0.000 
#
# Total GULP energy -89245.464248 kJ/mol
# GULP energy per Si atom -5577.841515 kJ/mol
# Density = 2.399490 g / cm^3
# Si number density = 24.049641 Si / 1000 Ang^3
#
#
#
# Elastic Constant Matrix: (Units=GPa)
#
#
# Indices 1 2 3 4 5 6 
#
# 1 83.9478 41.8738 43.9768 0.1342 6.6151 12.9164
# 2 41.8738 175.8619 59.8709 -1.9302 17.4528 -2.8302
# 3 43.9768 59.8709 125.7255 0.4719 26.2616 11.6852
# 4 0.1342 -1.9302 0.4719 46.9086 9.2207 7.3968
# 5 6.6151 17.4528 26.2616 9.2207 28.7879 1.9937
# 6 12.9164 -2.8302 11.6852 7.3968 1.9937 34.0787
#
#
#
# Elastic Compliance Matrix: (Units=1/GPa)
#
#
# Indices 1 2 3 4 5 6 
#
# 1 0.016118 -0.002643 -0.004361 0.000259 0.002142 -0.005014
# 2 -0.002643 0.007373 -0.002414 0.000324 -0.001936 0.002485
# 3 -0.004361 -0.002414 0.012944 0.002171 -0.009838 -0.002881
# 4 0.000259 0.000324 0.002171 0.024052 -0.009561 -0.005477
# 5 0.002142 -0.001936 -0.009838 -0.009561 0.047337 0.001707
# 6 -0.005014 0.002485 -0.002881 -0.005477 0.001707 0.033528
#
#
# Mechanical properties :
#
#
# Convention : Reuss Voigt Hill
#
# Bulk Modulus (GPa) = 56.82892 75.21982 66.02437
# Shear Modulus (GPa) = 30.11056 37.94260 34.02658
#
# Velocity S-wave (km/s) = 3.54222 3.97631 3.76553
# Velocity P-wave (km/s) = 6.35696 7.24059 6.81312
#
# Compressibility (1/GPa) = 0.01759667
#
# Stress axis : x y z
#
# Youngs Moduli (GPa) = 62.04345 135.62396 77.25808
#
# Poissons Ratio (x) = 0.35851 0.33694
# Poissons Ratio (y) = 0.16401 0.18653
# Poissons Ratio (z) = 0.27059 0.32744
#
# Static dielectric constant tensor:
#      x y z
#    x 2.219190 0.034900 0.297260 
#    y 0.034900 1.920010 -0.068690 
#    z 0.297260 -0.068690 2.077580 
# 
# From -- ./inp_files/295407.got.cif
#   From: 2010.05.17/outbox.cif.g08.bks.cpg/sg2_148_cif.got.tgz:295407.got - 2010.06.03 11:33:40.
