data_PCOD9040134
_publ_section_title
;
Structure prediction by ZEFSAII (Michael W. Deem and Ramdas Pophale) SiO2 
 PCOD9040134
Probable space group: P -1
;
_chemical_formula_sum "Si O2"
_cell_formula_units_Z 14
_cell_length_a 7.278417
_cell_length_b 13.448444
_cell_length_c 13.483990
_cell_angle_alpha 53.744729
_cell_angle_beta 128.190977
_cell_angle_gamma 144.659475
_cell_volume 588.940713
_symmetry_space_group_name_H-M "P -1"
_symmetry_group_IT_number 2
_symmetry_cell_setting 'triclinic'
loop_
_space_group_symop_operation_xyz
x,y,z
-x,-y,-z
loop_
_atom_site_type_symbol
_atom_site_label
_atom_site_fract_x
_atom_site_fract_y
_atom_site_fract_z
Si Si1 0.767844 0.187848 0.734863
Si Si2 0.789423 0.348677 0.313636
Si Si3 0.894852 0.629206 0.788182
Si Si4 0.818085 0.018707 0.694919
Si Si5 0.791364 0.593908 0.419749
Si Si6 0.581868 0.549013 0.111015
Si Si7 0.272480 0.969307 0.853911
O O1 0.661686 0.029084 0.730961
O O2 0.491987 0.128122 0.753436
O O3 0.934979 0.332872 0.618739
O O4 0.069704 0.258222 0.864000
O O5 0.643788 0.429252 0.232835
O O6 0.883194 0.361229 0.222204
O O7 0.118368 0.446791 0.428810
O O8 0.506068 0.146428 0.376090
O O9 0.579296 0.558879 0.656626
O O10 0.686488 0.483064 0.891610
O O11 0.092231 0.801219 0.821621
O O12 0.093380 0.220244 0.631092
O O13 0.006904 0.963353 0.814205
O O14 0.500000 0.500000 0.000000
O O15 0.500000 0.000000 0.000000
#
# Coordination Sequence:
#
# PCOD9040134 Si02
#       7
#     2   2   2   2   2   2   2
#     4   9  23  42  62  94 133 165 217 264 328 367
#     4  12  23  44  70  93 133 173 209 275 320 384
#     4  11  23  44  65 101 125 171 220 261 326 380
#     4  10  23  43  63  95 133 165 215 266 315 382
#     4   9  23  46  64  95 136 164 219 265 327 381
#     4  11  25  43  65  97 130 167 222 265 323 388
#     4  12  24  42  67  97 129 178 220 260 324 386
#
# _framework density 23.771491000000001
#
# number of rings (size 3 to 8) (size 9 to 14) (size 15 to 20)
#    0.857    0.571    2.857    1.714    2.000    4.571 
#    2.571    1.429    0.000    0.000    0.000    0.000 
#    0.000    0.000    0.000    0.000    0.000    0.000 
#
# Total GULP energy -77939.624296 kJ/mol
# GULP energy per Si atom -5567.116021 kJ/mol
# Density = 2.371739 g / cm^3
# Si number density = 23.771491 Si / 1000 Ang^3
#
#
#
# Elastic Constant Matrix: (Units=GPa)
#
#
# Indices 1 2 3 4 5 6 
#
# 1 96.6343 -0.5520 17.6729 -5.9666 -9.5695 -11.6976
# 2 -0.5520 88.0521 19.5012 19.3355 6.1864 -8.8392
# 3 17.6729 19.5012 76.2626 25.8937 -10.2163 -13.4155
# 4 -5.9666 19.3355 25.8937 28.6190 -0.9061 -4.3604
# 5 -9.5695 6.1864 -10.2163 -0.9061 31.5443 -2.3337
# 6 -11.6976 -8.8392 -13.4155 -4.3604 -2.3337 30.9328
#
#
#
# Elastic Compliance Matrix: (Units=1/GPa)
#
#
# Indices 1 2 3 4 5 6 
#
# 1 0.012331 -0.000418 -0.004117 0.007284 0.002995 0.004011
# 2 -0.000418 0.013815 -0.000517 -0.008731 -0.003099 0.002101
# 3 -0.004117 -0.000517 0.022879 -0.020126 0.006117 0.005843
# 4 0.007284 -0.008731 -0.020126 0.060542 -0.000857 0.000001
# 5 0.002995 -0.003099 0.006117 -0.000857 0.035578 0.005463
# 6 0.004011 0.002101 0.005843 0.000001 0.005463 0.037391
#
#
# Mechanical properties :
#
#
# Convention : Reuss Voigt Hill
#
# Bulk Modulus (GPa) = 25.69307 37.13257 31.41282
# Shear Modulus (GPa) = 24.31741 33.17434 28.74587
#
# Velocity S-wave (km/s) = 3.20185 3.73976 3.48121
# Velocity P-wave (km/s) = 4.94984 5.85682 5.42233
#
# Compressibility (1/GPa) = 0.03892100
#
# Stress axis : x y z
#
# Youngs Moduli (GPa) = 81.09840 72.38707 43.70735
#
# Poissons Ratio (x) = 0.03028 0.17994
# Poissons Ratio (y) = 0.03392 0.02258
# Poissons Ratio (z) = 0.33388 0.03740
#
# Static dielectric constant tensor:
#      x y z
#    x 1.655650 0.070280 0.123140 
#    y 0.070280 1.983610 -0.051350 
#    z 0.123140 -0.051350 1.817260 
# 
# From -- ./inp_files/505382.got.cif
#   From: 2010.05.17/outbox.cif.g08.bks.cpg/sg2_253_cif.got.tgz:505382.got - 2010.06.03 11:33:40.
