data_PCOD9040798
_publ_section_title
;
Structure prediction by ZEFSAII (Michael W. Deem and Ramdas Pophale) SiO2 
 PCOD9040798
Probable space group: P -1
;
_chemical_formula_sum "Si O2"
_cell_formula_units_Z 16
_cell_length_a 8.113164
_cell_length_b 6.623199
_cell_length_c 19.672342
_cell_angle_alpha 132.766160
_cell_angle_beta 83.535655
_cell_angle_gamma 86.726493
_cell_volume 758.079428
_symmetry_space_group_name_H-M "P -1"
_symmetry_group_IT_number 2
_symmetry_cell_setting 'triclinic'
loop_
_space_group_symop_operation_xyz
x,y,z
-x,-y,-z
loop_
_atom_site_type_symbol
_atom_site_label
_atom_site_fract_x
_atom_site_fract_y
_atom_site_fract_z
Si Si1 0.268539 0.894689 0.948709
Si Si2 0.896134 0.140023 0.602086
Si Si3 0.009506 0.556895 0.930639
Si Si4 0.281895 0.235036 0.281498
Si Si5 0.425878 0.126676 0.461792
Si Si6 0.012000 0.043743 0.721402
Si Si7 0.616031 0.230489 0.354234
Si Si8 0.541575 0.159335 0.930272
O O1 0.181933 0.620887 0.901211
O O2 0.391227 0.974949 0.901826
O O3 0.367163 0.889419 0.013226
O O4 0.121805 0.162119 0.012437
O O5 0.803234 0.460875 0.671922
O O6 0.739831 0.979743 0.578299
O O7 0.000000 0.000000 0.500000
O O8 0.012564 0.116069 0.658054
O O9 0.957937 0.309212 0.833011
O O10 0.000000 0.500000 0.000000
O O11 0.455814 0.248567 0.316041
O O12 0.130716 0.145053 0.310216
O O13 0.335682 0.996221 0.168119
O O14 0.566875 0.060010 0.382149
O O15 0.379074 0.458203 0.549779
O O16 0.500000 0.000000 0.500000
O O17 0.196116 0.900353 0.707235
O O18 0.500000 0.500000 0.000000
#
# Coordination Sequence:
#
# PCOD9040798 Si02
#       8
#     2   2   2   2   2   2   2   2
#     4  10  23  43  69 100 136 185 238 290 355 433
#     4  12  26  46  73 102 144 189 232 299 365 420
#     4  11  24  45  70 100 144 186 234 299 361 422
#     4  12  26  46  70 104 142 185 238 293 357 432
#     4  11  22  46  68  97 137 180 229 297 353 417
#     4  12  27  45  69 106 141 184 240 293 356 435
#     4  11  26  42  72 101 135 180 241 288 356 431
#     4  11  24  44  71 102 141 187 234 297 362 423
#
# _framework density 21.105969000000002
#
# number of rings (size 3 to 8) (size 9 to 14) (size 15 to 20)
#    0.000    0.750    2.500    4.500    5.250    4.000 
#    2.250    0.000    0.000    0.000    0.000    0.000 
#    0.000    0.000    0.000    0.000    0.000    0.000 
#
# Total GULP energy -89235.109217 kJ/mol
# GULP energy per Si atom -5577.194326 kJ/mol
# Density = 2.105793 g / cm^3
# Si number density = 21.105969 Si / 1000 Ang^3
#
#
#
# Elastic Constant Matrix: (Units=GPa)
#
#
# Indices 1 2 3 4 5 6 
#
# 1 110.1584 46.0059 9.8501 7.1402 0.6706 7.0424
# 2 46.0059 103.7839 32.1934 8.6292 -1.6699 5.6608
# 3 9.8501 32.1934 70.3891 8.5108 -2.3149 4.4653
# 4 7.1402 8.6292 8.5108 21.3397 6.9393 0.9546
# 5 0.6706 -1.6699 -2.3149 6.9393 35.5627 1.4395
# 6 7.0424 5.6608 4.4653 0.9546 1.4395 39.1314
#
#
#
# Elastic Compliance Matrix: (Units=1/GPa)
#
#
# Indices 1 2 3 4 5 6 
#
# 1 0.011341 -0.005115 0.001101 -0.002133 0.000090 -0.001378
# 2 -0.005115 0.013741 -0.005274 -0.001983 0.000803 -0.000447
# 3 0.001101 -0.005274 0.017311 -0.005741 0.002033 -0.001345
# 4 -0.002133 -0.001983 -0.005741 0.054233 -0.011026 0.000408
# 5 0.000090 0.000803 0.002033 -0.011026 0.030488 -0.001217
# 6 -0.001378 -0.000447 -0.001345 0.000408 -0.001217 0.026056
#
#
# Mechanical properties :
#
#
# Convention : Reuss Voigt Hill
#
# Bulk Modulus (GPa) = 41.98826 51.15894 46.57360
# Shear Modulus (GPa) = 27.82616 32.29224 30.05920
#
# Velocity S-wave (km/s) = 3.63492 3.91577 3.77796
# Velocity P-wave (km/s) = 6.12814 6.68850 6.41444
#
# Compressibility (1/GPa) = 0.02381618
#
# Stress axis : x y z
#
# Youngs Moduli (GPa) = 88.17265 72.77488 57.76564
#
# Poissons Ratio (x) = 0.37224 -0.06357
# Poissons Ratio (y) = 0.45100 0.30468
# Poissons Ratio (z) = -0.09704 0.38384
#
# Static dielectric constant tensor:
#      x y z
#    x 1.848120 0.048530 -0.076130 
#    y 0.048530 1.814740 0.004460 
#    z -0.076130 0.004460 1.826600 
# 
# From -- ./inp_files/488320.got.cif
#   From: 2010.05.17/outbox.cif.g08.bks.cpg/sg2_245_cif.got.tgz:488320.got - 2010.06.03 11:33:40.
