data_PCOD9040855
_publ_section_title
;
Structure prediction by ZEFSAII (Michael W. Deem and Ramdas Pophale) SiO2 
 PCOD9040855
Probable space group: P -1
;
_chemical_formula_sum "Si O2"
_cell_formula_units_Z 12
_cell_length_a 11.760190
_cell_length_b 6.576124
_cell_length_c 11.526049
_cell_angle_alpha 115.522351
_cell_angle_beta 129.487841
_cell_angle_gamma 98.620517
_cell_volume 492.578046
_symmetry_space_group_name_H-M "P -1"
_symmetry_group_IT_number 2
_symmetry_cell_setting 'triclinic'
loop_
_space_group_symop_operation_xyz
x,y,z
-x,-y,-z
loop_
_atom_site_type_symbol
_atom_site_label
_atom_site_fract_x
_atom_site_fract_y
_atom_site_fract_z
Si Si1 0.456271 0.402886 0.079741
Si Si2 0.781122 0.648325 0.701818
Si Si3 0.914347 0.073486 0.361317
Si Si4 0.274819 0.643887 0.628949
Si Si5 0.876290 0.230862 0.938973
Si Si6 0.415476 0.727894 0.297702
O O1 0.559593 0.276893 0.160000
O O2 0.530593 0.668341 0.277958
O O3 0.500000 0.500000 0.000000
O O4 0.232103 0.182185 0.882774
O O5 0.676988 0.403346 0.478912
O O6 0.691474 0.527938 0.740567
O O7 0.795798 0.927355 0.754742
O O8 0.987515 0.734982 0.866226
O O9 0.789856 0.159205 0.356087
O O10 0.090141 0.337336 0.473458
O O11 0.000000 0.000000 0.500000
O O12 0.714105 0.250930 0.869700
O O13 0.000000 0.500000 0.000000
O O14 0.500000 0.000000 0.500000
#
# Coordination Sequence:
#
# PCOD9040855 Si02
#       6
#     2   2   2   2   2   2
#     4  12  27  48  73 104 149 192 243 300 363 433
#     4  10  23  43  69 103 138 184 237 302 359 429
#     4  11  26  47  73 105 143 192 245 294 363 440
#     4  11  26  46  74 105 144 189 243 301 364 429
#     4   9  21  40  66  99 138 183 231 288 359 429
#     4  11  26  44  69 105 143 188 240 298 366 431
#
# _framework density 24.361621
#
# number of rings (size 3 to 8) (size 9 to 14) (size 15 to 20)
#    0.000    1.333    1.667    1.500   11.667    4.000 
#    0.000    0.000    0.000    0.000    0.000    0.000 
#    0.000    0.000    0.000    0.000    0.000    0.000 
#
# Total GULP energy -67116.968653 kJ/mol
# GULP energy per Si atom -5593.080721 kJ/mol
# Density = 2.430617 g / cm^3
# Si number density = 24.361621 Si / 1000 Ang^3
#
#
#
# Elastic Constant Matrix: (Units=GPa)
#
#
# Indices 1 2 3 4 5 6 
#
# 1 78.2662 55.3731 29.0306 -12.7101 -18.4986 -14.9121
# 2 55.3731 142.5778 43.6432 -7.4999 -9.8355 -30.2283
# 3 29.0306 43.6432 108.5827 -9.1078 -7.1492 -8.9204
# 4 -12.7101 -7.4999 -9.1078 51.3343 -3.2182 9.4680
# 5 -18.4986 -9.8355 -7.1492 -3.2182 43.5247 -2.3564
# 6 -14.9121 -30.2283 -8.9204 9.4680 -2.3564 48.2008
#
#
#
# Elastic Compliance Matrix: (Units=1/GPa)
#
#
# Indices 1 2 3 4 5 6 
#
# 1 0.020756 -0.006371 -0.002029 0.004014 0.007433 0.001625
# 2 -0.006371 0.011185 -0.002535 -0.001307 -0.000433 0.004810
# 3 -0.002029 -0.002535 0.010861 0.001157 0.000412 -0.000415
# 4 0.004014 -0.001307 0.001157 0.021303 0.002992 -0.003402
# 5 0.007433 -0.000433 0.000412 0.002992 0.026478 0.002811
# 6 0.001625 0.004810 -0.000415 -0.003402 0.002811 0.024995
#
#
# Mechanical properties :
#
#
# Convention : Reuss Voigt Hill
#
# Bulk Modulus (GPa) = 47.77584 65.05782 56.41683
# Shear Modulus (GPa) = 34.61984 42.03729 38.32857
#
# Velocity S-wave (km/s) = 3.77381 4.15849 3.97081
# Velocity P-wave (km/s) = 6.21631 7.05835 6.65067
#
# Compressibility (1/GPa) = 0.02093108
#
# Stress axis : x y z
#
# Youngs Moduli (GPa) = 48.17994 89.40220 92.07190
#
# Poissons Ratio (x) = 0.56962 0.18678
# Poissons Ratio (y) = 0.30698 0.23344
# Poissons Ratio (z) = 0.09774 0.22667
#
# Static dielectric constant tensor:
#      x y z
#    x 1.928260 -0.013480 0.034220 
#    y -0.013480 1.934440 0.041760 
#    z 0.034220 0.041760 2.017920 
# 
# From -- ./inp_files/100180.got.cif
#   From: 2010.05.17/outbox.cif.g08.bks.cpg/sg2_51_cif.got.tgz:100180.got - 2010.06.03 11:33:40.
