data_PCOD9040998
_publ_section_title
;
Structure prediction by ZEFSAII (Michael W. Deem and Ramdas Pophale) SiO2 
 PCOD9040998
Probable space group: P -1
;
_chemical_formula_sum "Si O2"
_cell_formula_units_Z 13
_cell_length_a 9.223317
_cell_length_b 10.058124
_cell_length_c 9.399480
_cell_angle_alpha 74.657685
_cell_angle_beta 134.395440
_cell_angle_gamma 86.970146
_cell_volume 563.886176
_symmetry_space_group_name_H-M "P -1"
_symmetry_group_IT_number 2
_symmetry_cell_setting 'triclinic'
loop_
_space_group_symop_operation_xyz
x,y,z
-x,-y,-z
loop_
_atom_site_type_symbol
_atom_site_label
_atom_site_fract_x
_atom_site_fract_y
_atom_site_fract_z
Si Si1 0.006047 0.189395 0.692354
Si Si2 0.103414 0.356371 0.306694
Si Si3 0.907839 0.107030 0.229387
Si Si4 0.444696 0.237390 0.013629
Si Si5 0.000000 0.000000 0.000000
Si Si6 0.679910 0.509841 0.350154
Si Si7 0.316595 0.385399 0.163087
O O1 0.969218 0.064801 0.604135
O O2 0.954549 0.150202 0.828473
O O3 0.864535 0.352364 0.506434
O O4 0.256977 0.173449 0.866272
O O5 0.236465 0.392351 0.514892
O O6 0.252801 0.321353 0.279395
O O7 0.019600 0.223007 0.315657
O O8 0.902214 0.504062 0.089313
O O9 0.667946 0.155611 0.112906
O O10 0.910410 0.096078 0.060206
O O11 0.373561 0.403488 0.857940
O O12 0.441223 0.257115 0.175239
O O13 0.470013 0.479549 0.271515
#
# Coordination Sequence:
#
# PCOD9040998 Si02
#       7
#     2   2   2   2   1   2   2
#     4  10  23  43  70 102 143 188 223 301 342 423
#     4  11  24  45  72 103 142 191 234 290 345 423
#     4  10  23  43  71  99 143 189 228 285 361 417
#     4  12  23  44  73 110 139 187 235 294 354 416
#     4   8  22  42  70  92 148 184 230 276 370 400
#     4  12  25  43  76 110 140 179 247 291 348 419
#     4  11  25  42  73 105 145 182 240 288 357 407
#
# _framework density 23.054297999999999
#
# number of rings (size 3 to 8) (size 9 to 14) (size 15 to 20)
#    0.923    0.308    3.077    2.769    2.154    1.231 
#    0.000    5.385    0.000    0.000    0.000    0.000 
#    0.000    0.000    0.000    0.000    0.000    0.000 
#
# Total GULP energy -72487.259868 kJ/mol
# GULP energy per Si atom -5575.943067 kJ/mol
# Density = 2.300183 g / cm^3
# Si number density = 23.054298 Si / 1000 Ang^3
#
#
#
# Elastic Constant Matrix: (Units=GPa)
#
#
# Indices 1 2 3 4 5 6 
#
# 1 114.8836 13.4980 25.3160 -3.5317 -5.3124 -25.0892
# 2 13.4980 66.4004 3.6174 -4.8146 -12.1053 -16.2941
# 3 25.3160 3.6174 41.3148 4.8407 0.5701 -12.6973
# 4 -3.5317 -4.8146 4.8407 29.2220 12.5561 -7.6304
# 5 -5.3124 -12.1053 0.5701 12.5561 27.1291 4.1476
# 6 -25.0892 -16.2941 -12.6973 -7.6304 4.1476 36.7038
#
#
#
# Elastic Compliance Matrix: (Units=1/GPa)
#
#
# Indices 1 2 3 4 5 6 
#
# 1 0.011536 -0.000173 -0.005427 0.004428 -0.000815 0.006944
# 2 -0.000173 0.018270 0.000616 0.002559 0.005683 0.008095
# 3 -0.005427 0.000616 0.029814 -0.003561 -0.000717 0.006218
# 4 0.004428 0.002559 -0.003561 0.050054 -0.023528 0.015995
# 5 -0.000815 0.005683 -0.000717 -0.023528 0.051517 -0.008995
# 6 0.006944 0.008095 0.006218 0.015995 -0.008995 0.042078
#
#
# Mechanical properties :
#
#
# Convention : Reuss Voigt Hill
#
# Bulk Modulus (GPa) = 20.14024 34.16242 27.15133
# Shear Modulus (GPa) = 21.75935 30.62215 26.19075
#
# Velocity S-wave (km/s) = 3.07552 3.64849 3.37418
# Velocity P-wave (km/s) = 4.62241 5.70955 5.19450
#
# Compressibility (1/GPa) = 0.04965185
#
# Stress axis : x y z
#
# Youngs Moduli (GPa) = 86.68875 54.73470 33.54120
#
# Poissons Ratio (x) = 0.00947 0.18202
# Poissons Ratio (y) = 0.01499 -0.02066
# Poissons Ratio (z) = 0.47045 -0.03372
#
# Static dielectric constant tensor:
#      x y z
#    x 1.870920 -0.007970 -0.002060 
#    y -0.007970 1.854220 0.027140 
#    z -0.002060 0.027140 1.855660 
# 
# From -- ./inp_files/170075.got.cif
#   From: 2010.05.17/outbox.cif.g08.bks.cpg/sg2_86_cif.got.tgz:170075.got - 2010.06.03 11:33:40.
