data_PCOD9040991
_publ_section_title
;
Structure prediction by ZEFSAII (Michael W. Deem and Ramdas Pophale) SiO2 
 PCOD9040991
Probable space group: P -1
;
_chemical_formula_sum "Si O2"
_cell_formula_units_Z 14
_cell_length_a 9.740412
_cell_length_b 10.654934
_cell_length_c 10.128563
_cell_angle_alpha 116.506812
_cell_angle_beta 136.132835
_cell_angle_gamma 79.812163
_cell_volume 633.838819
_symmetry_space_group_name_H-M "P -1"
_symmetry_group_IT_number 2
_symmetry_cell_setting 'triclinic'
loop_
_space_group_symop_operation_xyz
x,y,z
-x,-y,-z
loop_
_atom_site_type_symbol
_atom_site_label
_atom_site_fract_x
_atom_site_fract_y
_atom_site_fract_z
Si Si1 0.034377 0.895261 0.092298
Si Si2 0.433011 0.352016 0.967553
Si Si3 0.128606 0.657725 0.625477
Si Si4 0.715068 0.625505 0.842421
Si Si5 0.201330 0.171058 0.493223
Si Si6 0.586800 0.170034 0.620649
Si Si7 0.721136 0.361427 0.561375
O O1 0.207705 0.807034 0.139823
O O2 0.118938 0.003083 0.323272
O O3 0.837546 0.778629 0.944787
O O4 0.000000 0.000000 0.000000
O O5 0.643668 0.315362 0.145615
O O6 0.298014 0.378736 0.010955
O O7 0.500000 0.500000 0.000000
O O8 0.300389 0.223030 0.727163
O O9 0.145007 0.664649 0.480902
O O10 0.000000 0.500000 0.500000
O O11 0.991811 0.762124 0.631001
O O12 0.801037 0.499458 0.775130
O O13 0.481696 0.608171 0.630161
O O14 0.396146 0.233724 0.562085
O O15 0.655164 0.226710 0.550123
O O16 0.500000 0.000000 0.500000
#
# Coordination Sequence:
#
# PCOD9040991 Si02
#       7
#     2   2   2   2   2   2   2
#     4  11  26  44  72 100 135 188 239 282 355 418
#     4  11  23  42  68 105 142 179 231 287 356 404
#     4  11  25  42  71 106 141 186 228 292 350 411
#     4  10  23  43  70 102 135 184 234 289 339 418
#     4  11  25  45  68 100 145 179 232 287 349 411
#     4  10  23  44  70  99 136 181 227 286 342 417
#     4  10  23  44  71 101 140 176 239 289 342 411
#
# _framework density 22.087634000000001
#
# number of rings (size 3 to 8) (size 9 to 14) (size 15 to 20)
#    0.000    1.429    1.429    2.571   10.000    1.143 
#    2.571    1.429    0.000    0.000    0.000    0.000 
#    0.000    0.000    0.000    0.000    0.000    0.000 
#
# Total GULP energy -78179.893694 kJ/mol
# GULP energy per Si atom -5584.278121 kJ/mol
# Density = 2.203736 g / cm^3
# Si number density = 22.087634 Si / 1000 Ang^3
#
#
#
# Elastic Constant Matrix: (Units=GPa)
#
#
# Indices 1 2 3 4 5 6 
#
# 1 125.9371 46.0961 19.9993 -6.5322 -13.8005 5.1030
# 2 46.0961 76.3259 15.2009 -0.0896 -21.4294 4.5213
# 3 19.9993 15.2009 113.7546 4.6560 -9.9546 -3.3898
# 4 -6.5322 -0.0896 4.6560 41.4415 -1.6356 7.5508
# 5 -13.8005 -21.4294 -9.9546 -1.6356 29.3818 -16.5545
# 6 5.1030 4.5213 -3.3898 7.5508 -16.5545 49.4489
#
#
#
# Elastic Compliance Matrix: (Units=1/GPa)
#
#
# Indices 1 2 3 4 5 6 
#
# 1 0.010472 -0.006153 -0.001168 0.001941 -0.000444 -0.001043
# 2 -0.006153 0.020589 -0.000300 -0.000989 0.013977 0.003562
# 3 -0.001168 -0.000300 0.009482 -0.001516 0.003624 0.002243
# 4 0.001941 -0.000989 -0.001516 0.025382 -0.001497 -0.004591
# 5 -0.000444 0.013977 0.003624 -0.001497 0.055140 0.017705
# 6 -0.001043 0.003562 0.002243 -0.004591 0.017705 0.026787
#
#
# Mechanical properties :
#
#
# Convention : Reuss Voigt Hill
#
# Bulk Modulus (GPa) = 39.52212 53.17890 46.35051
# Shear Modulus (GPa) = 29.14968 39.70253 34.42611
#
# Velocity S-wave (km/s) = 3.63675 4.24429 3.95221
# Velocity P-wave (km/s) = 5.96379 6.93883 6.46970
#
# Compressibility (1/GPa) = 0.02530229
#
# Stress axis : x y z
#
# Youngs Moduli (GPa) = 95.48996 48.56896 105.45861
#
# Poissons Ratio (x) = 0.29882 0.12322
# Poissons Ratio (y) = 0.58751 0.03163
# Poissons Ratio (z) = 0.11157 0.01457
#
# Static dielectric constant tensor:
#      x y z
#    x 1.877270 -0.042380 0.008240 
#    y -0.042380 1.898090 0.003060 
#    z 0.008240 0.003060 1.876800 
# 
# From -- ./inp_files/190524.got.cif
#   From: 2010.05.17/outbox.cif.g08.bks.cpg/sg2_96_cif.got.tgz:190524.got - 2010.06.03 11:33:40.
