data_PCOD9040204
_publ_section_title
;
Structure prediction by ZEFSAII (Michael W. Deem and Ramdas Pophale) SiO2 
 PCOD9040204
Probable space group: P -1
;
_chemical_formula_sum "Si O2"
_cell_formula_units_Z 16
_cell_length_a 16.524281
_cell_length_b 15.220676
_cell_length_c 7.749735
_cell_angle_alpha 74.112712
_cell_angle_beta 88.616951
_cell_angle_gamma 150.970063
_cell_volume 750.887545
_symmetry_space_group_name_H-M "P -1"
_symmetry_group_IT_number 2
_symmetry_cell_setting 'triclinic'
loop_
_space_group_symop_operation_xyz
x,y,z
-x,-y,-z
loop_
_atom_site_type_symbol
_atom_site_label
_atom_site_fract_x
_atom_site_fract_y
_atom_site_fract_z
Si Si1 0.826996 0.289219 0.759786
Si Si2 0.188876 0.144067 0.491850
Si Si3 0.497036 0.413624 0.910123
Si Si4 0.389257 0.852890 0.843542
Si Si5 0.560585 0.205308 0.463882
Si Si6 0.020369 0.306250 0.717188
Si Si7 0.674726 0.894985 0.689939
Si Si8 0.083974 0.987094 0.961079
O O1 0.000000 0.500000 0.500000
O O2 0.908571 0.276142 0.830484
O O3 0.608726 0.051385 0.805115
O O4 0.774956 0.304143 0.911876
O O5 0.352464 0.394791 0.347293
O O6 0.253585 0.125957 0.383085
O O7 0.136153 0.046193 0.728102
O O8 0.000000 0.000000 0.500000
O O9 0.283241 0.185500 0.955968
O O10 0.500000 0.500000 0.000000
O O11 0.509245 0.329036 0.052733
O O12 0.344788 0.741068 0.745063
O O13 0.430093 0.993886 0.680382
O O14 0.745524 0.424048 0.461738
O O15 0.417194 0.136211 0.435587
O O16 0.869676 0.135835 0.652831
O O17 0.035348 0.226899 0.864384
O O18 0.000000 0.000000 0.000000
#
# Coordination Sequence:
#
# PCOD9040204 Si02
#       8
#     2   2   2   2   2   2   2   2
#     4  11  22  47  69 100 141 181 229 286 353 413
#     4  11  23  41  63  95 129 182 225 278 345 397
#     4   9  20  40  63  87 125 174 210 279 330 385
#     4  10  24  44  71 101 138 181 226 290 350 423
#     4  11  23  44  70 101 135 178 230 284 355 410
#     4  11  24  42  67  98 135 182 223 283 348 412
#     4  10  23  43  64  96 140 165 230 285 327 419
#     4  11  24  42  63  94 133 174 227 276 334 411
#
# _framework density 21.308116999999999
#
# number of rings (size 3 to 8) (size 9 to 14) (size 15 to 20)
#    0.000    1.500    2.500    2.625    7.000    0.500 
#    4.500    1.250    0.000    0.000    0.000    0.000 
#    0.000    0.000    0.000    0.000    0.000    0.000 
#
# Total GULP energy -89203.544042 kJ/mol
# GULP energy per Si atom -5575.221503 kJ/mol
# Density = 2.125962 g / cm^3
# Si number density = 21.308117 Si / 1000 Ang^3
#
#
#
# Elastic Constant Matrix: (Units=GPa)
#
#
# Indices 1 2 3 4 5 6 
#
# 1 113.6863 14.9472 30.8161 -5.7150 10.7611 20.0791
# 2 14.9472 64.0707 8.3859 -1.3880 0.5198 1.5214
# 3 30.8161 8.3859 69.1851 3.7920 -10.3432 -5.4211
# 4 -5.7150 -1.3880 3.7920 26.3991 -1.1680 3.6945
# 5 10.7611 0.5198 -10.3432 -1.1680 27.6503 8.5843
# 6 20.0791 1.5214 -5.4211 3.6945 8.5843 32.2031
#
#
#
# Elastic Compliance Matrix: (Units=1/GPa)
#
#
# Indices 1 2 3 4 5 6 
#
# 1 0.013280 -0.001780 -0.007392 0.004834 -0.005007 -0.008660
# 2 -0.001780 0.016193 -0.001207 0.000624 -0.000064 0.000087
# 3 -0.007392 -0.001207 0.019889 -0.005060 0.008130 0.006427
# 4 0.004834 0.000624 -0.005060 0.040943 0.000666 -0.008770
# 5 -0.005007 -0.000064 0.008130 0.000666 0.043406 -0.007153
# 6 -0.008660 0.000087 0.006427 -0.008770 -0.007153 0.040444
#
#
# Mechanical properties :
#
#
# Convention : Reuss Voigt Hill
#
# Bulk Modulus (GPa) = 34.95822 39.47114 37.21468
# Shear Modulus (GPa) = 24.45625 30.10337 27.27981
#
# Velocity S-wave (km/s) = 3.39151 3.76275 3.58195
# Velocity P-wave (km/s) = 5.63721 6.11898 5.88303
#
# Compressibility (1/GPa) = 0.02860557
#
# Stress axis : x y z
#
# Youngs Moduli (GPa) = 75.29978 61.75536 50.27896
#
# Poissons Ratio (x) = 0.10991 0.37164
# Poissons Ratio (y) = 0.13401 0.06069
# Poissons Ratio (z) = 0.55659 0.07454
#
# Static dielectric constant tensor:
#      x y z
#    x 1.870490 -0.061570 0.133050 
#    y -0.061570 1.801310 -0.036100 
#    z 0.133050 -0.036100 1.990210 
# 
# From -- ./inp_files/314954.got.cif
#   From: 2010.05.17/outbox.cif.g08.bks.cpg/sg2_158_cif.got.tgz:314954.got - 2010.06.03 11:33:40.
