data_PCOD9040102
_publ_section_title
;
Structure prediction by ZEFSAII (Michael W. Deem and Ramdas Pophale) SiO2 
 PCOD9040102
Probable space group: P -1
;
_chemical_formula_sum "Si O2"
_cell_formula_units_Z 14
_cell_length_a 8.952744
_cell_length_b 19.104291
_cell_length_c 12.674108
_cell_angle_alpha 143.567740
_cell_angle_beta 68.416482
_cell_angle_gamma 140.184654
_cell_volume 620.872437
_symmetry_space_group_name_H-M "P -1"
_symmetry_group_IT_number 2
_symmetry_cell_setting 'triclinic'
loop_
_space_group_symop_operation_xyz
x,y,z
-x,-y,-z
loop_
_atom_site_type_symbol
_atom_site_label
_atom_site_fract_x
_atom_site_fract_y
_atom_site_fract_z
Si Si1 0.362894 0.914220 0.644836
Si Si2 0.675280 0.549048 0.349891
Si Si3 0.678508 0.777411 0.755376
Si Si4 0.379031 0.420121 0.814229
Si Si5 0.368057 0.818256 0.891302
Si Si6 0.717460 0.400154 0.666458
Si Si7 0.070064 0.664120 0.116519
O O1 0.420088 0.817251 0.553635
O O2 0.008912 0.698134 0.440606
O O3 0.576155 0.091283 0.709078
O O4 0.448243 0.050129 0.886351
O O5 0.722843 0.713738 0.572499
O O6 0.518376 0.396276 0.307149
O O7 0.491265 0.429379 0.141668
O O8 0.489518 0.771372 0.757665
O O9 0.000000 0.000000 0.000000
O O10 0.446469 0.328017 0.650728
O O11 0.060079 0.292965 0.753277
O O12 0.500000 0.500000 0.000000
O O13 0.999719 0.589744 0.737340
O O14 0.500000 0.000000 0.000000
O O15 0.896309 0.535006 0.893761
O O16 0.000000 0.500000 0.000000
#
# Coordination Sequence:
#
# PCOD9040102 Si02
#       7
#     2   2   2   2   2   2   2
#     4  11  23  43  66  98 130 177 222 271 339 403
#     4  11  24  42  71  97 135 179 226 273 335 402
#     4  11  24  43  65 104 135 176 225 274 334 400
#     4  10  24  44  67  98 131 178 222 280 336 389
#     4  11  25  41  65  99 138 175 218 278 337 392
#     4  10  23  43  62  93 135 169 222 270 332 404
#     4  10  23  43  68  95 128 170 221 281 332 390
#
# _framework density 22.548914
#
# number of rings (size 3 to 8) (size 9 to 14) (size 15 to 20)
#    0.000    1.429    2.857    0.857    6.000    3.429 
#    0.000    2.857    0.000    0.000    0.000    0.000 
#    0.000    0.000    0.000    0.000    0.000    0.000 
#
# Total GULP energy -78047.076965 kJ/mol
# GULP energy per Si atom -5574.791212 kJ/mol
# Density = 2.249759 g / cm^3
# Si number density = 22.548914 Si / 1000 Ang^3
#
#
#
# Elastic Constant Matrix: (Units=GPa)
#
#
# Indices 1 2 3 4 5 6 
#
# 1 147.7474 67.6713 28.3222 -0.9779 -24.0275 9.2336
# 2 67.6713 98.1279 10.1030 18.1277 1.6027 -6.8790
# 3 28.3222 10.1030 42.4889 8.6684 3.0283 1.8516
# 4 -0.9779 18.1277 8.6684 28.6604 -9.9120 3.3767
# 5 -24.0275 1.6027 3.0283 -9.9120 41.0536 -13.6171
# 6 9.2336 -6.8790 1.8516 3.3767 -13.6171 46.3184
#
#
#
# Elastic Compliance Matrix: (Units=1/GPa)
#
#
# Indices 1 2 3 4 5 6 
#
# 1 0.021994 -0.018509 -0.016614 0.024676 0.019984 -0.002393
# 2 -0.018509 0.027530 0.012811 -0.028780 -0.018499 0.003926
# 3 -0.016614 0.012811 0.038497 -0.027093 -0.019646 -0.000125
# 4 0.024676 -0.028780 -0.027093 0.074431 0.034399 -0.003424
# 5 0.019984 -0.018499 -0.019646 0.034399 0.048452 0.005791
# 6 -0.002393 0.003926 -0.000125 -0.003424 0.005791 0.024607
#
#
# Mechanical properties :
#
#
# Convention : Reuss Voigt Hill
#
# Bulk Modulus (GPa) = 23.04363 55.61745 39.33054
# Shear Modulus (GPa) = 16.97217 35.35766 26.16491
#
# Velocity S-wave (km/s) = 2.74648 3.96415 3.41010
# Velocity P-wave (km/s) = 4.50546 6.75806 5.74328
#
# Compressibility (1/GPa) = 0.04339594
#
# Stress axis : x y z
#
# Youngs Moduli (GPa) = 45.46793 36.32359 25.97626
#
# Poissons Ratio (x) = 0.67233 0.43156
# Poissons Ratio (y) = 0.84158 -0.33277
# Poissons Ratio (z) = 0.75538 -0.46533
#
# Static dielectric constant tensor:
#      x y z
#    x 1.851270 -0.031500 -0.013000 
#    y -0.031500 1.810640 -0.025530 
#    z -0.013000 -0.025530 1.858510 
# 
# From -- ./inp_files/72628.got.cif
#   From: 2010.05.17/outbox.cif.g08.bks.cpg/sg2_37_cif.got.tgz:72628.got - 2010.06.03 11:33:40.
