data_PCOD9040898
_publ_section_title
;
Structure prediction by ZEFSAII (Michael W. Deem and Ramdas Pophale) SiO2 
 PCOD9040898
Probable space group: P -1
;
_chemical_formula_sum "Si O2"
_cell_formula_units_Z 14
_cell_length_a 16.402318
_cell_length_b 4.973361
_cell_length_c 9.435016
_cell_angle_alpha 99.742528
_cell_angle_beta 54.799660
_cell_angle_gamma 114.128494
_cell_volume 571.690602
_symmetry_space_group_name_H-M "P -1"
_symmetry_group_IT_number 2
_symmetry_cell_setting 'triclinic'
loop_
_space_group_symop_operation_xyz
x,y,z
-x,-y,-z
loop_
_atom_site_type_symbol
_atom_site_label
_atom_site_fract_x
_atom_site_fract_y
_atom_site_fract_z
Si Si1 0.040474 0.264728 0.869693
Si Si2 0.937239 0.606640 0.453352
Si Si3 0.293152 0.850798 0.342199
Si Si4 0.757447 0.747311 0.768989
Si Si5 0.455470 0.775179 0.393945
Si Si6 0.276993 0.380814 0.722576
Si Si7 0.691534 0.015269 0.119500
O O1 0.168919 0.347470 0.746966
O O2 0.007540 0.247923 0.735983
O O3 0.000000 0.500000 0.000000
O O4 0.000000 0.000000 0.000000
O O5 0.000000 0.500000 0.500000
O O6 0.830591 0.309508 0.492835
O O7 0.121545 0.196174 0.397878
O O8 0.296424 0.608640 0.199938
O O9 0.380512 0.867576 0.372356
O O10 0.303095 0.149951 0.284294
O O11 0.753853 0.937375 0.923454
O O12 0.377892 0.479891 0.524004
O O13 0.565201 0.799627 0.210482
O O14 0.500000 0.000000 0.500000
O O15 0.267705 0.088588 0.787836
O O16 0.295727 0.648092 0.840543
#
# Coordination Sequence:
#
# PCOD9040898 Si02
#       7
#     2   2   2   2   2   2   2
#     4  12  28  46  74 106 141 191 247 306 365 431
#     4  10  26  48  74 101 147 191 242 299 373 427
#     4  10  23  43  69  95 141 183 230 290 359 427
#     4  10  24  43  69 100 143 186 233 295 361 430
#     4  10  23  43  71 104 141 189 236 293 364 424
#     4  11  23  45  66 101 148 181 239 298 357 421
#     4  11  24  40  72 105 139 189 238 291 352 437
#
# _framework density 24.488769000000001
#
# number of rings (size 3 to 8) (size 9 to 14) (size 15 to 20)
#    0.857    0.571    1.429    2.143    4.000    9.714 
#    0.000    0.000    0.000    0.000    0.000    0.000 
#    0.000    0.000    0.000    0.000    0.000    0.000 
#
# Total GULP energy -78302.458402 kJ/mol
# GULP energy per Si atom -5593.032743 kJ/mol
# Density = 2.443303 g / cm^3
# Si number density = 24.488769 Si / 1000 Ang^3
#
#
#
# Elastic Constant Matrix: (Units=GPa)
#
#
# Indices 1 2 3 4 5 6 
#
# 1 176.3099 16.8839 44.0432 -2.2598 12.5715 -7.9005
# 2 16.8839 84.9279 30.7204 9.5391 0.0560 -24.3164
# 3 44.0432 30.7204 129.0098 14.8971 7.3619 -2.3020
# 4 -2.2598 9.5391 14.8971 31.0096 -5.3656 2.0563
# 5 12.5715 0.0560 7.3619 -5.3656 34.8150 -6.0364
# 6 -7.9005 -24.3164 -2.3020 2.0563 -6.0364 43.3884
#
#
#
# Elastic Compliance Matrix: (Units=1/GPa)
#
#
# Indices 1 2 3 4 5 6 
#
# 1 0.006402 -0.000518 -0.002118 0.001340 -0.001573 0.000480
# 2 -0.000518 0.016068 -0.003157 -0.003754 0.001842 0.009177
# 3 -0.002118 -0.003157 0.009805 -0.004166 -0.002249 -0.001750
# 4 0.001340 -0.003754 -0.004166 0.036660 0.005524 -0.003050
# 5 -0.001573 0.001842 -0.002249 0.005524 0.031437 0.004738
# 6 0.000480 0.009177 -0.001750 -0.003050 0.004738 0.028989
#
#
# Mechanical properties :
#
#
# Convention : Reuss Voigt Hill
#
# Bulk Modulus (GPa) = 48.34109 63.72696 56.03403
# Shear Modulus (GPa) = 33.81978 41.74928 37.78453
#
# Velocity S-wave (km/s) = 3.72026 4.13344 3.93228
# Velocity P-wave (km/s) = 6.18358 6.98999 6.59911
#
# Compressibility (1/GPa) = 0.02068634
#
# Stress axis : x y z
#
# Youngs Moduli (GPa) = 156.21335 62.23677 101.99375
#
# Poissons Ratio (x) = 0.03225 0.21606
# Poissons Ratio (y) = 0.08095 0.32200
# Poissons Ratio (z) = 0.33092 0.19649
#
# Static dielectric constant tensor:
#      x y z
#    x 1.908700 0.082110 -0.013270 
#    y 0.082110 1.985400 -0.009740 
#    z -0.013270 -0.009740 1.985150 
# 
# From -- ./inp_files/134951.got.cif
#   From: 2010.05.17/outbox.cif.g08.bks.cpg/sg2_68_cif.got.tgz:134951.got - 2010.06.03 11:33:40.
