data_PCOD9040526
_publ_section_title
;
Structure prediction by ZEFSAII (Michael W. Deem and Ramdas Pophale) SiO2 
 PCOD9040526
Probable space group: P -1
;
_chemical_formula_sum "Si O2"
_cell_formula_units_Z 12
_cell_length_a 13.309845
_cell_length_b 6.764135
_cell_length_c 7.971575
_cell_angle_alpha 83.661317
_cell_angle_beta 125.099913
_cell_angle_gamma 121.658959
_cell_volume 480.544536
_symmetry_space_group_name_H-M "P -1"
_symmetry_group_IT_number 2
_symmetry_cell_setting 'triclinic'
loop_
_space_group_symop_operation_xyz
x,y,z
-x,-y,-z
loop_
_atom_site_type_symbol
_atom_site_label
_atom_site_fract_x
_atom_site_fract_y
_atom_site_fract_z
Si Si1 0.153540 0.258097 0.511655
Si Si2 0.431927 0.767499 0.741528
Si Si3 0.258538 0.534362 0.912058
Si Si4 0.768854 0.067427 0.527391
Si Si5 0.975118 0.407740 0.175561
Si Si6 0.362444 0.291664 0.275697
O O1 0.300782 0.507431 0.561560
O O2 0.147975 0.327823 0.690989
O O3 0.193667 0.064873 0.559711
O O4 0.017970 0.220406 0.276092
O O5 0.402795 0.709186 0.917163
O O6 0.577209 0.810245 0.794646
O O7 0.383528 0.946949 0.635808
O O8 0.181669 0.660001 0.898267
O O9 0.293669 0.415479 0.103515
O O10 0.753409 0.929547 0.696754
O O11 0.899762 0.348141 0.628609
O O12 0.000000 0.500000 0.000000
O O13 0.500000 0.500000 0.500000
#
# Coordination Sequence:
#
# PCOD9040526 Si02
#       6
#     2   2   2   2   2   2
#     4   9  21  42  64  94 128 168 213 267 317 378
#     4   9  22  42  63  94 129 172 216 259 319 380
#     4  10  23  43  67  93 132 175 210 274 321 376
#     4  11  23  42  70  96 129 174 216 265 328 383
#     4  11  24  43  68  97 133 166 218 270 328 385
#     4  12  22  42  69  94 137 171 214 269 320 385
#
# _framework density 24.97167
#
# number of rings (size 3 to 8) (size 9 to 14) (size 15 to 20)
#    1.000    0.667    1.667    2.500    2.333    3.333 
#    3.000    1.667    0.000    0.000    0.000    0.000 
#    0.000    0.000    0.000    0.000    0.000    0.000 
#
# Total GULP energy -67115.056926 kJ/mol
# GULP energy per Si atom -5592.921410 kJ/mol
# Density = 2.491483 g / cm^3
# Si number density = 24.971670 Si / 1000 Ang^3
#
#
#
# Elastic Constant Matrix: (Units=GPa)
#
#
# Indices 1 2 3 4 5 6 
#
# 1 99.0871 12.2606 -9.1414 12.3050 -3.2977 -6.0054
# 2 12.2606 92.5881 16.7696 -12.5649 8.0402 -12.4138
# 3 -9.1414 16.7696 69.4005 -19.9792 4.7904 1.2288
# 4 12.3050 -12.5649 -19.9792 34.7972 -1.3654 -6.8621
# 5 -3.2977 8.0402 4.7904 -1.3654 26.9756 -16.4227
# 6 -6.0054 -12.4138 1.2288 -6.8621 -16.4227 35.6875
#
#
#
# Elastic Compliance Matrix: (Units=1/GPa)
#
#
# Indices 1 2 3 4 5 6 
#
# 1 0.011083 -0.002134 0.000640 -0.003912 0.002627 0.001558
# 2 -0.002134 0.012852 -0.001932 0.005250 -0.000451 0.004980
# 3 0.000640 -0.001932 0.017743 0.009070 -0.002350 -0.000512
# 4 -0.003912 0.005250 0.009070 0.039523 0.004854 0.010689
# 5 0.002627 -0.000451 -0.002350 0.004854 0.054151 0.026219
# 6 0.001558 0.004980 -0.000512 0.010689 0.026219 0.044154
#
#
# Mechanical properties :
#
#
# Convention : Reuss Voigt Hill
#
# Bulk Modulus (GPa) = 28.71353 33.42813 31.07083
# Shear Modulus (GPa) = 25.25688 35.57121 30.41404
#
# Velocity S-wave (km/s) = 3.18374 3.77830 3.49369
# Velocity P-wave (km/s) = 5.00383 5.69645 5.36134
#
# Compressibility (1/GPa) = 0.03482679
#
# Stress axis : x y z
#
# Youngs Moduli (GPa) = 90.22956 77.80617 56.36149
#
# Poissons Ratio (x) = 0.16602 -0.03609
# Poissons Ratio (y) = 0.19253 0.10890
# Poissons Ratio (z) = -0.05778 0.15034
#
# Static dielectric constant tensor:
#      x y z
#    x 1.956170 0.012130 0.014000 
#    y 0.012130 2.000950 0.073940 
#    z 0.014000 0.073940 1.984980 
# 
# From -- ./inp_files/45953.got.cif
#   From: 2010.05.17/outbox.cif.g08.bks.cpg/sg2_23_cif.got.tgz:45953.got - 2010.06.03 11:33:40.
