data_PCOD9040974
_publ_section_title
;
Structure prediction by ZEFSAII (Michael W. Deem and Ramdas Pophale) SiO2 
 PCOD9040974
Probable space group: P -1
;
_chemical_formula_sum "Si O2"
_cell_formula_units_Z 14
_cell_length_a 11.042502
_cell_length_b 12.938736
_cell_length_c 13.784276
_cell_angle_alpha 120.710155
_cell_angle_beta 19.551776
_cell_angle_gamma 119.788894
_cell_volume 565.832098
_symmetry_space_group_name_H-M "P -1"
_symmetry_group_IT_number 2
_symmetry_cell_setting 'triclinic'
loop_
_space_group_symop_operation_xyz
x,y,z
-x,-y,-z
loop_
_atom_site_type_symbol
_atom_site_label
_atom_site_fract_x
_atom_site_fract_y
_atom_site_fract_z
Si Si1 0.279135 0.261770 0.628265
Si Si2 0.448698 0.599248 0.796370
Si Si3 0.033290 0.557285 0.779251
Si Si4 0.996518 0.957107 0.370806
Si Si5 0.706620 0.748202 0.002860
Si Si6 0.656082 0.818039 0.863756
Si Si7 0.490584 0.859129 0.421042
O O1 0.649255 0.345118 0.381484
O O2 0.250555 0.201786 0.727025
O O3 0.301524 0.146237 0.483903
O O4 0.919813 0.337353 0.924504
O O5 0.726593 0.554070 0.485539
O O6 0.694071 0.691103 0.722062
O O7 0.272624 0.484397 0.932549
O O8 0.809152 0.612281 0.885283
O O9 0.037466 0.073082 0.325490
O O10 0.350061 0.879883 0.062181
O O11 0.000000 0.000000 0.500000
O O12 0.527292 0.781503 0.051878
O O13 0.092907 0.815046 0.730278
O O14 0.551165 0.804144 0.243627
O O15 0.500000 0.000000 0.500000
#
# Coordination Sequence:
#
# PCOD9040974 Si02
#       7
#     2   2   2   2   2   2   2
#     4  10  23  43  70 101 135 180 227 288 341 403
#     4  11  25  43  71 100 137 182 232 284 334 399
#     4  11  24  45  66 104 136 181 233 280 339 396
#     4  10  23  45  69  99 135 175 227 283 345 411
#     4  11  25  43  67  97 140 179 228 277 337 410
#     4  10  25  43  67 102 136 181 227 280 343 409
#     4  11  24  42  66 102 135 180 226 278 342 407
#
# _framework density 24.742322999999999
#
# number of rings (size 3 to 8) (size 9 to 14) (size 15 to 20)
#    0.000    1.429    0.000    3.857    8.000    3.429 
#   12.857    0.000    0.000    0.000    0.000    0.000 
#    0.000    0.000    0.000    0.000    0.000    0.000 
#
# Total GULP energy -78213.184168 kJ/mol
# GULP energy per Si atom -5586.656012 kJ/mol
# Density = 2.468601 g / cm^3
# Si number density = 24.742323 Si / 1000 Ang^3
#
#
#
# Elastic Constant Matrix: (Units=GPa)
#
#
# Indices 1 2 3 4 5 6 
#
# 1 113.6804 47.0379 18.4070 7.9003 24.9773 -8.9209
# 2 47.0379 113.4564 3.5402 9.9773 -4.9831 3.7777
# 3 18.4070 3.5402 92.6645 4.6457 32.1470 -4.0119
# 4 7.9003 9.9773 4.6457 19.6352 -1.0595 1.5002
# 5 24.9773 -4.9831 32.1470 -1.0595 42.9230 13.2544
# 6 -8.9209 3.7777 -4.0119 1.5002 13.2544 57.5329
#
#
#
# Elastic Compliance Matrix: (Units=1/GPa)
#
#
# Indices 1 2 3 4 5 6 
#
# 1 0.014801 -0.006605 0.002331 -0.004317 -0.013090 0.006019
# 2 -0.006605 0.012289 -0.001888 -0.002440 0.007762 -0.003687
# 3 0.002331 -0.001888 0.016276 -0.005075 -0.015537 0.005332
# 4 -0.004317 -0.002440 -0.005075 0.055910 0.008749 -0.004336
# 5 -0.013090 0.007762 -0.015537 0.008749 0.048293 -0.014977
# 6 0.006019 -0.003687 0.005332 -0.004336 -0.014977 0.022492
#
#
# Mechanical properties :
#
#
# Convention : Reuss Voigt Hill
#
# Bulk Modulus (GPa) = 32.21391 50.86350 41.53871
# Shear Modulus (GPa) = 25.94273 40.73929 33.34101
#
# Velocity S-wave (km/s) = 3.24159 4.06216 3.67485
# Velocity P-wave (km/s) = 5.20179 6.52713 5.90178
#
# Compressibility (1/GPa) = 0.03104249
#
# Stress axis : x y z
#
# Youngs Moduli (GPa) = 67.56528 81.37123 61.43926
#
# Poissons Ratio (x) = 0.53743 -0.14319
# Poissons Ratio (y) = 0.44624 0.11598
# Poissons Ratio (z) = -0.15746 0.15361
#
# Static dielectric constant tensor:
#      x y z
#    x 2.063400 -0.011110 -0.061510 
#    y -0.011110 1.982830 0.001210 
#    z -0.061510 0.001210 1.932220 
# 
# From -- ./inp_files/519787.got.cif
#   From: 2010.05.17/outbox.cif.g08.bks.cpg/sg2_260_cif.got.tgz:519787.got - 2010.06.03 11:33:40.
