data_PCOD9040331
_publ_section_title
;
Structure prediction by ZEFSAII (Michael W. Deem and Ramdas Pophale) SiO2 
 PCOD9040331
Probable space group: P -1
;
_chemical_formula_sum "Si O2"
_cell_formula_units_Z 16
_cell_length_a 23.505305
_cell_length_b 8.401874
_cell_length_c 9.272955
_cell_angle_alpha 105.764516
_cell_angle_beta 134.048167
_cell_angle_gamma 42.331757
_cell_volume 767.345900
_symmetry_space_group_name_H-M "P -1"
_symmetry_group_IT_number 2
_symmetry_cell_setting 'triclinic'
loop_
_space_group_symop_operation_xyz
x,y,z
-x,-y,-z
loop_
_atom_site_type_symbol
_atom_site_label
_atom_site_fract_x
_atom_site_fract_y
_atom_site_fract_z
Si Si1 0.690392 0.318680 0.917589
Si Si2 0.007002 0.590907 0.680128
Si Si3 0.224062 0.191813 0.497325
Si Si4 0.335930 0.346903 0.709690
Si Si5 0.230797 0.130170 0.179934
Si Si6 0.516925 0.074307 0.402444
Si Si7 0.501403 0.606703 0.885973
Si Si8 0.095427 0.928995 0.535027
O O1 0.615184 0.608201 0.800395
O O2 0.582798 0.401549 0.845096
O O3 0.750515 0.098547 0.849922
O O4 0.803090 0.159748 0.194696
O O5 0.886202 0.716521 0.586826
O O6 0.000000 0.500000 0.500000
O O7 0.985698 0.812523 0.644286
O O8 0.138005 0.341758 0.939146
O O9 0.284299 0.265451 0.678951
O O10 0.174369 0.291662 0.270928
O O11 0.353608 0.867446 0.640461
O O12 0.194176 0.671480 0.534772
O O13 0.416047 0.147734 0.662167
O O14 0.431621 0.324560 0.945235
O O15 0.373667 0.970991 0.383671
O O16 0.500000 0.000000 0.500000
O O17 0.500000 0.500000 0.000000
O O18 0.000000 0.000000 0.500000
#
# Coordination Sequence:
#
# PCOD9040331 Si02
#       8
#     2   2   2   2   2   2   2   2
#     4  11  23  44  65 101 133 175 226 274 343 398
#     4  12  25  45  69 102 128 182 238 271 340 410
#     4  11  23  43  67  99 137 177 219 285 342 399
#     4  10  23  43  65  99 135 174 222 278 339 394
#     4  11  25  45  69  97 141 176 225 282 342 408
#     4  11  26  42  68 100 136 180 220 280 348 403
#     4  11  23  38  68  99 132 174 225 275 336 398
#     4  11  25  44  69  99 135 176 230 286 332 399
#
# _framework density 20.851091
#
# number of rings (size 3 to 8) (size 9 to 14) (size 15 to 20)
#    0.000    1.000    3.750    3.375    5.250    1.000 
#    0.000    2.500    0.000    0.000    0.000    0.000 
#    0.000    0.000    0.000    0.000    0.000    0.000 
#
# Total GULP energy -89154.747102 kJ/mol
# GULP energy per Si atom -5572.171694 kJ/mol
# Density = 2.080363 g / cm^3
# Si number density = 20.851091 Si / 1000 Ang^3
#
#
#
# Elastic Constant Matrix: (Units=GPa)
#
#
# Indices 1 2 3 4 5 6 
#
# 1 49.7148 13.5267 -15.0613 17.0554 -41.4988 9.2016
# 2 13.5267 94.0971 28.2206 -5.1749 -5.6347 1.5324
# 3 -15.0613 28.2206 84.3845 -0.1134 -27.6944 6.1064
# 4 17.0554 -5.1749 -0.1134 24.9641 12.3399 -4.6789
# 5 -41.4988 -5.6347 -27.6944 12.3399 22.4988 -3.5562
# 6 9.2016 1.5324 6.1064 -4.6789 -3.5562 18.5969
#
#
#
# Elastic Compliance Matrix: (Units=1/GPa)
#
#
# Indices 1 2 3 4 5 6 
#
# 1 -0.002182 0.001963 -0.007196 0.011360 -0.018201 0.002658
# 2 0.001963 0.011023 -0.001474 -0.001937 0.005499 -0.000832
# 3 -0.007196 -0.001474 0.008303 0.008949 -0.008068 0.001665
# 4 0.011360 -0.001937 0.008949 0.022609 0.019236 0.000967
# 5 -0.018201 0.005499 -0.008068 0.019236 -0.005870 0.014919
# 6 0.002658 -0.000832 0.001665 0.000967 0.014919 0.055075
#
#
# Mechanical properties :
#
#
# Convention : Reuss Voigt Hill
#
# Bulk Modulus (GPa) = 268.01126 31.28538 149.64832
# Shear Modulus (GPa) = 48.25536 26.64600 37.45068
#
# Velocity S-wave (km/s) = 4.81592 3.57868 4.24264
# Velocity P-wave (km/s) = 12.63879 5.66680 9.79417
#
# Compressibility (1/GPa) = 0.00373119
#
# Stress axis : x y z
#
# Youngs Moduli (GPa) = -458.38555 90.71661 120.44354
#
# Poissons Ratio (x) = -0.17812 0.86676
# Poissons Ratio (y) = 0.90001 0.17749
# Poissons Ratio (z) = -3.29874 0.13368
#
# Static dielectric constant tensor:
#      x y z
#    x 1.665780 -0.006980 0.005800 
#    y -0.006980 1.866380 -0.004270 
#    z 0.005800 -0.004270 1.761460 
# 
# From -- ./inp_files/352273.got.cif
#   From: 2010.05.17/outbox.cif.g08.bks.cpg/sg2_177_cif.got.tgz:352273.got - 2010.06.03 11:33:40.
