data_PCOD9040262
_publ_section_title
;
Structure prediction by ZEFSAII (Michael W. Deem and Ramdas Pophale) SiO2 
 PCOD9040262
Probable space group: P -1
;
_chemical_formula_sum "Si O2"
_cell_formula_units_Z 10
_cell_length_a 11.996323
_cell_length_b 11.754582
_cell_length_c 8.065369
_cell_angle_alpha 55.218076
_cell_angle_beta 72.790826
_cell_angle_gamma 30.482707
_cell_volume 418.299284
_symmetry_space_group_name_H-M "P -1"
_symmetry_group_IT_number 2
_symmetry_cell_setting 'triclinic'
loop_
_space_group_symop_operation_xyz
x,y,z
-x,-y,-z
loop_
_atom_site_type_symbol
_atom_site_label
_atom_site_fract_x
_atom_site_fract_y
_atom_site_fract_z
Si Si1 0.529374 0.733938 0.392580
Si Si2 0.434364 0.314283 0.974763
Si Si3 0.936341 0.761454 0.393773
Si Si4 0.261248 0.242257 0.282548
Si Si5 0.241135 0.807854 0.644979
O O1 0.416081 0.708630 0.524461
O O2 0.787120 0.495969 0.572912
O O3 0.337221 0.055712 0.259039
O O4 0.587812 0.669647 0.226359
O O5 0.241552 0.412260 0.066796
O O6 0.715251 0.977015 0.180285
O O7 0.381891 0.524730 0.883144
O O8 0.941317 0.621407 0.627779
O O9 0.848285 0.985251 0.355634
O O10 0.500000 0.000000 0.500000
O O11 0.000000 0.000000 0.500000
#
# Coordination Sequence:
#
# PCOD9040262 Si02
#       5
#     2   2   2   2   2
#     4  11  23  43  63  92 127 160 210 255 303 367
#     4  11  22  41  66  94 123 166 205 250 314 360
#     4  10  23  43  65  91 128 162 203 257 304 370
#     4   9  22  43  62  94 127 159 206 254 307 370
#     4  11  23  44  62  90 131 162 205 259 303 366
#
# _framework density 23.906327999999998
#
# number of rings (size 3 to 8) (size 9 to 14) (size 15 to 20)
#    0.000    1.600    2.000    1.800    0.000    4.800 
#   14.400    0.000    0.000    0.000    0.000    0.000 
#    0.000    0.000    0.000    0.000    0.000    0.000 
#
# Total GULP energy -55991.726488 kJ/mol
# GULP energy per Si atom -5599.172649 kJ/mol
# Density = 2.385192 g / cm^3
# Si number density = 23.906328 Si / 1000 Ang^3
#
#
#
# Elastic Constant Matrix: (Units=GPa)
#
#
# Indices 1 2 3 4 5 6 
#
# 1 124.6325 36.2288 50.5505 -5.2065 -34.7480 -28.2937
# 2 36.2288 67.8384 36.5610 -5.5727 -15.8809 -14.5521
# 3 50.5505 36.5610 91.4119 -1.5753 -29.2266 -14.5131
# 4 -5.2065 -5.5727 -1.5753 -4.7444 -24.9337 -1.2482
# 5 -34.7480 -15.8809 -29.2266 -24.9337 55.7426 -1.8753
# 6 -28.2937 -14.5521 -14.5131 -1.2482 -1.8753 59.5539
#
#
#
# Elastic Compliance Matrix: (Units=1/GPa)
#
#
# Indices 1 2 3 4 5 6 
#
# 1 0.011278 -0.003615 -0.004376 -0.008231 0.000133 0.003240
# 2 -0.003615 0.019442 -0.006390 -0.005067 -0.002287 0.001298
# 3 -0.004376 -0.006390 0.016579 -0.004519 0.002136 0.000373
# 4 -0.008231 -0.005067 -0.004519 -0.042900 -0.028404 -0.008044
# 5 0.000133 -0.002287 0.002136 -0.028404 0.005773 -0.000389
# 6 0.003240 0.001298 0.000373 -0.008044 -0.000389 0.018558
#
#
# Mechanical properties :
#
#
# Convention : Reuss Voigt Hill
#
# Bulk Modulus (GPa) = 53.94157 58.95150 56.44654
# Shear Modulus (GPa) = 78.53129 32.81325 55.67227
#
# Velocity S-wave (km/s) = 5.73767 3.70885 4.83097
# Velocity P-wave (km/s) = 8.15520 6.56153 7.40138
#
# Compressibility (1/GPa) = 0.01853858
#
# Stress axis : x y z
#
# Youngs Moduli (GPa) = 88.66823 51.43623 60.31739
#
# Poissons Ratio (x) = 0.18592 0.26394
# Poissons Ratio (y) = 0.32050 0.38540
# Poissons Ratio (z) = 0.38799 0.32866
#
# Static dielectric constant tensor:
#      x y z
#    x 1.896480 0.003110 0.012640 
#    y 0.003110 1.904400 -0.028950 
#    z 0.012640 -0.028950 1.932370 
# 
# From -- ./inp_files/15108.got.cif
#   From: 2010.05.17/outbox.cif.g08.bks.cpg/sg2_8_cif.got.tgz:15108.got - 2010.06.03 11:33:40.
