data_PCOD9040099
_publ_section_title
;
Structure prediction by ZEFSAII (Michael W. Deem and Ramdas Pophale) SiO2 
 PCOD9040099
Probable space group: P -1
;
_chemical_formula_sum "Si O2"
_cell_formula_units_Z 14
_cell_length_a 10.031863
_cell_length_b 14.957395
_cell_length_c 17.531914
_cell_angle_alpha 25.036099
_cell_angle_beta 111.944358
_cell_angle_gamma 128.662896
_cell_volume 706.862308
_symmetry_space_group_name_H-M "P -1"
_symmetry_group_IT_number 2
_symmetry_cell_setting 'triclinic'
loop_
_space_group_symop_operation_xyz
x,y,z
-x,-y,-z
loop_
_atom_site_type_symbol
_atom_site_label
_atom_site_fract_x
_atom_site_fract_y
_atom_site_fract_z
Si Si1 0.167731 0.732179 0.662008
Si Si2 0.652375 0.783155 0.875405
Si Si3 0.927220 0.768095 0.477921
Si Si4 0.473173 0.883148 0.360253
Si Si5 0.623988 0.395965 0.289291
Si Si6 0.137879 0.807515 0.882568
Si Si7 0.537601 0.288428 0.672055
O O1 0.014041 0.749007 0.586215
O O2 0.208192 0.594073 0.714200
O O3 0.394351 0.073003 0.462749
O O4 0.073282 0.521081 0.879308
O O5 0.882681 0.050450 0.681832
O O6 0.574824 0.934372 0.761619
O O7 0.500000 0.500000 0.000000
O O8 0.662097 0.654555 0.053666
O O9 0.710116 0.433041 0.661134
O O10 0.892348 0.981822 0.309810
O O11 0.394123 0.636343 0.598643
O O12 0.377166 0.709533 0.392307
O O13 0.721018 0.138278 0.195948
O O14 0.297128 0.952133 0.878047
O O15 0.500000 0.500000 0.500000
#
# Coordination Sequence:
#
# PCOD9040099 Si02
#       7
#     2   2   2   2   2   2   2
#     4  11  21  37  65  92 120 174 202 251 318 372
#     4  12  22  40  64  95 129 166 203 256 311 375
#     4  11  20  39  69  87 121 165 210 248 315 369
#     4  10  23  43  62  93 128 161 207 265 305 365
#     4  11  22  38  60  94 132 156 211 255 309 370
#     4   9  22  41  60  91 123 161 204 256 315 357
#     4   8  20  44  64  85 129 164 202 264 311 359
#
# _framework density 19.805838999999999
#
# number of rings (size 3 to 8) (size 9 to 14) (size 15 to 20)
#    0.857    0.857    4.286    0.857    0.000    2.857 
#    0.000    3.571    0.000    0.000    0.000    0.000 
#    0.000    0.000    0.000    0.000    0.000    0.000 
#
# Total GULP energy -77969.455892 kJ/mol
# GULP energy per Si atom -5569.246849 kJ/mol
# Density = 1.976076 g / cm^3
# Si number density = 19.805839 Si / 1000 Ang^3
#
#
#
# Elastic Constant Matrix: (Units=GPa)
#
#
# Indices 1 2 3 4 5 6 
#
# 1 80.8894 -38.0755 3.9542 -34.4617 27.9059 35.2432
# 2 -38.0755 -19.6288 -14.2812 -60.1026 52.3770 65.8936
# 3 3.9542 -14.2812 66.6231 3.6572 10.3763 7.5218
# 4 -34.4617 -60.1026 3.6572 -17.6231 27.8996 39.4910
# 5 27.9059 52.3770 10.3763 27.8996 11.6072 -19.3239
# 6 35.2432 65.8936 7.5218 39.4910 -19.3239 -12.2248
#
#
#
# Elastic Compliance Matrix: (Units=1/GPa)
#
#
# Indices 1 2 3 4 5 6 
#
# 1 0.009139 -0.003211 -0.001497 -0.001508 0.000795 0.001993
# 2 -0.003211 0.009416 0.002078 -0.011176 0.000370 0.006087
# 3 -0.001497 0.002078 0.016546 -0.007182 -0.003723 -0.000251
# 4 -0.001508 -0.011176 -0.007182 0.030739 0.010195 0.014177
# 5 0.000795 0.000370 -0.003723 0.010195 0.032919 -0.017105
# 6 0.001993 0.006087 -0.000251 0.014177 -0.017105 0.029438
#
#
# Mechanical properties :
#
#
# Convention : Reuss Voigt Hill
#
# Bulk Modulus (GPa) = 33.50969 3.45321 18.48145
# Shear Modulus (GPa) = 34.86625 8.10428 21.48527
#
# Velocity S-wave (km/s) = 4.20027 2.02503 3.29720
# Velocity P-wave (km/s) = 6.36230 2.68607 4.88333
#
# Compressibility (1/GPa) = 0.02984211
#
# Stress axis : x y z
#
# Youngs Moduli (GPa) = 109.41636 106.19964 60.43580
#
# Poissons Ratio (x) = 0.34098 0.09046
# Poissons Ratio (y) = 0.35131 -0.12556
# Poissons Ratio (z) = 0.16377 -0.22064
#
# Static dielectric constant tensor:
#      x y z
#    x 1.686680 -0.003620 0.013350 
#    y -0.003620 1.775420 -0.024070 
#    z 0.013350 -0.024070 1.682940 
# 
# From -- ./inp_files/379153.got.cif
#   From: 2010.05.17/outbox.cif.g08.bks.cpg/sg2_190_cif.got.tgz:379153.got - 2010.06.03 11:33:40.
