data_PCOD9040552
_publ_section_title
;
Structure prediction by ZEFSAII (Michael W. Deem and Ramdas Pophale) SiO2 
 PCOD9040552
Probable space group: P -1
;
_chemical_formula_sum "Si O2"
_cell_formula_units_Z 14
_cell_length_a 6.970803
_cell_length_b 10.446943
_cell_length_c 17.833769
_cell_angle_alpha 57.056597
_cell_angle_beta 49.054998
_cell_angle_gamma 43.775915
_cell_volume 672.449409
_symmetry_space_group_name_H-M "P -1"
_symmetry_group_IT_number 2
_symmetry_cell_setting 'triclinic'
loop_
_space_group_symop_operation_xyz
x,y,z
-x,-y,-z
loop_
_atom_site_type_symbol
_atom_site_label
_atom_site_fract_x
_atom_site_fract_y
_atom_site_fract_z
Si Si1 0.050318 0.138562 0.777873
Si Si2 0.170705 0.134923 0.582330
Si Si3 0.458717 0.930747 0.111086
Si Si4 0.449848 0.512817 0.419563
Si Si5 0.627886 0.819027 0.809119
Si Si6 0.059305 0.895178 0.596514
Si Si7 0.922752 0.600068 0.199837
O O1 0.211545 0.134362 0.660433
O O2 0.982221 0.313601 0.787267
O O3 0.763028 0.136368 0.826420
O O4 0.274787 0.954194 0.829099
O O5 0.912270 0.343501 0.553319
O O6 0.500000 0.000000 0.500000
O O7 0.011154 0.030610 0.632296
O O8 0.767969 0.752764 0.125297
O O9 0.339139 0.097138 0.149260
O O10 0.500000 0.000000 0.000000
O O11 0.500000 0.500000 0.500000
O O12 0.603325 0.300120 0.423135
O O13 0.656343 0.576297 0.308121
O O14 0.817099 0.844645 0.688193
O O15 0.789001 0.599659 0.839194
O O16 0.000000 0.000000 0.500000
#
# Coordination Sequence:
#
# PCOD9040552 Si02
#       7
#     2   2   2   2   2   2   2
#     4  11  23  43  66  95 134 169 223 273 325 395
#     4  12  24  37  59  96 131 174 221 267 323 392
#     4  11  24  46  72  97 131 172 217 276 336 389
#     4  11  23  39  61  89 132 178 217 263 323 387
#     4  10  23  43  67  96 132 173 216 272 329 386
#     4  11  21  39  62  87 131 177 217 264 325 382
#     4  10  24  44  66  95 136 173 217 275 327 388
#
# _framework density 20.819410000000001
#
# number of rings (size 3 to 8) (size 9 to 14) (size 15 to 20)
#    0.000    1.143    4.286    1.714    4.000    5.714 
#    0.000    1.429    0.000    0.000    0.000    0.000 
#    0.000    0.000    0.000    0.000    0.000    0.000 
#
# Total GULP energy -78198.259254 kJ/mol
# GULP energy per Si atom -5585.589947 kJ/mol
# Density = 2.077202 g / cm^3
# Si number density = 20.819410 Si / 1000 Ang^3
#
#
#
# Elastic Constant Matrix: (Units=GPa)
#
#
# Indices 1 2 3 4 5 6 
#
# 1 105.8840 66.0884 17.8754 -1.4799 22.4539 8.9786
# 2 66.0884 195.3451 25.8658 -13.7260 20.4080 9.2956
# 3 17.8754 25.8658 76.1164 -10.1067 36.5349 5.6349
# 4 -1.4799 -13.7260 -10.1067 17.9279 -2.5202 0.1250
# 5 22.4539 20.4080 36.5349 -2.5202 28.1029 0.9611
# 6 8.9786 9.2956 5.6349 0.1250 0.9611 32.2116
#
#
#
# Elastic Compliance Matrix: (Units=1/GPa)
#
#
# Indices 1 2 3 4 5 6 
#
# 1 0.014702 -0.003908 0.006103 -0.000672 -0.016783 -0.003535
# 2 -0.003908 0.006973 -0.000109 0.004772 -0.001342 -0.000882
# 3 0.006103 -0.000109 0.042346 0.016170 -0.058145 -0.007405
# 4 -0.000672 0.004772 0.016170 0.066002 -0.017904 -0.003741
# 5 -0.016783 -0.001342 -0.058145 -0.017904 0.123555 0.011620
# 6 -0.003535 -0.000882 -0.007405 -0.003741 0.011620 0.033248
#
#
# Mechanical properties :
#
#
# Convention : Reuss Voigt Hill
#
# Bulk Modulus (GPa) = 14.66393 66.33387 40.49890
# Shear Modulus (GPa) = 16.37277 33.48289 24.92783
#
# Velocity S-wave (km/s) = 2.80736 4.01465 3.46401
# Velocity P-wave (km/s) = 4.19130 7.30894 5.95767
#
# Compressibility (1/GPa) = 0.06819455
#
# Stress axis : x y z
#
# Youngs Moduli (GPa) = 68.01569 143.40671 23.61522
#
# Poissons Ratio (x) = 0.56042 -0.14413
# Poissons Ratio (y) = 0.26580 0.00257
# Poissons Ratio (z) = -0.41512 0.01560
#
# Static dielectric constant tensor:
#      x y z
#    x 1.748870 -0.014650 -0.051190 
#    y -0.014650 1.760180 0.006800 
#    z -0.051190 0.006800 1.785870 
# 
# From -- ./inp_files/314933.got.cif
#   From: 2010.05.17/outbox.cif.g08.bks.cpg/sg2_158_cif.got.tgz:314933.got - 2010.06.03 11:33:40.
