data_PCOD9040891
_publ_section_title
;
Structure prediction by ZEFSAII (Michael W. Deem and Ramdas Pophale) SiO2 
 PCOD9040891
Probable space group: P -1
;
_chemical_formula_sum "Si O2"
_cell_formula_units_Z 14
_cell_length_a 11.978210
_cell_length_b 14.122883
_cell_length_c 9.260713
_cell_angle_alpha 64.231117
_cell_angle_beta 130.335512
_cell_angle_gamma 148.586798
_cell_volume 594.493810
_symmetry_space_group_name_H-M "P -1"
_symmetry_group_IT_number 2
_symmetry_cell_setting 'triclinic'
loop_
_space_group_symop_operation_xyz
x,y,z
-x,-y,-z
loop_
_atom_site_type_symbol
_atom_site_label
_atom_site_fract_x
_atom_site_fract_y
_atom_site_fract_z
Si Si1 0.767582 0.226740 0.549555
Si Si2 0.244385 0.622256 0.808572
Si Si3 0.581233 0.747423 0.573616
Si Si4 0.989716 0.598081 0.829033
Si Si5 0.053950 0.862867 0.398823
Si Si6 0.185558 0.288365 0.383478
Si Si7 0.378235 0.310827 0.028574
O O1 0.713125 0.297026 0.363318
O O2 0.942942 0.253086 0.580577
O O3 0.968933 0.390799 0.731171
O O4 0.500000 0.000000 0.500000
O O5 0.474920 0.675354 0.974173
O O6 0.226172 0.708734 0.845164
O O7 0.286481 0.560993 0.385781
O O8 0.806486 0.814124 0.633061
O O9 0.591378 0.713142 0.768497
O O10 0.656688 0.913655 0.499593
O O11 0.983140 0.711721 0.815586
O O12 0.000000 0.500000 0.000000
O O13 0.910123 0.783816 0.484406
O O14 0.916611 0.849800 0.168172
O O15 0.500000 0.500000 0.500000
O O16 0.500000 0.500000 0.000000
#
# Coordination Sequence:
#
# PCOD9040891 Si02
#       7
#     2   2   2   2   2   2   2
#     4  11  22  40  70  97 133 175 217 286 343 394
#     4  11  23  41  64  98 137 169 230 278 335 403
#     4  11  25  44  66 101 134 174 226 281 336 398
#     4  11  24  43  69  94 130 183 227 271 339 404
#     4  12  23  44  68 100 136 173 224 281 338 404
#     4  10  23  43  69  94 133 180 223 270 335 407
#     4  12  24  41  70  99 133 178 223 271 342 406
#
# _framework density 23.549444999999999
#
# number of rings (size 3 to 8) (size 9 to 14) (size 15 to 20)
#    0.000    0.857    2.857    6.000    6.000    0.000 
#    0.000    2.143    0.000    0.000    0.000    0.000 
#    0.000    0.000    0.000    0.000    0.000    0.000 
#
# Total GULP energy -78122.379604 kJ/mol
# GULP energy per Si atom -5580.169972 kJ/mol
# Density = 2.349585 g / cm^3
# Si number density = 23.549445 Si / 1000 Ang^3
#
#
#
# Elastic Constant Matrix: (Units=GPa)
#
#
# Indices 1 2 3 4 5 6 
#
# 1 170.9497 -7.9506 19.7838 -15.9377 29.4218 -10.2817
# 2 -7.9506 92.3890 3.8424 -8.7368 -3.5361 -0.1652
# 3 19.7838 3.8424 85.2961 -29.5317 11.8959 9.3599
# 4 -15.9377 -8.7368 -29.5317 29.2032 0.7592 1.2005
# 5 29.4218 -3.5361 11.8959 0.7592 36.3574 -10.0192
# 6 -10.2817 -0.1652 9.3599 1.2005 -10.0192 35.5966
#
#
#
# Elastic Compliance Matrix: (Units=1/GPa)
#
#
# Indices 1 2 3 4 5 6 
#
# 1 0.007374 0.000869 0.001075 0.005543 -0.006387 -0.000133
# 2 0.000869 0.011316 0.001007 0.004886 -0.000075 -0.000147
# 3 0.001075 0.001007 0.022462 0.024289 -0.011269 -0.009582
# 4 0.005543 0.004886 0.024289 0.064196 -0.016486 -0.011568
# 5 -0.006387 -0.000075 -0.011269 -0.016486 0.040283 0.013012
# 6 -0.000133 -0.000147 -0.009582 -0.011568 0.013012 0.034626
#
#
# Mechanical properties :
#
#
# Convention : Reuss Voigt Hill
#
# Bulk Modulus (GPa) = 21.25236 42.22067 31.73651
# Shear Modulus (GPa) = 26.31048 42.42873 34.36961
#
# Velocity S-wave (km/s) = 3.34615 4.24923 3.82444
# Velocity P-wave (km/s) = 4.89623 6.48399 5.74522
#
# Compressibility (1/GPa) = 0.04705361
#
# Stress axis : x y z
#
# Youngs Moduli (GPa) = 135.61815 88.37322 44.51983
#
# Poissons Ratio (x) = -0.07682 -0.04786
# Poissons Ratio (y) = -0.11790 -0.04482
# Poissons Ratio (z) = -0.14580 -0.08898
#
# Static dielectric constant tensor:
#      x y z
#    x 2.027370 -0.009080 -0.040290 
#    y -0.009080 1.941450 -0.011820 
#    z -0.040290 -0.011820 1.936400 
# 
# From -- ./inp_files/238561.got.cif
#   From: 2010.05.17/outbox.cif.g08.bks.cpg/sg2_120_cif.got.tgz:238561.got - 2010.06.03 11:33:40.
