data_PCOD9040217
_publ_section_title
;
Structure prediction by ZEFSAII (Michael W. Deem and Ramdas Pophale) SiO2 
 PCOD9040217
Probable space group: P -1
;
_chemical_formula_sum "Si O2"
_cell_formula_units_Z 15
_cell_length_a 11.778027
_cell_length_b 14.593920
_cell_length_c 7.932209
_cell_angle_alpha 86.242929
_cell_angle_beta 111.348498
_cell_angle_gamma 35.605815
_cell_volume 551.068855
_symmetry_space_group_name_H-M "P -1"
_symmetry_group_IT_number 2
_symmetry_cell_setting 'triclinic'
loop_
_space_group_symop_operation_xyz
x,y,z
-x,-y,-z
loop_
_atom_site_type_symbol
_atom_site_label
_atom_site_fract_x
_atom_site_fract_y
_atom_site_fract_z
Si Si1 0.605491 0.640747 0.685728
Si Si2 0.777088 0.277805 0.971010
Si Si3 0.043782 0.931222 0.350787
Si Si4 0.500000 0.000000 0.000000
Si Si5 0.722887 0.027475 0.971270
Si Si6 0.298009 0.477442 0.587589
Si Si7 0.929741 0.355663 0.206478
Si Si8 0.290972 0.240956 0.203462
O O1 0.366804 0.727374 0.510446
O O2 0.816421 0.468230 0.668000
O O3 0.692104 0.564615 0.934792
O O4 0.518767 0.806557 0.605688
O O5 0.474531 0.451992 0.715204
O O6 0.819967 0.325560 0.130723
O O7 0.896624 0.101701 0.124710
O O8 0.999566 0.163456 0.970164
O O9 0.000000 0.000000 0.500000
O O10 0.877113 0.951089 0.237905
O O11 0.556078 0.049513 0.905431
O O12 0.408753 0.130882 0.100935
O O13 0.511230 0.248320 0.763389
O O14 0.074191 0.621461 0.599914
O O15 0.200224 0.217192 0.278090
O O16 0.000000 0.500000 0.000000
#
# Coordination Sequence:
#
# PCOD9040217 Si02
#       8
#     2   2   2   1   2   2   2   2
#     4  11  22  42  68  96 132 186 227 272 345 415
#     4  11  21  43  64  97 138 168 222 290 336 399
#     4  11  21  40  67  97 131 172 229 280 335 410
#     4  12  22  42  74  94 132 190 226 272 350 408
#     4  11  21  41  67  95 131 177 221 278 345 400
#     4  11  22  42  70  95 135 182 220 282 351 404
#     4  11  24  43  65  98 141 175 225 284 345 409
#     4  10  23  43  64  98 139 180 227 280 342 410
#
# _framework density 27.219829000000001
#
# number of rings (size 3 to 8) (size 9 to 14) (size 15 to 20)
#    0.000    1.067    4.000    5.200    0.000    1.067 
#    2.400    5.333    0.000    0.000    0.000    0.000 
#    0.000    0.000    0.000    0.000    0.000    0.000 
#
# Total GULP energy -83588.057750 kJ/mol
# GULP energy per Si atom -5572.537183 kJ/mol
# Density = 2.715788 g / cm^3
# Si number density = 27.219829 Si / 1000 Ang^3
#
#
#
# Elastic Constant Matrix: (Units=GPa)
#
#
# Indices 1 2 3 4 5 6 
#
# 1 150.9510 38.8433 11.1708 -4.0287 8.2293 2.6193
# 2 38.8433 107.7603 43.7585 50.8890 -3.8892 -18.1599
# 3 11.1708 43.7585 48.5279 7.2715 8.8416 -6.1424
# 4 -4.0287 50.8890 7.2715 52.8672 -9.4022 -14.2020
# 5 8.2293 -3.8892 8.8416 -9.4022 36.4521 15.5474
# 6 2.6193 -18.1599 -6.1424 -14.2020 15.5474 44.2498
#
#
#
# Elastic Compliance Matrix: (Units=1/GPa)
#
#
# Indices 1 2 3 4 5 6 
#
# 1 0.009220 -0.010427 0.006247 0.009447 -0.002209 -0.000150
# 2 -0.010427 0.044985 -0.033300 -0.038522 0.005178 0.000273
# 3 0.006247 -0.033300 0.048343 0.025038 -0.012391 0.005064
# 4 0.009447 -0.038522 0.025038 0.054484 -0.000261 0.004686
# 5 -0.002209 0.005178 -0.012391 -0.000261 0.036735 -0.012455
# 6 -0.000150 0.000273 0.005064 0.004686 -0.012455 0.029303
#
#
# Mechanical properties :
#
#
# Convention : Reuss Voigt Hill
#
# Bulk Modulus (GPa) = 36.24582 54.97605 45.61093
# Shear Modulus (GPa) = 16.27462 40.94494 28.60978
#
# Velocity S-wave (km/s) = 2.44784 3.88265 3.24553
# Velocity P-wave (km/s) = 4.61889 6.35145 5.55315
#
# Compressibility (1/GPa) = 0.02758939
#
# Stress axis : x y z
#
# Youngs Moduli (GPa) = 108.45413 22.22948 20.68549
#
# Poissons Ratio (x) = 0.23178 -0.12923
# Poissons Ratio (y) = 1.13081 0.68884
# Poissons Ratio (z) = -0.67755 0.74025
#
# Static dielectric constant tensor:
#      x y z
#    x 2.147150 -0.093830 0.227760 
#    y -0.093830 2.215450 0.061260 
#    z 0.227760 0.061260 2.216360 
# 
# From -- ./inp_files/172702.got.cif
#   From: 2010.05.17/outbox.cif.g08.bks.cpg/sg2_87_cif.got.tgz:172702.got - 2010.06.03 11:33:40.
