data_PCOD9040713
_publ_section_title
;
Structure prediction by ZEFSAII (Michael W. Deem and Ramdas Pophale) SiO2 
 PCOD9040713
Probable space group: P -1
;
_chemical_formula_sum "Si O2"
_cell_formula_units_Z 14
_cell_length_a 9.108849
_cell_length_b 9.332494
_cell_length_c 24.480398
_cell_angle_alpha 146.257309
_cell_angle_beta 130.540468
_cell_angle_gamma 73.251293
_cell_volume 704.257016
_symmetry_space_group_name_H-M "P -1"
_symmetry_group_IT_number 2
_symmetry_cell_setting 'triclinic'
loop_
_space_group_symop_operation_xyz
x,y,z
-x,-y,-z
loop_
_atom_site_type_symbol
_atom_site_label
_atom_site_fract_x
_atom_site_fract_y
_atom_site_fract_z
Si Si1 0.575103 0.225169 0.268929
Si Si2 0.058805 0.323267 0.916425
Si Si3 0.358623 0.364947 0.365917
Si Si4 0.970249 0.911004 0.527680
Si Si5 0.135731 0.606157 0.911505
Si Si6 0.759268 0.282450 0.630269
Si Si7 0.371708 0.261535 0.817611
O O1 0.496205 0.309012 0.333183
O O2 0.773734 0.543718 0.383903
O O3 0.673586 0.017237 0.241388
O O4 0.331847 0.971389 0.095091
O O5 0.000801 0.384905 0.861813
O O6 0.342002 0.491831 0.040564
O O7 0.892310 0.961095 0.780408
O O8 0.000000 0.500000 0.000000
O O9 0.500000 0.500000 0.500000
O O10 0.290838 0.580322 0.390101
O O11 0.880939 0.109024 0.592772
O O12 0.000000 0.000000 0.500000
O O13 0.229524 0.067564 0.667241
O O14 0.276216 0.463111 0.878138
O O15 0.941348 0.553743 0.804459
O O16 0.500000 0.000000 0.500000
#
# Coordination Sequence:
#
# PCOD9040713 Si02
#       7
#     2   2   2   2   2   2   2
#     4  11  22  45  66 100 129 175 218 268 329 383
#     4  11  21  41  66 100 127 168 224 264 322 390
#     4  12  26  41  68 101 132 172 221 272 324 394
#     4  11  26  42  65  96 133 175 218 270 326 385
#     4  10  23  43  68  97 134 171 215 273 332 386
#     4  11  24  45  64  93 135 178 215 267 328 386
#     4  10  23  43  68  94 134 171 214 272 327 387
#
# _framework density 19.879106
#
# number of rings (size 3 to 8) (size 9 to 14) (size 15 to 20)
#    0.000    1.143    4.286    3.000    4.000    5.143 
#    0.000    2.857    0.000    0.000    0.000    0.000 
#    0.000    0.000    0.000    0.000    0.000    0.000 
#
# Total GULP energy -78119.717861 kJ/mol
# GULP energy per Si atom -5579.979847 kJ/mol
# Density = 1.983386 g / cm^3
# Si number density = 19.879106 Si / 1000 Ang^3
#
#
#
# Elastic Constant Matrix: (Units=GPa)
#
#
# Indices 1 2 3 4 5 6 
#
# 1 67.3892 22.3424 30.5837 -4.0089 4.4658 15.0745
# 2 22.3424 134.5630 85.0464 -10.1881 23.7114 17.6960
# 3 30.5837 85.0464 139.0576 -4.0043 9.9204 24.9272
# 4 -4.0089 -10.1881 -4.0043 44.9050 9.8397 3.3950
# 5 4.4658 23.7114 9.9204 9.8397 22.7964 10.8588
# 6 15.0745 17.6960 24.9272 3.3950 10.8588 35.9144
#
#
#
# Elastic Compliance Matrix: (Units=1/GPa)
#
#
# Indices 1 2 3 4 5 6 
#
# 1 0.017468 -0.000476 -0.002520 0.001622 0.000105 -0.005534
# 2 -0.000476 0.016306 -0.008997 0.006382 -0.017129 0.002986
# 3 -0.002520 -0.008997 0.013734 -0.002285 0.007808 -0.006187
# 4 0.001622 0.006382 -0.002285 0.027593 -0.018181 0.000649
# 5 0.000105 -0.017129 0.007808 -0.018181 0.074623 -0.017868
# 6 -0.005534 0.002986 -0.006187 0.000649 -0.017868 0.038330
#
#
# Mechanical properties :
#
#
# Convention : Reuss Voigt Hill
#
# Bulk Modulus (GPa) = 42.51282 68.55053 55.53168
# Shear Modulus (GPa) = 22.73962 34.25898 28.49930
#
# Velocity S-wave (km/s) = 3.38582 4.15585 3.79044
# Velocity P-wave (km/s) = 6.05947 7.58859 6.86672
#
# Compressibility (1/GPa) = 0.02352232
#
# Stress axis : x y z
#
# Youngs Moduli (GPa) = 57.24819 61.32806 72.81082
#
# Poissons Ratio (x) = 0.02919 0.18345
# Poissons Ratio (y) = 0.02724 0.65510
# Poissons Ratio (z) = 0.14424 0.55178
#
# Static dielectric constant tensor:
#      x y z
#    x 1.701770 0.035130 -0.018380 
#    y 0.035130 1.782550 0.015550 
#    z -0.018380 0.015550 1.758480 
# 
# From -- ./inp_files/155614.got.cif
#   From: 2010.05.17/outbox.cif.g08.bks.cpg/sg2_78_cif.got.tgz:155614.got - 2010.06.03 11:33:40.
