data_PCOD9040783
_publ_section_title
;
Structure prediction by ZEFSAII (Michael W. Deem and Ramdas Pophale) SiO2 
 PCOD9040783
Probable space group: P -1
;
_chemical_formula_sum "Si O2"
_cell_formula_units_Z 16
_cell_length_a 8.922817
_cell_length_b 8.746529
_cell_length_c 14.730908
_cell_angle_alpha 104.791320
_cell_angle_beta 41.188601
_cell_angle_gamma 89.779158
_cell_volume 696.467494
_symmetry_space_group_name_H-M "P -1"
_symmetry_group_IT_number 2
_symmetry_cell_setting 'triclinic'
loop_
_space_group_symop_operation_xyz
x,y,z
-x,-y,-z
loop_
_atom_site_type_symbol
_atom_site_label
_atom_site_fract_x
_atom_site_fract_y
_atom_site_fract_z
Si Si1 0.081430 0.114454 0.408142
Si Si2 0.237080 0.481063 0.606908
Si Si3 0.440224 0.277807 0.313153
Si Si4 0.213108 0.377079 0.942703
Si Si5 0.034771 0.808680 0.856898
Si Si6 0.683319 0.416105 0.704069
Si Si7 0.750323 0.043408 0.882476
Si Si8 0.843265 0.375626 0.834314
O O1 0.340189 0.126489 0.318227
O O2 0.105798 0.049277 0.285341
O O3 0.899665 0.299194 0.529014
O O4 0.000000 0.000000 0.500000
O O5 0.500000 0.500000 0.500000
O O6 0.262853 0.402242 0.484116
O O7 0.068941 0.662531 0.742273
O O8 0.129591 0.357988 0.697060
O O9 0.704380 0.218199 0.224867
O O10 0.415955 0.393707 0.253899
O O11 0.251961 0.473991 0.030058
O O12 0.128003 0.227362 0.994663
O O13 0.466775 0.338854 0.773830
O O14 0.000000 0.500000 0.000000
O O15 0.904409 0.978107 0.892135
O O16 0.765630 0.406042 0.769530
O O17 0.746969 0.230515 0.893186
O O18 0.500000 0.000000 0.000000
#
# Coordination Sequence:
#
# PCOD9040783 Si02
#       8
#     2   2   2   2   2   2   2   2
#     4  12  26  46  68 107 143 185 238 285 354 421
#     4   9  19  40  68  99 133 172 228 294 349 404
#     4  11  22  41  68 102 133 176 231 292 348 405
#     4  11  24  45  70 105 135 179 242 291 351 412
#     4  10  23  43  68  99 139 181 234 285 351 421
#     4  12  23  42  73 100 139 178 235 299 343 411
#     4  12  27  47  70 101 147 196 230 283 360 428
#     4  11  24  44  66 102 139 182 236 283 353 422
#
# _framework density 22.973077
#
# number of rings (size 3 to 8) (size 9 to 14) (size 15 to 20)
#    0.000    1.000    3.750    2.250    5.250    0.000 
#    2.250    4.375    0.000    0.000    0.000    0.000 
#    0.000    0.000    0.000    0.000    0.000    0.000 
#
# Total GULP energy -89384.778638 kJ/mol
# GULP energy per Si atom -5586.548665 kJ/mol
# Density = 2.292079 g / cm^3
# Si number density = 22.973077 Si / 1000 Ang^3
#
#
#
# Elastic Constant Matrix: (Units=GPa)
#
#
# Indices 1 2 3 4 5 6 
#
# 1 75.2867 50.7042 32.0654 -10.6355 -18.8147 -8.3486
# 2 50.7042 101.2848 22.3303 -42.1610 -16.9315 -14.0540
# 3 32.0654 22.3303 93.9466 -25.7443 -20.2383 1.3786
# 4 -10.6355 -42.1610 -25.7443 41.6331 10.0610 0.4877
# 5 -18.8147 -16.9315 -20.2383 10.0610 37.6023 -7.0566
# 6 -8.3486 -14.0540 1.3786 0.4877 -7.0566 36.1050
#
#
#
# Elastic Compliance Matrix: (Units=1/GPa)
#
#
# Indices 1 2 3 4 5 6 
#
# 1 0.029496 -0.019762 -0.009480 -0.019863 0.006257 0.000981
# 2 -0.019762 0.033164 0.008260 0.033030 0.002154 0.007999
# 3 -0.009480 0.008260 0.017042 0.015455 0.004198 0.000984
# 4 -0.019863 0.033030 0.015455 0.062419 -0.002250 0.006391
# 5 0.006257 0.002154 0.004198 -0.002250 0.035253 0.009046
# 6 0.000981 0.007999 0.000984 0.006391 0.009046 0.032682
#
#
# Mechanical properties :
#
#
# Convention : Reuss Voigt Hill
#
# Bulk Modulus (GPa) = 26.49835 53.41309 39.95572
# Shear Modulus (GPa) = 18.89649 34.09597 26.49623
#
# Velocity S-wave (km/s) = 2.87112 3.85667 3.39980
# Velocity P-wave (km/s) = 4.74876 6.56755 5.73077
#
# Compressibility (1/GPa) = 0.03773820
#
# Stress axis : x y z
#
# Youngs Moduli (GPa) = 33.90300 30.15287 58.67997
#
# Poissons Ratio (x) = 0.59589 0.55627
# Poissons Ratio (y) = 0.67000 -0.48471
# Poissons Ratio (z) = 0.32139 -0.24907
#
# Static dielectric constant tensor:
#      x y z
#    x 1.876850 0.000650 -0.028300 
#    y 0.000650 1.907040 -0.002690 
#    z -0.028300 -0.002690 1.918370 
# 
# From -- ./inp_files/177862.got.cif
#   From: 2010.05.17/outbox.cif.g08.bks.cpg/sg2_89_cif.got.tgz:177862.got - 2010.06.03 11:33:40.
