data_PCOD9040404
_publ_section_title
;
Structure prediction by ZEFSAII (Michael W. Deem and Ramdas Pophale) SiO2 
 PCOD9040404
Probable space group: P -1
;
_chemical_formula_sum "Si O2"
_cell_formula_units_Z 14
_cell_length_a 19.026827
_cell_length_b 16.684370
_cell_length_c 7.203787
_cell_angle_alpha 56.268363
_cell_angle_beta 131.933900
_cell_angle_gamma 158.447329
_cell_volume 606.316542
_symmetry_space_group_name_H-M "P -1"
_symmetry_group_IT_number 2
_symmetry_cell_setting 'triclinic'
loop_
_space_group_symop_operation_xyz
x,y,z
-x,-y,-z
loop_
_atom_site_type_symbol
_atom_site_label
_atom_site_fract_x
_atom_site_fract_y
_atom_site_fract_z
Si Si1 0.554656 0.138185 0.154178
Si Si2 0.878346 0.152292 0.373667
Si Si3 0.045737 0.368135 0.775339
Si Si4 0.673249 0.476171 0.442427
Si Si5 0.550103 0.926869 0.526698
Si Si6 0.677742 0.558473 0.926666
Si Si7 0.667309 0.759640 0.574362
O O1 0.787082 0.395292 0.167189
O O2 0.564330 0.162184 0.363600
O O3 0.521599 0.993866 0.260506
O O4 0.347310 0.008376 0.885764
O O5 0.980681 0.311839 0.513118
O O6 0.068045 0.308952 0.354709
O O7 0.821659 0.994706 0.560503
O O8 0.178668 0.390555 0.988512
O O9 0.810065 0.154608 0.729930
O O10 0.546456 0.257802 0.495125
O O11 0.542633 0.420499 0.428655
O O12 0.658939 0.511159 0.168327
O O13 0.768697 0.749531 0.810494
O O14 0.437109 0.335997 0.692544
#
# Coordination Sequence:
#
# PCOD9040404 Si02
#       7
#     2   2   2   2   2   2   2
#     4  11  24  43  63  94 131 167 218 274 311 396
#     4  11  23  41  65  93 132 165 222 267 315 395
#     4  11  22  43  63  93 130 167 214 272 317 386
#     4  11  23  43  64 100 131 171 220 264 323 397
#     4  11  23  42  65  91 130 172 210 267 336 365
#     4  10  23  43  66  95 135 163 223 269 320 393
#     4  11  22  44  66  95 130 178 209 270 333 377
#
# _framework density 23.090247999999999
#
# number of rings (size 3 to 8) (size 9 to 14) (size 15 to 20)
#    0.000    1.143    5.714    0.857    2.000    3.429 
#    2.571    1.429    0.000    0.000    0.000    0.000 
#    0.000    0.000    0.000    0.000    0.000    0.000 
#
# Total GULP energy -78330.370167 kJ/mol
# GULP energy per Si atom -5595.026440 kJ/mol
# Density = 2.303769 g / cm^3
# Si number density = 23.090248 Si / 1000 Ang^3
#
#
#
# Elastic Constant Matrix: (Units=GPa)
#
#
# Indices 1 2 3 4 5 6 
#
# 1 34.0001 7.5375 5.4017 -11.2996 4.5133 4.9972
# 2 7.5375 131.8260 51.1097 4.8498 17.3499 -2.3379
# 3 5.4017 51.1097 96.6974 -20.8593 8.3782 -19.1733
# 4 -11.2996 4.8498 -20.8593 29.3579 -8.3894 10.7094
# 5 4.5133 17.3499 8.3782 -8.3894 30.9538 -1.7834
# 6 4.9972 -2.3379 -19.1733 10.7094 -1.7834 37.5525
#
#
#
# Elastic Compliance Matrix: (Units=1/GPa)
#
#
# Indices 1 2 3 4 5 6 
#
# 1 0.038394 -0.004390 0.002694 0.021483 0.001376 -0.010068
# 2 -0.004390 0.012384 -0.008154 -0.011663 -0.007245 0.000174
# 3 0.002694 -0.008154 0.018254 0.014739 0.003486 0.004416
# 4 0.021483 -0.011663 0.014739 0.064290 0.016054 -0.013632
# 5 0.001376 -0.007245 0.003486 0.016054 0.039485 -0.001558
# 6 -0.010068 0.000174 0.004416 -0.013632 -0.001558 0.034048
#
#
# Mechanical properties :
#
#
# Convention : Reuss Voigt Hill
#
# Bulk Modulus (GPa) = 20.27071 43.40236 31.83654
# Shear Modulus (GPa) = 20.57638 32.80448 26.69043
#
# Velocity S-wave (km/s) = 2.98842 3.77332 3.40357
# Velocity P-wave (km/s) = 4.55033 6.14992 5.40957
#
# Compressibility (1/GPa) = 0.04933225
#
# Stress axis : x y z
#
# Youngs Moduli (GPa) = 26.04606 80.75102 54.78312
#
# Poissons Ratio (x) = 0.35448 -0.14760
# Poissons Ratio (y) = 0.11434 0.44669
# Poissons Ratio (z) = -0.07017 0.65843
#
# Static dielectric constant tensor:
#      x y z
#    x 1.857050 -0.007480 -0.015690 
#    y -0.007480 1.860420 -0.004100 
#    z -0.015690 -0.004100 1.883610 
# 
# From -- ./inp_files/314939.got.cif
#   From: 2010.05.17/outbox.cif.g08.bks.cpg/sg2_158_cif.got.tgz:314939.got - 2010.06.03 11:33:40.
