data_PCOD9040740
_publ_section_title
;
Structure prediction by ZEFSAII (Michael W. Deem and Ramdas Pophale) SiO2 
 PCOD9040740
Probable space group: P -1
;
_chemical_formula_sum "Si O2"
_cell_formula_units_Z 16
_cell_length_a 24.109502
_cell_length_b 9.196808
_cell_length_c 14.100437
_cell_angle_alpha 26.348355
_cell_angle_beta 148.500525
_cell_angle_gamma 140.089268
_cell_volume 724.961632
_symmetry_space_group_name_H-M "P -1"
_symmetry_group_IT_number 2
_symmetry_cell_setting 'triclinic'
loop_
_space_group_symop_operation_xyz
x,y,z
-x,-y,-z
loop_
_atom_site_type_symbol
_atom_site_label
_atom_site_fract_x
_atom_site_fract_y
_atom_site_fract_z
Si Si1 0.972782 0.503508 0.653130
Si Si2 0.716660 0.410407 0.791516
Si Si3 0.454608 0.366057 0.727908
Si Si4 0.274154 0.031139 0.753688
Si Si5 0.930019 0.544733 0.778291
Si Si6 0.178833 0.119187 0.189524
Si Si7 0.833350 0.976843 0.059154
Si Si8 0.682234 0.606539 0.925784
O O1 0.984790 0.598342 0.725929
O O2 0.930703 0.793832 0.357454
O O3 0.879640 0.225703 0.676940
O O4 0.084595 0.351391 0.876395
O O5 0.605927 0.522445 0.520079
O O6 0.702818 0.158850 0.004908
O O7 0.444256 0.404632 0.238282
O O8 0.782445 0.224878 0.915115
O O9 0.360126 0.320740 0.692651
O O10 0.500000 0.000000 0.000000
O O11 0.158205 0.181329 0.498686
O O12 0.219262 0.280269 0.252819
O O13 0.284880 0.757953 0.847072
O O14 0.000000 0.500000 0.000000
O O15 0.871433 0.190235 0.900264
O O16 0.278124 0.159704 0.239473
O O17 0.745014 0.722946 0.041705
#
# Coordination Sequence:
#
# PCOD9040740 Si02
#       8
#     2   2   2   2   2   2   2   2
#     4  11  25  43  65 103 134 175 216 274 329 397
#     4  11  23  43  69  97 130 178 219 276 325 404
#     4  10  23  43  68  97 132 172 226 274 335 383
#     4  10  23  44  67  98 131 173 225 263 335 401
#     4  12  25  42  68 100 138 175 217 273 331 396
#     4  10  24  44  67  94 138 171 226 261 334 400
#     4  12  25  41  69  98 136 171 223 270 336 387
#     4  10  24  44  66  96 131 175 219 281 320 394
#
# _framework density 22.070133999999999
#
# number of rings (size 3 to 8) (size 9 to 14) (size 15 to 20)
#    0.000    1.250    3.750    0.750    7.000    7.500 
#    0.000    0.625    0.000    0.000    0.000    0.000 
#    0.000    0.000    0.000    0.000    0.000    0.000 
#
# Total GULP energy -89463.455195 kJ/mol
# GULP energy per Si atom -5591.465950 kJ/mol
# Density = 2.201990 g / cm^3
# Si number density = 22.070134 Si / 1000 Ang^3
#
#
#
# Elastic Constant Matrix: (Units=GPa)
#
#
# Indices 1 2 3 4 5 6 
#
# 1 64.0047 28.6434 7.3062 3.4861 -5.7287 5.7156
# 2 28.6434 84.4587 24.1118 14.4402 -7.0154 14.5225
# 3 7.3062 24.1118 145.8949 14.9414 -4.2701 1.1367
# 4 3.4861 14.4402 14.9414 29.2195 4.5660 -0.4216
# 5 -5.7287 -7.0154 -4.2701 4.5660 29.8390 0.8297
# 6 5.7156 14.5225 1.1367 -0.4216 0.8297 37.5885
#
#
#
# Elastic Compliance Matrix: (Units=1/GPa)
#
#
# Indices 1 2 3 4 5 6 
#
# 1 0.018568 -0.006144 0.000106 0.000434 0.002083 -0.000494
# 2 -0.006144 0.016973 -0.001566 -0.007547 0.003902 -0.005747
# 3 0.000106 -0.001566 0.007473 -0.003245 0.001210 0.000300
# 4 0.000434 -0.007547 -0.003245 0.040945 -0.008521 0.003595
# 5 0.002083 0.003902 0.001210 -0.008521 0.036384 -0.002759
# 6 -0.000494 -0.005747 0.000300 0.003595 -0.002759 0.028992
#
#
# Mechanical properties :
#
#
# Convention : Reuss Voigt Hill
#
# Bulk Modulus (GPa) = 35.96135 46.05345 41.00740
# Shear Modulus (GPa) = 28.76694 34.94919 31.85806
#
# Velocity S-wave (km/s) = 3.61423 3.98370 3.80345
# Velocity P-wave (km/s) = 5.80916 6.48629 6.15704
#
# Compressibility (1/GPa) = 0.02780763
#
# Stress axis : x y z
#
# Youngs Moduli (GPa) = 53.85581 58.91612 133.81334
#
# Poissons Ratio (x) = 0.36196 -0.01416
# Poissons Ratio (y) = 0.33087 0.20949
# Poissons Ratio (z) = -0.00570 0.09224
#
# Static dielectric constant tensor:
#      x y z
#    x 1.826580 0.020950 -0.013390 
#    y 0.020950 1.892140 -0.023060 
#    z -0.013390 -0.023060 1.788280 
# 
# From -- ./inp_files/474071.got.cif
#   From: 2010.05.17/outbox.cif.g08.bks.cpg/sg2_238_cif.got.tgz:474071.got - 2010.06.03 11:33:40.
