data_PCOD9040576
_publ_section_title
;
Structure prediction by ZEFSAII (Michael W. Deem and Ramdas Pophale) SiO2 
 PCOD9040576
Probable space group: P -1
;
_chemical_formula_sum "Si O2"
_cell_formula_units_Z 12
_cell_length_a 21.631967
_cell_length_b 5.066165
_cell_length_c 5.151932
_cell_angle_alpha 86.831739
_cell_angle_beta 121.445701
_cell_angle_gamma 69.983701
_cell_volume 432.904280
_symmetry_space_group_name_H-M "P -1"
_symmetry_group_IT_number 2
_symmetry_cell_setting 'triclinic'
loop_
_space_group_symop_operation_xyz
x,y,z
-x,-y,-z
loop_
_atom_site_type_symbol
_atom_site_label
_atom_site_fract_x
_atom_site_fract_y
_atom_site_fract_z
Si Si1 0.934518 0.939887 0.600096
Si Si2 0.585041 0.956633 0.288433
Si Si3 0.410252 0.574159 0.403795
Si Si4 0.910659 0.470226 0.894851
Si Si5 0.234713 0.805273 0.999697
Si Si6 0.746220 0.536352 0.440651
O O1 0.928471 0.736979 0.833584
O O2 0.923855 0.237560 0.701731
O O3 0.859169 0.966878 0.256884
O O4 0.028189 0.736847 0.739033
O O5 0.596585 0.730931 0.563933
O O6 0.657420 0.781005 0.267370
O O7 0.585885 0.262972 0.333046
O O8 0.500000 0.000000 0.000000
O O9 0.500000 0.500000 0.500000
O O10 0.319881 0.805493 0.096609
O O11 0.815199 0.606220 0.717260
O O12 0.235999 0.558640 0.811631
O O13 0.247639 0.721457 0.334112
#
# Coordination Sequence:
#
# PCOD9040576 Si02
#       6
#     2   2   2   2   2   2
#     4   9  19  37  62  92 127 168 214 264 319 380
#     4  11  24  42  66  97 131 170 216 266 323 385
#     4  11  24  42  66  97 131 170 216 266 323 385
#     4   9  19  37  62  92 127 168 214 264 319 380
#     4  10  23  43  67  97 132 172 218 268 324 385
#     4  10  23  43  67  97 132 172 218 268 324 385
#
# _framework density 27.719753000000001
#
# number of rings (size 3 to 8) (size 9 to 14) (size 15 to 20)
#    0.000    2.000    0.000    2.000    0.000   15.333 
#    0.000    0.000    0.000   19.000    0.000    0.000 
#    0.000    0.000    0.000    0.000    0.000    0.000 
#
# Total GULP energy -66955.168796 kJ/mol
# GULP energy per Si atom -5579.597400 kJ/mol
# Density = 2.765666 g / cm^3
# Si number density = 27.719753 Si / 1000 Ang^3
#
#
#
# Elastic Constant Matrix: (Units=GPa)
#
#
# Indices 1 2 3 4 5 6 
#
# 1 88.7711 25.4565 32.7483 2.3713 37.8367 -0.3472
# 2 25.4565 83.6213 27.3798 -0.9480 2.7037 -0.9060
# 3 32.7483 27.3798 167.0516 -9.3955 59.3595 -12.3337
# 4 2.3713 -0.9480 -9.3955 21.2663 -3.2860 12.5180
# 5 37.8367 2.7037 59.3595 -3.2860 78.6854 -7.1035
# 6 -0.3472 -0.9060 -12.3337 12.5180 -7.1035 41.2057
#
#
#
# Elastic Compliance Matrix: (Units=1/GPa)
#
#
# Indices 1 2 3 4 5 6 
#
# 1 0.015946 -0.004718 0.000246 -0.002871 -0.007845 -0.000376
# 2 -0.004718 0.014175 -0.002746 0.000577 0.003872 -0.000058
# 3 0.000246 -0.002746 0.008914 0.002318 -0.006582 0.000771
# 4 -0.002871 0.000577 0.002318 0.058475 0.000520 -0.016992
# 5 -0.007845 0.003872 -0.006582 0.000520 0.021479 0.001594
# 6 -0.000376 -0.000058 0.000771 -0.016992 0.001594 0.029932
#
#
# Mechanical properties :
#
#
# Convention : Reuss Voigt Hill
#
# Bulk Modulus (GPa) = 40.65283 56.73479 48.69381
# Shear Modulus (GPa) = 29.14476 45.15544 37.15010
#
# Velocity S-wave (km/s) = 3.24606 4.04046 3.66485
# Velocity P-wave (km/s) = 5.36159 6.50222 5.95926
#
# Compressibility (1/GPa) = 0.02459853
#
# Stress axis : x y z
#
# Youngs Moduli (GPa) = 62.71111 70.54796 112.17955
#
# Poissons Ratio (x) = 0.33283 -0.02754
# Poissons Ratio (y) = 0.29586 0.30805
# Poissons Ratio (z) = -0.01540 0.19373
#
# Static dielectric constant tensor:
#      x y z
#    x 2.357700 -0.053790 0.061770 
#    y -0.053790 2.198030 -0.122110 
#    z 0.061770 -0.122110 2.237810 
# 
# From -- ./inp_files/5079.got.cif
#   From: 2010.05.17/outbox.cif.g08.bks.cpg/sg2_3_cif.got.tgz:5079.got - 2010.06.03 11:33:40.
