data_PCOD9040489
_publ_section_title
;
Structure prediction by ZEFSAII (Michael W. Deem and Ramdas Pophale) SiO2 
 PCOD9040489
Probable space group: P -1
;
_chemical_formula_sum "Si O2"
_cell_formula_units_Z 16
_cell_length_a 14.418801
_cell_length_b 14.641627
_cell_length_c 9.254812
_cell_angle_alpha 129.288544
_cell_angle_beta 82.669893
_cell_angle_gamma 56.385443
_cell_volume 844.492158
_symmetry_space_group_name_H-M "P -1"
_symmetry_group_IT_number 2
_symmetry_cell_setting 'triclinic'
loop_
_space_group_symop_operation_xyz
x,y,z
-x,-y,-z
loop_
_atom_site_type_symbol
_atom_site_label
_atom_site_fract_x
_atom_site_fract_y
_atom_site_fract_z
Si Si1 0.970151 0.503849 0.761649
Si Si2 0.784545 0.349228 0.884187
Si Si3 0.177977 0.426560 0.850180
Si Si4 0.658036 0.979732 0.202093
Si Si5 0.560509 0.010355 0.733947
Si Si6 0.779873 0.927656 0.833257
Si Si7 0.463496 0.758395 0.225776
Si Si8 0.166169 0.945043 0.289450
O O1 0.090040 0.480784 0.774456
O O2 0.054945 0.325930 0.455977
O O3 0.935634 0.465367 0.876948
O O4 0.812086 0.736342 0.969977
O O5 0.786113 0.241728 0.890548
O O6 0.761651 0.504078 0.106211
O O7 0.621607 0.508523 0.973271
O O8 0.970766 0.155939 0.584456
O O9 0.312522 0.182881 0.598123
O O10 0.528986 0.012543 0.213438
O O11 0.598598 0.117786 0.488719
O O12 0.706977 0.011074 0.090321
O O13 0.468363 0.206329 0.855362
O O14 0.655287 0.981398 0.811011
O O15 0.812179 0.014989 0.829263
O O16 0.299638 0.873141 0.296527
#
# Coordination Sequence:
#
# PCOD9040489 Si02
#       8
#     2   2   2   2   2   2   2   2
#     4  10  19  31  54  82 113 137 174 222 283 326
#     4  11  20  36  62  82 104 144 194 226 270 315
#     4  10  17  33  56  83 105 137 178 232 271 317
#     4  12  20  32  54  85 109 146 178 217 281 337
#     4  10  20  34  54  82 110 139 176 225 276 327
#     4  10  22  36  50  77 120 146 172 222 279 327
#     4  11  21  36  60  84 110 138 188 233 267 321
#     4  10  23  39  57  81 109 145 186 235 266 314
#
# _framework density 18.946297000000001
#
# number of rings (size 3 to 8) (size 9 to 14) (size 15 to 20)
#    0.000    1.500    3.750    3.000    0.000    0.000 
#    0.000    0.625    0.000    6.750    0.000    0.000 
#    0.000    0.000    0.000    0.000    0.000    0.000 
#
# Total GULP energy -89125.259381 kJ/mol
# GULP energy per Si atom -5570.328711 kJ/mol
# Density = 1.890317 g / cm^3
# Si number density = 18.946297 Si / 1000 Ang^3
#
#
#
# Elastic Constant Matrix: (Units=GPa)
#
#
# Indices 1 2 3 4 5 6 
#
# 1 74.2353 28.1731 10.3134 -3.1182 -5.2443 16.6254
# 2 28.1731 50.2828 32.4352 12.3875 -1.8210 18.4443
# 3 10.3134 32.4352 43.3125 11.1764 -7.2676 3.3371
# 4 -3.1182 12.3875 11.1764 27.9530 -2.1769 -6.7359
# 5 -5.2443 -1.8210 -7.2676 -2.1769 23.1561 4.0374
# 6 16.6254 18.4443 3.3371 -6.7359 4.0374 27.9188
#
#
#
# Elastic Compliance Matrix: (Units=1/GPa)
#
#
# Indices 1 2 3 4 5 6 
#
# 1 0.019867 -0.017420 0.007493 0.007342 0.006232 -0.000348
# 2 -0.017420 0.088184 -0.050905 -0.032987 -0.007604 -0.048659
# 3 0.007493 -0.050905 0.058229 0.006384 0.012750 0.021905
# 4 0.007342 -0.032987 0.006384 0.055975 0.001103 0.030003
# 5 0.006232 -0.007604 0.012750 0.001103 0.049338 -0.007080
# 6 -0.000348 -0.048659 0.021905 0.030003 -0.007080 0.073816
#
#
# Mechanical properties :
#
#
# Convention : Reuss Voigt Hill
#
# Bulk Modulus (GPa) = 22.41356 34.40822 28.41089
# Shear Modulus (GPa) = 10.37460 22.26618 16.32039
#
# Velocity S-wave (km/s) = 2.34258 3.43188 2.93815
# Velocity P-wave (km/s) = 4.37866 5.82272 5.15154
#
# Compressibility (1/GPa) = 0.04461584
#
# Stress axis : x y z
#
# Youngs Moduli (GPa) = 50.33366 11.33991 17.17353
#
# Poissons Ratio (x) = 0.19754 -0.12867
# Poissons Ratio (y) = 0.87682 0.87422
# Poissons Ratio (z) = -0.37713 0.57726
#
# Static dielectric constant tensor:
#      x y z
#    x 1.715960 -0.032050 -0.071480 
#    y -0.032050 1.675290 0.043820 
#    z -0.071480 0.043820 1.695580 
# 
# From -- ./inp_files/169758.got.cif
#   From: 2010.05.17/outbox.cif.g08.bks.cpg/sg2_85_cif.got.tgz:169758.got - 2010.06.03 11:33:40.
