data_PCOD9040529
_publ_section_title
;
Structure prediction by ZEFSAII (Michael W. Deem and Ramdas Pophale) SiO2 
 PCOD9040529
Probable space group: P -1
;
_chemical_formula_sum "Si O2"
_cell_formula_units_Z 15
_cell_length_a 17.190517
_cell_length_b 12.143071
_cell_length_c 8.798249
_cell_angle_alpha 116.164853
_cell_angle_beta 30.525702
_cell_angle_gamma 126.684314
_cell_volume 735.760552
_symmetry_space_group_name_H-M "P -1"
_symmetry_group_IT_number 2
_symmetry_cell_setting 'triclinic'
loop_
_space_group_symop_operation_xyz
x,y,z
-x,-y,-z
loop_
_atom_site_type_symbol
_atom_site_label
_atom_site_fract_x
_atom_site_fract_y
_atom_site_fract_z
Si Si1 0.797257 0.407478 0.234823
Si Si2 0.297548 0.905018 0.318720
Si Si3 0.763116 0.859260 0.533664
Si Si4 0.861874 0.547182 0.701060
Si Si5 0.696188 0.589537 0.289258
Si Si6 0.615034 0.286540 0.776760
Si Si7 0.000000 0.000000 0.500000
Si Si8 0.128135 0.780724 0.216029
O O1 0.742965 0.495384 0.265972
O O2 0.670417 0.355555 0.561374
O O3 0.783076 0.273411 0.087472
O O4 0.000000 0.500000 0.000000
O O5 0.289858 0.808162 0.412093
O O6 0.220290 0.809860 0.242373
O O7 0.220744 0.012080 0.518855
O O8 0.500000 0.000000 0.000000
O O9 0.733703 0.729494 0.399562
O O10 0.922257 0.915200 0.416269
O O11 0.588724 0.803205 0.898780
O O12 0.693585 0.409861 0.843755
O O13 0.000000 0.500000 0.500000
O O14 0.939147 0.650541 0.491525
O O15 0.818768 0.621809 0.955430
O O16 0.500000 0.500000 0.500000
O O17 0.110994 0.915392 0.287291
#
# Coordination Sequence:
#
# PCOD9040529 Si02
#       8
#     2   2   2   2   2   2   1   2
#     4  12  24  39  68 102 136 174 222 282 340 405
#     4   9  20  40  65  88 125 177 219 270 326 400
#     4  10  23  43  67  93 139 174 225 278 337 403
#     4  12  21  40  70  97 132 178 225 275 342 411
#     4  12  25  42  68 105 136 172 225 286 339 402
#     4  11  21  40  68  99 130 175 223 277 342 394
#     4  10  24  46  64  92 136 182 218 288 336 394
#     4  11  22  42  66  91 131 176 225 272 334 402
#
# _framework density 20.387067999999999
#
# number of rings (size 3 to 8) (size 9 to 14) (size 15 to 20)
#    0.000    1.067    5.333    0.800    1.867    1.600 
#    2.400    7.333    0.000    0.000    0.000    0.000 
#    0.000    0.000    0.000    0.000    0.000    0.000 
#
# Total GULP energy -83509.320669 kJ/mol
# GULP energy per Si atom -5567.288045 kJ/mol
# Density = 2.034067 g / cm^3
# Si number density = 20.387068 Si / 1000 Ang^3
#
#
#
# Elastic Constant Matrix: (Units=GPa)
#
#
# Indices 1 2 3 4 5 6 
#
# 1 86.5817 24.5278 12.6403 11.8202 -2.2717 3.3074
# 2 24.5278 96.3128 11.4915 26.5254 8.8014 20.7153
# 3 12.6403 11.4915 55.9735 20.7846 17.3105 -1.0338
# 4 11.8202 26.5254 20.7846 33.7164 9.2820 5.4279
# 5 -2.2717 8.8014 17.3105 9.2820 29.0514 -4.2223
# 6 3.3074 20.7153 -1.0338 5.4279 -4.2223 17.5725
#
#
#
# Elastic Compliance Matrix: (Units=1/GPa)
#
#
# Indices 1 2 3 4 5 6 
#
# 1 0.013305 -0.003750 -0.003084 -0.001780 0.005093 0.003509
# 2 -0.003750 0.018645 0.002485 -0.009703 -0.007209 -0.019862
# 3 -0.003084 0.002485 0.027274 -0.014333 -0.012569 0.000663
# 4 -0.001780 -0.009703 -0.014333 0.049038 -0.005119 -0.005447
# 5 0.005093 -0.007209 -0.012569 -0.005119 0.049060 0.020170
# 6 0.003509 -0.019862 0.000663 -0.005447 0.020170 0.086229
#
#
# Mechanical properties :
#
#
# Convention : Reuss Voigt Hill
#
# Bulk Modulus (GPa) = 19.79262 37.35414 28.57338
# Shear Modulus (GPa) = 18.58105 28.74862 23.66483
#
# Velocity S-wave (km/s) = 3.02224 3.75926 3.41071
# Velocity P-wave (km/s) = 4.68060 6.09958 5.43659
#
# Compressibility (1/GPa) = 0.05052388
#
# Stress axis : x y z
#
# Youngs Moduli (GPa) = 75.15949 53.63491 36.66548
#
# Poissons Ratio (x) = 0.20115 0.11308
# Poissons Ratio (y) = 0.28188 -0.09110
# Poissons Ratio (z) = 0.23180 -0.13327
#
# Static dielectric constant tensor:
#      x y z
#    x 1.713740 0.018820 -0.056350 
#    y 0.018820 1.898580 -0.170920 
#    z -0.056350 -0.170920 1.884110 
# 
# From -- ./inp_files/182269.got.cif
#   From: 2010.05.17/outbox.cif.g08.bks.cpg/sg2_92_cif.got.tgz:182269.got - 2010.06.03 11:33:40.
