data_PCOD9040630
_publ_section_title
;
Structure prediction by ZEFSAII (Michael W. Deem and Ramdas Pophale) SiO2 
 PCOD9040630
Probable space group: P -1
;
_chemical_formula_sum "Si O2"
_cell_formula_units_Z 16
_cell_length_a 20.714880
_cell_length_b 15.222052
_cell_length_c 8.119486
_cell_angle_alpha 140.517459
_cell_angle_beta 41.507676
_cell_angle_gamma 155.498841
_cell_volume 664.516838
_symmetry_space_group_name_H-M "P -1"
_symmetry_group_IT_number 2
_symmetry_cell_setting 'triclinic'
loop_
_space_group_symop_operation_xyz
x,y,z
-x,-y,-z
loop_
_atom_site_type_symbol
_atom_site_label
_atom_site_fract_x
_atom_site_fract_y
_atom_site_fract_z
Si Si1 0.473861 0.115662 0.544026
Si Si2 0.992760 0.700962 0.709224
Si Si3 0.628212 0.870540 0.917606
Si Si4 0.242372 0.561190 0.761407
Si Si5 0.354635 0.380374 0.330225
Si Si6 0.308398 0.174426 0.774184
Si Si7 0.061998 0.649793 0.864262
Si Si8 0.655484 0.310097 0.904044
O O1 0.475731 0.213881 0.841700
O O2 0.644704 0.288316 0.389195
O O3 0.369874 0.089065 0.577457
O O4 0.394053 0.878972 0.379999
O O5 0.054698 0.721363 0.803259
O O6 0.974565 0.547360 0.404218
O O7 0.813963 0.552067 0.873782
O O8 0.126602 0.952902 0.748111
O O9 0.497633 0.765871 0.884427
O O10 0.773910 0.135727 0.048401
O O11 0.687483 0.780686 0.685825
O O12 0.263064 0.422975 0.571377
O O13 0.302871 0.704383 0.017666
O O14 0.068409 0.424693 0.879049
O O15 0.546069 0.607308 0.295875
O O16 0.311679 0.268074 0.070983
#
# Coordination Sequence:
#
# PCOD9040630 Si02
#       8
#     2   2   2   2   2   2   2   2
#     4  10  18  36  60  83 108 145 191 232 271 332
#     4  10  17  33  56  85 109 140 196 232 269 328
#     4  11  21  38  60  81 117 153 185 219 285 343
#     4  10  22  35  58  85 112 145 192 233 274 319
#     4   9  19  34  56  81 112 150 188 223 274 334
#     4   9  16  33  59  84 106 145 193 237 262 322
#     4  10  19  34  57  86 111 146 183 238 279 327
#     4  11  22  34  58  88 114 148 182 234 286 331
#
# _framework density 24.077643999999999
#
# number of rings (size 3 to 8) (size 9 to 14) (size 15 to 20)
#    0.000    2.000    3.750    3.000    0.000    2.000 
#    0.000    1.250    5.500    0.000    0.000    0.000 
#    0.000    0.000    0.000    0.000    0.000    0.000 
#
# Total GULP energy -89365.501111 kJ/mol
# GULP energy per Si atom -5585.343819 kJ/mol
# Density = 2.402284 g / cm^3
# Si number density = 24.077644 Si / 1000 Ang^3
#
#
#
# Elastic Constant Matrix: (Units=GPa)
#
#
# Indices 1 2 3 4 5 6 
#
# 1 32.5589 12.3091 7.8347 3.6459 -7.5175 15.9112
# 2 12.3091 152.0028 50.6309 -9.0174 -5.6123 24.2662
# 3 7.8347 50.6309 92.7865 -8.9353 -12.4497 6.2394
# 4 3.6459 -9.0174 -8.9353 37.6370 -2.0653 -8.1747
# 5 -7.5175 -5.6123 -12.4497 -2.0653 23.4657 -1.0272
# 6 15.9112 24.2662 6.2394 -8.1747 -1.0272 27.9044
#
#
#
# Elastic Compliance Matrix: (Units=1/GPa)
#
#
# Indices 1 2 3 4 5 6 
#
# 1 0.051060 0.001726 -0.002398 -0.011551 0.013038 -0.032983
# 2 0.001726 0.009286 -0.004769 -0.000879 -0.000195 -0.008258
# 3 -0.002398 -0.004769 0.014538 0.003661 0.006283 0.003567
# 4 -0.011551 -0.000879 0.003661 0.031891 0.001536 0.015931
# 5 0.013038 -0.000195 0.006283 0.001536 0.049935 -0.006381
# 6 -0.032983 -0.008258 0.003567 0.015931 -0.006381 0.065459
#
#
# Mechanical properties :
#
#
# Convention : Reuss Voigt Hill
#
# Bulk Modulus (GPa) = 15.62440 46.54418 31.08429
# Shear Modulus (GPa) = 19.65515 31.57298 25.61407
#
# Velocity S-wave (km/s) = 2.86024 3.62511 3.26515
# Velocity P-wave (km/s) = 4.17267 6.07411 5.21085
#
# Compressibility (1/GPa) = 0.06400248
#
# Stress axis : x y z
#
# Youngs Moduli (GPa) = 19.58464 107.68393 68.78735
#
# Poissons Ratio (x) = -0.18582 0.16496
# Poissons Ratio (y) = -0.03380 0.32801
# Poissons Ratio (z) = 0.04697 0.51349
#
# Static dielectric constant tensor:
#      x y z
#    x 2.088460 0.016220 -0.010270 
#    y 0.016220 1.988090 -0.041220 
#    z -0.010270 -0.041220 1.926110 
# 
# From -- ./inp_files/336187.got.cif
#   From: 2010.05.17/outbox.cif.g08.bks.cpg/sg2_169_cif.got.tgz:336187.got - 2010.06.03 11:33:40.
