data_PCOD9040074
_publ_section_title
;
Structure prediction by ZEFSAII (Michael W. Deem and Ramdas Pophale) SiO2 
 PCOD9040074
Probable space group: P -1
;
_chemical_formula_sum "Si O2"
_cell_formula_units_Z 10
_cell_length_a 11.231189
_cell_length_b 12.737584
_cell_length_c 7.661371
_cell_angle_alpha 92.752433
_cell_angle_beta 108.945496
_cell_angle_gamma 145.367656
_cell_volume 477.244370
_symmetry_space_group_name_H-M "P -1"
_symmetry_group_IT_number 2
_symmetry_cell_setting 'triclinic'
loop_
_space_group_symop_operation_xyz
x,y,z
-x,-y,-z
loop_
_atom_site_type_symbol
_atom_site_label
_atom_site_fract_x
_atom_site_fract_y
_atom_site_fract_z
Si Si1 0.194906 0.878212 0.706775
Si Si2 0.360706 0.642705 0.934174
Si Si3 0.262160 0.132207 0.570840
Si Si4 0.369869 0.598375 0.539479
Si Si5 0.249109 0.753830 0.448197
O O1 0.223981 0.784641 0.632348
O O2 0.908868 0.670911 0.654263
O O3 0.185519 0.952088 0.543448
O O4 0.449438 0.112097 0.951716
O O5 0.403169 0.619332 0.765778
O O6 0.045020 0.438801 0.792291
O O7 0.488387 0.671136 0.156426
O O8 0.374838 0.244457 0.444108
O O9 0.000000 0.000000 0.500000
O O10 0.310396 0.676310 0.471858
O O11 0.500000 0.000000 0.500000
#
# Coordination Sequence:
#
# PCOD9040074 Si02
#       5
#     2   2   2   2   2
#     4   9  21  40  58  94 122 151 209 240 299 370
#     4   9  22  40  60  95 120 160 202 239 317 353
#     4  10  23  43  61  88 124 160 210 249 287 361
#     4  11  22  39  64  88 126 160 194 256 301 357
#     4  11  20  37  65  94 124 155 198 250 307 369
#
# _framework density 20.953627000000001
#
# number of rings (size 3 to 8) (size 9 to 14) (size 15 to 20)
#    1.200    0.800    2.000    2.400    0.000    9.600 
#    0.000    4.000    0.000    0.000    0.000    0.000 
#    0.000    0.000    0.000    0.000    0.000    0.000 
#
# Total GULP energy -55741.964643 kJ/mol
# GULP energy per Si atom -5574.196464 kJ/mol
# Density = 2.090594 g / cm^3
# Si number density = 20.953627 Si / 1000 Ang^3
#
#
#
# Elastic Constant Matrix: (Units=GPa)
#
#
# Indices 1 2 3 4 5 6 
#
# 1 46.0537 9.9967 17.8853 14.5324 2.9657 24.8359
# 2 9.9967 109.1088 -0.7671 32.0274 -9.6951 17.1692
# 3 17.8853 -0.7671 66.3956 23.0243 -12.1902 -0.5735
# 4 14.5324 32.0274 23.0243 38.0920 -6.6619 0.9704
# 5 2.9657 -9.6951 -12.1902 -6.6619 10.2601 4.8726
# 6 24.8359 17.1692 -0.5735 0.9704 4.8726 34.6828
#
#
#
# Elastic Compliance Matrix: (Units=1/GPa)
#
#
# Indices 1 2 3 4 5 6 
#
# 1 0.052258 0.005242 -0.010730 -0.020129 -0.018375 -0.037049
# 2 0.005242 0.018831 0.009453 -0.019234 0.022395 -0.015528
# 3 -0.010730 0.009453 0.030583 -0.015470 0.039060 -0.001545
# 4 -0.020129 -0.019234 -0.015470 0.058243 -0.003633 0.022560
# 5 -0.018375 0.022395 0.039060 -0.003633 0.178562 -0.022267
# 6 -0.037049 -0.015528 -0.001545 0.022560 -0.022267 0.065522
#
#
# Mechanical properties :
#
#
# Convention : Reuss Voigt Hill
#
# Bulk Modulus (GPa) = 9.12390 30.64311 19.88351
# Shear Modulus (GPa) = 11.55796 29.56985 20.56390
#
# Velocity S-wave (km/s) = 2.35116 3.76068 3.13613
# Velocity P-wave (km/s) = 3.42555 5.78903 4.75643
#
# Compressibility (1/GPa) = 0.10960220
#
# Stress axis : x y z
#
# Youngs Moduli (GPa) = 19.13591 53.10516 32.69764
#
# Poissons Ratio (x) = -0.27840 0.35084
# Poissons Ratio (y) = -0.10032 -0.30909
# Poissons Ratio (z) = 0.20533 -0.50199
#
# Static dielectric constant tensor:
#      x y z
#    x 1.781140 0.005300 -0.000550 
#    y 0.005300 1.797800 0.002970 
#    z -0.000550 0.002970 1.767910 
# 
# From -- ./inp_files/92241.got.cif
#   From: 2010.05.17/outbox.cif.g08.bks.cpg/sg2_47_cif.got.tgz:92241.got - 2010.06.03 11:33:40.
