data_PCOD9040172
_publ_section_title
;
Structure prediction by ZEFSAII (Michael W. Deem and Ramdas Pophale) SiO2 
 PCOD9040172
Probable space group: P -1
;
_chemical_formula_sum "Si O2"
_cell_formula_units_Z 16
_cell_length_a 9.991089
_cell_length_b 11.244516
_cell_length_c 13.028215
_cell_angle_alpha 142.717660
_cell_angle_beta 89.174373
_cell_angle_gamma 77.558832
_cell_volume 821.948552
_symmetry_space_group_name_H-M "P -1"
_symmetry_group_IT_number 2
_symmetry_cell_setting 'triclinic'
loop_
_space_group_symop_operation_xyz
x,y,z
-x,-y,-z
loop_
_atom_site_type_symbol
_atom_site_label
_atom_site_fract_x
_atom_site_fract_y
_atom_site_fract_z
Si Si1 0.903894 0.785819 0.911645
Si Si2 0.115464 0.938531 0.545405
Si Si3 0.746405 0.493490 0.646805
Si Si4 0.174960 0.722909 0.724580
Si Si5 0.039940 0.669808 0.048863
Si Si6 0.375081 0.460300 0.911965
Si Si7 0.597432 0.992427 0.396056
Si Si8 0.547410 0.554336 0.339952
O O1 0.787850 0.691771 0.809780
O O2 0.023325 0.745524 0.793356
O O3 0.990661 0.666080 0.929634
O O4 0.832610 0.035467 0.110395
O O5 0.165291 0.694596 0.405708
O O6 0.258861 0.981510 0.547375
O O7 0.000000 0.000000 0.500000
O O8 0.046559 0.094604 0.747530
O O9 0.797791 0.392616 0.464872
O O10 0.578900 0.529418 0.688756
O O11 0.307175 0.578729 0.694809
O O12 0.209702 0.621728 0.027525
O O13 0.000000 0.500000 0.000000
O O14 0.368360 0.241622 0.806210
O O15 0.421201 0.451379 0.785910
O O16 0.500000 0.500000 0.000000
O O17 0.500000 0.000000 0.500000
O O18 0.517942 0.192470 0.461242
#
# Coordination Sequence:
#
# PCOD9040172 Si02
#       8
#     2   2   2   2   2   2   2   2
#     4  11  25  44  68  96 133 167 220 276 323 388
#     4  11  23  38  63  96 129 170 220 266 331 392
#     4  11  24  42  67  96 127 171 225 267 324 399
#     4  11  23  48  66  93 133 172 219 270 329 384
#     4  12  23  41  68  96 133 174 210 278 332 377
#     4  11  24  41  61  97 133 172 219 262 332 398
#     4   9  21  40  58  87 129 167 204 266 316 377
#     4  10  23  43  64  90 132 172 213 270 325 388
#
# _framework density 19.465938999999999
#
# number of rings (size 3 to 8) (size 9 to 14) (size 15 to 20)
#    0.000    1.250    3.750    1.500    7.000    0.500 
#    2.250    0.000    0.000    0.000    0.000    0.000 
#    0.000    0.000    0.000    0.000    0.000    0.000 
#
# Total GULP energy -89332.154377 kJ/mol
# GULP energy per Si atom -5583.259649 kJ/mol
# Density = 1.942163 g / cm^3
# Si number density = 19.465939 Si / 1000 Ang^3
#
#
#
# Elastic Constant Matrix: (Units=GPa)
#
#
# Indices 1 2 3 4 5 6 
#
# 1 108.3191 42.9871 42.7450 8.4103 1.9692 0.2039
# 2 42.9871 77.6081 15.7873 1.2878 16.8479 -10.0399
# 3 42.7450 15.7873 46.2704 7.7568 11.2342 6.1248
# 4 8.4103 1.2878 7.7568 31.7566 4.4594 -3.7235
# 5 1.9692 16.8479 11.2342 4.4594 34.8764 2.9363
# 6 0.2039 -10.0399 6.1248 -3.7235 2.9363 34.5933
#
#
#
# Elastic Compliance Matrix: (Units=1/GPa)
#
#
# Indices 1 2 3 4 5 6 
#
# 1 0.019556 -0.009552 -0.016550 -0.002154 0.009198 -0.000970
# 2 -0.009552 0.020913 0.003007 0.003382 -0.011548 0.006937
# 3 -0.016550 0.003007 0.040406 -0.004513 -0.012484 -0.005610
# 4 -0.002154 0.003382 -0.004513 0.034415 -0.004957 0.005918
# 5 0.009198 -0.011548 -0.012484 -0.004957 0.038810 -0.005023
# 6 -0.000970 0.006937 -0.005610 0.005918 -0.005023 0.032983
#
#
# Mechanical properties :
#
#
# Convention : Reuss Voigt Hill
#
# Bulk Modulus (GPa) = 28.83174 48.35958 38.59566
# Shear Modulus (GPa) = 20.42204 28.95714 24.68959
#
# Velocity S-wave (km/s) = 3.24252 3.86110 3.56525
# Velocity P-wave (km/s) = 5.37235 6.69138 6.06781
#
# Compressibility (1/GPa) = 0.03468399
#
# Stress axis : x y z
#
# Youngs Moduli (GPa) = 51.13610 47.81818 24.74901
#
# Poissons Ratio (x) = 0.45674 0.40961
# Poissons Ratio (y) = 0.48844 -0.07442
# Poissons Ratio (z) = 0.84632 -0.14380
#
# Static dielectric constant tensor:
#      x y z
#    x 1.657660 0.019510 -0.020020 
#    y 0.019510 1.694410 0.013940 
#    z -0.020020 0.013940 1.723780 
# 
# From -- ./inp_files/314157.got.cif
#   From: 2010.05.17/outbox.cif.g08.bks.cpg/sg2_158_cif.got.tgz:314157.got - 2010.06.03 11:33:40.
