data_PCOD9040504
_publ_section_title
;
Structure prediction by ZEFSAII (Michael W. Deem and Ramdas Pophale) SiO2 
 PCOD9040504
Probable space group: P -1
;
_chemical_formula_sum "Si O2"
_cell_formula_units_Z 12
_cell_length_a 15.601327
_cell_length_b 11.295942
_cell_length_c 5.104917
_cell_angle_alpha 82.560880
_cell_angle_beta 105.202076
_cell_angle_gamma 146.412060
_cell_volume 473.567287
_symmetry_space_group_name_H-M "P -1"
_symmetry_group_IT_number 2
_symmetry_cell_setting 'triclinic'
loop_
_space_group_symop_operation_xyz
x,y,z
-x,-y,-z
loop_
_atom_site_type_symbol
_atom_site_label
_atom_site_fract_x
_atom_site_fract_y
_atom_site_fract_z
Si Si1 0.255908 0.499693 0.746405
Si Si2 0.897204 0.073548 0.543263
Si Si3 0.171914 0.668548 0.442217
Si Si4 0.197252 0.887824 0.030039
Si Si5 0.603825 0.577063 0.313639
Si Si6 0.470746 0.102994 0.863052
O O1 0.228639 0.597338 0.557455
O O2 0.353520 0.513786 0.651352
O O3 0.352976 0.638574 0.053732
O O4 0.079111 0.245487 0.716966
O O5 0.774307 0.836272 0.411613
O O6 0.624645 0.923771 0.995672
O O7 0.827906 0.057763 0.753931
O O8 0.156044 0.705584 0.129962
O O9 0.000000 0.500000 0.500000
O O10 0.330923 0.925296 0.587328
O O11 0.095388 0.827823 0.726943
O O12 0.500000 0.500000 0.500000
O O13 0.500000 0.500000 0.000000
O O14 0.500000 0.000000 0.000000
#
# Coordination Sequence:
#
# PCOD9040504 Si02
#       6
#     2   2   2   2   2   2
#     4  11  25  48  74 115 149 198 250 309 372 447
#     4  12  26  48  78 109 149 197 249 309 372 442
#     4  11  23  47  76 114 153 200 243 308 372 450
#     4  12  24  49  75 107 156 196 247 301 377 443
#     4  12  28  53  79 106 149 197 256 313 371 438
#     4  10  23  43  67 106 149 195 243 297 364 436
#
# _framework density 25.339589
#
# number of rings (size 3 to 8) (size 9 to 14) (size 15 to 20)
#    0.000    0.667    3.333    3.500    0.000    6.667 
#   12.000    3.333    0.000    0.000    0.000    0.000 
#    0.000    0.000    0.000    0.000    0.000    0.000 
#
# Total GULP energy -67032.374278 kJ/mol
# GULP energy per Si atom -5586.031190 kJ/mol
# Density = 2.528191 g / cm^3
# Si number density = 25.339589 Si / 1000 Ang^3
#
#
#
# Elastic Constant Matrix: (Units=GPa)
#
#
# Indices 1 2 3 4 5 6 
#
# 1 159.6993 36.3153 54.9703 23.8433 -17.9278 -2.2079
# 2 36.3153 126.9371 63.4444 60.9571 24.5017 15.1090
# 3 54.9703 63.4444 151.9499 31.0825 1.2597 4.2607
# 4 23.8433 60.9571 31.0825 54.6674 5.2711 12.1099
# 5 -17.9278 24.5017 1.2597 5.2711 30.2420 10.7661
# 6 -2.2079 15.1090 4.2607 12.1099 10.7661 33.8795
#
#
#
# Elastic Compliance Matrix: (Units=1/GPa)
#
#
# Indices 1 2 3 4 5 6 
#
# 1 0.008403 -0.002807 -0.001899 -0.000110 0.007458 -0.000293
# 2 -0.002807 0.025879 -0.004865 -0.023778 -0.019567 0.003605
# 3 -0.001899 -0.004865 0.009103 0.000887 0.002338 -0.000159
# 4 -0.000110 -0.023778 0.000887 0.045217 0.014999 -0.010443
# 5 0.007458 -0.019567 0.002338 0.014999 0.055659 -0.014130
# 6 -0.000293 0.003605 -0.000159 -0.010443 -0.014130 0.036133
#
#
# Mechanical properties :
#
#
# Convention : Reuss Voigt Hill
#
# Bulk Modulus (GPa) = 41.24859 83.11625 62.18242
# Shear Modulus (GPa) = 24.08282 42.68155 33.38219
#
# Velocity S-wave (km/s) = 3.08621 4.10857 3.63353
# Velocity P-wave (km/s) = 5.38639 7.44173 6.49587
#
# Compressibility (1/GPa) = 0.02424325
#
# Stress axis : x y z
#
# Youngs Moduli (GPa) = 118.99967 38.64199 109.85306
#
# Poissons Ratio (x) = 0.10846 0.20864
# Poissons Ratio (y) = 0.33402 0.53441
# Poissons Ratio (z) = 0.22601 0.18798
#
# Static dielectric constant tensor:
#      x y z
#    x 2.051540 -0.016790 0.112980 
#    y -0.016790 2.133210 0.037790 
#    z 0.112980 0.037790 2.152450 
# 
# From -- ./inp_files/91840.got.cif
#   From: 2010.05.17/outbox.cif.g08.bks.cpg/sg2_46_cif.got.tgz:91840.got - 2010.06.03 11:33:40.
