data_PCOD9040635
_publ_section_title
;
Structure prediction by ZEFSAII (Michael W. Deem and Ramdas Pophale) SiO2 
 PCOD9040635
Probable space group: P -1
;
_chemical_formula_sum "Si O2"
_cell_formula_units_Z 16
_cell_length_a 11.178719
_cell_length_b 21.057822
_cell_length_c 8.657003
_cell_angle_alpha 51.621952
_cell_angle_beta 97.262560
_cell_angle_gamma 140.459380
_cell_volume 720.231945
_symmetry_space_group_name_H-M "P -1"
_symmetry_group_IT_number 2
_symmetry_cell_setting 'triclinic'
loop_
_space_group_symop_operation_xyz
x,y,z
-x,-y,-z
loop_
_atom_site_type_symbol
_atom_site_label
_atom_site_fract_x
_atom_site_fract_y
_atom_site_fract_z
Si Si1 0.280216 0.705491 0.783352
Si Si2 0.427611 0.257376 0.053935
Si Si3 0.321035 0.009233 0.065450
Si Si4 0.985341 0.325927 0.018606
Si Si5 0.740011 0.398663 0.591513
Si Si6 0.963692 0.925591 0.264423
Si Si7 0.370228 0.966618 0.822082
Si Si8 0.473877 0.578854 0.901317
O O1 0.398937 0.831587 0.478664
O O2 0.489807 0.763866 0.781024
O O3 0.000000 0.500000 0.000000
O O4 0.224090 0.731679 0.876825
O O5 0.638569 0.374442 0.772774
O O6 0.449242 0.349866 0.020687
O O7 0.148250 0.075580 0.200236
O O8 0.516056 0.203504 0.786151
O O9 0.230839 0.915767 0.030461
O O10 0.494115 0.040118 0.121371
O O11 0.081891 0.906399 0.276971
O O12 0.176945 0.479780 0.690613
O O13 0.169886 0.418378 0.054736
O O14 0.826547 0.158380 0.166073
O O15 0.000000 0.500000 0.500000
O O16 0.673151 0.742556 0.566259
O O17 0.000000 0.000000 0.000000
O O18 0.500000 0.500000 0.000000
#
# Coordination Sequence:
#
# PCOD9040635 Si02
#       8
#     2   2   2   2   2   2   2   2
#     4  12  24  40  72 103 135 175 223 289 357 406
#     4  11  25  45  75  99 135 181 232 287 338 413
#     4  10  23  43  68 101 137 179 227 285 341 414
#     4  12  24  43  66 103 139 176 225 283 347 414
#     4  11  20  41  70 103 132 172 222 276 354 412
#     4  11  26  49  71  95 136 194 240 273 331 414
#     4  11  25  39  69 106 138 172 219 295 358 401
#     4  12  29  45  67 101 141 184 231 287 334 405
#
# _framework density 22.215067999999999
#
# number of rings (size 3 to 8) (size 9 to 14) (size 15 to 20)
#    0.000    0.750    3.750    3.750    5.250    2.000 
#    0.000    1.875    0.000    0.000    0.000    0.000 
#    0.000    0.000    0.000    0.000    0.000    0.000 
#
# Total GULP energy -89484.267429 kJ/mol
# GULP energy per Si atom -5592.766714 kJ/mol
# Density = 2.216451 g / cm^3
# Si number density = 22.215068 Si / 1000 Ang^3
#
#
#
# Elastic Constant Matrix: (Units=GPa)
#
#
# Indices 1 2 3 4 5 6 
#
# 1 83.7120 41.8467 6.2884 -6.1934 -1.9085 -26.7166
# 2 41.8467 147.4926 9.0994 -15.9283 -1.4540 -21.6581
# 3 6.2884 9.0994 54.1524 2.4509 4.6760 -0.2454
# 4 -6.1934 -15.9283 2.4509 22.3748 0.9826 -13.1413
# 5 -1.9085 -1.4540 4.6760 0.9826 31.2592 2.0857
# 6 -26.7166 -21.6581 -0.2454 -13.1413 2.0857 38.7434
#
#
#
# Elastic Compliance Matrix: (Units=1/GPa)
#
#
# Indices 1 2 3 4 5 6 
#
# 1 0.019686 -0.001012 -0.002735 0.015823 -0.000159 0.018367
# 2 -0.001012 0.009814 -0.002018 0.012180 -0.000282 0.008922
# 3 -0.002735 -0.002018 0.019656 -0.007300 -0.002623 -0.005225
# 4 0.015823 0.012180 -0.007300 0.086375 -0.003236 0.047146
# 5 -0.000159 -0.000282 -0.002623 -0.003236 0.032671 -0.003140
# 6 0.018367 0.008922 -0.005225 0.047146 -0.003140 0.059591
#
#
# Mechanical properties :
#
#
# Convention : Reuss Voigt Hill
#
# Bulk Modulus (GPa) = 26.57744 44.42511 35.50128
# Shear Modulus (GPa) = 19.85163 33.68364 26.76763
#
# Velocity S-wave (km/s) = 2.99258 3.89813 3.47498
# Velocity P-wave (km/s) = 4.89187 6.34836 5.66710
#
# Compressibility (1/GPa) = 0.03762590
#
# Stress axis : x y z
#
# Youngs Moduli (GPa) = 50.79698 101.89030 50.87405
#
# Poissons Ratio (x) = 0.10315 0.13915
# Poissons Ratio (y) = 0.05142 0.10267
# Poissons Ratio (z) = 0.13894 0.20563
#
# Static dielectric constant tensor:
#      x y z
#    x 1.835640 0.022780 0.000230 
#    y 0.022780 1.838900 0.032670 
#    z 0.000230 0.032670 1.868780 
# 
# From -- ./inp_files/282904.got.cif
#   From: 2010.05.17/outbox.cif.g08.bks.cpg/sg2_142_cif.got.tgz:282904.got - 2010.06.03 11:33:40.
