data_PCOD9040037
_publ_section_title
;
Structure prediction by ZEFSAII (Michael W. Deem and Ramdas Pophale) SiO2 
 PCOD9040037
Probable space group: P -1
;
_chemical_formula_sum "Si O2"
_cell_formula_units_Z 16
_cell_length_a 8.650058
_cell_length_b 15.347293
_cell_length_c 17.310276
_cell_angle_alpha 148.662993
_cell_angle_beta 42.287382
_cell_angle_gamma 141.409561
_cell_volume 726.779326
_symmetry_space_group_name_H-M "P -1"
_symmetry_group_IT_number 2
_symmetry_cell_setting 'triclinic'
loop_
_space_group_symop_operation_xyz
x,y,z
-x,-y,-z
loop_
_atom_site_type_symbol
_atom_site_label
_atom_site_fract_x
_atom_site_fract_y
_atom_site_fract_z
Si Si1 0.364571 0.135753 0.655177
Si Si2 0.573922 0.149004 0.326870
Si Si3 0.718507 0.518286 0.873298
Si Si4 0.038897 0.898552 0.730390
Si Si5 0.078427 0.889597 0.950689
Si Si6 0.938790 0.201992 0.782944
Si Si7 0.579872 0.536392 0.588058
Si Si8 0.148401 0.562245 0.868990
O O1 0.587795 0.340254 0.733208
O O2 0.160405 0.136411 0.669202
O O3 0.500000 0.000000 0.500000
O O4 0.197803 0.063167 0.738688
O O5 0.761761 0.128378 0.305784
O O6 0.701612 0.152279 0.198560
O O7 0.561634 0.344515 0.485265
O O8 0.305245 0.970176 0.290989
O O9 0.832828 0.703042 0.920569
O O10 0.946049 0.525736 0.847961
O O11 0.500000 0.500000 0.000000
O O12 0.862484 0.701972 0.610098
O O13 0.858120 0.976362 0.898666
O O14 0.000000 0.000000 0.000000
O O15 0.052013 0.375653 0.814710
O O16 0.858315 0.280814 0.950554
O O17 0.500000 0.500000 0.500000
O O18 0.404022 0.595065 0.753440
#
# Coordination Sequence:
#
# PCOD9040037 Si02
#       8
#     2   2   2   2   2   2   2   2
#     4  12  28  42  71 103 144 188 235 292 352 427
#     4  11  25  43  70 102 140 184 234 297 357 424
#     4  12  23  46  71 102 143 188 241 286 355 428
#     4  11  24  47  67 101 138 189 238 286 356 427
#     4  10  23  42  75 103 138 187 240 298 347 428
#     4  11  25  47  71 107 140 186 243 298 360 421
#     4  12  27  44  67 101 145 185 234 294 362 422
#     4  11  26  45  75 104 144 188 237 301 356 432
#
# _framework density 22.014935999999999
#
# number of rings (size 3 to 8) (size 9 to 14) (size 15 to 20)
#    0.000    0.750    2.500    3.375    8.750    2.500 
#    0.000    3.750    0.000    0.000    0.000    0.000 
#    0.000    0.000    0.000    0.000    0.000    0.000 
#
# Total GULP energy -89453.414032 kJ/mol
# GULP energy per Si atom -5590.838377 kJ/mol
# Density = 2.196483 g / cm^3
# Si number density = 22.014936 Si / 1000 Ang^3
#
#
#
# Elastic Constant Matrix: (Units=GPa)
#
#
# Indices 1 2 3 4 5 6 
#
# 1 105.7071 58.0087 32.7950 21.5254 0.8141 15.9413
# 2 58.0087 134.7664 36.1964 25.7350 2.4783 2.8286
# 3 32.7950 36.1964 79.0524 10.7416 -11.7517 16.6185
# 4 21.5254 25.7350 10.7416 41.3256 3.8343 11.0877
# 5 0.8141 2.4783 -11.7517 3.8343 33.4542 8.6603
# 6 15.9413 2.8286 16.6185 11.0877 8.6603 39.7212
#
#
#
# Elastic Compliance Matrix: (Units=1/GPa)
#
#
# Indices 1 2 3 4 5 6 
#
# 1 0.013905 -0.004745 -0.002417 -0.002744 0.000398 -0.003552
# 2 -0.004745 0.011364 -0.004016 -0.004550 -0.002822 0.004661
# 3 -0.002417 -0.004016 0.018597 0.000395 0.009074 -0.008613
# 4 -0.002744 -0.004550 0.000395 0.030330 -0.001132 -0.006960
# 5 0.000398 -0.002822 0.009074 -0.001132 0.036350 -0.011364
# 6 -0.003552 0.004661 -0.008613 -0.006960 -0.011364 0.034293
#
#
# Mechanical properties :
#
#
# Convention : Reuss Voigt Hill
#
# Bulk Modulus (GPa) = 46.48929 63.72513 55.10721
# Shear Modulus (GPa) = 28.67515 35.73526 32.20520
#
# Velocity S-wave (km/s) = 3.61298 4.03330 3.82891
# Velocity P-wave (km/s) = 6.21030 7.12034 6.68083
#
# Compressibility (1/GPa) = 0.02151033
#
# Stress axis : x y z
#
# Youngs Moduli (GPa) = 71.91527 87.99480 53.77117
#
# Poissons Ratio (x) = 0.41753 0.12998
# Poissons Ratio (y) = 0.34124 0.21595
# Poissons Ratio (z) = 0.17384 0.35339
#
# Static dielectric constant tensor:
#      x y z
#    x 1.624080 0.287400 -0.283440 
#    y 0.287400 0.788570 0.866470 
#    z -0.283440 0.866470 1.153070 
# 
# From -- ./inp_files/187671.got.cif
#   From: 2010.05.17/outbox.cif.g08.bks.cpg/sg2_94_cif.got.tgz:187671.got - 2010.06.03 11:33:40.
