data_PCOD9040109
_publ_section_title
;
Structure prediction by ZEFSAII (Michael W. Deem and Ramdas Pophale) SiO2 
 PCOD9040109
Probable space group: P -1
;
_chemical_formula_sum "Si O2"
_cell_formula_units_Z 16
_cell_length_a 8.811628
_cell_length_b 8.653058
_cell_length_c 13.626311
_cell_angle_alpha 61.878078
_cell_angle_beta 59.629731
_cell_angle_gamma 94.920418
_cell_volume 715.289667
_symmetry_space_group_name_H-M "P -1"
_symmetry_group_IT_number 2
_symmetry_cell_setting 'triclinic'
loop_
_space_group_symop_operation_xyz
x,y,z
-x,-y,-z
loop_
_atom_site_type_symbol
_atom_site_label
_atom_site_fract_x
_atom_site_fract_y
_atom_site_fract_z
Si Si1 0.057118 0.041268 0.856832
Si Si2 0.081306 0.806634 0.322794
Si Si3 0.919992 0.822022 0.685647
Si Si4 0.305403 0.566578 0.388365
Si Si5 0.539877 0.784823 0.421471
Si Si6 0.092119 0.375864 0.064959
Si Si7 0.513796 0.570905 0.795907
Si Si8 0.343152 0.059505 0.459815
O O1 0.288545 0.130875 0.738824
O O2 0.969247 0.164907 0.783114
O O3 0.978259 0.828706 0.902300
O O4 0.000000 0.000000 0.000000
O O5 0.249229 0.735922 0.314472
O O6 0.892695 0.631382 0.484736
O O7 0.130309 0.017340 0.290099
O O8 0.976105 0.687897 0.782773
O O9 0.728364 0.667321 0.743341
O O10 0.122532 0.952425 0.526977
O O11 0.385730 0.605258 0.462918
O O12 0.463366 0.549301 0.267936
O O13 0.666944 0.834624 0.466392
O O14 0.416030 0.895028 0.469956
O O15 0.327049 0.466922 0.955129
O O16 0.000000 0.500000 0.000000
O O17 0.499347 0.762318 0.703863
#
# Coordination Sequence:
#
# PCOD9040109 Si02
#       8
#     2   2   2   2   2   2   2   2
#     4  11  23  45  66  91 140 182 217 271 342 404
#     4  10  23  43  62  97 134 177 216 277 334 397
#     4  11  23  46  65  95 137 177 219 270 344 398
#     4  11  24  40  66 102 134 165 230 277 333 391
#     4  11  23  41  67  98 131 175 226 275 333 397
#     4  11  25  44  65  98 136 169 229 274 327 399
#     4  12  24  40  70 100 128 179 219 279 332 396
#     4  11  23  41  71  97 131 174 226 277 334 396
#
# _framework density 22.368558
#
# number of rings (size 3 to 8) (size 9 to 14) (size 15 to 20)
#    0.000    1.000    3.750    3.000    5.250    4.000 
#    0.000    6.875    0.000    0.000    0.000    0.000 
#    0.000    0.000    0.000    0.000    0.000    0.000 
#
# Total GULP energy -89075.697416 kJ/mol
# GULP energy per Si atom -5567.231089 kJ/mol
# Density = 2.231765 g / cm^3
# Si number density = 22.368558 Si / 1000 Ang^3
#
#
#
# Elastic Constant Matrix: (Units=GPa)
#
#
# Indices 1 2 3 4 5 6 
#
# 1 96.9605 34.9204 10.0958 -5.9074 3.4316 -10.5949
# 2 34.9204 50.3842 -2.5386 -7.6292 3.8265 15.0532
# 3 10.0958 -2.5386 66.2082 -4.5789 -2.7750 1.1396
# 4 -5.9074 -7.6292 -4.5789 33.2249 4.7014 -0.1408
# 5 3.4316 3.8265 -2.7750 4.7014 40.1552 -5.2424
# 6 -10.5949 15.0532 1.1396 -0.1408 -5.2424 41.4565
#
#
#
# Elastic Compliance Matrix: (Units=1/GPa)
#
#
# Indices 1 2 3 4 5 6 
#
# 1 0.017245 -0.015448 -0.003422 -0.001083 0.001228 0.010263
# 2 -0.015448 0.037764 0.004399 0.007192 -0.005221 -0.018417
# 3 -0.003422 0.004399 0.016033 0.002556 0.000308 -0.002865
# 4 -0.001083 0.007192 0.002556 0.032556 -0.004677 -0.003439
# 5 0.001228 -0.005221 0.000308 -0.004677 0.026589 0.005548
# 6 0.010263 -0.018417 -0.002865 -0.003439 0.005548 0.034201
#
#
# Mechanical properties :
#
#
# Convention : Reuss Voigt Hill
#
# Bulk Modulus (GPa) = 23.75271 33.16756 28.46013
# Shear Modulus (GPa) = 24.11213 34.37235 29.24224
#
# Velocity S-wave (km/s) = 3.28677 3.92425 3.61957
# Velocity P-wave (km/s) = 5.00457 5.94919 5.49721
#
# Compressibility (1/GPa) = 0.04210046
#
# Stress axis : x y z
#
# Youngs Moduli (GPa) = 57.98632 26.48017 62.37007
#
# Poissons Ratio (x) = 0.40907 0.21343
# Poissons Ratio (y) = 0.89579 -0.27438
# Poissons Ratio (z) = 0.19843 -0.11649
#
# Static dielectric constant tensor:
#      x y z
#    x 2.044870 0.071270 0.163530 
#    y 0.071270 1.787780 -0.049190 
#    z 0.163530 -0.049190 1.641830 
# 
# From -- ./inp_files/494469.got.cif
#   From: 2010.05.17/outbox.cif.g08.bks.cpg/sg2_248_cif.got.tgz:494469.got - 2010.06.03 11:33:40.
