data_PCOD9040030
_publ_section_title
;
Structure prediction by ZEFSAII (Michael W. Deem and Ramdas Pophale) SiO2 
 PCOD9040030
Probable space group: P -1
;
_chemical_formula_sum "Si O2"
_cell_formula_units_Z 14
_cell_length_a 17.990857
_cell_length_b 12.121137
_cell_length_c 8.835175
_cell_angle_alpha 142.319981
_cell_angle_beta 132.243204
_cell_angle_gamma 29.593607
_cell_volume 580.785953
_symmetry_space_group_name_H-M "P -1"
_symmetry_group_IT_number 2
_symmetry_cell_setting 'triclinic'
loop_
_space_group_symop_operation_xyz
x,y,z
-x,-y,-z
loop_
_atom_site_type_symbol
_atom_site_label
_atom_site_fract_x
_atom_site_fract_y
_atom_site_fract_z
Si Si1 0.758642 0.546805 0.437811
Si Si2 0.260481 0.095225 0.666572
Si Si3 0.585171 0.267098 0.240264
Si Si4 0.995075 0.953764 0.266997
Si Si5 0.949118 0.594966 0.858819
Si Si6 0.520534 0.606043 0.282399
Si Si7 0.707334 0.559352 0.032325
O O1 0.799127 0.687520 0.713033
O O2 0.598331 0.686476 0.426885
O O3 0.757884 0.546132 0.255068
O O4 0.882420 0.237986 0.333875
O O5 0.303146 0.247830 0.874119
O O6 0.082375 0.322257 0.646337
O O7 0.294158 0.992237 0.772832
O O8 0.365052 0.850620 0.424399
O O9 0.500000 0.500000 0.500000
O O10 0.631976 0.349066 0.269001
O O11 0.455590 0.313923 0.046442
O O12 0.950530 0.801777 0.038389
O O13 0.000000 0.000000 0.500000
O O14 0.162885 0.738128 0.188784
O O15 0.000000 0.500000 0.000000
O O16 0.500000 0.500000 0.000000
#
# Coordination Sequence:
#
# PCOD9040030 Si02
#       7
#     2   2   2   2   2   2   2
#     4  12  27  45  77 108 153 189 245 305 372 436
#     4  10  26  46  74 101 147 187 248 304 359 437
#     4  10  23  42  74  99 143 190 244 296 363 430
#     4  11  26  45  76 106 149 193 249 301 366 441
#     4  11  26  48  75 111 143 194 247 300 369 437
#     4  11  25  46  69 110 145 191 243 297 372 435
#     4  11  25  48  70 109 141 195 248 302 375 424
#
# _framework density 24.105266
#
# number of rings (size 3 to 8) (size 9 to 14) (size 15 to 20)
#    0.000    1.143    2.857    0.857   10.000    6.286 
#    0.000    0.000    0.000    0.000    0.000    0.000 
#    0.000    0.000    0.000    0.000    0.000    0.000 
#
# Total GULP energy -78416.044550 kJ/mol
# GULP energy per Si atom -5601.146039 kJ/mol
# Density = 2.405040 g / cm^3
# Si number density = 24.105266 Si / 1000 Ang^3
#
#
#
# Elastic Constant Matrix: (Units=GPa)
#
#
# Indices 1 2 3 4 5 6 
#
# 1 88.4282 7.6404 28.3678 0.6314 6.9352 -9.4761
# 2 7.6404 62.5223 35.1042 8.8539 -9.6971 1.1227
# 3 28.3678 35.1042 111.3059 -12.6885 -5.4160 -13.2658
# 4 0.6314 8.8539 -12.6885 41.7280 -6.6900 -1.1097
# 5 6.9352 -9.6971 -5.4160 -6.6900 53.4877 2.7288
# 6 -9.4761 1.1227 -13.2658 -1.1097 2.7288 54.0089
#
#
#
# Elastic Compliance Matrix: (Units=1/GPa)
#
#
# Indices 1 2 3 4 5 6 
#
# 1 0.012734 0.000226 -0.003434 -0.001604 -0.002233 0.001466
# 2 0.000226 0.021759 -0.007877 -0.006698 0.002413 -0.002607
# 3 -0.003434 -0.007877 0.013430 0.006043 0.000983 0.002935
# 4 -0.001604 -0.006698 0.006043 0.027774 0.002989 0.001762
# 5 -0.002233 0.002413 0.000983 0.002989 0.019955 -0.001147
# 6 0.001466 -0.002607 0.002935 0.001762 -0.001147 0.019642
#
#
# Mechanical properties :
#
#
# Convention : Reuss Voigt Hill
#
# Bulk Modulus (GPa) = 38.82821 44.94235 41.88528
# Shear Modulus (GPa) = 34.23555 42.58785 38.41170
#
# Velocity S-wave (km/s) = 3.77271 4.20783 3.99620
# Velocity P-wave (km/s) = 5.92626 6.50326 6.22145
#
# Compressibility (1/GPa) = 0.02575447
#
# Stress axis : x y z
#
# Youngs Moduli (GPa) = 78.52828 45.95838 74.46015
#
# Poissons Ratio (x) = -0.01039 0.25566
# Poissons Ratio (y) = -0.01775 0.58651
# Poissons Ratio (z) = 0.26963 0.36201
#
# Static dielectric constant tensor:
#      x y z
#    x 1.887300 -0.041130 -0.007730 
#    y -0.041130 1.961860 0.045330 
#    z -0.007730 0.045330 1.869150 
# 
# From -- ./inp_files/333943.got.cif
#   From: 2010.05.17/outbox.cif.g08.bks.cpg/sg2_167_cif.got.tgz:333943.got - 2010.06.03 11:33:40.
