data_PCOD9040425
_publ_section_title
;
Structure prediction by ZEFSAII (Michael W. Deem and Ramdas Pophale) SiO2 
 PCOD9040425
Probable space group: P -1
;
_chemical_formula_sum "Si O2"
_cell_formula_units_Z 16
_cell_length_a 12.783947
_cell_length_b 8.787643
_cell_length_c 19.034873
_cell_angle_alpha 132.516658
_cell_angle_beta 137.486765
_cell_angle_gamma 28.628562
_cell_volume 689.617122
_symmetry_space_group_name_H-M "P -1"
_symmetry_group_IT_number 2
_symmetry_cell_setting 'triclinic'
loop_
_space_group_symop_operation_xyz
x,y,z
-x,-y,-z
loop_
_atom_site_type_symbol
_atom_site_label
_atom_site_fract_x
_atom_site_fract_y
_atom_site_fract_z
Si Si1 0.315178 0.768771 0.933708
Si Si2 0.818277 0.543593 0.223383
Si Si3 0.729196 0.319075 0.503121
Si Si4 0.962627 0.391388 0.749498
Si Si5 0.535032 0.299541 0.168046
Si Si6 0.301810 0.204962 0.118245
Si Si7 0.511196 0.325352 0.631563
Si Si8 0.892085 0.615256 0.558838
O O1 0.162861 0.716807 0.829124
O O2 0.448818 0.701277 0.907687
O O3 0.500000 0.500000 0.000000
O O4 0.189234 0.104801 0.003348
O O5 0.973400 0.452250 0.204404
O O6 0.903165 0.595677 0.347403
O O7 0.551521 0.877821 0.174760
O O8 0.500000 0.500000 0.500000
O O9 0.814778 0.427737 0.626594
O O10 0.572779 0.426900 0.389846
O O11 0.000000 0.000000 0.500000
O O12 0.840508 0.544645 0.811713
O O13 0.203482 0.020921 0.771184
O O14 0.364883 0.296814 0.115055
O O15 0.469349 0.589862 0.257608
O O16 0.299874 0.372651 0.531683
O O17 0.746712 0.970557 0.612890
O O18 0.000000 0.500000 0.500000
#
# Coordination Sequence:
#
# PCOD9040425 Si02
#       8
#     2   2   2   2   2   2   2   2
#     4  10  23  45  70  97 133 184 234 303 371 439
#     4  10  23  43  66  97 139 180 239 291 365 435
#     4  12  26  43  71 107 150 198 246 296 367 443
#     4  11  24  41  69 102 140 183 240 296 359 440
#     4  11  23  45  68 100 139 178 239 296 365 443
#     4  10  24  43  70 100 133 185 235 306 367 426
#     4  11  25  41  64 101 138 189 231 291 361 433
#     4  11  25  40  63  97 139 186 234 290 360 443
#
# _framework density 23.201280000000001
#
# number of rings (size 3 to 8) (size 9 to 14) (size 15 to 20)
#    0.000    1.250    2.500    1.875    5.250    6.000 
#    0.000    2.500    0.000    0.000    0.000    0.000 
#    0.000    0.000    0.000    0.000    0.000    0.000 
#
# Total GULP energy -89109.085784 kJ/mol
# GULP energy per Si atom -5569.317862 kJ/mol
# Density = 2.314847 g / cm^3
# Si number density = 23.201280 Si / 1000 Ang^3
#
#
#
# Elastic Constant Matrix: (Units=GPa)
#
#
# Indices 1 2 3 4 5 6 
#
# 1 125.4964 40.4320 52.1762 11.7108 -12.9919 -16.8244
# 2 40.4320 66.6364 36.7419 14.3441 9.8453 -12.7869
# 3 52.1762 36.7419 102.9857 23.1706 -8.2721 -5.8582
# 4 11.7108 14.3441 23.1706 41.0639 -2.2246 -6.3127
# 5 -12.9919 9.8453 -8.2721 -2.2246 42.2095 -1.6192
# 6 -16.8244 -12.7869 -5.8582 -6.3127 -1.6192 27.5202
#
#
#
# Elastic Compliance Matrix: (Units=1/GPa)
#
#
# Indices 1 2 3 4 5 6 
#
# 1 0.012348 -0.005330 -0.004084 0.001634 0.004515 0.004843
# 2 -0.005330 0.024367 -0.005574 -0.003441 -0.008383 0.005594
# 3 -0.004084 -0.005574 0.015092 -0.005731 0.002582 -0.003037
# 4 0.001634 -0.003441 -0.005731 0.029192 0.001912 0.004989
# 5 0.004515 -0.008383 0.002582 0.001912 0.027700 0.001483
# 6 0.004843 0.005594 -0.003037 0.004989 0.001483 0.042483
#
#
# Mechanical properties :
#
#
# Convention : Reuss Voigt Hill
#
# Bulk Modulus (GPa) = 45.80603 61.53541 53.67072
# Shear Modulus (GPa) = 26.53458 33.20994 29.87226
#
# Velocity S-wave (km/s) = 3.38549 3.78747 3.59210
# Velocity P-wave (km/s) = 5.92180 6.76066 6.35509
#
# Compressibility (1/GPa) = 0.02183119
#
# Stress axis : x y z
#
# Youngs Moduli (GPa) = 80.98746 41.03948 66.26158
#
# Poissons Ratio (x) = 0.21873 0.27059
# Poissons Ratio (y) = 0.43164 0.36935
# Poissons Ratio (z) = 0.33072 0.22876
#
# Static dielectric constant tensor:
#      x y z
#    x 1.932980 -0.011300 0.064610 
#    y -0.011300 1.905400 0.016300 
#    z 0.064610 0.016300 1.792510 
# 
# From -- ./inp_files/107266.got.cif
#   From: 2010.05.17/outbox.cif.g08.bks.cpg/sg2_54_cif.got.tgz:107266.got - 2010.06.03 11:33:40.
