data_PCOD9040020
_publ_section_title
;
Structure prediction by ZEFSAII (Michael W. Deem and Ramdas Pophale) SiO2 
 PCOD9040020
Probable space group: P -1
;
_chemical_formula_sum "Si O2"
_cell_formula_units_Z 10
_cell_length_a 5.332969
_cell_length_b 7.749594
_cell_length_c 19.060409
_cell_angle_alpha 142.160796
_cell_angle_beta 85.199434
_cell_angle_gamma 76.425692
_cell_volume 419.207792
_symmetry_space_group_name_H-M "P -1"
_symmetry_group_IT_number 2
_symmetry_cell_setting 'triclinic'
loop_
_space_group_symop_operation_xyz
x,y,z
-x,-y,-z
loop_
_atom_site_type_symbol
_atom_site_label
_atom_site_fract_x
_atom_site_fract_y
_atom_site_fract_z
Si Si1 0.084290 0.262958 0.055968
Si Si2 0.586196 0.615348 0.823439
Si Si3 0.550860 0.656783 0.118626
Si Si4 0.532875 0.652550 0.399518
Si Si5 0.123983 0.412005 0.390248
O O1 0.096769 0.444594 0.184111
O O2 0.890606 0.504608 0.078775
O O3 0.403539 0.002591 0.938337
O O4 0.000000 0.000000 0.000000
O O5 0.531171 0.472501 0.850369
O O6 0.514305 0.464298 0.712056
O O7 0.370966 0.042269 0.251345
O O8 0.500000 0.500000 0.000000
O O9 0.280893 0.625931 0.439902
O O10 0.850410 0.461371 0.365578
O O11 0.500000 0.000000 0.500000
O O12 0.000000 0.500000 0.500000
#
# Coordination Sequence:
#
# PCOD9040020 Si02
#       5
#     2   2   2   2   2
#     4   9  21  41  69 105 151 191 249 303 386 453
#     4  10  23  42  74 106 149 200 257 305 378 464
#     4  11  25  42  73 110 156 193 249 321 387 441
#     4  12  28  51  81 107 150 210 266 308 380 466
#     4  12  29  52  78 114 156 201 256 324 389 450
#
# _framework density 23.854517999999999
#
# number of rings (size 3 to 8) (size 9 to 14) (size 15 to 20)
#    0.000    1.200    0.000    3.600   16.800    0.800 
#    3.600    0.000    0.000    0.000    0.000    0.000 
#    0.000    0.000    0.000    0.000    0.000    0.000 
#
# Total GULP energy -55791.834318 kJ/mol
# GULP energy per Si atom -5579.183432 kJ/mol
# Density = 2.380022 g / cm^3
# Si number density = 23.854518 Si / 1000 Ang^3
#
#
#
# Elastic Constant Matrix: (Units=GPa)
#
#
# Indices 1 2 3 4 5 6 
#
# 1 147.3359 88.8738 59.1046 -11.9731 30.8451 -13.1760
# 2 88.8738 146.7175 91.8119 -28.3905 8.7032 -19.7971
# 3 59.1046 91.8119 166.6132 -17.6225 32.7066 -21.0921
# 4 -11.9731 -28.3905 -17.6225 34.8774 -3.8490 11.7690
# 5 30.8451 8.7032 32.7066 -3.8490 38.3871 -6.7697
# 6 -13.1760 -19.7971 -21.0921 11.7690 -6.7697 71.8510
#
#
#
# Elastic Compliance Matrix: (Units=1/GPa)
#
#
# Indices 1 2 3 4 5 6 
#
# 1 0.013873 -0.009861 0.002375 -0.003309 -0.011266 0.000005
# 2 -0.009861 0.019127 -0.008294 0.009066 0.011676 0.000642
# 3 0.002375 -0.008294 0.011637 -0.001445 -0.009935 0.000867
# 4 -0.003309 0.009066 -0.001445 0.036056 0.004746 -0.003992
# 5 -0.011266 0.011676 -0.009935 0.004746 0.041639 0.001381
# 6 0.000005 0.000642 0.000867 -0.003992 0.001381 0.015134
#
#
# Mechanical properties :
#
#
# Convention : Reuss Voigt Hill
#
# Bulk Modulus (GPa) = 76.47043 104.47190 90.47117
# Shear Modulus (GPa) = 28.83749 43.74818 36.29283
#
# Velocity S-wave (km/s) = 3.48068 4.28712 3.90477
# Velocity P-wave (km/s) = 6.94839 8.27021 7.63795
#
# Compressibility (1/GPa) = 0.01307695
#
# Stress axis : x y z
#
# Youngs Moduli (GPa) = 72.08424 52.28108 85.93309
#
# Poissons Ratio (x) = 0.51553 -0.20405
# Poissons Ratio (y) = 0.71081 0.71272
# Poissons Ratio (z) = -0.17117 0.43361
#
# Static dielectric constant tensor:
#      x y z
#    x 2.594600 0.021160 0.029770 
#    y 0.021160 1.912860 -0.032300 
#    z 0.029770 -0.032300 2.091870 
# 
# From -- ./inp_files/61306.got.cif
#   From: 2010.05.17/outbox.cif.g08.bks.cpg/sg2_31_cif.got.tgz:61306.got - 2010.06.03 11:33:40.
