data_PCOD9040524
_publ_section_title
;
Structure prediction by ZEFSAII (Michael W. Deem and Ramdas Pophale) SiO2 
 PCOD9040524
Probable space group: P -1
;
_chemical_formula_sum "Si O2"
_cell_formula_units_Z 16
_cell_length_a 8.844054
_cell_length_b 11.437962
_cell_length_c 13.762156
_cell_angle_alpha 53.595626
_cell_angle_beta 133.431390
_cell_angle_gamma 120.085702
_cell_volume 803.253378
_symmetry_space_group_name_H-M "P -1"
_symmetry_group_IT_number 2
_symmetry_cell_setting 'triclinic'
loop_
_space_group_symop_operation_xyz
x,y,z
-x,-y,-z
loop_
_atom_site_type_symbol
_atom_site_label
_atom_site_fract_x
_atom_site_fract_y
_atom_site_fract_z
Si Si1 0.831954 0.085015 0.436995
Si Si2 0.046929 0.583790 0.734467
Si Si3 0.131604 0.853238 0.031946
Si Si4 0.085846 0.288845 0.808526
Si Si5 0.020181 0.060402 0.725467
Si Si6 0.579188 0.358803 0.980804
Si Si7 0.807028 0.465679 0.856913
Si Si8 0.406526 0.970321 0.826972
O O1 0.909220 0.259572 0.374658
O O2 0.837176 0.046138 0.571278
O O3 0.631040 0.042579 0.299438
O O4 0.000000 0.000000 0.500000
O O5 0.005524 0.444057 0.714162
O O6 0.858344 0.574992 0.735033
O O7 0.257221 0.572105 0.898070
O O8 0.180399 0.693994 0.101897
O O9 0.354710 0.959968 0.082794
O O10 0.014835 0.824451 0.097099
O O11 0.998277 0.923866 0.857440
O O12 0.039441 0.207595 0.725577
O O13 0.336473 0.325930 0.917042
O O14 0.238697 0.056230 0.764004
O O15 0.609378 0.452188 0.848438
O O16 0.640735 0.196466 0.071728
O O17 0.000000 0.500000 0.000000
#
# Coordination Sequence:
#
# PCOD9040524 Si02
#       8
#     2   2   2   2   2   2   2   2
#     4   9  21  38  61  81 108 149 189 227 280 331
#     4   9  20  36  54  81 116 147 179 233 279 331
#     4  11  20  34  55  89 115 141 187 236 276 317
#     4  11  22  32  55  86 118 146 182 231 280 333
#     4  11  20  34  57  86 109 150 185 227 276 331
#     4  10  17  33  56  83 112 146 184 229 283 316
#     4   9  18  31  55  86 109 142 183 237 276 318
#     4  10  19  35  59  83 111 143 191 236 268 322
#
# _framework density 19.918994000000001
#
# number of rings (size 3 to 8) (size 9 to 14) (size 15 to 20)
#    0.000    2.000    2.500    1.875    1.750    0.500 
#    0.000    0.625    0.000   20.250    0.000    0.000 
#    0.000    0.000    0.000    0.000    0.000    0.000 
#
# Total GULP energy -89207.127820 kJ/mol
# GULP energy per Si atom -5575.445489 kJ/mol
# Density = 1.987366 g / cm^3
# Si number density = 19.918994 Si / 1000 Ang^3
#
#
#
# Elastic Constant Matrix: (Units=GPa)
#
#
# Indices 1 2 3 4 5 6 
#
# 1 58.2512 6.5979 8.4216 12.5196 -17.7998 -5.4516
# 2 6.5979 63.0622 10.3581 9.8775 -16.2438 -14.1617
# 3 8.4216 10.3581 78.8663 8.0077 -24.6743 -4.4617
# 4 12.5196 9.8775 8.0077 18.6528 -6.5627 1.5152
# 5 -17.7998 -16.2438 -24.6743 -6.5627 18.4707 3.6089
# 6 -5.4516 -14.1617 -4.4617 1.5152 3.6089 26.5054
#
#
#
# Elastic Compliance Matrix: (Units=1/GPa)
#
#
# Indices 1 2 3 4 5 6 
#
# 1 0.036559 0.014342 0.015382 -0.018606 0.059689 0.010708
# 2 0.014342 0.030788 0.012028 -0.015322 0.048454 0.015703
# 3 0.015382 0.012028 0.029705 -0.008653 0.060675 0.006824
# 4 -0.018606 -0.015322 -0.008653 0.074512 -0.013382 -0.015907
# 5 0.059689 0.048454 0.060675 -0.013382 0.227009 0.018235
# 6 0.010708 0.015703 0.006824 -0.015907 0.018235 0.047896
#
#
# Mechanical properties :
#
#
# Convention : Reuss Voigt Hill
#
# Bulk Modulus (GPa) = 5.53840 27.88166 16.71003
# Shear Modulus (GPa) = 11.81614 24.37924 18.09769
#
# Velocity S-wave (km/s) = 2.43823 3.50225 3.01751
# Velocity P-wave (km/s) = 3.27309 5.51201 4.53296
#
# Compressibility (1/GPa) = 0.18055750
#
# Stress axis : x y z
#
# Youngs Moduli (GPa) = 27.35310 32.47984 33.66431
#
# Poissons Ratio (x) = -0.46584 -0.51782
# Poissons Ratio (y) = -0.39231 -0.40492
# Poissons Ratio (z) = -0.42074 -0.39068
#
# Static dielectric constant tensor:
#      x y z
#    x 1.754910 -0.016420 -0.037190 
#    y -0.016420 1.748770 -0.025660 
#    z -0.037190 -0.025660 1.733010 
# 
# From -- ./inp_files/389586.got.cif
#   From: 2010.05.17/outbox.cif.g08.bks.cpg/sg2_195_cif.got.tgz:389586.got - 2010.06.03 11:33:40.
