data_PCOD9040450
_publ_section_title
;
Structure prediction by ZEFSAII (Michael W. Deem and Ramdas Pophale) SiO2 
 PCOD9040450
Probable space group: P -1
;
_chemical_formula_sum "Si O2"
_cell_formula_units_Z 15
_cell_length_a 13.150722
_cell_length_b 7.933653
_cell_length_c 8.165602
_cell_angle_alpha 46.437474
_cell_angle_beta 90.198884
_cell_angle_gamma 94.875078
_cell_volume 613.311144
_symmetry_space_group_name_H-M "P -1"
_symmetry_group_IT_number 2
_symmetry_cell_setting 'triclinic'
loop_
_space_group_symop_operation_xyz
x,y,z
-x,-y,-z
loop_
_atom_site_type_symbol
_atom_site_label
_atom_site_fract_x
_atom_site_fract_y
_atom_site_fract_z
Si Si1 0.500000 0.500000 0.500000
Si Si2 0.952361 0.480006 0.333291
Si Si3 0.687549 0.553881 0.564947
Si Si4 0.766325 0.239745 0.350632
Si Si5 0.182240 0.126403 0.912559
Si Si6 0.850097 0.366818 0.914906
Si Si7 0.410020 0.159936 0.390029
Si Si8 0.371023 0.333628 0.927622
O O1 0.610204 0.365243 0.598548
O O2 0.446565 0.343899 0.767497
O O3 0.855000 0.283653 0.457209
O O4 0.903256 0.717819 0.129836
O O5 0.000000 0.500000 0.500000
O O6 0.048067 0.457326 0.231214
O O7 0.764453 0.721228 0.342540
O O8 0.751037 0.467891 0.770837
O O9 0.591100 0.690044 0.540378
O O10 0.686968 0.432740 0.226520
O O11 0.700213 0.991536 0.506923
O O12 0.829075 0.295080 0.147412
O O13 0.276795 0.131518 0.033092
O O14 0.140261 0.870408 0.026934
O O15 0.500000 0.000000 0.500000
O O16 0.417824 0.302248 0.127016
#
# Coordination Sequence:
#
# PCOD9040450 Si02
#       8
#     1   2   2   2   2   2   2   2
#     4  10  24  42  68  96 138 182 226 282 350 392
#     4  11  24  44  69 101 136 180 229 283 345 403
#     4  11  23  43  65 101 136 178 229 286 337 406
#     4  11  25  45  67 101 138 181 227 283 344 409
#     4  10  23  43  67 100 136 177 226 277 345 414
#     4  12  23  43  71  93 140 180 223 288 340 403
#     4  12  26  43  71 104 137 180 232 281 350 411
#     4  10  24  44  68  99 139 177 231 281 343 415
#
# _framework density 24.457405000000001
#
# number of rings (size 3 to 8) (size 9 to 14) (size 15 to 20)
#    0.000    1.067    4.000    1.600    3.733    2.133 
#    0.000    6.000    0.000    0.000    0.000    0.000 
#    0.000    0.000    0.000    0.000    0.000    0.000 
#
# Total GULP energy -83707.008219 kJ/mol
# GULP energy per Si atom -5580.467215 kJ/mol
# Density = 2.440174 g / cm^3
# Si number density = 24.457405 Si / 1000 Ang^3
#
#
#
# Elastic Constant Matrix: (Units=GPa)
#
#
# Indices 1 2 3 4 5 6 
#
# 1 151.3019 15.5280 45.4489 -0.2762 -8.0251 15.3066
# 2 15.5280 53.5909 9.7988 6.4120 -8.5749 1.2821
# 3 45.4489 9.7988 86.3436 35.8206 -11.2174 8.7591
# 4 -0.2762 6.4120 35.8206 36.1056 -0.5291 -9.5613
# 5 -8.0251 -8.5749 -11.2174 -0.5291 37.0502 -1.1260
# 6 15.3066 1.2821 8.7591 -9.5613 -1.1260 42.7412
#
#
#
# Elastic Compliance Matrix: (Units=1/GPa)
#
#
# Indices 1 2 3 4 5 6 
#
# 1 0.009372 -0.002407 -0.008674 0.009231 -0.001005 0.000532
# 2 -0.002407 0.020488 0.002332 -0.006301 0.004790 -0.001514
# 3 -0.008674 0.002332 0.033179 -0.036380 0.007832 -0.011695
# 4 0.009231 -0.006301 -0.036380 0.070088 -0.008872 0.019784
# 5 -0.001005 0.004790 0.007832 -0.008872 0.030047 -0.002582
# 6 0.000532 -0.001514 -0.011695 0.019784 -0.002582 0.030006
#
#
# Mechanical properties :
#
#
# Convention : Reuss Voigt Hill
#
# Bulk Modulus (GPa) = 21.95850 48.08753 35.02301
# Shear Modulus (GPa) = 22.13780 37.87678 30.00729
#
# Velocity S-wave (km/s) = 3.01185 3.93960 3.50654
# Velocity P-wave (km/s) = 4.59268 6.35597 5.54487
#
# Compressibility (1/GPa) = 0.04554046
#
# Stress axis : x y z
#
# Youngs Moduli (GPa) = 106.70607 48.80991 30.13942
#
# Poissons Ratio (x) = 0.11751 0.26142
# Poissons Ratio (y) = 0.25689 -0.07029
# Poissons Ratio (z) = 0.92554 -0.11384
#
# Static dielectric constant tensor:
#      x y z
#    x 3.217610 1.966910 0.522280 
#    y 1.966910 5.007700 0.806390 
#    z 0.522280 0.806390 2.118290 
# 
# From -- ./inp_files/39052.got.cif
#   From: 2010.05.17/outbox.cif.g08.bks.cpg/sg2_20_cif.got.tgz:39052.got - 2010.06.03 11:33:40.
