data_PCOD9040477
_publ_section_title
;
Structure prediction by ZEFSAII (Michael W. Deem and Ramdas Pophale) SiO2 
 PCOD9040477
Probable space group: P -1
;
_chemical_formula_sum "Si O2"
_cell_formula_units_Z 13
_cell_length_a 9.345033
_cell_length_b 8.347906
_cell_length_c 8.932214
_cell_angle_alpha 84.677636
_cell_angle_beta 121.877480
_cell_angle_gamma 91.781103
_cell_volume 589.037625
_symmetry_space_group_name_H-M "P -1"
_symmetry_group_IT_number 2
_symmetry_cell_setting 'triclinic'
loop_
_space_group_symop_operation_xyz
x,y,z
-x,-y,-z
loop_
_atom_site_type_symbol
_atom_site_label
_atom_site_fract_x
_atom_site_fract_y
_atom_site_fract_z
Si Si1 0.422802 0.841470 0.902290
Si Si2 0.029540 0.861910 0.404126
Si Si3 0.242320 0.309490 0.906694
Si Si4 0.098442 0.664569 0.733782
Si Si5 0.500000 0.500000 0.500000
Si Si6 0.157861 0.397517 0.168456
Si Si7 0.606223 0.141012 0.474203
O O1 0.242195 0.783090 0.861692
O O2 0.409949 0.863102 0.714836
O O3 0.562613 0.703912 0.025712
O O4 0.500000 0.000000 0.000000
O O5 0.069958 0.704402 0.541377
O O6 0.192468 0.886846 0.389702
O O7 0.863583 0.825015 0.223526
O O8 0.000000 0.000000 0.500000
O O9 0.168097 0.483746 0.806533
O O10 0.221248 0.290017 0.074679
O O11 0.927311 0.688156 0.729974
O O12 0.314432 0.495676 0.308638
O O13 0.542100 0.313828 0.483300
O O14 0.000000 0.500000 0.000000
O O15 0.500000 0.000000 0.500000
#
# Coordination Sequence:
#
# PCOD9040477 Si02
#       7
#     2   2   2   2   1   2   2
#     4  11  24  45  64 103 144 177 237 299 366 438
#     4  11  25  45  66 103 147 181 240 304 371 442
#     4  11  21  43  69  98 136 182 240 293 353 442
#     4  10  23  43  67 102 135 186 234 292 369 425
#     4  12  24  48  76 104 152 186 250 306 366 438
#     4  10  23  43  72 105 136 183 247 296 359 437
#     4  11  26  47  71 103 140 193 243 297 373 437
#
# _framework density 22.069896
#
# number of rings (size 3 to 8) (size 9 to 14) (size 15 to 20)
#    0.000    1.231    1.538    4.615    2.154    4.923 
#   11.077    2.308    0.000    0.000    0.000    0.000 
#    0.000    0.000    0.000    0.000    0.000    0.000 
#
# Total GULP energy -72392.281788 kJ/mol
# GULP energy per Si atom -5568.637061 kJ/mol
# Density = 2.201966 g / cm^3
# Si number density = 22.069896 Si / 1000 Ang^3
#
#
#
# Elastic Constant Matrix: (Units=GPa)
#
#
# Indices 1 2 3 4 5 6 
#
# 1 62.0756 25.5711 25.9792 2.8820 9.5851 7.6800
# 2 25.5711 100.4277 31.9642 29.1620 -11.8683 -8.4787
# 3 25.9792 31.9642 116.1002 38.7720 23.0013 16.3885
# 4 2.8820 29.1620 38.7720 43.8622 -0.7691 3.1253
# 5 9.5851 -11.8683 23.0013 -0.7691 35.6979 -1.9756
# 6 7.6800 -8.4787 16.3885 3.1253 -1.9756 31.4496
#
#
#
# Elastic Compliance Matrix: (Units=1/GPa)
#
#
# Indices 1 2 3 4 5 6 
#
# 1 0.022351 -0.008415 -0.002286 0.006559 -0.007609 -0.007665
# 2 -0.008415 0.018037 -0.003947 -0.008504 0.011199 0.010523
# 3 -0.002286 -0.003947 0.018744 -0.013334 -0.013606 -0.009803
# 4 0.006559 -0.008504 -0.013334 0.039936 0.004830 -0.000611
# 5 -0.007609 0.011199 -0.013606 0.004830 0.043437 0.014216
# 6 -0.007665 0.010523 -0.009803 -0.000611 0.014216 0.042568
#
#
# Mechanical properties :
#
#
# Convention : Reuss Voigt Hill
#
# Bulk Modulus (GPa) = 33.51555 49.51472 41.51513
# Shear Modulus (GPa) = 22.29024 35.20787 28.74905
#
# Velocity S-wave (km/s) = 3.18147 3.99844 3.61312
# Velocity P-wave (km/s) = 5.35861 6.61822 6.02144
#
# Compressibility (1/GPa) = 0.02983690
#
# Stress axis : x y z
#
# Youngs Moduli (GPa) = 44.74077 55.44014 53.35158
#
# Poissons Ratio (x) = 0.46651 0.12194
# Poissons Ratio (y) = 0.37648 0.21060
# Poissons Ratio (z) = 0.10226 0.21885
#
# Static dielectric constant tensor:
#      x y z
#    x 1.866940 -0.017850 0.023020 
#    y -0.017850 1.823830 -0.035220 
#    z 0.023020 -0.035220 1.817350 
# 
# From -- ./inp_files/158981.got.cif
#   From: 2010.05.17/outbox.cif.g08.bks.cpg/sg2_80_cif.got.tgz:158981.got - 2010.06.03 11:33:40.
