data_PCOD9040912
_publ_section_title
;
Structure prediction by ZEFSAII (Michael W. Deem and Ramdas Pophale) SiO2 
 PCOD9040912
Probable space group: P -1
;
_chemical_formula_sum "Si O2"
_cell_formula_units_Z 16
_cell_length_a 5.980358
_cell_length_b 9.010792
_cell_length_c 21.138277
_cell_angle_alpha 39.142172
_cell_angle_beta 71.494771
_cell_angle_gamma 74.570092
_cell_volume 681.494321
_symmetry_space_group_name_H-M "P -1"
_symmetry_group_IT_number 2
_symmetry_cell_setting 'triclinic'
loop_
_space_group_symop_operation_xyz
x,y,z
-x,-y,-z
loop_
_atom_site_type_symbol
_atom_site_label
_atom_site_fract_x
_atom_site_fract_y
_atom_site_fract_z
Si Si1 0.208942 0.372473 0.743578
Si Si2 0.962268 0.747700 0.559125
Si Si3 0.891793 0.055032 0.701037
Si Si4 0.652508 0.522574 0.572687
Si Si5 0.329883 0.690904 0.746066
Si Si6 0.646429 0.496901 0.055098
Si Si7 0.030683 0.093723 0.116859
Si Si8 0.595165 0.107138 0.599796
O O1 0.012297 0.547027 0.672091
O O2 0.430296 0.392989 0.667816
O O3 0.276724 0.492117 0.764810
O O4 0.097866 0.113640 0.840873
O O5 0.174349 0.760735 0.485494
O O6 0.724971 0.710401 0.556125
O O7 0.000000 0.000000 0.500000
O O8 0.870908 0.338740 0.607331
O O9 0.656662 0.013941 0.694822
O O10 0.099345 0.872417 0.718150
O O11 0.880043 0.012072 0.790210
O O12 0.599248 0.687436 0.462336
O O13 0.419091 0.581697 0.841223
O O14 0.523759 0.875501 0.645777
O O15 0.840670 0.297253 0.084717
O O16 0.500000 0.500000 0.000000
O O17 0.751191 0.753644 0.975682
#
# Coordination Sequence:
#
# PCOD9040912 Si02
#       8
#     2   2   2   2   2   2   2   2
#     4  11  24  42  65  99 135 175 220 269 327 399
#     4  11  22  40  61  92 140 185 216 268 326 387
#     4  11  23  41  66  94 129 177 220 274 322 390
#     4  11  24  39  63  98 133 182 223 266 325 386
#     4  11  25  43  68  98 132 172 221 273 333 390
#     4  10  23  45  73  98 127 168 216 282 338 396
#     4  10  23  43  69  97 129 172 220 269 340 397
#     4  11  23  37  62  97 135 172 231 272 315 382
#
# _framework density 23.477820999999999
#
# number of rings (size 3 to 8) (size 9 to 14) (size 15 to 20)
#    0.000    1.250    1.250    4.125    5.250    4.500 
#    0.000    0.625    0.000    0.000    0.000    0.000 
#    0.000    0.000    0.000    0.000    0.000    0.000 
#
# Total GULP energy -89077.319256 kJ/mol
# GULP energy per Si atom -5567.332454 kJ/mol
# Density = 2.342438 g / cm^3
# Si number density = 23.477821 Si / 1000 Ang^3
#
#
#
# Elastic Constant Matrix: (Units=GPa)
#
#
# Indices 1 2 3 4 5 6 
#
# 1 58.7162 25.3899 57.0297 -4.2110 5.6750 21.4861
# 2 25.3899 139.7394 58.3919 -16.7176 -12.0044 38.3751
# 3 57.0297 58.3919 131.6299 -15.1385 7.1977 27.1790
# 4 -4.2110 -16.7176 -15.1385 41.6436 18.1787 -5.7038
# 5 5.6750 -12.0044 7.1977 18.1787 48.6052 -11.0407
# 6 21.4861 38.3751 27.1790 -5.7038 -11.0407 45.5352
#
#
#
# Elastic Compliance Matrix: (Units=1/GPa)
#
#
# Indices 1 2 3 4 5 6 
#
# 1 0.032655 0.001838 -0.012670 -0.000370 -0.003692 -0.010337
# 2 0.001838 0.010688 -0.003896 0.001768 0.000716 -0.007154
# 3 -0.012670 -0.003896 0.015565 0.004280 -0.003464 -0.000332
# 4 -0.000370 0.001768 0.004280 0.031307 -0.012542 -0.002989
# 5 -0.003692 0.000716 -0.003464 -0.012542 0.028317 0.008501
# 6 -0.010337 -0.007154 -0.000332 -0.002989 0.008501 0.034753
#
#
# Mechanical properties :
#
#
# Convention : Reuss Voigt Hill
#
# Bulk Modulus (GPa) = 33.95326 67.96760 50.96043
# Shear Modulus (GPa) = 25.96629 39.77506 32.87068
#
# Velocity S-wave (km/s) = 3.32925 4.12048 3.74581
# Velocity P-wave (km/s) = 5.41034 7.18682 6.36090
#
# Compressibility (1/GPa) = 0.02945225
#
# Stress axis : x y z
#
# Youngs Moduli (GPa) = 30.62320 93.56353 64.24678
#
# Poissons Ratio (x) = -0.17200 0.81399
# Poissons Ratio (y) = -0.05629 0.25033
# Poissons Ratio (z) = 0.38799 0.36456
#
# Static dielectric constant tensor:
#      x y z
#    x 1.900440 -0.034440 -0.022550 
#    y -0.034440 2.006780 0.050780 
#    z -0.022550 0.050780 1.951000 
# 
# From -- ./inp_files/488174.got.cif
#   From: 2010.05.17/outbox.cif.g08.bks.cpg/sg2_245_cif.got.tgz:488174.got - 2010.06.03 11:33:40.
