data_PCOD9040186
_publ_section_title
;
Structure prediction by ZEFSAII (Michael W. Deem and Ramdas Pophale) SiO2 
 PCOD9040186
Probable space group: P -1
;
_chemical_formula_sum "Si O2"
_cell_formula_units_Z 16
_cell_length_a 8.799304
_cell_length_b 12.451984
_cell_length_c 13.284526
_cell_angle_alpha 139.791845
_cell_angle_beta 134.568343
_cell_angle_gamma 53.359992
_cell_volume 663.546661
_symmetry_space_group_name_H-M "P -1"
_symmetry_group_IT_number 2
_symmetry_cell_setting 'triclinic'
loop_
_space_group_symop_operation_xyz
x,y,z
-x,-y,-z
loop_
_atom_site_type_symbol
_atom_site_label
_atom_site_fract_x
_atom_site_fract_y
_atom_site_fract_z
Si Si1 0.272482 0.463562 0.909616
Si Si2 0.002147 0.257008 0.144847
Si Si3 0.731462 0.324035 0.743918
Si Si4 0.874926 0.840670 0.311929
Si Si5 0.951537 0.072645 0.808482
Si Si6 0.814952 0.281465 0.298444
Si Si7 0.619634 0.848866 0.010160
Si Si8 0.382181 0.410106 0.471054
O O1 0.228847 0.272537 0.736934
O O2 0.097640 0.585078 0.854901
O O3 0.500000 0.500000 0.000000
O O4 0.272104 0.523680 0.069571
O O5 0.259129 0.257687 0.267899
O O6 0.906770 0.274365 0.224247
O O7 0.921995 0.103515 0.935464
O O8 0.536653 0.348646 0.592130
O O9 0.942307 0.294975 0.751067
O O10 0.758857 0.155742 0.707507
O O11 0.679485 0.894335 0.183120
O O12 0.000000 0.000000 0.500000
O O13 0.143682 0.184767 0.951750
O O14 0.054692 0.880815 0.701511
O O15 0.810696 0.453121 0.478912
O O16 0.557651 0.274724 0.165295
O O17 0.500000 0.000000 0.000000
O O18 0.500000 0.500000 0.500000
#
# Coordination Sequence:
#
# PCOD9040186 Si02
#       8
#     2   2   2   2   2   2   2   2
#     4  11  23  43  68  95 132 179 220 263 332 406
#     4  11  23  39  65  96 126 166 216 272 327 386
#     4  10  23  43  64  93 132 175 219 268 331 400
#     4  11  23  40  64  97 131 168 219 278 324 378
#     4   9  21  41  65  91 123 166 217 266 320 390
#     4  11  22  41  66  94 127 170 218 268 323 393
#     4   9  19  36  60  86 119 162 209 257 313 376
#     4  12  25  41  62  92 128 168 214 270 329 389
#
# _framework density 24.112849000000001
#
# number of rings (size 3 to 8) (size 9 to 14) (size 15 to 20)
#    0.000    1.500    0.000    4.875    0.000   10.000 
#    0.000    3.750    0.000    0.000    0.000    0.000 
#    0.000    0.000    0.000    0.000    0.000    0.000 
#
# Total GULP energy -89324.693772 kJ/mol
# GULP energy per Si atom -5582.793361 kJ/mol
# Density = 2.405797 g / cm^3
# Si number density = 24.112849 Si / 1000 Ang^3
#
#
#
# Elastic Constant Matrix: (Units=GPa)
#
#
# Indices 1 2 3 4 5 6 
#
# 1 81.1009 14.2554 11.7347 7.2297 -7.4177 6.0528
# 2 14.2554 151.2852 56.7662 -20.3576 3.5955 -7.5486
# 3 11.7347 56.7662 104.3830 -17.1047 7.6988 -5.1543
# 4 7.2297 -20.3576 -17.1047 38.8283 -0.0877 4.9113
# 5 -7.4177 3.5955 7.6988 -0.0877 28.9566 -0.5719
# 6 6.0528 -7.5486 -5.1543 4.9113 -0.5719 26.8902
#
#
#
# Elastic Compliance Matrix: (Units=1/GPa)
#
#
# Indices 1 2 3 4 5 6 
#
# 1 0.013775 -0.001341 -0.001881 -0.003698 0.004123 -0.003074
# 2 -0.001341 0.008710 -0.004022 0.002861 -0.000318 0.001447
# 3 -0.001881 -0.004022 0.012899 0.003789 -0.003381 0.001003
# 4 -0.003698 0.002861 0.003789 0.030008 -0.002282 -0.003167
# 5 0.004123 -0.000318 -0.003381 -0.002282 0.036513 -0.000472
# 6 -0.003074 0.001447 0.001003 -0.003167 -0.000472 0.039047
#
#
# Mechanical properties :
#
#
# Convention : Reuss Voigt Hill
#
# Bulk Modulus (GPa) = 47.86004 55.80909 51.83456
# Shear Modulus (GPa) = 30.78708 35.86921 33.32814
#
# Velocity S-wave (km/s) = 3.57710 3.86107 3.72179
# Velocity P-wave (km/s) = 6.07884 6.56295 6.32553
#
# Compressibility (1/GPa) = 0.02089426
#
# Stress axis : x y z
#
# Youngs Moduli (GPa) = 72.59777 114.80417 77.52627
#
# Poissons Ratio (x) = 0.15397 0.14584
# Poissons Ratio (y) = 0.09737 0.31185
# Poissons Ratio (z) = 0.13657 0.46180
#
# Static dielectric constant tensor:
#      x y z
#    x 1.976640 0.040920 -0.003890 
#    y 0.040920 1.969940 0.063730 
#    z -0.003890 0.063730 2.075140 
# 
# From -- ./inp_files/393222.got.cif
#   From: 2010.05.17/outbox.cif.g08.bks.cpg/sg2_197_cif.got.tgz:393222.got - 2010.06.03 11:33:40.
