data_PCOD9040818
_publ_section_title
;
Structure prediction by ZEFSAII (Michael W. Deem and Ramdas Pophale) SiO2 
 PCOD9040818
Probable space group: P -1
;
_chemical_formula_sum "Si O2"
_cell_formula_units_Z 16
_cell_length_a 9.777818
_cell_length_b 15.104209
_cell_length_c 27.683424
_cell_angle_alpha 160.854297
_cell_angle_beta 37.400686
_cell_angle_gamma 132.536127
_cell_volume 755.486754
_symmetry_space_group_name_H-M "P -1"
_symmetry_group_IT_number 2
_symmetry_cell_setting 'triclinic'
loop_
_space_group_symop_operation_xyz
x,y,z
-x,-y,-z
loop_
_atom_site_type_symbol
_atom_site_label
_atom_site_fract_x
_atom_site_fract_y
_atom_site_fract_z
Si Si1 0.501499 0.154808 0.530112
Si Si2 0.964418 0.226270 0.844830
Si Si3 0.127062 0.922311 0.807381
Si Si4 0.646275 0.627547 0.060443
Si Si5 0.228732 0.095648 0.482764
Si Si6 0.588138 0.222104 0.145672
Si Si7 0.911252 0.790733 0.707314
Si Si8 0.226492 0.709814 0.771366
O O1 0.325128 0.104888 0.514367
O O2 0.426238 0.494447 0.733495
O O3 0.500000 0.000000 0.500000
O O4 0.774416 0.019830 0.364751
O O5 0.849723 0.072340 0.835586
O O6 0.815801 0.358466 0.906558
O O7 0.000000 0.500000 0.000000
O O8 0.199912 0.201668 0.920455
O O9 0.286752 0.747926 0.718259
O O10 0.110686 0.784085 0.688501
O O11 0.854318 0.996998 0.942638
O O12 0.448563 0.865276 0.272259
O O13 0.500000 0.500000 0.000000
O O14 0.170233 0.417108 0.642653
O O15 0.000000 0.000000 0.500000
O O16 0.346297 0.167251 0.174950
O O17 0.583218 0.302380 0.245823
O O18 0.000000 0.500000 0.500000
O O19 0.000000 0.000000 0.000000
#
# Coordination Sequence:
#
# PCOD9040818 Si02
#       8
#     2   2   2   2   2   2   2   2
#     4  11  23  42  71  99 138 186 228 281 347 411
#     4  12  24  48  68  98 144 184 226 291 348 402
#     4  11  24  46  69  99 143 179 236 282 346 417
#     4  12  29  44  72 105 140 187 235 291 353 417
#     4  11  26  45  68 105 145 177 239 292 343 418
#     4  10  23  43  69 101 136 183 225 282 345 412
#     4  12  25  43  71 102 140 177 232 284 347 413
#     4   9  23  44  70  95 138 184 224 283 350 405
#
# _framework density 21.178398000000001
#
# number of rings (size 3 to 8) (size 9 to 14) (size 15 to 20)
#    0.000    1.000    3.750    1.125   10.500    3.500 
#    0.000    0.000    0.000    0.000    0.000    0.000 
#    0.000    0.000    0.000    0.000    0.000    0.000 
#
# Total GULP energy -89382.766134 kJ/mol
# GULP energy per Si atom -5586.422883 kJ/mol
# Density = 2.113019 g / cm^3
# Si number density = 21.178398 Si / 1000 Ang^3
#
#
#
# Elastic Constant Matrix: (Units=GPa)
#
#
# Indices 1 2 3 4 5 6 
#
# 1 135.0426 70.2062 -7.7251 32.0702 -0.3936 -11.8034
# 2 70.2062 109.0274 4.6434 16.4179 2.8570 -6.9216
# 3 -7.7251 4.6434 42.5219 10.4760 -0.7755 -0.9048
# 4 32.0702 16.4179 10.4760 40.1663 0.9056 -11.1538
# 5 -0.3936 2.8570 -0.7755 0.9056 31.7231 4.0558
# 6 -11.8034 -6.9216 -0.9048 -11.1538 4.0558 43.1505
#
#
#
# Elastic Compliance Matrix: (Units=1/GPa)
#
#
# Indices 1 2 3 4 5 6 
#
# 1 0.014158 -0.007950 0.005824 -0.009568 0.001291 0.000125
# 2 -0.007950 0.014275 -0.003416 0.001609 -0.001592 0.000609
# 3 0.005824 -0.003416 0.027624 -0.010862 0.001535 -0.001328
# 4 -0.009568 0.001609 -0.010862 0.036753 -0.002492 0.007147
# 5 0.001291 -0.001592 0.001535 -0.002492 0.032244 -0.003545
# 6 0.000125 0.000609 -0.001328 0.007147 -0.003545 0.025459
#
#
# Mechanical properties :
#
#
# Convention : Reuss Voigt Hill
#
# Bulk Modulus (GPa) = 22.23515 46.76009 34.49762
# Shear Modulus (GPa) = 28.31449 37.63913 32.97681
#
# Velocity S-wave (km/s) = 3.66040 4.22031 3.95029
# Velocity P-wave (km/s) = 5.32790 6.77311 6.09350
#
# Compressibility (1/GPa) = 0.04497384
#
# Stress axis : x y z
#
# Youngs Moduli (GPa) = 70.62985 70.05303 36.20031
#
# Poissons Ratio (x) = 0.55693 -0.21083
# Poissons Ratio (y) = 0.56151 0.12364
# Poissons Ratio (z) = -0.41134 0.23927
#
# Static dielectric constant tensor:
#      x y z
#    x 1.811490 0.012710 -0.002870 
#    y 0.012710 1.648720 -0.010340 
#    z -0.002870 -0.010340 1.768530 
# 
# From -- ./inp_files/243708.got.cif
#   From: 2010.05.17/outbox.cif.g08.bks.cpg/sg2_122_cif.got.tgz:243708.got - 2010.06.03 11:33:40.
