data_PCOD9040369
_publ_section_title
;
Structure prediction by ZEFSAII (Michael W. Deem and Ramdas Pophale) SiO2 
 PCOD9040369
Probable space group: P -1
;
_chemical_formula_sum "Si O2"
_cell_formula_units_Z 16
_cell_length_a 14.641432
_cell_length_b 5.331598
_cell_length_c 14.001819
_cell_angle_alpha 127.227252
_cell_angle_beta 124.573543
_cell_angle_gamma 84.096576
_cell_volume 666.672697
_symmetry_space_group_name_H-M "P -1"
_symmetry_group_IT_number 2
_symmetry_cell_setting 'triclinic'
loop_
_space_group_symop_operation_xyz
x,y,z
-x,-y,-z
loop_
_atom_site_type_symbol
_atom_site_label
_atom_site_fract_x
_atom_site_fract_y
_atom_site_fract_z
Si Si1 0.554098 0.482736 0.159441
Si Si2 0.937515 0.632555 0.219360
Si Si3 0.661000 0.381238 0.018467
Si Si4 0.719505 0.363017 0.723874
Si Si5 0.132517 0.910227 0.108676
Si Si6 0.525622 0.646828 0.708298
Si Si7 0.064715 0.253361 0.319146
Si Si8 0.680652 0.235087 0.460866
O O1 0.617820 0.311726 0.086380
O O2 0.543982 0.388646 0.241585
O O3 0.629620 0.884523 0.294079
O O4 0.422304 0.433954 0.032456
O O5 0.800397 0.585521 0.141146
O O6 0.986985 0.479766 0.301016
O O7 0.935782 0.392330 0.072418
O O8 0.018912 0.012277 0.326848
O O9 0.623882 0.026237 0.858900
O O10 0.774602 0.203313 0.801079
O O11 0.593851 0.388590 0.684183
O O12 0.709435 0.174393 0.573312
O O13 0.803914 0.747518 0.835366
O O14 0.055664 0.008350 0.166061
O O15 0.425536 0.617990 0.564284
O O16 0.202017 0.501891 0.456915
#
# Coordination Sequence:
#
# PCOD9040369 Si02
#       8
#     2   2   2   2   2   2   2   2
#     4  10  23  43  71  90 134 168 217 279 329 392
#     4  12  23  42  69  95 133 172 223 275 316 386
#     4  10  23  43  66 104 120 167 227 276 336 369
#     4  11  23  38  68 101 137 165 214 271 328 400
#     4  11  22  41  64  99 134 173 215 269 328 387
#     4  11  22  40  69  95 132 170 215 276 328 394
#     4  11  25  41  65  94 137 180 216 260 324 396
#     4  10  25  42  60  98 132 180 214 257 330 399
#
# _framework density 23.999783000000001
#
# number of rings (size 3 to 8) (size 9 to 14) (size 15 to 20)
#    0.000    1.250    1.250    4.500    8.750    0.500 
#    0.000    1.250    0.000    0.000    0.000    0.000 
#    0.000    0.000    0.000    0.000    0.000    0.000 
#
# Total GULP energy -89618.540718 kJ/mol
# GULP energy per Si atom -5601.158795 kJ/mol
# Density = 2.394516 g / cm^3
# Si number density = 23.999783 Si / 1000 Ang^3
#
#
#
# Elastic Constant Matrix: (Units=GPa)
#
#
# Indices 1 2 3 4 5 6 
#
# 1 81.8752 35.7271 18.0004 7.9952 22.8977 1.0125
# 2 35.7271 127.0927 42.6173 -6.7698 8.3424 -2.3944
# 3 18.0004 42.6173 67.0704 3.7426 22.3398 -8.8912
# 4 7.9952 -6.7698 3.7426 29.4354 1.2439 4.0972
# 5 22.8977 8.3424 22.3398 1.2439 19.6474 -9.2141
# 6 1.0125 -2.3944 -8.8912 4.0972 -9.2141 29.0864
#
#
#
# Elastic Compliance Matrix: (Units=1/GPa)
#
#
# Indices 1 2 3 4 5 6 
#
# 1 0.028712 -0.010302 0.014655 -0.008150 -0.051045 -0.012390
# 2 -0.010302 0.014310 -0.013861 0.006364 0.023021 0.003696
# 3 0.014655 -0.013861 0.038593 -0.008668 -0.057780 -0.006937
# 4 -0.008150 0.006364 -0.008668 0.038673 0.012666 -0.003277
# 5 -0.051045 0.023021 -0.057780 0.012666 0.185699 0.043052
# 6 -0.012390 0.003696 -0.006937 -0.003277 0.043052 0.047095
#
#
# Mechanical properties :
#
#
# Convention : Reuss Voigt Hill
#
# Bulk Modulus (GPa) = 15.97471 52.08087 34.02779
# Shear Modulus (GPa) = 12.72378 27.61339 20.16859
#
# Velocity S-wave (km/s) = 2.30502 3.39568 2.90205
# Velocity P-wave (km/s) = 3.70875 6.09277 5.04364
#
# Compressibility (1/GPa) = 0.06259895
#
# Stress axis : x y z
#
# Youngs Moduli (GPa) = 34.82858 69.88267 25.91121
#
# Poissons Ratio (x) = 0.71995 -0.37972
# Poissons Ratio (y) = 0.35881 0.35915
# Poissons Ratio (z) = -0.51041 0.96862
#
# Static dielectric constant tensor:
#      x y z
#    x 1.903240 0.009610 0.004570 
#    y 0.009610 1.928340 0.019160 
#    z 0.004570 0.019160 1.908140 
# 
# From -- ./inp_files/100811.got.cif
#   From: 2010.05.17/outbox.cif.g08.bks.cpg/sg2_51_cif.got.tgz:100811.got - 2010.06.03 11:33:40.
