data_PCOD9040318
_publ_section_title
;
Structure prediction by ZEFSAII (Michael W. Deem and Ramdas Pophale) SiO2 
 PCOD9040318
Probable space group: P -1
;
_chemical_formula_sum "Si O2"
_cell_formula_units_Z 16
_cell_length_a 5.445586
_cell_length_b 20.708963
_cell_length_c 9.999483
_cell_angle_alpha 60.277930
_cell_angle_beta 43.410300
_cell_angle_gamma 62.598891
_cell_volume 663.476446
_symmetry_space_group_name_H-M "P -1"
_symmetry_group_IT_number 2
_symmetry_cell_setting 'triclinic'
loop_
_space_group_symop_operation_xyz
x,y,z
-x,-y,-z
loop_
_atom_site_type_symbol
_atom_site_label
_atom_site_fract_x
_atom_site_fract_y
_atom_site_fract_z
Si Si1 0.117102 0.607588 0.760873
Si Si2 0.226700 0.082809 0.204617
Si Si3 0.898944 0.641754 0.340266
Si Si4 0.205137 0.002912 0.730296
Si Si5 0.930668 0.713138 0.510399
Si Si6 0.915277 0.460037 0.879086
Si Si7 0.471547 0.137710 0.585842
Si Si8 0.378330 0.206050 0.829355
O O1 0.499893 0.633033 0.558248
O O2 0.846740 0.669317 0.720831
O O3 0.130641 0.526078 0.770451
O O4 0.030976 0.599431 0.958749
O O5 0.584251 0.044943 0.181878
O O6 0.113366 0.031584 0.180074
O O7 0.873988 0.097482 0.426553
O O8 0.280818 0.163224 0.042034
O O9 0.081451 0.650680 0.401873
O O10 0.904449 0.720709 0.180692
O O11 0.012593 0.576195 0.257178
O O12 0.500000 0.000000 0.500000
O O13 0.174712 0.089250 0.699580
O O14 0.601120 0.776835 0.529192
O O15 0.253181 0.760420 0.347240
O O16 0.500000 0.500000 0.000000
O O17 0.420832 0.146336 0.753935
#
# Coordination Sequence:
#
# PCOD9040318 Si02
#       8
#     2   2   2   2   2   2   2   2
#     4  10  23  43  65  98 127 175 214 272 339 400
#     4  11  25  43  69  99 135 181 229 287 344 405
#     4  10  23  45  61  93 137 171 217 274 339 397
#     4  10  23  43  68 100 134 178 230 285 348 404
#     4  10  23  43  68  92 136 176 223 276 339 401
#     4  11  24  41  69  99 129 167 226 268 335 404
#     4  10  23  43  67  92 133 174 222 278 341 405
#     4  10  25  41  64  97 128 178 223 274 337 404
#
# _framework density 24.115402
#
# number of rings (size 3 to 8) (size 9 to 14) (size 15 to 20)
#    0.000    1.750    0.000    2.625    8.750   11.000 
#    0.000    1.250    0.000    0.000    0.000    0.000 
#    0.000    0.000    0.000    0.000    0.000    0.000 
#
# Total GULP energy -89464.470430 kJ/mol
# GULP energy per Si atom -5591.529402 kJ/mol
# Density = 2.406051 g / cm^3
# Si number density = 24.115402 Si / 1000 Ang^3
#
#
#
# Elastic Constant Matrix: (Units=GPa)
#
#
# Indices 1 2 3 4 5 6 
#
# 1 70.6040 12.3116 9.5607 -1.2316 19.8681 13.0908
# 2 12.3116 38.7748 8.3125 1.9749 -9.4097 24.0542
# 3 9.5607 8.3125 70.4992 -30.1035 6.6464 -7.4119
# 4 -1.2316 1.9749 -30.1035 40.7391 -6.7686 7.9380
# 5 19.8681 -9.4097 6.6464 -6.7686 24.1534 -5.3385
# 6 13.0908 24.0542 -7.4119 7.9380 -5.3385 44.7497
#
#
#
# Elastic Compliance Matrix: (Units=1/GPa)
#
#
# Indices 1 2 3 4 5 6 
#
# 1 0.024087 -0.011011 -0.001342 -0.003219 -0.025480 -0.003819
# 2 -0.011011 0.052489 -0.010313 -0.001520 0.026782 -0.023236
# 3 -0.001342 -0.010313 0.023381 0.015882 -0.003442 0.006581
# 4 -0.003219 -0.001520 0.015882 0.037853 0.007990 -0.001372
# 5 -0.025480 0.026782 -0.003442 0.007990 0.076012 0.000138
# 6 -0.003819 -0.023236 0.006581 -0.001372 0.000138 0.037304
#
#
# Mechanical properties :
#
#
# Convention : Reuss Voigt Hill
#
# Bulk Modulus (GPa) = 18.30672 26.69419 22.50045
# Shear Modulus (GPa) = 15.88986 31.90798 23.89892
#
# Velocity S-wave (km/s) = 2.56971 3.64144 3.15147
# Velocity P-wave (km/s) = 4.05121 5.36409 4.75320
#
# Compressibility (1/GPa) = 0.05462474
#
# Stress axis : x y z
#
# Youngs Moduli (GPa) = 41.51551 19.05173 42.77056
#
# Poissons Ratio (x) = 0.20978 0.05741
# Poissons Ratio (y) = 0.45712 0.44108
# Poissons Ratio (z) = 0.05572 0.19648
#
# Static dielectric constant tensor:
#      x y z
#    x 2.052760 -0.024910 0.013480 
#    y -0.024910 1.946750 0.001540 
#    z 0.013480 0.001540 1.876880 
# 
# From -- ./inp_files/141219.got.cif
#   From: 2010.05.17/outbox.cif.g08.bks.cpg/sg2_71_cif.got.tgz:141219.got - 2010.06.03 11:33:40.
