data_PCOD9040549
_publ_section_title
;
Structure prediction by ZEFSAII (Michael W. Deem and Ramdas Pophale) SiO2 
 PCOD9040549
Probable space group: P -1
;
_chemical_formula_sum "Si O2"
_cell_formula_units_Z 16
_cell_length_a 20.498122
_cell_length_b 8.970107
_cell_length_c 14.360821
_cell_angle_alpha 49.107643
_cell_angle_beta 162.286711
_cell_angle_gamma 127.913969
_cell_volume 606.838154
_symmetry_space_group_name_H-M "P -1"
_symmetry_group_IT_number 2
_symmetry_cell_setting 'triclinic'
loop_
_space_group_symop_operation_xyz
x,y,z
-x,-y,-z
loop_
_atom_site_type_symbol
_atom_site_label
_atom_site_fract_x
_atom_site_fract_y
_atom_site_fract_z
Si Si1 0.359429 0.849142 0.812968
Si Si2 0.340833 0.250160 0.035505
Si Si3 0.254627 0.015290 0.321320
Si Si4 0.206784 0.218809 0.349012
Si Si5 0.393831 0.570694 0.124447
Si Si6 0.784159 0.225296 0.032490
Si Si7 0.784363 0.112225 0.883636
Si Si8 0.245965 0.210813 0.736093
O O1 0.221655 0.990630 0.500688
O O2 0.262571 0.713594 0.814469
O O3 0.540519 0.729437 0.050089
O O4 0.500000 0.000000 0.000000
O O5 0.567708 0.156677 0.341750
O O6 0.399372 0.371737 0.155935
O O7 0.186468 0.081654 0.931488
O O8 0.225111 0.337739 0.750577
O O9 0.293872 0.000501 0.269929
O O10 0.288226 0.197575 0.362538
O O11 0.000000 0.000000 0.000000
O O12 0.369011 0.347687 0.573206
O O13 0.957615 0.255988 0.015651
O O14 0.289055 0.597859 0.071118
O O15 0.043837 0.225559 0.386648
O O16 0.734990 0.020607 0.106846
O O17 0.695467 0.240729 0.799776
#
# Coordination Sequence:
#
# PCOD9040549 Si02
#       8
#     2   2   2   2   2   2   2   2
#     4  10  17  33  56  83 115 163 194 230 288 361
#     4  11  23  40  57  97 125 149 197 261 307 342
#     4  10  21  43  69  87 111 160 211 251 291 364
#     4  10  19  40  63  88 114 164 214 233 290 369
#     4  11  23  35  60  91 132 155 193 252 303 353
#     4  10  19  35  56  88 120 163 203 232 293 361
#     4  10  22  39  66  85 116 162 210 246 289 365
#     4  10  19  34  58  82 123 162 201 240 283 370
#
# _framework density 26.366174000000001
#
# number of rings (size 3 to 8) (size 9 to 14) (size 15 to 20)
#    0.000    1.750    3.750    2.625    3.500    1.000 
#    0.000    8.750    0.000    0.000    0.000    0.000 
#    0.000    0.000    0.000    0.000    0.000    0.000 
#
# Total GULP energy -89093.399598 kJ/mol
# GULP energy per Si atom -5568.337475 kJ/mol
# Density = 2.630616 g / cm^3
# Si number density = 26.366174 Si / 1000 Ang^3
#
#
#
# Elastic Constant Matrix: (Units=GPa)
#
#
# Indices 1 2 3 4 5 6 
#
# 1 195.2924 36.2649 28.5995 4.4560 -3.6386 -44.4412
# 2 36.2649 75.6301 21.6731 9.1676 5.5613 -26.4553
# 3 28.5995 21.6731 68.5896 9.1261 4.5589 -3.4485
# 4 4.4560 9.1676 9.1261 24.8932 -8.0970 -11.0986
# 5 -3.6386 5.5613 4.5589 -8.0970 42.8003 5.0924
# 6 -44.4412 -26.4553 -3.4485 -11.0986 5.0924 41.8626
#
#
#
# Elastic Compliance Matrix: (Units=1/GPa)
#
#
# Indices 1 2 3 4 5 6 
#
# 1 0.007489 -0.000238 -0.003195 0.003947 0.000744 0.008493
# 2 -0.000238 0.019241 -0.004998 -0.001203 -0.003598 0.011614
# 3 -0.003195 -0.004998 0.018382 -0.008160 -0.002301 -0.006919
# 4 0.003947 -0.001203 -0.008160 0.052971 0.009521 0.015643
# 5 0.000744 -0.003598 -0.002301 0.009521 0.026219 -0.002338
# 6 0.008493 0.011614 -0.006919 0.015643 -0.002338 0.044105
#
#
# Mechanical properties :
#
#
# Convention : Reuss Voigt Hill
#
# Bulk Modulus (GPa) = 35.39699 56.95411 46.17555
# Shear Modulus (GPa) = 25.68247 38.77621 32.22934
#
# Velocity S-wave (km/s) = 3.12439 3.83910 3.50004
# Velocity P-wave (km/s) = 5.14491 6.42649 5.82107
#
# Compressibility (1/GPa) = 0.02825099
#
# Stress axis : x y z
#
# Youngs Moduli (GPa) = 133.52887 51.97102 54.40225
#
# Poissons Ratio (x) = 0.01236 0.17382
# Poissons Ratio (y) = 0.03175 0.27188
# Poissons Ratio (z) = 0.42664 0.25973
#
# Static dielectric constant tensor:
#      x y z
#    x 2.132850 -0.032160 0.015040 
#    y -0.032160 2.179460 -0.049820 
#    z 0.015040 -0.049820 2.251030 
# 
# From -- ./inp_files/351854.got.cif
#   From: 2010.05.17/outbox.cif.g08.bks.cpg/sg2_176_cif.got.tgz:351854.got - 2010.06.03 11:33:40.
