data_PCOD9040440
_publ_section_title
;
Structure prediction by ZEFSAII (Michael W. Deem and Ramdas Pophale) SiO2 
 PCOD9040440
Probable space group: P -1
;
_chemical_formula_sum "Si O2"
_cell_formula_units_Z 12
_cell_length_a 5.204519
_cell_length_b 20.853054
_cell_length_c 5.785972
_cell_angle_alpha 122.446811
_cell_angle_beta 79.172136
_cell_angle_gamma 116.575644
_cell_volume 472.799783
_symmetry_space_group_name_H-M "P -1"
_symmetry_group_IT_number 2
_symmetry_cell_setting 'triclinic'
loop_
_space_group_symop_operation_xyz
x,y,z
-x,-y,-z
loop_
_atom_site_type_symbol
_atom_site_label
_atom_site_fract_x
_atom_site_fract_y
_atom_site_fract_z
Si Si1 0.215314 0.687970 0.561349
Si Si2 0.605530 0.136247 0.137447
Si Si3 0.377705 0.221915 0.673172
Si Si4 0.948564 0.917201 0.209039
Si Si5 0.728075 0.547211 0.249367
Si Si6 0.647361 0.394038 0.234777
O O1 0.184424 0.770154 0.803634
O O2 0.547836 0.728084 0.490076
O O3 0.150304 0.621722 0.644922
O O4 0.997751 0.632722 0.295130
O O5 0.544428 0.162772 0.456872
O O6 0.319574 0.104851 0.966018
O O7 0.776788 0.079153 0.974980
O O8 0.112745 0.153285 0.717995
O O9 0.492002 0.302378 0.973026
O O10 0.000000 0.000000 0.500000
O O11 0.796221 0.471999 0.192652
O O12 0.568867 0.580765 0.529746
O O13 0.500000 0.500000 0.000000
#
# Coordination Sequence:
#
# PCOD9040440 Si02
#       6
#     2   2   2   2   2   2
#     4  10  23  43  66  99 143 191 251 291 367 435
#     4  10  26  46  74 108 146 190 247 299 368 447
#     4  10  23  43  73 101 143 198 238 309 363 440
#     4  12  25  49  76 112 148 189 241 305 374 446
#     4  11  25  40  66 102 147 191 249 310 363 426
#     4  11  22  43  65  98 140 193 247 298 369 425
#
# _framework density 25.380721999999999
#
# number of rings (size 3 to 8) (size 9 to 14) (size 15 to 20)
#    1.000    0.333    1.667    3.000    0.000    8.000 
#    9.000    0.000    0.000    0.000    0.000    0.000 
#    0.000    0.000    0.000    0.000    0.000    0.000 
#
# Total GULP energy -66836.590698 kJ/mol
# GULP energy per Si atom -5569.715891 kJ/mol
# Density = 2.532295 g / cm^3
# Si number density = 25.380722 Si / 1000 Ang^3
#
#
#
# Elastic Constant Matrix: (Units=GPa)
#
#
# Indices 1 2 3 4 5 6 
#
# 1 89.4381 4.8938 64.8478 13.0329 -17.3206 1.3380
# 2 4.8938 76.5097 33.6816 8.2704 7.7388 18.8703
# 3 64.8478 33.6816 199.7982 52.1160 -27.8910 2.1521
# 4 13.0329 8.2704 52.1160 42.6004 4.2133 2.1716
# 5 -17.3206 7.7388 -27.8910 4.2133 51.3463 -0.3901
# 6 1.3380 18.8703 2.1521 2.1716 -0.3901 19.1095
#
#
#
# Elastic Compliance Matrix: (Units=1/GPa)
#
#
# Indices 1 2 3 4 5 6 
#
# 1 0.015083 0.001508 -0.005232 0.001414 0.001887 -0.002078
# 2 0.001508 0.020737 -0.005722 0.004175 -0.006224 -0.020540
# 3 -0.005232 -0.005722 0.011857 -0.012770 0.006634 0.006268
# 4 0.001414 0.004175 -0.012770 0.039259 -0.010367 -0.007457
# 5 0.001887 -0.006224 0.006634 -0.010367 0.025557 0.006966
# 6 -0.002078 -0.020540 0.006268 -0.007457 0.006966 0.073042
#
#
# Mechanical properties :
#
#
# Convention : Reuss Voigt Hill
#
# Bulk Modulus (GPa) = 34.74204 63.62136 49.18170
# Shear Modulus (GPa) = 23.36206 40.09943 31.73075
#
# Velocity S-wave (km/s) = 3.03721 3.97913 3.53964
# Velocity P-wave (km/s) = 5.10074 6.79945 6.01041
#
# Compressibility (1/GPa) = 0.02878357
#
# Stress axis : x y z
#
# Youngs Moduli (GPa) = 66.30107 48.22355 84.33590
#
# Poissons Ratio (x) = -0.07270 0.44128
# Poissons Ratio (y) = -0.09995 0.48254
# Poissons Ratio (z) = 0.34692 0.27592
#
# Static dielectric constant tensor:
#      x y z
#    x 2.087100 0.000050 0.001530 
#    y 0.000050 2.095110 -0.082360 
#    z 0.001530 -0.082360 2.141310 
# 
# From -- ./inp_files/8643.got.cif
#   From: 2010.05.17/outbox.cif.g08.bks.cpg/sg2_5_cif.got.tgz:8643.got - 2010.06.03 11:33:40.
