data_PCOD9040454
_publ_section_title
;
Structure prediction by ZEFSAII (Michael W. Deem and Ramdas Pophale) SiO2 
 PCOD9040454
Probable space group: P -1
;
_chemical_formula_sum "Si O2"
_cell_formula_units_Z 16
_cell_length_a 14.806713
_cell_length_b 13.804711
_cell_length_c 8.370580
_cell_angle_alpha 32.673101
_cell_angle_beta 120.888221
_cell_angle_gamma 126.100885
_cell_volume 745.703833
_symmetry_space_group_name_H-M "P -1"
_symmetry_group_IT_number 2
_symmetry_cell_setting 'triclinic'
loop_
_space_group_symop_operation_xyz
x,y,z
-x,-y,-z
loop_
_atom_site_type_symbol
_atom_site_label
_atom_site_fract_x
_atom_site_fract_y
_atom_site_fract_z
Si Si1 0.594288 0.698819 0.860721
Si Si2 0.748292 0.633217 0.862493
Si Si3 0.590850 0.052136 0.149096
Si Si4 0.964400 0.629092 0.656999
Si Si5 0.529723 0.370554 0.842321
Si Si6 0.109440 0.593993 0.580773
Si Si7 0.195397 0.734175 0.165727
Si Si8 0.099642 0.061024 0.631205
O O1 0.711974 0.683761 0.932794
O O2 0.584447 0.871245 0.504006
O O3 0.500000 0.500000 0.000000
O O4 0.571596 0.712777 0.007718
O O5 0.639540 0.489637 0.877443
O O6 0.789361 0.812943 0.534712
O O7 0.851709 0.558201 0.075802
O O8 0.561751 0.204147 0.020551
O O9 0.706914 0.151426 0.022955
O O10 0.500000 0.000000 0.000000
O O11 0.866648 0.467368 0.697694
O O12 0.928198 0.799747 0.458686
O O13 0.068090 0.709908 0.515445
O O14 0.000000 0.500000 0.000000
O O15 0.500000 0.500000 0.500000
O O16 0.216402 0.687650 0.432635
O O17 0.000000 0.500000 0.500000
O O18 0.119869 0.864791 0.959091
O O19 0.000000 0.000000 0.500000
#
# Coordination Sequence:
#
# PCOD9040454 Si02
#       8
#     2   2   2   2   2   2   2   2
#     4  10  23  44  68  97 131 177 225 283 348 410
#     4  11  22  44  72  94 139 183 220 278 350 402
#     4  12  25  44  67  99 140 178 229 289 342 414
#     4  11  21  42  68  95 137 179 225 280 338 402
#     4  11  26  44  71 103 134 175 234 289 346 416
#     4  10  23  43  67 100 137 181 225 277 339 409
#     4  11  25  42  67 100 136 177 228 279 345 405
#     4  12  22  40  70  98 133 179 230 279 333 409
#
# _framework density 21.456237999999999
#
# number of rings (size 3 to 8) (size 9 to 14) (size 15 to 20)
#    0.000    1.000    3.750    3.375    5.250    0.500 
#    0.000    0.000    0.000    0.000    0.000    0.000 
#    0.000    0.000    0.000    0.000    0.000    0.000 
#
# Total GULP energy -89233.682962 kJ/mol
# GULP energy per Si atom -5577.105185 kJ/mol
# Density = 2.140740 g / cm^3
# Si number density = 21.456238 Si / 1000 Ang^3
#
#
#
# Elastic Constant Matrix: (Units=GPa)
#
#
# Indices 1 2 3 4 5 6 
#
# 1 160.6379 52.0448 45.2215 -16.2707 -10.2706 -48.0695
# 2 52.0448 81.1436 30.7393 -14.8776 2.1002 -20.4275
# 3 45.2215 30.7393 107.4881 -14.2852 -2.0541 -19.0866
# 4 -16.2707 -14.8776 -14.2852 36.1782 -6.4744 6.1556
# 5 -10.2706 2.1002 -2.0541 -6.4744 46.1094 2.3040
# 6 -48.0695 -20.4275 -19.0866 6.1556 2.3040 35.6565
#
#
#
# Elastic Compliance Matrix: (Units=1/GPa)
#
#
# Indices 1 2 3 4 5 6 
#
# 1 0.011974 -0.003675 -0.001458 0.001533 0.002343 0.012840
# 2 -0.003675 0.017028 -0.002326 0.003682 -0.001331 0.003007
# 3 -0.001458 -0.002326 0.011341 0.002571 0.000533 0.002294
# 4 0.001533 0.003682 0.002571 0.031751 0.004758 -0.000237
# 5 0.002343 -0.001331 0.000533 0.004758 0.022943 0.000377
# 6 0.012840 0.003007 0.002294 -0.000237 0.000377 0.048323
#
#
# Mechanical properties :
#
#
# Convention : Reuss Voigt Hill
#
# Bulk Modulus (GPa) = 39.33003 67.25343 53.29173
# Shear Modulus (GPa) = 29.98446 38.33974 34.16210
#
# Velocity S-wave (km/s) = 3.74233 4.23174 3.99454
# Velocity P-wave (km/s) = 6.08634 7.43568 6.79459
#
# Compressibility (1/GPa) = 0.02542586
#
# Stress axis : x y z
#
# Youngs Moduli (GPa) = 83.51767 58.72578 88.17387
#
# Poissons Ratio (x) = 0.21579 0.12856
# Poissons Ratio (y) = 0.30689 0.20509
# Poissons Ratio (z) = 0.12177 0.13660
#
# Static dielectric constant tensor:
#      x y z
#    x 1.867820 0.009660 -0.003380 
#    y 0.009660 1.672620 -0.083100 
#    z -0.003380 -0.083100 1.800200 
# 
# From -- ./inp_files/314405.got.cif
#   From: 2010.05.17/outbox.cif.g08.bks.cpg/sg2_158_cif.got.tgz:314405.got - 2010.06.03 11:33:40.
