data_PCOD9040166
_publ_section_title
;
Structure prediction by ZEFSAII (Michael W. Deem and Ramdas Pophale) SiO2 
 PCOD9040166
Probable space group: P -1
;
_chemical_formula_sum "Si O2"
_cell_formula_units_Z 16
_cell_length_a 20.515680
_cell_length_b 21.812645
_cell_length_c 9.982440
_cell_angle_alpha 37.488929
_cell_angle_beta 132.292093
_cell_angle_gamma 160.182652
_cell_volume 861.134814
_symmetry_space_group_name_H-M "P -1"
_symmetry_group_IT_number 2
_symmetry_cell_setting 'triclinic'
loop_
_space_group_symop_operation_xyz
x,y,z
-x,-y,-z
loop_
_atom_site_type_symbol
_atom_site_label
_atom_site_fract_x
_atom_site_fract_y
_atom_site_fract_z
Si Si1 0.853774 0.864456 0.904905
Si Si2 0.516051 0.356841 0.227136
Si Si3 0.644953 0.391462 0.069832
Si Si4 0.928757 0.499082 0.020929
Si Si5 0.274736 0.005970 0.731578
Si Si6 0.182150 0.649211 0.585899
Si Si7 0.482979 0.116268 0.078989
Si Si8 0.014244 0.108362 0.431182
O O1 0.674672 0.763275 0.852728
O O2 0.996618 0.048950 0.660301
O O3 0.720447 0.629651 0.080441
O O4 0.000000 0.000000 0.000000
O O5 0.554280 0.337528 0.176115
O O6 0.446891 0.213396 0.501582
O O7 0.782052 0.433763 0.217675
O O8 0.486787 0.192533 0.081655
O O9 0.784206 0.620826 0.797169
O O10 0.874280 0.382544 0.284094
O O11 0.717394 0.338573 0.973896
O O12 0.000000 0.500000 0.000000
O O13 0.103311 0.760461 0.847080
O O14 0.171893 0.003744 0.643087
O O15 0.359691 0.033671 0.927935
O O16 0.000000 0.500000 0.500000
O O17 0.383544 0.910801 0.352457
O O18 0.000000 0.000000 0.500000
#
# Coordination Sequence:
#
# PCOD9040166 Si02
#       8
#     2   2   2   2   2   2   2   2
#     4  10  23  43  64  87 126 166 206 256 316 366
#     4  10  24  41  61  93 127 161 206 261 307 372
#     4  11  22  41  64  94 124 164 211 258 311 371
#     4  11  24  40  63  93 128 167 210 259 314 372
#     4  11  24  42  63  94 131 164 210 259 314 376
#     4  11  22  44  65  92 128 166 209 263 313 373
#     4  11  24  43  67  91 128 168 211 260 315 374
#     4  11  21  42  67  90 128 165 209 264 307 372
#
# _framework density 18.580134999999999
#
# number of rings (size 3 to 8) (size 9 to 14) (size 15 to 20)
#    0.000    1.250    5.000    1.500    5.250    2.500 
#    2.250    1.250    0.000    0.000    0.000    0.000 
#    0.000    0.000    0.000    0.000    0.000    0.000 
#
# Total GULP energy -89325.953374 kJ/mol
# GULP energy per Si atom -5582.872086 kJ/mol
# Density = 1.853785 g / cm^3
# Si number density = 18.580135 Si / 1000 Ang^3
#
#
#
# Elastic Constant Matrix: (Units=GPa)
#
#
# Indices 1 2 3 4 5 6 
#
# 1 146.5607 42.9914 45.5516 6.6213 -12.3476 -23.3046
# 2 42.9914 96.9725 43.5672 8.7826 7.9624 -12.6302
# 3 45.5516 43.5672 132.1613 -0.6728 -1.3483 -7.4970
# 4 6.6213 8.7826 -0.6728 34.6245 -5.9370 0.4485
# 5 -12.3476 7.9624 -1.3483 -5.9370 26.9937 -5.4605
# 6 -23.3046 -12.6302 -7.4970 0.4485 -5.4605 12.4917
#
#
#
# Elastic Compliance Matrix: (Units=1/GPa)
#
#
# Indices 1 2 3 4 5 6 
#
# 1 0.013523 -0.002506 -0.002197 -0.000254 0.012160 0.026701
# 2 -0.002506 0.014682 -0.003731 -0.004328 -0.005462 0.005698
# 3 -0.002197 -0.003731 0.009452 0.001666 0.000523 -0.002030
# 4 -0.000254 -0.004328 0.001666 0.031425 0.007842 -0.001550
# 5 0.012160 -0.005462 0.000523 0.007842 0.054246 0.040908
# 6 0.026701 0.005698 -0.002030 -0.001550 0.040908 0.152347
#
#
# Mechanical properties :
#
#
# Convention : Reuss Voigt Hill
#
# Bulk Modulus (GPa) = 48.10189 71.10163 59.60176
# Shear Modulus (GPa) = 16.69603 31.06093 23.87848
#
# Velocity S-wave (km/s) = 3.00091 4.09311 3.58880
# Velocity P-wave (km/s) = 6.16055 7.79030 7.02286
#
# Compressibility (1/GPa) = 0.02078920
#
# Stress axis : x y z
#
# Youngs Moduli (GPa) = 73.94955 68.11096 105.79290
#
# Poissons Ratio (x) = 0.17067 0.23247
# Poissons Ratio (y) = 0.18530 0.39469
# Poissons Ratio (z) = 0.16250 0.25411
#
# Static dielectric constant tensor:
#      x y z
#    x 1.628850 0.003930 0.003850 
#    y 0.003930 1.641280 -0.027450 
#    z 0.003850 -0.027450 1.644830 
# 
# From -- ./inp_files/218102.got.cif
#   From: 2010.05.17/outbox.cif.g08.bks.cpg/sg2_110_cif.got.tgz:218102.got - 2010.06.03 11:33:40.
