data_PCOD9040826
_publ_section_title
;
Structure prediction by ZEFSAII (Michael W. Deem and Ramdas Pophale) SiO2 
 PCOD9040826
Probable space group: P -1
;
_chemical_formula_sum "Si O2"
_cell_formula_units_Z 16
_cell_length_a 10.191706
_cell_length_b 4.870537
_cell_length_c 16.594647
_cell_angle_alpha 82.733474
_cell_angle_beta 129.572178
_cell_angle_gamma 102.647200
_cell_volume 619.461118
_symmetry_space_group_name_H-M "P -1"
_symmetry_group_IT_number 2
_symmetry_cell_setting 'triclinic'
loop_
_space_group_symop_operation_xyz
x,y,z
-x,-y,-z
loop_
_atom_site_type_symbol
_atom_site_label
_atom_site_fract_x
_atom_site_fract_y
_atom_site_fract_z
Si Si1 0.235606 0.337895 0.091367
Si Si2 0.815245 0.405590 0.468432
Si Si3 0.170809 0.128930 0.423723
Si Si4 0.567361 0.367286 0.112080
Si Si5 0.668050 0.110662 0.654038
Si Si6 0.988770 0.164730 0.873806
Si Si7 0.535326 0.504699 0.693547
Si Si8 0.811244 0.929427 0.197974
O O1 0.404287 0.280952 0.110898
O O2 0.329496 0.566049 0.184138
O O3 0.122140 0.082423 0.106678
O O4 0.100013 0.393003 0.967736
O O5 0.800411 0.072858 0.483727
O O6 0.661434 0.511422 0.357292
O O7 0.000000 0.500000 0.500000
O O8 0.808305 0.553669 0.548133
O O9 0.298961 0.032993 0.411473
O O10 0.977728 0.040276 0.314769
O O11 0.722099 0.611161 0.193973
O O12 0.660073 0.107323 0.140538
O O13 0.500000 0.500000 0.000000
O O14 0.854764 0.262712 0.755838
O O15 0.550896 0.334967 0.623889
O O16 0.593746 0.834496 0.686940
O O17 0.119910 0.053169 0.867999
#
# Coordination Sequence:
#
# PCOD9040826 Si02
#       8
#     2   2   2   2   2   2   2   2
#     4  10  23  43  69 101 142 192 219 291 350 414
#     4  12  27  46  67 104 137 182 233 286 346 418
#     4  11  25  46  75  97 134 186 226 292 352 404
#     4  12  25  44  67 106 141 188 236 287 346 418
#     4  10  23  45  70 105 131 176 230 286 346 415
#     4   9  21  45  68 103 142 184 236 279 351 426
#     4  11  25  43  68 101 141 173 231 290 343 417
#     4  11  25  45  72  99 142 183 239 289 345 429
#
# _framework density 25.828899
#
# number of rings (size 3 to 8) (size 9 to 14) (size 15 to 20)
#    0.000    1.250    1.250    3.000    3.500   10.500 
#    2.250    0.000    0.000    0.000    0.000    0.000 
#    0.000    0.000    0.000    0.000    0.000    0.000 
#
# Total GULP energy -89482.465886 kJ/mol
# GULP energy per Si atom -5592.654118 kJ/mol
# Density = 2.577011 g / cm^3
# Si number density = 25.828899 Si / 1000 Ang^3
#
#
#
# Elastic Constant Matrix: (Units=GPa)
#
#
# Indices 1 2 3 4 5 6 
#
# 1 174.6807 32.2768 17.4675 -0.7911 13.2270 -7.9126
# 2 32.2768 87.5647 15.0871 6.5813 7.4180 -11.5320
# 3 17.4675 15.0871 100.6231 31.9123 4.3565 -3.9960
# 4 -0.7911 6.5813 31.9123 28.0112 2.7924 5.0587
# 5 13.2270 7.4180 4.3565 2.7924 34.0676 -0.5508
# 6 -7.9126 -11.5320 -3.9960 5.0587 -0.5508 37.6586
#
#
#
# Elastic Compliance Matrix: (Units=1/GPa)
#
#
# Indices 1 2 3 4 5 6 
#
# 1 0.006443 -0.002110 -0.001529 0.002595 -0.002056 0.000167
# 2 -0.002110 0.013170 -0.000317 -0.003345 -0.001669 0.003981
# 3 -0.001529 -0.000317 0.016637 -0.019665 0.000212 0.003992
# 4 0.002595 -0.003345 -0.019665 0.061214 -0.002957 -0.010832
# 5 -0.002056 -0.001669 0.000212 -0.002957 0.030729 -0.000074
# 6 0.000167 0.003981 0.003992 -0.010832 -0.000074 0.029686
#
#
# Mechanical properties :
#
#
# Convention : Reuss Voigt Hill
#
# Bulk Modulus (GPa) = 35.29053 54.72571 45.00812
# Shear Modulus (GPa) = 28.53280 39.81660 34.17470
#
# Velocity S-wave (km/s) = 3.32729 3.93052 3.64142
# Velocity P-wave (km/s) = 5.33423 6.46780 5.92817
#
# Compressibility (1/GPa) = 0.02833621
#
# Stress axis : x y z
#
# Youngs Moduli (GPa) = 155.21747 75.93209 60.10671
#
# Poissons Ratio (x) = 0.16023 0.09192
# Poissons Ratio (y) = 0.32754 0.01906
# Poissons Ratio (z) = 0.23738 0.02407
#
# Static dielectric constant tensor:
#      x y z
#    x 2.028700 0.015290 -0.032080 
#    y 0.015290 1.993450 -0.033020 
#    z -0.032080 -0.033020 2.201620 
# 
# From -- ./inp_files/553561.got.cif
#   From: 2010.05.17/outbox.cif.g08.bks.cpg/sg2_277_cif.got.tgz:553561.got - 2010.06.03 11:33:40.
