data_PCOD9040420
_publ_section_title
;
Structure prediction by ZEFSAII (Michael W. Deem and Ramdas Pophale) SiO2 
 PCOD9040420
Probable space group: P -1
;
_chemical_formula_sum "Si O2"
_cell_formula_units_Z 12
_cell_length_a 7.815376
_cell_length_b 6.390482
_cell_length_c 12.197808
_cell_angle_alpha 70.766944
_cell_angle_beta 70.803430
_cell_angle_gamma 64.496433
_cell_volume 506.506391
_symmetry_space_group_name_H-M "P -1"
_symmetry_group_IT_number 2
_symmetry_cell_setting 'triclinic'
loop_
_space_group_symop_operation_xyz
x,y,z
-x,-y,-z
loop_
_atom_site_type_symbol
_atom_site_label
_atom_site_fract_x
_atom_site_fract_y
_atom_site_fract_z
Si Si1 0.876563 0.465405 0.634994
Si Si2 0.785379 0.198263 0.020030
Si Si3 0.352703 0.141698 0.776651
Si Si4 0.759961 0.069867 0.812596
Si Si5 0.571570 0.717831 0.494968
Si Si6 0.968302 0.539554 0.849709
O O1 0.884414 0.201743 0.701757
O O2 0.662945 0.602647 0.610236
O O3 0.914515 0.557120 0.728215
O O4 0.000000 0.500000 0.500000
O O5 0.685660 0.187609 0.925875
O O6 0.825589 0.440113 0.963984
O O7 0.683883 0.103416 0.152627
O O8 0.000000 0.000000 0.000000
O O9 0.571904 0.091173 0.777624
O O10 0.319639 0.243590 0.643516
O O11 0.187051 0.349939 0.842542
O O12 0.911497 0.808287 0.848908
O O13 0.500000 0.500000 0.500000
O O14 0.500000 0.000000 0.500000
#
# Coordination Sequence:
#
# PCOD9040420 Si02
#       6
#     2   2   2   2   2   2
#     4  11  23  42  63  95 140 178 232 289 350 418
#     4   9  22  43  63  98 136 168 236 286 353 425
#     4  11  22  44  67  99 134 183 230 292 354 421
#     4  11  23  42  67  95 135 178 233 292 350 428
#     4  12  26  47  70 106 145 185 244 297 352 434
#     4  10  23  43  66  97 135 178 231 290 352 423
#
# _framework density 23.691708999999999
#
# number of rings (size 3 to 8) (size 9 to 14) (size 15 to 20)
#    0.000    1.333    3.333    1.500    0.000    5.333 
#    3.000    0.000    0.000    0.000    0.000    0.000 
#    0.000    0.000    0.000    0.000    0.000    0.000 
#
# Total GULP energy -66814.548820 kJ/mol
# GULP energy per Si atom -5567.879068 kJ/mol
# Density = 2.363779 g / cm^3
# Si number density = 23.691709 Si / 1000 Ang^3
#
#
#
# Elastic Constant Matrix: (Units=GPa)
#
#
# Indices 1 2 3 4 5 6 
#
# 1 59.3116 20.8066 27.6327 11.3645 2.7307 9.8337
# 2 20.8066 152.2247 44.3807 -22.6046 -15.9463 23.6738
# 3 27.6327 44.3807 171.0190 -25.3677 -15.0725 25.4966
# 4 11.3645 -22.6046 -25.3677 45.5083 11.0369 -4.2331
# 5 2.7307 -15.9463 -15.0725 11.0369 45.0933 -14.5837
# 6 9.8337 23.6738 25.4966 -4.2331 -14.5837 23.4416
#
#
#
# Elastic Compliance Matrix: (Units=1/GPa)
#
#
# Indices 1 2 3 4 5 6 
#
# 1 0.022337 -0.002646 -0.003527 -0.008626 -0.003487 -0.006589
# 2 -0.002646 0.008651 -0.000198 0.004237 -0.000042 -0.006672
# 3 -0.003527 -0.000198 0.008120 0.004806 -0.000439 -0.006558
# 4 -0.008626 0.004237 0.004806 0.029747 -0.004783 -0.003491
# 5 -0.003487 -0.000042 -0.000439 -0.004783 0.029743 0.019623
# 6 -0.006589 -0.006672 -0.006558 -0.003491 0.019623 0.070873
#
#
# Mechanical properties :
#
#
# Convention : Reuss Voigt Hill
#
# Bulk Modulus (GPa) = 37.92697 63.13281 50.52989
# Shear Modulus (GPa) = 26.17773 42.12434 34.15103
#
# Velocity S-wave (km/s) = 3.32766 4.22123 3.80080
# Velocity P-wave (km/s) = 5.55047 7.10379 6.37462
#
# Compressibility (1/GPa) = 0.02636646
#
# Stress axis : x y z
#
# Youngs Moduli (GPa) = 44.76811 115.59184 123.14666
#
# Poissons Ratio (x) = 0.30590 0.43433
# Poissons Ratio (y) = 0.11847 0.02437
# Poissons Ratio (z) = 0.15790 0.02287
#
# Static dielectric constant tensor:
#      x y z
#    x 6.311660 0.167060 -0.939430 
#    y 0.167060 1.949760 -0.023620 
#    z -0.939430 -0.023620 2.085290 
# 
# From -- ./inp_files/19898.got.cif
#   From: 2010.05.17/outbox.cif.g08.bks.cpg/sg2_10_cif.got.tgz:19898.got - 2010.06.03 11:33:40.
