data_PCOD9040198
_publ_section_title
;
Structure prediction by ZEFSAII (Michael W. Deem and Ramdas Pophale) SiO2 
 PCOD9040198
Probable space group: P -1
;
_chemical_formula_sum "Si O2"
_cell_formula_units_Z 16
_cell_length_a 14.355785
_cell_length_b 12.980855
_cell_length_c 8.323170
_cell_angle_alpha 103.211717
_cell_angle_beta 129.902602
_cell_angle_gamma 42.853345
_cell_volume 717.157758
_symmetry_space_group_name_H-M "P -1"
_symmetry_group_IT_number 2
_symmetry_cell_setting 'triclinic'
loop_
_space_group_symop_operation_xyz
x,y,z
-x,-y,-z
loop_
_atom_site_type_symbol
_atom_site_label
_atom_site_fract_x
_atom_site_fract_y
_atom_site_fract_z
Si Si1 0.119719 0.536559 0.294299
Si Si2 0.570729 0.202825 0.585713
Si Si3 0.832955 0.033085 0.277737
Si Si4 0.967278 0.266872 0.416982
Si Si5 0.266387 0.688480 0.076715
Si Si6 0.514546 0.674045 0.812173
Si Si7 0.918851 0.856101 0.983166
Si Si8 0.061347 0.521577 0.734794
O O1 0.339186 0.356933 0.420503
O O2 0.123233 0.604742 0.488070
O O3 0.006685 0.685869 0.089837
O O4 0.010159 0.503343 0.209531
O O5 0.647860 0.255096 0.780904
O O6 0.591770 0.211035 0.422984
O O7 0.705891 0.011478 0.718763
O O8 0.851966 0.918193 0.374221
O O9 0.886478 0.951958 0.136122
O O10 0.621933 0.225516 0.147856
O O11 0.000000 0.000000 0.500000
O O12 0.022529 0.305461 0.342804
O O13 0.815771 0.286571 0.180818
O O14 0.423455 0.488809 0.214158
O O15 0.083767 0.796405 0.033197
O O16 0.709899 0.608533 0.037408
O O17 0.000000 0.500000 0.500000
#
# Coordination Sequence:
#
# PCOD9040198 Si02
#       8
#     2   2   2   2   2   2   2   2
#     4  10  23  43  64  96 130 170 225 281 311 380
#     4  12  24  39  67  97 136 171 216 263 341 393
#     4  11  23  39  64 102 135 164 221 272 319 402
#     4   9  21  41  65  90 130 176 208 267 332 379
#     4  11  22  41  65  94 139 171 210 268 337 400
#     4  11  24  41  68  96 130 181 214 260 342 388
#     4  11  24  41  62  99 132 170 214 273 326 385
#     4   9  21  45  67  88 129 174 223 275 321 380
#
# _framework density 22.310295
#
# number of rings (size 3 to 8) (size 9 to 14) (size 15 to 20)
#    0.000    1.500    1.250    3.000    8.750    1.000 
#    2.250    2.500    0.000    0.000    0.000    0.000 
#    0.000    0.000    0.000    0.000    0.000    0.000 
#
# Total GULP energy -89398.698495 kJ/mol
# GULP energy per Si atom -5587.418656 kJ/mol
# Density = 2.225952 g / cm^3
# Si number density = 22.310295 Si / 1000 Ang^3
#
#
#
# Elastic Constant Matrix: (Units=GPa)
#
#
# Indices 1 2 3 4 5 6 
#
# 1 95.1685 29.6277 31.5634 -23.2157 5.0694 8.3253
# 2 29.6277 104.8062 38.8622 -19.8964 11.5514 -20.3556
# 3 31.5634 38.8622 77.6272 -11.1082 -13.8323 19.1853
# 4 -23.2157 -19.8964 -11.1082 47.3360 6.1574 3.0035
# 5 5.0694 11.5514 -13.8323 6.1574 42.5637 -2.4136
# 6 8.3253 -20.3556 19.1853 3.0035 -2.4136 26.8570
#
#
#
# Elastic Compliance Matrix: (Units=1/GPa)
#
#
# Indices 1 2 3 4 5 6 
#
# 1 0.014369 -0.002333 -0.003171 0.006060 -0.003265 -0.004928
# 2 -0.002333 0.030413 -0.026297 0.004827 -0.014913 0.040679
# 3 -0.003171 -0.026297 0.041988 -0.002220 0.018816 -0.047003
# 4 0.006060 0.004827 -0.002220 0.026475 -0.006594 -0.000188
# 5 -0.003265 -0.014913 0.018816 -0.006594 0.033868 -0.019951
# 6 -0.004928 0.040679 -0.047003 -0.000188 -0.019951 0.101399
#
#
# Mechanical properties :
#
#
# Convention : Reuss Voigt Hill
#
# Bulk Modulus (GPa) = 43.16437 53.07873 48.12155
# Shear Modulus (GPa) = 15.63300 35.18790 25.41045
#
# Velocity S-wave (km/s) = 2.64996 3.97571 3.37850
# Velocity P-wave (km/s) = 5.36212 6.70208 6.06919
#
# Compressibility (1/GPa) = 0.02316726
#
# Stress axis : x y z
#
# Youngs Moduli (GPa) = 69.59421 32.88095 23.81620
#
# Poissons Ratio (x) = 0.07672 0.07552
# Poissons Ratio (y) = 0.16237 0.62630
# Poissons Ratio (z) = 0.22068 0.86468
#
# Static dielectric constant tensor:
#      x y z
#    x 1.854550 0.037550 -0.066040 
#    y 0.037550 1.862270 0.008780 
#    z -0.066040 0.008780 1.836860 
# 
# From -- ./inp_files/315513.got.cif
#   From: 2010.05.17/outbox.cif.g08.bks.cpg/sg2_158_cif.got.tgz:315513.got - 2010.06.03 11:33:40.
