data_PCOD9040346
_publ_section_title
;
Structure prediction by ZEFSAII (Michael W. Deem and Ramdas Pophale) SiO2 
 PCOD9040346
Probable space group: P -1
;
_chemical_formula_sum "Si O2"
_cell_formula_units_Z 14
_cell_length_a 14.069611
_cell_length_b 26.003419
_cell_length_c 5.232769
_cell_angle_alpha 54.929970
_cell_angle_beta 124.833397
_cell_angle_gamma 158.119136
_cell_volume 579.391444
_symmetry_space_group_name_H-M "P -1"
_symmetry_group_IT_number 2
_symmetry_cell_setting 'triclinic'
loop_
_space_group_symop_operation_xyz
x,y,z
-x,-y,-z
loop_
_atom_site_type_symbol
_atom_site_label
_atom_site_fract_x
_atom_site_fract_y
_atom_site_fract_z
Si Si1 0.920383 0.088028 0.885812
Si Si2 0.059931 0.695261 0.703173
Si Si3 0.568896 0.413959 0.460209
Si Si4 0.440411 0.276660 0.150282
Si Si5 0.428228 0.798384 0.258570
Si Si6 0.235299 0.344275 0.438360
Si Si7 0.512844 0.068313 0.658498
O O1 0.104406 0.237971 0.760834
O O2 0.761373 0.035670 0.545193
O O3 0.130310 0.134445 0.064760
O O4 0.692526 0.955250 0.099010
O O5 0.300792 0.852052 0.521212
O O6 0.834121 0.575173 0.494421
O O7 0.942494 0.681142 0.789945
O O8 0.192765 0.694891 0.997510
O O9 0.548203 0.375037 0.257994
O O10 0.329497 0.344941 0.352422
O O11 0.536647 0.344147 0.826666
O O12 0.522597 0.247248 0.440232
O O13 0.359569 0.811807 0.342243
O O14 0.500000 0.500000 0.500000
O O15 0.500000 0.000000 0.000000
#
# Coordination Sequence:
#
# PCOD9040346 Si02
#       7
#     2   2   2   2   2   2   2
#     4  10  23  43  66 100 139 178 237 286 346 411
#     4  10  23  45  67 105 140 182 234 288 356 414
#     4  10  25  46  73 104 139 186 234 295 343 415
#     4  11  26  46  73 102 142 184 242 283 350 412
#     4  11  25  41  70 101 139 192 227 291 347 419
#     4   9  19  43  69  97 134 177 226 286 348 408
#     4  11  24  42  71 101 143 183 234 287 355 417
#
# _framework density 24.163284999999998
#
# number of rings (size 3 to 8) (size 9 to 14) (size 15 to 20)
#    0.000    1.714    0.000    2.143   10.000    4.000 
#    7.714    6.429    0.000    0.000    0.000    0.000 
#    0.000    0.000    0.000    0.000    0.000    0.000 
#
# Total GULP energy -78185.162227 kJ/mol
# GULP energy per Si atom -5584.654445 kJ/mol
# Density = 2.410829 g / cm^3
# Si number density = 24.163285 Si / 1000 Ang^3
#
#
#
# Elastic Constant Matrix: (Units=GPa)
#
#
# Indices 1 2 3 4 5 6 
#
# 1 60.6689 18.5440 39.5684 14.5639 40.4436 3.5669
# 2 18.5440 94.1811 27.9314 16.4140 12.6447 16.5547
# 3 39.5684 27.9314 130.2209 24.9653 30.0840 7.4318
# 4 14.5639 16.4140 24.9653 34.4613 3.6847 4.9120
# 5 40.4436 12.6447 30.0840 3.6847 38.6803 12.1441
# 6 3.5669 16.5547 7.4318 4.9120 12.1441 34.1177
#
#
#
# Elastic Compliance Matrix: (Units=1/GPa)
#
#
# Indices 1 2 3 4 5 6 
#
# 1 0.089136 -0.004955 0.000882 -0.029950 -0.099674 0.032684
# 2 -0.004955 0.013059 -0.001422 -0.002609 0.004366 -0.006687
# 3 0.000882 -0.001422 0.011044 -0.007070 -0.009148 0.002466
# 4 -0.029950 -0.002609 -0.007070 0.046019 0.037714 -0.014112
# 5 -0.099674 0.004366 -0.009148 0.037714 0.147074 -0.047486
# 6 0.032684 -0.006687 0.002466 -0.014112 -0.047486 0.047535
#
#
# Mechanical properties :
#
#
# Convention : Reuss Voigt Hill
#
# Bulk Modulus (GPa) = 9.78012 50.79538 30.28775
# Shear Modulus (GPa) = 12.53316 34.72033 23.62674
#
# Velocity S-wave (km/s) = 2.27994 3.79476 3.13036
# Velocity P-wave (km/s) = 3.31468 6.34568 5.06235
#
# Compressibility (1/GPa) = 0.10224824
#
# Stress axis : x y z
#
# Youngs Moduli (GPa) = 11.21882 76.57363 90.54423
#
# Poissons Ratio (x) = 0.37944 -0.07985
# Poissons Ratio (y) = 0.05559 0.12878
# Poissons Ratio (z) = -0.00989 0.10891
#
# Static dielectric constant tensor:
#      x y z
#    x 1.962530 0.003200 -0.018330 
#    y 0.003200 1.968350 0.015330 
#    z -0.018330 0.015330 1.943050 
# 
# From -- ./inp_files/75308.got.cif
#   From: 2010.05.17/outbox.cif.g08.bks.cpg/sg2_38_cif.got.tgz:75308.got - 2010.06.03 11:33:40.
