data_PCOD9040132
_publ_section_title
;
Structure prediction by ZEFSAII (Michael W. Deem and Ramdas Pophale) SiO2 
 PCOD9040132
Probable space group: P -1
;
_chemical_formula_sum "Si O2"
_cell_formula_units_Z 14
_cell_length_a 11.129278
_cell_length_b 17.180426
_cell_length_c 17.438654
_cell_angle_alpha 157.515129
_cell_angle_beta 146.886432
_cell_angle_gamma 31.837084
_cell_volume 649.387265
_symmetry_space_group_name_H-M "P -1"
_symmetry_group_IT_number 2
_symmetry_cell_setting 'triclinic'
loop_
_space_group_symop_operation_xyz
x,y,z
-x,-y,-z
loop_
_atom_site_type_symbol
_atom_site_label
_atom_site_fract_x
_atom_site_fract_y
_atom_site_fract_z
Si Si1 0.698917 0.389701 0.066552
Si Si2 0.111926 0.328372 0.471481
Si Si3 0.936008 0.027598 0.201990
Si Si4 0.998248 0.995751 0.379980
Si Si5 0.459503 0.145710 0.991974
Si Si6 0.716882 0.054611 0.886615
Si Si7 0.839497 0.378156 0.764798
O O1 0.612578 0.281336 0.992777
O O2 0.500000 0.500000 0.000000
O O3 0.792116 0.560825 0.310721
O O4 0.905584 0.195190 0.957883
O O5 0.000000 0.500000 0.500000
O O6 0.947000 0.222532 0.331010
O O7 0.302958 0.127080 0.346822
O O8 0.664593 0.050521 0.077414
O O9 0.038878 0.030944 0.344685
O O10 0.187093 0.786450 0.333617
O O11 0.955524 0.210706 0.604606
O O12 0.759690 0.936079 0.196883
O O13 0.373376 0.410531 0.186645
O O14 0.589579 0.061808 0.904350
O O15 0.000000 0.000000 0.000000
O O16 0.000000 0.500000 0.000000
#
# Coordination Sequence:
#
# PCOD9040132 Si02
#       7
#     2   2   2   2   2   2   2
#     4  11  25  43  63  98 133 169 212 274 327 372
#     4  11  21  42  69  90 131 175 213 260 328 380
#     4  11  24  41  65  99 130 161 221 269 312 393
#     4  10  23  43  63  95 128 166 213 265 325 379
#     4  11  21  40  67  94 127 169 211 267 315 383
#     4  11  21  42  65  97 127 164 223 257 313 397
#     4   9  22  43  62  88 128 172 216 257 321 384
#
# _framework density 21.558785
#
# number of rings (size 3 to 8) (size 9 to 14) (size 15 to 20)
#    0.000    1.429    4.286    0.429    2.000    8.571 
#   10.286    0.000    0.000    0.000    0.000    0.000 
#    0.000    0.000    0.000    0.000    0.000    0.000 
#
# Total GULP energy -78179.326949 kJ/mol
# GULP energy per Si atom -5584.237639 kJ/mol
# Density = 2.150972 g / cm^3
# Si number density = 21.558785 Si / 1000 Ang^3
#
#
#
# Elastic Constant Matrix: (Units=GPa)
#
#
# Indices 1 2 3 4 5 6 
#
# 1 83.0400 3.5210 31.0456 3.0095 -7.9809 18.5707
# 2 3.5210 82.7561 36.7836 -5.6357 -0.1357 5.3253
# 3 31.0456 36.7836 145.8244 5.5866 -20.0660 0.9247
# 4 3.0095 -5.6357 5.5866 26.5597 5.3058 -10.8166
# 5 -7.9809 -0.1357 -20.0660 5.3058 32.8675 -5.3232
# 6 18.5707 5.3253 0.9247 -10.8166 -5.3232 24.5656
#
#
#
# Elastic Compliance Matrix: (Units=1/GPa)
#
#
# Indices 1 2 3 4 5 6 
#
# 1 0.017368 0.001378 -0.003555 -0.007813 0.000626 -0.016600
# 2 0.001378 0.014456 -0.004510 0.003180 -0.003414 -0.003346
# 3 -0.003555 -0.004510 0.009637 -0.002316 0.005954 0.003573
# 4 -0.007813 0.003180 -0.002316 0.052008 -0.007385 0.026604
# 5 0.000626 -0.003414 0.005954 -0.007385 0.036139 0.004622
# 6 -0.016600 -0.003346 0.003573 0.026604 0.004622 0.066562
#
#
# Mechanical properties :
#
#
# Convention : Reuss Voigt Hill
#
# Bulk Modulus (GPa) = 35.60195 50.48010 43.04102
# Shear Modulus (GPa) = 22.84066 32.81660 27.82863
#
# Velocity S-wave (km/s) = 3.25847 3.90576 3.59670
# Velocity P-wave (km/s) = 5.54135 6.61860 6.10379
#
# Compressibility (1/GPa) = 0.02808835
#
# Stress axis : x y z
#
# Youngs Moduli (GPa) = 57.57567 69.17536 103.76185
#
# Poissons Ratio (x) = -0.09533 0.36883
# Poissons Ratio (y) = -0.07934 0.46800
# Poissons Ratio (z) = 0.20466 0.31200
#
# Static dielectric constant tensor:
#      x y z
#    x 1.809110 0.013650 0.041890 
#    y 0.013650 1.831260 -0.008770 
#    z 0.041890 -0.008770 1.803160 
# 
# From -- ./inp_files/398492.got.cif
#   From: 2010.05.17/outbox.cif.g08.bks.cpg/sg2_200_cif.got.tgz:398492.got - 2010.06.03 11:33:40.
