data_PCOD9040817
_publ_section_title
;
Structure prediction by ZEFSAII (Michael W. Deem and Ramdas Pophale) SiO2 
 PCOD9040817
Probable space group: P -1
;
_chemical_formula_sum "Si O2"
_cell_formula_units_Z 16
_cell_length_a 12.184838
_cell_length_b 9.043927
_cell_length_c 8.337916
_cell_angle_alpha 58.185925
_cell_angle_beta 66.206942
_cell_angle_gamma 62.754609
_cell_volume 677.994755
_symmetry_space_group_name_H-M "P -1"
_symmetry_group_IT_number 2
_symmetry_cell_setting 'triclinic'
loop_
_space_group_symop_operation_xyz
x,y,z
-x,-y,-z
loop_
_atom_site_type_symbol
_atom_site_label
_atom_site_fract_x
_atom_site_fract_y
_atom_site_fract_z
Si Si1 0.680521 0.925712 0.599583
Si Si2 0.204682 0.424843 0.043998
Si Si3 0.553715 0.793435 0.460543
Si Si4 0.146515 0.884520 0.476267
Si Si5 0.174091 0.896744 0.095782
Si Si6 0.389281 0.645373 0.886076
Si Si7 0.982909 0.716666 0.189967
Si Si8 0.797546 0.544606 0.323676
O O1 0.639677 0.873929 0.479249
O O2 0.543940 0.050787 0.677511
O O3 0.778505 0.040714 0.477010
O O4 0.744671 0.744530 0.768408
O O5 0.306109 0.533569 0.918368
O O6 0.187856 0.367443 0.906544
O O7 0.077022 0.571081 0.099256
O O8 0.460599 0.729281 0.666978
O O9 0.651755 0.624768 0.411634
O O10 0.204057 0.914453 0.253521
O O11 0.161206 0.671634 0.601668
O O12 0.000000 0.000000 0.500000
O O13 0.077275 0.775277 0.219919
O O14 0.295232 0.791301 0.977942
O O15 0.098455 0.091602 0.951978
O O16 0.500000 0.500000 0.000000
O O17 0.884792 0.611453 0.359101
#
# Coordination Sequence:
#
# PCOD9040817 Si02
#       8
#     2   2   2   2   2   2   2   2
#     4  11  26  47  68 100 147 177 234 280 355 400
#     4  11  23  44  71 100 134 185 224 294 335 416
#     4  11  27  46  70 104 136 190 225 292 338 414
#     4  12  26  44  70 105 144 179 228 294 345 404
#     4  10  24  42  69 102 136 186 225 285 347 411
#     4  11  22  43  69  96 138 178 233 277 342 409
#     4  10  23  43  69 101 136 180 232 277 349 417
#     4  12  26  42  73 103 140 179 234 280 349 409
#
# _framework density 23.599001000000001
#
# number of rings (size 3 to 8) (size 9 to 14) (size 15 to 20)
#    0.000    1.000    1.250    4.125    7.000    5.000 
#    0.000    0.000    0.000    0.000    0.000    0.000 
#    0.000    0.000    0.000    0.000    0.000    0.000 
#
# Total GULP energy -89571.477874 kJ/mol
# GULP energy per Si atom -5598.217367 kJ/mol
# Density = 2.354529 g / cm^3
# Si number density = 23.599001 Si / 1000 Ang^3
#
#
#
# Elastic Constant Matrix: (Units=GPa)
#
#
# Indices 1 2 3 4 5 6 
#
# 1 146.7607 67.0204 22.4169 -7.3153 -12.2840 -15.6164
# 2 67.0204 154.9922 45.3341 -16.7047 -11.0663 -39.1228
# 3 22.4169 45.3341 51.6128 -16.2627 2.7668 -9.7683
# 4 -7.3153 -16.7047 -16.2627 36.5059 0.3448 -3.0708
# 5 -12.2840 -11.0663 2.7668 0.3448 32.9791 -10.7845
# 6 -15.6164 -39.1228 -9.7683 -3.0708 -10.7845 45.6633
#
#
#
# Elastic Compliance Matrix: (Units=1/GPa)
#
#
# Indices 1 2 3 4 5 6 
#
# 1 0.008668 -0.003099 -0.001096 -0.000138 0.002497 0.000655
# 2 -0.003099 0.013875 -0.008238 0.002918 0.007793 0.011102
# 3 -0.001096 -0.008238 0.029991 0.009271 -0.006409 -0.001908
# 4 -0.000138 0.002918 0.009271 0.033415 0.002153 0.007192
# 5 0.002497 0.007793 -0.006409 0.002153 0.039494 0.015631
# 6 0.000655 0.011102 -0.001908 0.007192 0.015631 0.035403
#
#
# Mechanical properties :
#
#
# Convention : Reuss Voigt Hill
#
# Bulk Modulus (GPa) = 36.14315 69.21205 52.67760
# Shear Modulus (GPa) = 25.64967 37.60260 31.62614
#
# Velocity S-wave (km/s) = 3.30039 3.99607 3.66477
# Velocity P-wave (km/s) = 5.46555 7.11923 6.34648
#
# Compressibility (1/GPa) = 0.02766776
#
# Stress axis : x y z
#
# Youngs Moduli (GPa) = 115.36440 72.07382 33.34357
#
# Poissons Ratio (x) = 0.22334 0.03655
# Poissons Ratio (y) = 0.35748 0.27468
# Poissons Ratio (z) = 0.12647 0.59374
#
# Static dielectric constant tensor:
#      x y z
#    x 1.941770 0.010990 0.023360 
#    y 0.010990 1.904650 -0.027020 
#    z 0.023360 -0.027020 1.913260 
# 
# From -- ./inp_files/242507.got.cif
#   From: 2010.05.17/outbox.cif.g08.bks.cpg/sg2_122_cif.got.tgz:242507.got - 2010.06.03 11:33:40.
