data_PCOD9040793
_publ_section_title
;
Structure prediction by ZEFSAII (Michael W. Deem and Ramdas Pophale) SiO2 
 PCOD9040793
Probable space group: P -1
;
_chemical_formula_sum "Si O2"
_cell_formula_units_Z 15
_cell_length_a 12.687052
_cell_length_b 9.731514
_cell_length_c 11.654553
_cell_angle_alpha 76.086903
_cell_angle_beta 33.448366
_cell_angle_gamma 99.320824
_cell_volume 566.081222
_symmetry_space_group_name_H-M "P -1"
_symmetry_group_IT_number 2
_symmetry_cell_setting 'triclinic'
loop_
_space_group_symop_operation_xyz
x,y,z
-x,-y,-z
loop_
_atom_site_type_symbol
_atom_site_label
_atom_site_fract_x
_atom_site_fract_y
_atom_site_fract_z
Si Si1 0.715279 0.860654 0.060587
Si Si2 0.260300 0.487637 0.236577
Si Si3 0.834839 0.688668 0.419619
Si Si4 0.164669 0.799200 0.890320
Si Si5 0.180537 0.740880 0.625521
Si Si6 0.638840 0.331771 0.110605
Si Si7 0.000000 0.000000 0.000000
Si Si8 0.986200 0.855398 0.621842
O O1 0.915073 0.092598 0.813340
O O2 0.848783 0.857077 0.051468
O O3 0.745743 0.772807 0.941513
O O4 0.427727 0.773276 0.356961
O O5 0.197528 0.455502 0.433485
O O6 0.037661 0.287349 0.414815
O O7 0.500000 0.500000 0.000000
O O8 0.332942 0.655113 0.056596
O O9 0.897657 0.679089 0.233551
O O10 0.599511 0.683455 0.639244
O O11 0.228232 0.996205 0.784503
O O12 0.159868 0.733040 0.783134
O O13 0.352816 0.812059 0.803594
O O14 0.191775 0.900905 0.519614
O O15 0.905789 0.536735 0.874488
O O16 0.000000 0.000000 0.500000
#
# Coordination Sequence:
#
# PCOD9040793 Si02
#       8
#     2   2   2   2   2   2   1   2
#     4  11  24  43  70 103 133 180 230 283 347 407
#     4   9  20  43  67  99 137 178 231 280 342 406
#     4  10  23  43  69 100 135 186 230 277 349 410
#     4  11  24  43  68  99 137 179 231 283 343 411
#     4  11  26  43  68 104 139 175 232 291 341 412
#     4  10  24  44  68  98 139 185 229 284 347 415
#     4  10  24  44  64 100 138 178 222 280 346 402
#     4  11  22  44  70  96 139 183 224 287 346 407
#
# _framework density 26.497962000000001
#
# number of rings (size 3 to 8) (size 9 to 14) (size 15 to 20)
#    0.000    1.600    2.667    0.400    3.733    9.067 
#    0.000    0.000    0.000    0.000    0.000    0.000 
#    0.000    0.000    0.000    0.000    0.000    0.000 
#
# Total GULP energy -83595.641063 kJ/mol
# GULP energy per Si atom -5573.042738 kJ/mol
# Density = 2.643765 g / cm^3
# Si number density = 26.497962 Si / 1000 Ang^3
#
#
#
# Elastic Constant Matrix: (Units=GPa)
#
#
# Indices 1 2 3 4 5 6 
#
# 1 149.7093 21.4222 64.5472 15.9898 26.6048 -3.6644
# 2 21.4222 56.2730 30.7990 9.7363 1.9842 -5.2998
# 3 64.5472 30.7990 151.3415 33.1243 -5.6661 0.2115
# 4 15.9898 9.7363 33.1243 39.9923 0.0810 -7.9989
# 5 26.6048 1.9842 -5.6661 0.0810 58.7772 2.2549
# 6 -3.6644 -5.2998 0.2115 -7.9989 2.2549 40.2053
#
#
#
# Elastic Compliance Matrix: (Units=1/GPa)
#
#
# Indices 1 2 3 4 5 6 
#
# 1 0.009394 -0.001161 -0.003945 0.000000 -0.004631 0.000984
# 2 -0.001161 0.020557 -0.003452 -0.001197 -0.000592 0.002417
# 3 -0.003945 -0.003452 0.010610 -0.006857 0.003027 -0.002404
# 4 0.000000 -0.001197 -0.006857 0.032247 -0.000909 0.006345
# 5 -0.004631 -0.000592 0.003027 -0.000909 0.019491 -0.001790
# 6 0.000984 0.002417 -0.002404 0.006345 -0.001790 0.026656
#
#
# Mechanical properties :
#
#
# Convention : Reuss Voigt Hill
#
# Bulk Modulus (GPa) = 42.65270 65.65117 54.15193
# Shear Modulus (GPa) = 34.74978 43.83200 39.29089
#
# Velocity S-wave (km/s) = 3.62527 4.07155 3.85488
# Velocity P-wave (km/s) = 5.80129 6.85078 6.34776
#
# Compressibility (1/GPa) = 0.02344518
#
# Stress axis : x y z
#
# Youngs Moduli (GPa) = 106.45600 48.64425 94.24921
#
# Poissons Ratio (x) = 0.05648 0.37181
# Poissons Ratio (y) = 0.12360 0.32535
# Poissons Ratio (z) = 0.41996 0.16792
#
# Static dielectric constant tensor:
#      x y z
#    x 1.925190 -0.128700 -0.056560 
#    y -0.128700 2.556470 -0.302490 
#    z -0.056560 -0.302490 2.170490 
# 
# From -- ./inp_files/423409.got.cif
#   From: 2010.05.17/outbox.cif.g08.bks.cpg/sg2_212_cif.got.tgz:423409.got - 2010.06.03 11:33:40.
