data_PCOD9040481
_publ_section_title
;
Structure prediction by ZEFSAII (Michael W. Deem and Ramdas Pophale) SiO2 
 PCOD9040481
Probable space group: P -1
;
_chemical_formula_sum "Si O2"
_cell_formula_units_Z 16
_cell_length_a 9.246049
_cell_length_b 14.632474
_cell_length_c 26.398371
_cell_angle_alpha 160.162080
_cell_angle_beta 36.860128
_cell_angle_gamma 141.709714
_cell_volume 717.863708
_symmetry_space_group_name_H-M "P -1"
_symmetry_group_IT_number 2
_symmetry_cell_setting 'triclinic'
loop_
_space_group_symop_operation_xyz
x,y,z
-x,-y,-z
loop_
_atom_site_type_symbol
_atom_site_label
_atom_site_fract_x
_atom_site_fract_y
_atom_site_fract_z
Si Si1 0.405134 0.100993 0.922032
Si Si2 0.754512 0.534063 0.615013
Si Si3 0.112076 0.877451 0.134893
Si Si4 0.885467 0.594573 0.192391
Si Si5 0.270207 0.709766 0.283596
Si Si6 0.661857 0.968373 0.380156
Si Si7 0.243329 0.551738 0.734780
Si Si8 0.577281 0.200109 0.820768
O O1 0.672930 0.132423 0.889608
O O2 0.418593 0.037837 0.825060
O O3 0.247218 0.847156 0.862509
O O4 0.322789 0.396118 0.104876
O O5 0.518058 0.487365 0.620187
O O6 0.000000 0.500000 0.500000
O O7 0.797137 0.851426 0.782596
O O8 0.716080 0.293163 0.540525
O O9 0.862931 0.900604 0.246570
O O10 0.084363 0.622314 0.972681
O O11 0.712931 0.794361 0.323119
O O12 0.798560 0.446282 0.191834
O O13 0.146246 0.769153 0.221795
O O14 0.397633 0.864742 0.376560
O O15 0.405082 0.860926 0.275288
O O16 0.976951 0.667714 0.339426
O O17 0.500000 0.500000 0.000000
#
# Coordination Sequence:
#
# PCOD9040481 Si02
#       8
#     2   2   2   2   2   2   2   2
#     4  10  17  33  56  82 120 151 187 234 298 334
#     4   9  22  39  58  83 115 160 191 237 289 351
#     4  10  18  34  60  90 116 148 196 240 285 334
#     4  11  20  34  61  94 115 145 195 249 283 337
#     4  10  20  34  55  88 116 151 192 239 290 343
#     4  11  20  36  61  86 119 157 196 232 284 344
#     4  10  23  37  57  86 122 152 188 241 298 342
#     4   9  18  31  54  88 115 151 186 238 286 341
#
# _framework density 22.288352
#
# number of rings (size 3 to 8) (size 9 to 14) (size 15 to 20)
#    0.000    2.000    2.500    2.250    0.000    3.000 
#    0.000    0.000    2.750    3.000   16.250    0.000 
#    0.000    0.000    0.000    0.000    0.000    0.000 
#
# Total GULP energy -89353.830553 kJ/mol
# GULP energy per Si atom -5584.614410 kJ/mol
# Density = 2.223762 g / cm^3
# Si number density = 22.288352 Si / 1000 Ang^3
#
#
#
# Elastic Constant Matrix: (Units=GPa)
#
#
# Indices 1 2 3 4 5 6 
#
# 1 83.5508 33.1765 13.1583 1.0701 -5.9638 -12.3170
# 2 33.1765 117.3689 29.0323 13.3463 -4.2663 -22.8661
# 3 13.1583 29.0323 71.3438 20.5254 -6.7673 -17.9314
# 4 1.0701 13.3463 20.5254 35.9741 0.2623 -20.7627
# 5 -5.9638 -4.2663 -6.7673 0.2623 20.4665 4.7324
# 6 -12.3170 -22.8661 -17.9314 -20.7627 4.7324 44.3480
#
#
#
# Elastic Compliance Matrix: (Units=1/GPa)
#
#
# Indices 1 2 3 4 5 6 
#
# 1 0.014054 -0.003391 -0.001176 0.003183 0.002282 0.002926
# 2 -0.003391 0.010877 -0.002900 -0.000317 -0.000460 0.003394
# 3 -0.001176 -0.002900 0.018754 -0.009070 0.005147 0.000966
# 4 0.003183 -0.000317 -0.009070 0.043533 -0.006897 0.018171
# 5 0.002282 -0.000460 0.005147 -0.006897 0.052694 -0.006374
# 6 0.002926 0.003394 0.000966 0.018171 -0.006374 0.034689
#
#
# Mechanical properties :
#
#
# Convention : Reuss Voigt Hill
#
# Bulk Modulus (GPa) = 34.78154 46.99974 40.89064
# Shear Modulus (GPa) = 25.11084 33.28415 29.19750
#
# Velocity S-wave (km/s) = 3.36018 3.86857 3.62330
# Velocity P-wave (km/s) = 5.54018 6.40994 5.99086
#
# Compressibility (1/GPa) = 0.02875088
#
# Stress axis : x y z
#
# Youngs Moduli (GPa) = 71.15501 91.94123 53.32249
#
# Poissons Ratio (x) = 0.31173 0.06271
# Poissons Ratio (y) = 0.24125 0.15463
# Poissons Ratio (z) = 0.08369 0.26663
#
# Static dielectric constant tensor:
#      x y z
#    x 1.803710 -0.013730 -0.038460 
#    y -0.013730 1.857670 0.017590 
#    z -0.038460 0.017590 1.786150 
# 
# From -- ./inp_files/206423.got.cif
#   From: 2010.05.17/outbox.cif.g08.bks.cpg/sg2_104_cif.got.tgz:206423.got - 2010.06.03 11:33:40.
