data_PCOD9040689
_publ_section_title
;
Structure prediction by ZEFSAII (Michael W. Deem and Ramdas Pophale) SiO2 
 PCOD9040689
Probable space group: P -1
;
_chemical_formula_sum "Si O2"
_cell_formula_units_Z 16
_cell_length_a 12.433768
_cell_length_b 8.586333
_cell_length_c 20.532796
_cell_angle_alpha 126.395003
_cell_angle_beta 157.604120
_cell_angle_gamma 55.331607
_cell_volume 670.822260
_symmetry_space_group_name_H-M "P -1"
_symmetry_group_IT_number 2
_symmetry_cell_setting 'triclinic'
loop_
_space_group_symop_operation_xyz
x,y,z
-x,-y,-z
loop_
_atom_site_type_symbol
_atom_site_label
_atom_site_fract_x
_atom_site_fract_y
_atom_site_fract_z
Si Si1 0.574959 0.675861 0.169117
Si Si2 0.088937 0.951287 0.744219
Si Si3 0.647413 0.688543 0.990156
Si Si4 0.287643 0.152818 0.381148
Si Si5 0.688989 0.605299 0.846830
Si Si6 0.900556 0.010424 0.022756
Si Si7 0.184929 0.009112 0.538748
Si Si8 0.764653 0.424942 0.523350
O O1 0.398408 0.487793 0.031929
O O2 0.890467 0.611784 0.302588
O O3 0.632550 0.807405 0.298438
O O4 0.340136 0.828892 0.044907
O O5 0.390676 0.842963 0.891695
O O6 0.931232 0.827538 0.677259
O O7 0.987055 0.945457 0.611686
O O8 0.086365 0.180026 0.819532
O O9 0.606031 0.608189 0.875689
O O10 0.323757 0.377154 0.438137
O O11 0.171756 0.043182 0.226970
O O12 0.500000 0.000000 0.500000
O O13 0.430418 0.541370 0.642398
O O14 0.000000 0.500000 0.000000
O O15 0.757829 0.814753 0.911114
O O16 0.000000 0.000000 0.000000
O O17 0.314871 0.787758 0.548191
O O18 0.000000 0.000000 0.500000
#
# Coordination Sequence:
#
# PCOD9040689 Si02
#       8
#     2   2   2   2   2   2   2   2
#     4  11  24  44  75 106 148 189 245 304 370 444
#     4  11  25  44  71 103 148 186 249 306 365 438
#     4  11  24  43  70 109 141 194 241 301 370 435
#     4  12  28  50  74 107 150 198 250 311 370 443
#     4  12  25  47  73 103 151 191 246 302 368 446
#     4  12  28  50  73 108 149 199 247 307 377 448
#     4  10  23  43  68 107 143 185 237 307 365 434
#     4  11  25  45  73 111 143 193 245 306 372 440
#
# _framework density 23.851324000000002
#
# number of rings (size 3 to 8) (size 9 to 14) (size 15 to 20)
#    0.000    0.750    3.750    3.000    7.000    1.500 
#    0.000    1.250    0.000    0.000    0.000    0.000 
#    0.000    0.000    0.000    0.000    0.000    0.000 
#
# Total GULP energy -89134.348713 kJ/mol
# GULP energy per Si atom -5570.896795 kJ/mol
# Density = 2.379704 g / cm^3
# Si number density = 23.851324 Si / 1000 Ang^3
#
#
#
# Elastic Constant Matrix: (Units=GPa)
#
#
# Indices 1 2 3 4 5 6 
#
# 1 51.6126 0.8075 12.0617 -10.3303 -13.8820 -3.4035
# 2 0.8075 150.5619 3.0240 10.4530 31.2560 19.7924
# 3 12.0617 3.0240 105.3858 -15.2004 -43.8069 -17.9979
# 4 -10.3303 10.4530 -15.2004 53.2841 1.8022 10.1484
# 5 -13.8820 31.2560 -43.8069 1.8022 54.9929 5.5495
# 6 -3.4035 19.7924 -17.9979 10.1484 5.5495 30.7579
#
#
#
# Elastic Compliance Matrix: (Units=1/GPa)
#
#
# Indices 1 2 3 4 5 6 
#
# 1 0.022245 -0.002487 0.002006 0.004674 0.008251 0.002205
# 2 -0.002487 0.010036 -0.005852 -0.002338 -0.010154 -0.007554
# 3 0.002006 -0.005852 0.019385 0.004436 0.018058 0.010609
# 4 0.004674 -0.002338 0.004436 0.021897 0.005691 -0.003635
# 5 0.008251 -0.010154 0.018058 0.005691 0.039325 0.009041
# 6 0.002205 -0.007554 0.010609 -0.003635 0.009041 0.043392
#
#
# Mechanical properties :
#
#
# Convention : Reuss Voigt Hill
#
# Bulk Modulus (GPa) = 25.64003 37.70520 31.67261
# Shear Modulus (GPa) = 27.48059 47.25144 37.36602
#
# Velocity S-wave (km/s) = 3.39803 4.45576 3.96235
# Velocity P-wave (km/s) = 5.11554 6.50496 5.85164
#
# Compressibility (1/GPa) = 0.03900151
#
# Stress axis : x y z
#
# Youngs Moduli (GPa) = 44.95322 99.64198 51.58517
#
# Poissons Ratio (x) = 0.24778 -0.10346
# Poissons Ratio (y) = 0.11179 0.30185
# Poissons Ratio (z) = -0.09016 0.58306
#
# Static dielectric constant tensor:
#      x y z
#    x 1.990270 -0.122640 -0.028090 
#    y -0.122640 1.874380 -0.152290 
#    z -0.028090 -0.152290 2.129770 
# 
# From -- ./inp_files/611781.got.cif
#   From: 2010.05.17/outbox.cif.g08.bks.cpg/sg2_306_cif.got.tgz:611781.got - 2010.06.03 11:33:40.
