data_PCOD9040683
_publ_section_title
;
Structure prediction by ZEFSAII (Michael W. Deem and Ramdas Pophale) SiO2 
 PCOD9040683
Probable space group: P -1
;
_chemical_formula_sum "Si O2"
_cell_formula_units_Z 16
_cell_length_a 9.827107
_cell_length_b 13.894290
_cell_length_c 11.529048
_cell_angle_alpha 120.230629
_cell_angle_beta 114.632393
_cell_angle_gamma 113.864568
_cell_volume 770.074915
_symmetry_space_group_name_H-M "P -1"
_symmetry_group_IT_number 2
_symmetry_cell_setting 'triclinic'
loop_
_space_group_symop_operation_xyz
x,y,z
-x,-y,-z
loop_
_atom_site_type_symbol
_atom_site_label
_atom_site_fract_x
_atom_site_fract_y
_atom_site_fract_z
Si Si1 0.608418 0.188067 0.940286
Si Si2 0.250522 0.307391 0.482274
Si Si3 0.783083 0.888624 0.120105
Si Si4 0.949352 0.538703 0.120356
Si Si5 0.091979 0.680381 0.649537
Si Si6 0.713327 0.821334 0.792016
Si Si7 0.397211 0.846057 0.627007
Si Si8 0.347509 0.419058 0.014437
O O1 0.389805 0.125683 0.884955
O O2 0.518187 0.030296 0.739923
O O3 0.756762 0.361824 0.023480
O O4 0.772989 0.232369 0.127491
O O5 0.341803 0.313491 0.394560
O O6 0.465612 0.441706 0.731942
O O7 0.115394 0.347552 0.448420
O O8 0.041999 0.098282 0.322171
O O9 0.663868 0.789782 0.892604
O O10 0.781477 0.772496 0.118651
O O11 0.188092 0.688383 0.371503
O O12 0.845257 0.597057 0.083149
O O13 0.000000 0.500000 0.000000
O O14 0.274049 0.801126 0.680409
O O15 0.000000 0.500000 0.500000
O O16 0.583545 0.854767 0.716358
O O17 0.000000 0.000000 0.000000
O O18 0.500000 0.500000 0.000000
#
# Coordination Sequence:
#
# PCOD9040683 Si02
#       8
#     2   2   2   2   2   2   2   2
#     4  12  23  42  73 100 133 176 223 278 336 403
#     4  11  25  43  67 102 137 172 218 279 340 391
#     4  11  23  43  71  98 134 175 217 277 338 397
#     4  12  29  47  65  99 134 180 233 277 327 390
#     4  12  22  41  73 107 134 171 221 273 344 409
#     4  10  23  43  68 106 137 164 214 275 347 409
#     4  12  24  44  73  99 136 176 221 276 338 404
#     4  12  26  44  67  95 132 180 239 269 314 396
#
# _framework density 20.777200000000001
#
# number of rings (size 3 to 8) (size 9 to 14) (size 15 to 20)
#    0.000    0.500    5.000    4.125    0.000    5.500 
#    0.000    0.000    0.000    0.000    0.000    0.000 
#    0.000    0.000    0.000    0.000    0.000    0.000 
#
# Total GULP energy -89546.077946 kJ/mol
# GULP energy per Si atom -5596.629872 kJ/mol
# Density = 2.072991 g / cm^3
# Si number density = 20.777200 Si / 1000 Ang^3
#
#
#
# Elastic Constant Matrix: (Units=GPa)
#
#
# Indices 1 2 3 4 5 6 
#
# 1 144.0125 42.1860 22.7530 -6.0866 3.0765 -29.1900
# 2 42.1860 100.5183 64.3917 3.0751 -0.4048 -36.0486
# 3 22.7530 64.3917 -4.0701 51.9545 1.3275 5.8680
# 4 -6.0866 3.0751 51.9545 13.8517 -6.3111 -8.8193
# 5 3.0765 -0.4048 1.3275 -6.3111 34.5933 -9.0771
# 6 -29.1900 -36.0486 5.8680 -8.8193 -9.0771 32.6978
#
#
#
# Elastic Compliance Matrix: (Units=1/GPa)
#
#
# Indices 1 2 3 4 5 6 
#
# 1 0.008382 -0.003362 0.001740 0.000227 0.000124 0.003560
# 2 -0.003362 0.011604 0.003292 -0.013248 -0.000682 0.005438
# 3 0.001740 0.003292 -0.001111 0.013030 0.005002 0.010285
# 4 0.000227 -0.013248 0.013030 0.018683 -0.000364 -0.011803
# 5 0.000124 -0.000682 0.005002 -0.000364 0.030416 0.006807
# 6 0.003560 0.005438 0.010285 -0.011803 0.006807 0.036617
#
#
# Mechanical properties :
#
#
# Convention : Reuss Voigt Hill
#
# Bulk Modulus (GPa) = 45.01866 55.45800 50.23833
# Shear Modulus (GPa) = 46.01653 23.63721 34.82687
#
# Velocity S-wave (km/s) = 4.71123 3.37657 4.09859
# Velocity P-wave (km/s) = 7.16300 6.47698 6.82861
#
# Compressibility (1/GPa) = 0.02221301
#
# Stress axis : x y z
#
# Youngs Moduli (GPa) = 119.29780 86.17948 -899.76262
#
# Poissons Ratio (x) = 0.28976 1.56538
# Poissons Ratio (y) = 0.40111 2.96172
# Poissons Ratio (z) = -0.20755 -0.28367
#
# Static dielectric constant tensor:
#      x y z
#    x 1.047710 0.867790 0.561440 
#    y 0.867790 0.660140 -0.727710 
#    z 0.561440 -0.727710 1.225170 
# 
# From -- ./inp_files/285871.got.cif
#   From: 2010.05.17/outbox.cif.g08.bks.cpg/sg2_143_cif.got.tgz:285871.got - 2010.06.03 11:33:40.
