data_PCOD9040348
_publ_section_title
;
Structure prediction by ZEFSAII (Michael W. Deem and Ramdas Pophale) SiO2 
 PCOD9040348
Probable space group: P -1
;
_chemical_formula_sum "Si O2"
_cell_formula_units_Z 14
_cell_length_a 11.482064
_cell_length_b 5.465205
_cell_length_c 23.823466
_cell_angle_alpha 107.006391
_cell_angle_beta 153.735766
_cell_angle_gamma 86.517791
_cell_volume 556.250246
_symmetry_space_group_name_H-M "P -1"
_symmetry_group_IT_number 2
_symmetry_cell_setting 'triclinic'
loop_
_space_group_symop_operation_xyz
x,y,z
-x,-y,-z
loop_
_atom_site_type_symbol
_atom_site_label
_atom_site_fract_x
_atom_site_fract_y
_atom_site_fract_z
Si Si1 0.187167 0.273109 0.535923
Si Si2 0.945969 0.887169 0.304911
Si Si3 0.249562 0.142422 0.223080
Si Si4 0.665441 0.231179 0.963157
Si Si5 0.741901 0.332915 0.120902
Si Si6 0.737458 0.808440 0.646109
Si Si7 0.466631 0.118919 0.748983
O O1 0.448449 0.548716 0.635586
O O2 0.332207 0.260950 0.656945
O O3 0.115140 0.004387 0.443787
O O4 0.836762 0.191628 0.389494
O O5 0.692185 0.991196 0.196029
O O6 0.770845 0.542415 0.198110
O O7 0.156727 0.987128 0.348491
O O8 0.292093 0.055382 0.299134
O O9 0.291107 0.936685 0.182572
O O10 0.934838 0.147887 0.076400
O O11 0.622662 0.298543 0.884713
O O12 0.722633 0.439395 0.056356
O O13 0.028915 0.294109 0.240641
O O14 0.500000 0.000000 0.000000
O O15 0.500000 0.500000 0.500000
#
# Coordination Sequence:
#
# PCOD9040348 Si02
#       7
#     2   2   2   2   2   2   2
#     4  10  23  43  66 101 130 178 226 271 335 402
#     4  11  23  44  70  97 142 173 219 281 335 397
#     4  11  23  41  68 100 133 175 227 274 332 397
#     4  10  23  44  65  99 133 175 226 274 329 401
#     4  11  24  43  67 100 132 176 224 266 343 399
#     4  11  24  41  65 102 137 170 221 274 337 399
#     4  10  23  45  65  91 138 177 224 276 331 388
#
# _framework density 25.168527999999998
#
# number of rings (size 3 to 8) (size 9 to 14) (size 15 to 20)
#    0.000    1.429    2.857    1.286    2.000    3.429 
#   10.286    0.000    0.000    0.000    0.000    0.000 
#    0.000    0.000    0.000    0.000    0.000    0.000 
#
# Total GULP energy -77951.879015 kJ/mol
# GULP energy per Si atom -5567.991358 kJ/mol
# Density = 2.511124 g / cm^3
# Si number density = 25.168528 Si / 1000 Ang^3
#
#
#
# Elastic Constant Matrix: (Units=GPa)
#
#
# Indices 1 2 3 4 5 6 
#
# 1 165.2194 24.1123 48.7026 -7.9200 -33.0757 4.0994
# 2 24.1123 36.1394 21.6482 3.0294 1.8234 0.4012
# 3 48.7026 21.6482 115.8807 -15.4571 -11.6609 5.7130
# 4 -7.9200 3.0294 -15.4571 38.6181 -2.0309 8.5625
# 5 -33.0757 1.8234 -11.6609 -2.0309 61.1653 -5.7340
# 6 4.0994 0.4012 5.7130 8.5625 -5.7340 35.5616
#
#
#
# Elastic Compliance Matrix: (Units=1/GPa)
#
#
# Indices 1 2 3 4 5 6 
#
# 1 0.008240 -0.004679 -0.001939 0.001566 0.004252 -0.000277
# 2 -0.004679 0.035251 -0.006116 -0.006869 -0.004787 0.002006
# 3 -0.001939 -0.006116 0.011561 0.005364 0.001268 -0.002652
# 4 0.001566 -0.006869 0.005364 0.030799 0.002347 -0.008002
# 5 0.004252 -0.004787 0.001268 0.002347 0.019289 0.001905
# 6 -0.000277 0.002006 -0.002652 -0.008002 0.001905 0.030790
#
#
# Mechanical properties :
#
#
# Convention : Reuss Voigt Hill
#
# Bulk Modulus (GPa) = 33.80131 56.24064 45.02097
# Shear Modulus (GPa) = 29.19559 41.92076 35.55817
#
# Velocity S-wave (km/s) = 3.40958 4.08561 3.76280
# Velocity P-wave (km/s) = 5.38140 6.68209 6.06670
#
# Compressibility (1/GPa) = 0.02958465
#
# Stress axis : x y z
#
# Youngs Moduli (GPa) = 121.35887 28.36782 86.50060
#
# Poissons Ratio (x) = 0.13274 0.16769
# Poissons Ratio (y) = 0.56787 0.52902
# Poissons Ratio (z) = 0.23526 0.17349
#
# Static dielectric constant tensor:
#      x y z
#    x 1.707520 0.196880 0.412010 
#    y 0.196880 1.961490 -0.149750 
#    z 0.412010 -0.149750 1.626220 
# 
# From -- ./inp_files/609228.got.cif
#   From: 2010.05.17/outbox.cif.g08.bks.cpg/sg2_305_cif.got.tgz:609228.got - 2010.06.03 11:33:40.
