data_PCOD9040847
_publ_section_title
;
Structure prediction by ZEFSAII (Michael W. Deem and Ramdas Pophale) SiO2 
 PCOD9040847
Probable space group: P -1
;
_chemical_formula_sum "Si O2"
_cell_formula_units_Z 12
_cell_length_a 12.210216
_cell_length_b 9.442553
_cell_length_c 9.080681
_cell_angle_alpha 68.374672
_cell_angle_beta 46.227296
_cell_angle_gamma 100.137400
_cell_volume 538.822787
_symmetry_space_group_name_H-M "P -1"
_symmetry_group_IT_number 2
_symmetry_cell_setting 'triclinic'
loop_
_space_group_symop_operation_xyz
x,y,z
-x,-y,-z
loop_
_atom_site_type_symbol
_atom_site_label
_atom_site_fract_x
_atom_site_fract_y
_atom_site_fract_z
Si Si1 0.084164 0.434347 0.567443
Si Si2 0.493251 0.826532 0.190254
Si Si3 0.503984 0.653322 0.533574
Si Si4 0.768360 0.053291 0.598677
Si Si5 0.911759 0.497051 0.929142
Si Si6 0.135000 0.123279 0.680788
O O1 0.299948 0.622380 0.367139
O O2 0.088952 0.257895 0.598882
O O3 0.000000 0.500000 0.500000
O O4 0.922434 0.353599 0.876909
O O5 0.547758 0.804041 0.309531
O O6 0.420308 0.952977 0.242200
O O7 0.685150 0.920722 0.873730
O O8 0.500000 0.500000 0.500000
O O9 0.652936 0.728743 0.497371
O O10 0.296549 0.564465 0.828252
O O11 0.949121 0.286485 0.357309
O O12 0.837795 0.987857 0.427650
O O13 0.000000 0.500000 0.000000
O O14 0.000000 0.000000 0.000000
#
# Coordination Sequence:
#
# PCOD9040847 Si02
#       6
#     2   2   2   2   2   2
#     4  11  25  45  69  98 145 184 227 284 357 414
#     4  10  23  45  69 101 140 186 225 280 363 410
#     4  12  23  43  74  98 139 183 234 281 344 415
#     4  10  23  43  69 102 143 173 234 286 339 417
#     4  11  21  46  69  98 140 189 223 277 355 420
#     4  12  27  44  71 110 138 176 245 292 336 409
#
# _framework density 22.270772000000001
#
# number of rings (size 3 to 8) (size 9 to 14) (size 15 to 20)
#    0.000    1.000    5.000    2.000    2.333    6.667 
#    0.000    5.000    0.000    0.000    0.000    0.000 
#    0.000    0.000    0.000    0.000    0.000    0.000 
#
# Total GULP energy -66899.775819 kJ/mol
# GULP energy per Si atom -5574.981318 kJ/mol
# Density = 2.222008 g / cm^3
# Si number density = 22.270772 Si / 1000 Ang^3
#
#
#
# Elastic Constant Matrix: (Units=GPa)
#
#
# Indices 1 2 3 4 5 6 
#
# 1 101.3721 21.9002 20.8827 2.9301 -2.7873 -11.9722
# 2 21.9002 126.8801 35.9904 33.9419 -3.4567 -8.5986
# 3 20.8827 35.9904 152.2014 24.7134 -1.7168 -8.7702
# 4 2.9301 33.9419 24.7134 38.2321 0.7439 1.0582
# 5 -2.7873 -3.4567 -1.7168 0.7439 32.3568 1.3806
# 6 -11.9722 -8.5986 -8.7702 1.0582 1.3806 22.9588
#
#
#
# Elastic Compliance Matrix: (Units=1/GPa)
#
#
# Indices 1 2 3 4 5 6 
#
# 1 0.010945 -0.001553 -0.001035 0.001071 0.000499 0.004651
# 2 -0.001553 0.011133 -0.000673 -0.009446 0.001089 0.003472
# 3 -0.001035 -0.000673 0.007721 -0.004384 0.000249 0.002345
# 4 0.001071 -0.009446 -0.004384 0.037502 -0.001744 -0.006278
# 5 0.000499 0.001089 0.000249 -0.001744 0.031162 -0.001030
# 6 0.004651 0.003472 0.002345 -0.006278 -0.001030 0.048529
#
#
# Mechanical properties :
#
#
# Convention : Reuss Voigt Hill
#
# Bulk Modulus (GPa) = 42.96106 59.77778 51.36942
# Shear Modulus (GPa) = 31.00327 38.82155 34.91241
#
# Velocity S-wave (km/s) = 3.73514 4.17965 3.96363
# Velocity P-wave (km/s) = 6.15905 7.08465 6.63800
#
# Compressibility (1/GPa) = 0.02327689
#
# Stress axis : x y z
#
# Youngs Moduli (GPa) = 91.36203 89.82699 129.51496
#
# Poissons Ratio (x) = 0.13953 0.13400
# Poissons Ratio (y) = 0.14192 0.08718
# Poissons Ratio (z) = 0.09453 0.06047
#
# Static dielectric constant tensor:
#      x y z
#    x 1.605910 -0.123040 -0.036750 
#    y -0.123040 1.871340 -0.104810 
#    z -0.036750 -0.104810 1.802380 
# 
# From -- ./inp_files/153110.got.cif
#   From: 2010.05.17/outbox.cif.g08.bks.cpg/sg2_77_cif.got.tgz:153110.got - 2010.06.03 11:33:40.
