data_PCOD9040416
_publ_section_title
;
Structure prediction by ZEFSAII (Michael W. Deem and Ramdas Pophale) SiO2 
 PCOD9040416
Probable space group: P -1
;
_chemical_formula_sum "Si O2"
_cell_formula_units_Z 16
_cell_length_a 15.449431
_cell_length_b 20.615269
_cell_length_c 9.211092
_cell_angle_alpha 115.017246
_cell_angle_beta 125.783361
_cell_angle_gamma 21.725960
_cell_volume 807.186359
_symmetry_space_group_name_H-M "P -1"
_symmetry_group_IT_number 2
_symmetry_cell_setting 'triclinic'
loop_
_space_group_symop_operation_xyz
x,y,z
-x,-y,-z
loop_
_atom_site_type_symbol
_atom_site_label
_atom_site_fract_x
_atom_site_fract_y
_atom_site_fract_z
Si Si1 0.161549 0.453496 0.711999
Si Si2 0.314637 0.804291 0.066277
Si Si3 0.296634 0.334567 0.056113
Si Si4 0.773042 0.332813 0.507905
Si Si5 0.324042 0.044853 0.946246
Si Si6 0.790708 0.831043 0.716299
Si Si7 0.690771 0.440191 0.206345
Si Si8 0.733342 0.187276 0.317101
O O1 0.476861 0.259500 0.766497
O O2 0.000000 0.500000 0.500000
O O3 0.978966 0.640582 0.726379
O O4 0.203851 0.399181 0.861417
O O5 0.504219 0.625963 0.161672
O O6 0.288664 0.817080 0.878884
O O7 0.000000 0.000000 0.000000
O O8 0.465243 0.305343 0.229159
O O9 0.505313 0.136019 0.078967
O O10 0.000000 0.500000 0.000000
O O11 0.500000 0.500000 0.500000
O O12 0.726656 0.401991 0.375364
O O13 0.789602 0.237562 0.407596
O O14 0.027267 0.213204 0.731603
O O15 0.269516 0.100712 0.115532
O O16 0.500000 0.000000 0.000000
O O17 0.003655 0.747948 0.751896
O O18 0.500000 0.000000 0.500000
O O19 0.500000 0.500000 0.000000
O O20 0.000000 0.000000 0.500000
#
# Coordination Sequence:
#
# PCOD9040416 Si02
#       8
#     2   2   2   2   2   2   2   2
#     4  10  23  43  66  97 132 175 227 275 344 401
#     4  10  24  42  68  99 134 176 227 283 333 415
#     4  11  25  44  71  95 137 179 226 287 337 417
#     4  12  27  43  71 103 142 185 230 291 349 419
#     4  12  26  45  69 106 138 182 237 284 357 413
#     4  11  24  45  70  97 141 178 230 292 339 423
#     4  11  23  43  67  99 135 180 229 278 347 402
#     4  11  24  47  66 101 139 181 232 278 353 407
#
# _framework density 19.821940999999999
#
# number of rings (size 3 to 8) (size 9 to 14) (size 15 to 20)
#    0.000    1.000    2.500    3.000    7.000    5.000 
#    2.250    0.000    0.000    0.000    0.000    0.000 
#    0.000    0.000    0.000    0.000    0.000    0.000 
#
# Total GULP energy -89072.205873 kJ/mol
# GULP energy per Si atom -5567.012867 kJ/mol
# Density = 1.977683 g / cm^3
# Si number density = 19.821941 Si / 1000 Ang^3
#
#
#
# Elastic Constant Matrix: (Units=GPa)
#
#
# Indices 1 2 3 4 5 6 
#
# 1 135.5087 53.8179 79.2048 -18.1749 1.5806 -41.1792
# 2 53.8179 91.9793 53.4839 -21.1780 -1.1261 -35.2597
# 3 79.2048 53.4839 194.9768 -25.0181 11.4153 -30.7085
# 4 -18.1749 -21.1780 -25.0181 33.2656 -0.1683 5.8621
# 5 1.5806 -1.1261 11.4153 -0.1683 47.6582 -10.4728
# 6 -41.1792 -35.2597 -30.7085 5.8621 -10.4728 39.7800
#
#
#
# Elastic Compliance Matrix: (Units=1/GPa)
#
#
# Indices 1 2 3 4 5 6 
#
# 1 0.013210 -0.001368 -0.003247 0.002098 0.002584 0.010327
# 2 -0.001368 0.020597 -0.001875 0.008277 0.004378 0.015326
# 3 -0.003247 -0.001875 0.007369 0.002596 -0.001730 -0.000172
# 4 0.002098 0.008277 0.002596 0.037328 0.001016 0.006279
# 5 0.002584 0.004378 -0.001730 0.001016 0.023916 0.011367
# 6 0.010327 0.015326 -0.000172 0.006279 0.011367 0.051348
#
#
# Mechanical properties :
#
#
# Convention : Reuss Voigt Hill
#
# Bulk Modulus (GPa) = 35.46373 88.38643 61.92508
# Shear Modulus (GPa) = 28.38550 39.87129 34.12840
#
# Velocity S-wave (km/s) = 3.78832 4.48981 4.15390
# Velocity P-wave (km/s) = 6.08811 8.45960 7.36987
#
# Compressibility (1/GPa) = 0.02819782
#
# Stress axis : x y z
#
# Youngs Moduli (GPa) = 75.70009 48.55067 135.69751
#
# Poissons Ratio (x) = 0.06642 0.44056
# Poissons Ratio (y) = 0.10356 0.25439
# Poissons Ratio (z) = 0.24577 0.09102
#
# Static dielectric constant tensor:
#      x y z
#    x 1.471570 -0.137050 -0.023640 
#    y -0.137050 1.640030 -0.047040 
#    z -0.023640 -0.047040 1.625840 
# 
# From -- ./inp_files/319401.got.cif
#   From: 2010.05.17/outbox.cif.g08.bks.cpg/sg2_160_cif.got.tgz:319401.got - 2010.06.03 11:33:40.
