data_PCOD9040067
_publ_section_title
;
Structure prediction by ZEFSAII (Michael W. Deem and Ramdas Pophale) SiO2 
 PCOD9040067
Probable space group: P -1
;
_chemical_formula_sum "Si O2"
_cell_formula_units_Z 13
_cell_length_a 8.784147
_cell_length_b 11.213067
_cell_length_c 10.598305
_cell_angle_alpha 114.922677
_cell_angle_beta 92.195483
_cell_angle_gamma 140.798974
_cell_volume 461.468713
_symmetry_space_group_name_H-M "P -1"
_symmetry_group_IT_number 2
_symmetry_cell_setting 'triclinic'
loop_
_space_group_symop_operation_xyz
x,y,z
-x,-y,-z
loop_
_atom_site_type_symbol
_atom_site_label
_atom_site_fract_x
_atom_site_fract_y
_atom_site_fract_z
Si Si1 0.376199 0.034505 0.075006
Si Si2 0.097501 0.434953 0.531186
Si Si3 0.145267 0.824036 0.257828
Si Si4 0.517422 0.176964 0.665749
Si Si5 0.704037 0.709261 0.299190
Si Si6 0.105615 0.184248 0.187325
Si Si7 0.500000 0.500000 0.500000
O O1 0.222898 0.897267 0.145806
O O2 0.664316 0.349037 0.252082
O O3 0.130266 0.886278 0.893553
O O4 0.500000 0.000000 0.000000
O O5 0.284291 0.472780 0.469416
O O6 0.000000 0.500000 0.500000
O O7 0.784431 0.121732 0.417182
O O8 0.191391 0.700120 0.236026
O O9 0.834969 0.679437 0.215816
O O10 0.420301 0.090706 0.476535
O O11 0.505053 0.322712 0.769949
O O12 0.484675 0.491132 0.313123
O O13 0.000000 0.000000 0.500000
O O14 0.154167 0.156098 0.310411
O O15 0.000000 0.000000 0.000000
#
# Coordination Sequence:
#
# PCOD9040067 Si02
#       7
#     2   2   2   2   2   2   1
#     4  12  28  49  72 119 170 211 274 342 400 492
#     4  12  25  45  81 116 160 211 273 329 405 489
#     4  10  23  45  74 109 160 206 265 334 398 481
#     4  10  23  42  79 118 145 214 272 323 414 484
#     4  10  24  46  78 116 157 205 272 332 411 487
#     4  12  28  50  78 120 162 211 276 338 410 492
#     4  12  26  46  82 108 158 214 264 334 416 468
#
# _framework density 28.170925
#
# number of rings (size 3 to 8) (size 9 to 14) (size 15 to 20)
#    0.000    0.923    3.077    2.769    6.462    4.308 
#    0.000    3.077    0.000    0.000    0.000    0.000 
#    0.000    0.000    0.000    0.000    0.000    0.000 
#
# Total GULP energy -72534.603610 kJ/mol
# GULP energy per Si atom -5579.584893 kJ/mol
# Density = 2.810681 g / cm^3
# Si number density = 28.170925 Si / 1000 Ang^3
#
#
#
# Elastic Constant Matrix: (Units=GPa)
#
#
# Indices 1 2 3 4 5 6 
#
# 1 345.6632 86.1274 49.2337 -15.1418 13.6549 19.4867
# 2 86.1274 136.5099 24.2297 -4.8163 -8.2896 13.3146
# 3 49.2337 24.2297 139.6529 -22.4762 49.8629 3.1856
# 4 -15.1418 -4.8163 -22.4762 36.4512 -1.6999 -3.8469
# 5 13.6549 -8.2896 49.8629 -1.6999 39.2206 -11.6913
# 6 19.4867 13.3146 3.1856 -3.8469 -11.6913 61.9699
#
#
#
# Elastic Compliance Matrix: (Units=1/GPa)
#
#
# Indices 1 2 3 4 5 6 
#
# 1 0.003641 -0.002295 0.000029 0.001030 -0.002035 -0.000973
# 2 -0.002295 0.009903 -0.004075 -0.001759 0.008061 0.000215
# 3 0.000029 -0.004075 0.018419 0.009209 -0.025158 -0.004255
# 4 0.001030 -0.001759 0.009209 0.032735 -0.011166 -0.000494
# 5 -0.002035 0.008061 -0.025158 -0.011166 0.062794 0.011355
# 6 -0.000973 0.000215 -0.004255 -0.000494 0.011355 0.018727
#
#
# Mechanical properties :
#
#
# Convention : Reuss Voigt Hill
#
# Bulk Modulus (GPa) = 51.86405 104.55639 78.21022
# Shear Modulus (GPa) = 30.24290 58.34402 44.29346
#
# Velocity S-wave (km/s) = 3.28006 4.55584 3.96954
# Velocity P-wave (km/s) = 5.72674 8.05418 6.98804
#
# Compressibility (1/GPa) = 0.01928118
#
# Stress axis : x y z
#
# Youngs Moduli (GPa) = 274.65229 100.97881 54.29129
#
# Poissons Ratio (x) = 0.23171 -0.00158
# Poissons Ratio (y) = 0.63023 0.22126
# Poissons Ratio (z) = -0.00798 0.41153
#
# Static dielectric constant tensor:
#      x y z
#    x 2.290420 -0.135870 -0.153310 
#    y -0.135870 2.381790 -0.015490 
#    z -0.153310 -0.015490 2.260980 
# 
# From -- ./inp_files/392861.got.cif
#   From: 2010.05.17/outbox.cif.g08.bks.cpg/sg2_197_cif.got.tgz:392861.got - 2010.06.03 11:33:40.
