data_PCOD9040464
_publ_section_title
;
Structure prediction by ZEFSAII (Michael W. Deem and Ramdas Pophale) SiO2 
 PCOD9040464
Probable space group: P -1
;
_chemical_formula_sum "Si O2"
_cell_formula_units_Z 15
_cell_length_a 16.214479
_cell_length_b 8.546225
_cell_length_c 11.458780
_cell_angle_alpha 138.528751
_cell_angle_beta 139.044489
_cell_angle_gamma 51.360418
_cell_volume 682.971393
_symmetry_space_group_name_H-M "P -1"
_symmetry_group_IT_number 2
_symmetry_cell_setting 'triclinic'
loop_
_space_group_symop_operation_xyz
x,y,z
-x,-y,-z
loop_
_atom_site_type_symbol
_atom_site_label
_atom_site_fract_x
_atom_site_fract_y
_atom_site_fract_z
Si Si1 0.759396 0.423125 0.593182
Si Si2 0.886533 0.194333 0.024144
Si Si3 0.462385 0.276373 0.584714
Si Si4 0.010555 0.655747 0.361774
Si Si5 0.259207 0.061706 0.818628
Si Si6 0.676340 0.444135 0.781340
Si Si7 0.500000 0.500000 0.000000
Si Si8 0.228548 0.775062 0.836423
O O1 0.682411 0.634360 0.553267
O O2 0.906059 0.404532 0.699896
O O3 0.729846 0.462579 0.719089
O O4 0.710546 0.171869 0.360968
O O5 0.829146 0.135555 0.053134
O O6 0.947052 0.439527 0.226718
O O7 0.773603 0.244792 0.839127
O O8 0.000000 0.000000 0.000000
O O9 0.541022 0.355818 0.602445
O O10 0.500000 0.000000 0.500000
O O11 0.501145 0.413937 0.816657
O O12 0.113364 0.714408 0.598780
O O13 0.890628 0.851479 0.314026
O O14 0.286683 0.968983 0.927956
O O15 0.324475 0.300365 0.011696
O O16 0.657702 0.435301 0.138737
#
# Coordination Sequence:
#
# PCOD9040464 Si02
#       8
#     2   2   2   2   2   2   1   2
#     4  11  24  45  71  97 136 187 219 283 346 399
#     4  11  26  38  66 104 139 177 226 285 344 404
#     4  12  28  47  69 102 135 181 234 282 342 409
#     4  10  23  43  67 101 132 180 227 278 343 409
#     4  10  24  44  71  98 135 176 228 281 340 412
#     4  11  27  44  66 102 136 176 231 281 337 415
#     4  12  24  46  72  98 136 188 226 284 340 396
#     4  11  22  45  69  95 137 182 231 280 340 404
#
# _framework density 21.962854
#
# number of rings (size 3 to 8) (size 9 to 14) (size 15 to 20)
#    0.000    1.067    4.000    2.400    9.333    2.667 
#    0.000    0.000    0.000    0.000    0.000    0.000 
#    0.000    0.000    0.000    0.000    0.000    0.000 
#
# Total GULP energy -83551.851277 kJ/mol
# GULP energy per Si atom -5570.123418 kJ/mol
# Density = 2.191287 g / cm^3
# Si number density = 21.962854 Si / 1000 Ang^3
#
#
#
# Elastic Constant Matrix: (Units=GPa)
#
#
# Indices 1 2 3 4 5 6 
#
# 1 42.1394 -9.4138 14.8398 0.8103 -12.0111 -10.1949
# 2 -9.4138 55.9116 8.3970 4.9183 1.0965 -20.3136
# 3 14.8398 8.3970 36.2905 -5.8039 -8.2085 -1.8303
# 4 0.8103 4.9183 -5.8039 29.8664 5.0068 -2.0607
# 5 -12.0111 1.0965 -8.2085 5.0068 37.0341 -3.2856
# 6 -10.1949 -20.3136 -1.8303 -2.0607 -3.2856 24.5944
#
#
#
# Elastic Compliance Matrix: (Units=1/GPa)
#
#
# Indices 1 2 3 4 5 6 
#
# 1 0.058022 0.032818 -0.026556 -0.011669 0.018028 0.050612
# 2 0.032818 0.045477 -0.020731 -0.010726 0.010601 0.050140
# 3 -0.026556 -0.020731 0.043317 0.011226 -0.002066 -0.024243
# 4 -0.011669 -0.010726 0.011226 0.038203 -0.007085 -0.010606
# 5 0.018028 0.010601 -0.002066 -0.007085 0.034821 0.020133
# 6 0.050612 0.050140 -0.024243 -0.010606 0.020133 0.103049
#
#
# Mechanical properties :
#
#
# Convention : Reuss Voigt Hill
#
# Bulk Modulus (GPa) = 8.48336 17.99862 13.24099
# Shear Modulus (GPa) = 12.78385 26.33354 19.55870
#
# Velocity S-wave (km/s) = 2.41522 3.46642 2.98742
# Velocity P-wave (km/s) = 3.41302 4.92283 4.23574
#
# Compressibility (1/GPa) = 0.11787786
#
# Stress axis : x y z
#
# Youngs Moduli (GPa) = 17.23492 21.98921 23.08575
#
# Poissons Ratio (x) = -0.72165 0.61306
# Poissons Ratio (y) = -0.56562 0.47860
# Poissons Ratio (z) = 0.45769 0.45587
#
# Static dielectric constant tensor:
#      x y z
#    x 1.846170 0.013610 0.042190 
#    y 0.013610 1.827540 0.053180 
#    z 0.042190 0.053180 1.849960 
# 
# From -- ./inp_files/461712.got.cif
#   From: 2010.05.17/outbox.cif.g08.bks.cpg/sg2_231_cif.got.tgz:461712.got - 2010.06.03 11:33:40.
