data_PCOD9040468
_publ_section_title
;
Structure prediction by ZEFSAII (Michael W. Deem and Ramdas Pophale) SiO2 
 PCOD9040468
Probable space group: P -1
;
_chemical_formula_sum "Si O2"
_cell_formula_units_Z 16
_cell_length_a 9.731886
_cell_length_b 14.980659
_cell_length_c 7.671733
_cell_angle_alpha 79.006194
_cell_angle_beta 92.243869
_cell_angle_gamma 141.022344
_cell_volume 679.755704
_symmetry_space_group_name_H-M "P -1"
_symmetry_group_IT_number 2
_symmetry_cell_setting 'triclinic'
loop_
_space_group_symop_operation_xyz
x,y,z
-x,-y,-z
loop_
_atom_site_type_symbol
_atom_site_label
_atom_site_fract_x
_atom_site_fract_y
_atom_site_fract_z
Si Si1 0.247884 0.869321 0.597983
Si Si2 0.365579 0.039309 0.859470
Si Si3 0.845501 0.373934 0.282493
Si Si4 0.515458 0.440446 0.684489
Si Si5 0.456055 0.249569 0.534247
Si Si6 0.942616 0.783650 0.060229
Si Si7 0.161642 0.243643 0.324048
Si Si8 0.863424 0.313919 0.906949
O O1 0.135823 0.715987 0.599224
O O2 0.062145 0.846661 0.548354
O O3 0.500000 0.000000 0.500000
O O4 0.286521 0.911110 0.789755
O O5 0.352157 0.116049 0.695161
O O6 0.619957 0.164555 0.879028
O O7 0.190891 0.952090 0.042548
O O8 0.618077 0.294199 0.379890
O O9 0.025198 0.546055 0.248757
O O10 0.838056 0.342962 0.088985
O O11 0.500000 0.500000 0.500000
O O12 0.583294 0.379273 0.632637
O O13 0.270950 0.304841 0.803272
O O14 0.691194 0.586987 0.752744
O O15 0.285579 0.227459 0.434748
O O16 0.975768 0.690891 0.095445
O O17 0.891873 0.802395 0.862308
#
# Coordination Sequence:
#
# PCOD9040468 Si02
#       8
#     2   2   2   2   2   2   2   2
#     4  11  23  44  70 102 138 183 226 280 352 410
#     4  11  25  42  68 103 141 179 228 293 345 407
#     4  11  24  44  71 103 135 182 236 284 341 414
#     4  10  23  43  67 101 138 181 229 285 341 414
#     4  11  25  44  65 104 139 177 235 280 349 403
#     4  11  23  44  70  99 139 185 235 278 354 409
#     4  10  23  44  72  96 138 185 230 284 342 412
#     4  11  24  43  71 102 139 179 237 288 343 405
#
# _framework density 23.537869000000001
#
# number of rings (size 3 to 8) (size 9 to 14) (size 15 to 20)
#    0.000    1.250    3.750    2.250    1.750    7.000 
#    0.000    0.000    0.000    0.000    0.000    0.000 
#    0.000    0.000    0.000    0.000    0.000    0.000 
#
# Total GULP energy -89303.958986 kJ/mol
# GULP energy per Si atom -5581.497437 kJ/mol
# Density = 2.348430 g / cm^3
# Si number density = 23.537869 Si / 1000 Ang^3
#
#
#
# Elastic Constant Matrix: (Units=GPa)
#
#
# Indices 1 2 3 4 5 6 
#
# 1 135.6418 5.7285 32.2403 -4.1536 5.4809 6.0752
# 2 5.7285 70.8515 -7.7839 -11.1681 10.5398 -5.7683
# 3 32.2403 -7.7839 56.6640 -25.8301 -2.4757 5.1008
# 4 -4.1536 -11.1681 -25.8301 35.6285 3.6431 -0.6445
# 5 5.4809 10.5398 -2.4757 3.6431 35.1326 -5.4309
# 6 6.0752 -5.7683 5.1008 -0.6445 -5.4309 39.2502
#
#
#
# Elastic Compliance Matrix: (Units=1/GPa)
#
#
# Indices 1 2 3 4 5 6 
#
# 1 0.009306 -0.002450 -0.008074 -0.005465 -0.000867 -0.000961
# 2 -0.002450 0.018313 0.009421 0.012879 -0.005585 0.001285
# 3 -0.008074 0.009421 0.036776 0.028870 -0.002276 -0.001986
# 4 -0.005465 0.012879 0.028870 0.053058 -0.006642 -0.001061
# 5 -0.000867 -0.005585 -0.002276 -0.006642 0.031397 0.003845
# 6 -0.000961 0.001285 -0.001986 -0.001061 0.003845 0.026588
#
#
# Mechanical properties :
#
#
# Convention : Reuss Voigt Hill
#
# Bulk Modulus (GPa) = 16.08051 35.94747 26.01399
# Shear Modulus (GPa) = 25.20511 37.53375 31.36943
#
# Velocity S-wave (km/s) = 3.27591 3.99759 3.65461
# Velocity P-wave (km/s) = 4.59949 6.05087 5.37440
#
# Compressibility (1/GPa) = 0.06218710
#
# Stress axis : x y z
#
# Youngs Moduli (GPa) = 107.46144 54.60749 27.19180
#
# Poissons Ratio (x) = 0.13379 0.21955
# Poissons Ratio (y) = 0.26329 -0.25617
# Poissons Ratio (z) = 0.86765 -0.51444
#
# Static dielectric constant tensor:
#      x y z
#    x 1.907650 -0.004040 -0.012930 
#    y -0.004040 2.037540 0.004620 
#    z -0.012930 0.004620 1.949120 
# 
# From -- ./inp_files/206957.got.cif
#   From: 2010.05.17/outbox.cif.g08.bks.cpg/sg2_104_cif.got.tgz:206957.got - 2010.06.03 11:33:40.
