data_PCOD9040688
_publ_section_title
;
Structure prediction by ZEFSAII (Michael W. Deem and Ramdas Pophale) SiO2 
 PCOD9040688
Probable space group: P -1
;
_chemical_formula_sum "Si O2"
_cell_formula_units_Z 14
_cell_length_a 24.139376
_cell_length_b 14.605740
_cell_length_c 5.526315
_cell_angle_alpha 99.379369
_cell_angle_beta 88.451395
_cell_angle_gamma 21.015238
_cell_volume 594.489358
_symmetry_space_group_name_H-M "P -1"
_symmetry_group_IT_number 2
_symmetry_cell_setting 'triclinic'
loop_
_space_group_symop_operation_xyz
x,y,z
-x,-y,-z
loop_
_atom_site_type_symbol
_atom_site_label
_atom_site_fract_x
_atom_site_fract_y
_atom_site_fract_z
Si Si1 0.301031 0.514849 0.755016
Si Si2 0.001268 0.914797 0.268338
Si Si3 0.448135 0.732527 0.213815
Si Si4 0.021176 0.708475 0.508257
Si Si5 0.906861 0.726664 0.262865
Si Si6 0.596795 0.817574 0.658451
Si Si7 0.309990 0.810081 0.893975
O O1 0.440325 0.351220 0.824905
O O2 0.382007 0.327189 0.443011
O O3 0.189890 0.621695 0.982862
O O4 0.152944 0.819629 0.792866
O O5 0.976466 0.857950 0.380188
O O6 0.000000 0.000000 0.500000
O O7 0.424541 0.710455 0.963583
O O8 0.246267 0.073255 0.466480
O O9 0.554287 0.491929 0.276146
O O10 0.206402 0.449263 0.484912
O O11 0.044378 0.570342 0.328742
O O12 0.848698 0.972071 0.813913
O O13 0.000000 0.500000 0.000000
O O14 0.796934 0.975139 0.220549
O O15 0.500000 0.000000 0.500000
O O16 0.500000 0.000000 0.000000
#
# Coordination Sequence:
#
# PCOD9040688 Si02
#       7
#     2   2   2   2   2   2   2
#     4  11  25  41  71 105 148 186 243 306 362 450
#     4  11  22  42  71 109 139 186 240 298 379 427
#     4  10  23  43  68 107 137 184 236 305 364 437
#     4  11  25  45  73  98 140 186 240 306 360 441
#     4  11  26  43  72 100 137 189 236 296 370 434
#     4  12  29  47  69 105 149 202 244 297 372 447
#     4  10  23  45  73 100 140 184 241 305 370 426
#
# _framework density 23.549621999999999
#
# number of rings (size 3 to 8) (size 9 to 14) (size 15 to 20)
#    0.000    1.143    1.429    3.000    8.000    6.857 
#    0.000    0.000    0.000    0.000    0.000    0.000 
#    0.000    0.000    0.000    0.000    0.000    0.000 
#
# Total GULP energy -78361.806052 kJ/mol
# GULP energy per Si atom -5597.271861 kJ/mol
# Density = 2.349602 g / cm^3
# Si number density = 23.549622 Si / 1000 Ang^3
#
#
#
# Elastic Constant Matrix: (Units=GPa)
#
#
# Indices 1 2 3 4 5 6 
#
# 1 130.4707 37.8904 52.4955 14.7386 5.4264 -40.1411
# 2 37.8904 85.3136 5.5159 -3.0775 -6.9001 -19.1197
# 3 52.4955 5.5159 109.4104 9.8687 11.6643 -5.5131
# 4 14.7386 -3.0775 9.8687 26.8615 12.1820 -0.3460
# 5 5.4264 -6.9001 11.6643 12.1820 40.7688 -0.6392
# 6 -40.1411 -19.1197 -5.5131 -0.3460 -0.6392 41.3898
#
#
#
# Elastic Compliance Matrix: (Units=1/GPa)
#
#
# Indices 1 2 3 4 5 6 
#
# 1 0.016159 -0.004022 -0.006378 -0.007464 0.001426 0.012923
# 2 -0.004022 0.014354 0.000903 0.002671 0.001954 0.002903
# 3 -0.006378 0.000903 0.012201 0.000260 -0.002632 -0.004182
# 4 -0.007464 0.002671 0.000260 0.047287 -0.012849 -0.005773
# 5 0.001426 0.001954 -0.002632 -0.012849 0.029298 0.002280
# 6 0.012923 0.002903 -0.004182 -0.005773 0.002280 0.037465
#
#
# Mechanical properties :
#
#
# Convention : Reuss Voigt Hill
#
# Bulk Modulus (GPa) = 42.15717 57.44425 49.80071
# Shear Modulus (GPa) = 27.22378 37.09022 32.15700
#
# Velocity S-wave (km/s) = 3.40371 3.97291 3.69928
# Velocity P-wave (km/s) = 5.77818 6.74471 6.28007
#
# Compressibility (1/GPa) = 0.02372076
#
# Stress axis : x y z
#
# Youngs Moduli (GPa) = 61.88673 69.66568 81.96116
#
# Poissons Ratio (x) = 0.28018 0.52273
# Poissons Ratio (y) = 0.24890 -0.07402
# Poissons Ratio (z) = 0.39470 -0.06291
#
# Static dielectric constant tensor:
#      x y z
#    x 1.867620 0.033150 0.003360 
#    y 0.033150 1.933130 -0.005750 
#    z 0.003360 -0.005750 1.925870 
# 
# From -- ./inp_files/66085.got.cif
#   From: 2010.05.17/outbox.cif.g08.bks.cpg/sg2_34_cif.got.tgz:66085.got - 2010.06.03 11:33:40.
