data_PCOD9040623
_publ_section_title
;
Structure prediction by ZEFSAII (Michael W. Deem and Ramdas Pophale) SiO2 
 PCOD9040623
Probable space group: P -1
;
_chemical_formula_sum "Si O2"
_cell_formula_units_Z 16
_cell_length_a 8.096352
_cell_length_b 16.349797
_cell_length_c 5.417063
_cell_angle_alpha 108.370222
_cell_angle_beta 83.480024
_cell_angle_gamma 99.873996
_cell_volume 669.094637
_symmetry_space_group_name_H-M "P -1"
_symmetry_group_IT_number 2
_symmetry_cell_setting 'triclinic'
loop_
_space_group_symop_operation_xyz
x,y,z
-x,-y,-z
loop_
_atom_site_type_symbol
_atom_site_label
_atom_site_fract_x
_atom_site_fract_y
_atom_site_fract_z
Si Si1 0.190672 0.202621 0.679378
Si Si2 0.719350 0.108646 0.102970
Si Si3 0.521373 0.903251 0.491540
Si Si4 0.815252 0.439630 0.970371
Si Si5 0.881928 0.071627 0.551131
Si Si6 0.689691 0.700289 0.756434
Si Si7 0.200875 0.489253 0.458006
Si Si8 0.330786 0.743054 0.038712
O O1 0.297299 0.122258 0.607726
O O2 0.265968 0.256712 0.478713
O O3 0.999001 0.164659 0.633982
O O4 0.212728 0.250784 0.981879
O O5 0.526131 0.099647 0.213488
O O6 0.804188 0.073094 0.293526
O O7 0.768027 0.062025 0.806531
O O8 0.757003 0.210399 0.122899
O O9 0.402407 0.821827 0.294288
O O10 0.500000 0.000000 0.500000
O O11 0.730149 0.469989 0.258837
O O12 0.730049 0.460537 0.750548
O O13 0.796847 0.335578 0.899079
O O14 0.000000 0.500000 0.000000
O O15 0.000000 0.000000 0.500000
O O16 0.752554 0.606843 0.652324
O O17 0.495464 0.706404 0.867522
O O18 0.000000 0.500000 0.500000
#
# Coordination Sequence:
#
# PCOD9040623 Si02
#       8
#     2   2   2   2   2   2   2   2
#     4  11  25  45  71 104 147 197 242 307 376 432
#     4  12  25  47  72 106 142 197 246 307 366 443
#     4  11  25  49  77 107 149 200 254 304 365 444
#     4  10  24  43  68 101 144 183 244 296 372 440
#     4  12  27  45  67 104 147 191 248 311 368 430
#     4  11  24  45  71 104 146 187 250 307 365 444
#     4  10  23  43  68 100 138 190 237 294 367 446
#     4  11  26  45  74 110 145 196 249 309 371 435
#
# _framework density 23.912908999999999
#
# number of rings (size 3 to 8) (size 9 to 14) (size 15 to 20)
#    0.000    1.000    2.500    2.625    1.750    9.500 
#    2.250    0.000    0.000    0.000    0.000    0.000 
#    0.000    0.000    0.000    0.000    0.000    0.000 
#
# Total GULP energy -89344.815179 kJ/mol
# GULP energy per Si atom -5584.050949 kJ/mol
# Density = 2.385848 g / cm^3
# Si number density = 23.912909 Si / 1000 Ang^3
#
#
#
# Elastic Constant Matrix: (Units=GPa)
#
#
# Indices 1 2 3 4 5 6 
#
# 1 69.5139 41.9134 40.4926 0.9531 0.5127 -3.1844
# 2 41.9134 187.8428 59.0751 -3.1661 -0.5953 -20.4210
# 3 40.4926 59.0751 158.5771 -4.9951 0.8681 -25.0574
# 4 0.9531 -3.1661 -4.9951 45.5078 -15.1052 0.7780
# 5 0.5127 -0.5953 0.8681 -15.1052 27.3349 4.9782
# 6 -3.1844 -20.4210 -25.0574 0.7780 4.9782 46.6479
#
#
#
# Elastic Compliance Matrix: (Units=1/GPa)
#
#
# Indices 1 2 3 4 5 6 
#
# 1 0.018490 -0.003147 -0.003922 -0.001184 -0.000555 -0.002143
# 2 -0.003147 0.006674 -0.001362 0.000381 0.000102 0.001958
# 3 -0.003922 -0.001362 0.008425 0.000674 -0.000526 0.003706
# 4 -0.001184 0.000381 0.000674 0.027223 0.015352 -0.001644
# 5 -0.000555 0.000102 -0.000526 0.015352 0.046089 -0.005451
# 6 -0.002143 0.001958 0.003706 -0.001644 -0.005451 0.024748
#
#
# Mechanical properties :
#
#
# Convention : Reuss Voigt Hill
#
# Bulk Modulus (GPa) = 59.78419 77.65508 68.71963
# Shear Modulus (GPa) = 32.44959 42.19497 37.32228
#
# Velocity S-wave (km/s) = 3.68773 4.20518 3.95493
# Velocity P-wave (km/s) = 6.57172 7.49151 7.04664
#
# Compressibility (1/GPa) = 0.01672683
#
# Stress axis : x y z
#
# Youngs Moduli (GPa) = 54.08397 149.84335 118.69969
#
# Poissons Ratio (x) = 0.47154 0.46553
# Poissons Ratio (y) = 0.17020 0.16164
# Poissons Ratio (z) = 0.21211 0.20405
#
# Static dielectric constant tensor:
#      x y z
#    x 1.978910 0.038290 0.024320 
#    y 0.038290 1.940480 0.029620 
#    z 0.024320 0.029620 1.922600 
# 
# From -- ./inp_files/39754.got.cif
#   From: 2010.05.17/outbox.cif.g08.bks.cpg/sg2_20_cif.got.tgz:39754.got - 2010.06.03 11:33:40.
