data_PCOD9040934
_publ_section_title
;
Structure prediction by ZEFSAII (Michael W. Deem and Ramdas Pophale) SiO2 
 PCOD9040934
Probable space group: P -1
;
_chemical_formula_sum "Si O2"
_cell_formula_units_Z 12
_cell_length_a 8.327139
_cell_length_b 7.826427
_cell_length_c 13.197740
_cell_angle_alpha 126.815830
_cell_angle_beta 129.367023
_cell_angle_gamma 52.588134
_cell_volume 495.092142
_symmetry_space_group_name_H-M "P -1"
_symmetry_group_IT_number 2
_symmetry_cell_setting 'triclinic'
loop_
_space_group_symop_operation_xyz
x,y,z
-x,-y,-z
loop_
_atom_site_type_symbol
_atom_site_label
_atom_site_fract_x
_atom_site_fract_y
_atom_site_fract_z
Si Si1 0.093709 0.860952 0.592070
Si Si2 0.863973 0.940163 0.749473
Si Si3 0.635912 0.429849 0.793290
Si Si4 0.380167 0.381522 0.486480
Si Si5 0.674770 0.296042 0.060087
Si Si6 0.448501 0.112601 0.132051
O O1 0.152583 0.592650 0.496723
O O2 0.325221 0.897023 0.725641
O O3 0.948952 0.918483 0.657566
O O4 0.000000 0.000000 0.500000
O O5 0.668859 0.839173 0.644484
O O6 0.064262 0.778708 0.842203
O O7 0.799438 0.211890 0.840547
O O8 0.531542 0.326295 0.626845
O O9 0.430736 0.602301 0.836204
O O10 0.719727 0.621908 0.847173
O O11 0.500000 0.500000 0.500000
O O12 0.500000 0.500000 0.000000
O O13 0.648694 0.066493 0.925513
O O14 0.500000 0.000000 0.000000
#
# Coordination Sequence:
#
# PCOD9040934 Si02
#       6
#     2   2   2   2   2   2
#     4  11  23  40  72 105 135 189 233 291 358 423
#     4  12  24  44  72 103 141 188 237 290 363 417
#     4  10  23  43  69  98 139 181 231 303 344 420
#     4  11  24  44  66 104 145 182 234 296 353 425
#     4  11  25  44  68 101 143 188 234 293 347 432
#     4   9  19  44  63  95 142 178 223 291 347 405
#
# _framework density 24.237912000000001
#
# number of rings (size 3 to 8) (size 9 to 14) (size 15 to 20)
#    0.000    1.333    5.000    2.000    2.333    4.000 
#    0.000    0.000    0.000    0.000    0.000    0.000 
#    0.000    0.000    0.000    0.000    0.000    0.000 
#
# Total GULP energy -66951.537299 kJ/mol
# GULP energy per Si atom -5579.294775 kJ/mol
# Density = 2.418275 g / cm^3
# Si number density = 24.237912 Si / 1000 Ang^3
#
#
#
# Elastic Constant Matrix: (Units=GPa)
#
#
# Indices 1 2 3 4 5 6 
#
# 1 77.0323 25.2905 26.5621 4.4355 6.4414 9.2397
# 2 25.2905 178.8184 48.5798 2.7653 12.8046 11.8411
# 3 26.5621 48.5798 139.0255 -1.3263 11.1861 16.5356
# 4 4.4355 2.7653 -1.3263 54.6711 11.3428 -10.2762
# 5 6.4414 12.8046 11.1861 11.3428 27.4665 11.9088
# 6 9.2397 11.8411 16.5356 -10.2762 11.9088 32.1915
#
#
#
# Elastic Compliance Matrix: (Units=1/GPa)
#
#
# Indices 1 2 3 4 5 6 
#
# 1 0.014576 -0.001290 -0.001968 -0.001838 0.000200 -0.003359
# 2 -0.001290 0.006419 -0.001805 0.000038 -0.001804 -0.000384
# 3 -0.001968 -0.001805 0.008615 0.000171 -0.001088 -0.002739
# 4 -0.001838 0.000038 0.000171 0.024364 -0.015811 0.014052
# 5 0.000200 -0.001804 -0.001088 -0.015811 0.054618 -0.024087
# 6 -0.003359 -0.000384 -0.002739 0.014052 -0.024087 0.046973
#
#
# Mechanical properties :
#
#
# Convention : Reuss Voigt Hill
#
# Bulk Modulus (GPa) = 51.32880 66.19343 58.76112
# Shear Modulus (GPa) = 29.03834 42.49543 35.76688
#
# Velocity S-wave (km/s) = 3.46505 4.19174 3.84560
# Velocity P-wave (km/s) = 6.10179 7.12718 6.63432
#
# Compressibility (1/GPa) = 0.01948224
#
# Stress axis : x y z
#
# Youngs Moduli (GPa) = 68.60697 155.78188 116.07971
#
# Poissons Ratio (x) = 0.20100 0.22846
# Poissons Ratio (y) = 0.08852 0.20957
# Poissons Ratio (z) = 0.13503 0.28124
#
# Static dielectric constant tensor:
#      x y z
#    x 2.290540 0.134780 -0.018940 
#    y 0.134780 1.993250 -0.001860 
#    z -0.018940 -0.001860 1.969170 
# 
# From -- ./inp_files/491672.got.cif
#   From: 2010.05.17/outbox.cif.g08.bks.cpg/sg2_246_cif.got.tgz:491672.got - 2010.06.03 11:33:40.
