data_PCOD9040820
_publ_section_title
;
Structure prediction by ZEFSAII (Michael W. Deem and Ramdas Pophale) SiO2 
 PCOD9040820
Probable space group: P -1
;
_chemical_formula_sum "Si O2"
_cell_formula_units_Z 14
_cell_length_a 7.727724
_cell_length_b 16.772369
_cell_length_c 9.837703
_cell_angle_alpha 58.474201
_cell_angle_beta 114.046157
_cell_angle_gamma 147.272762
_cell_volume 586.162107
_symmetry_space_group_name_H-M "P -1"
_symmetry_group_IT_number 2
_symmetry_cell_setting 'triclinic'
loop_
_space_group_symop_operation_xyz
x,y,z
-x,-y,-z
loop_
_atom_site_type_symbol
_atom_site_label
_atom_site_fract_x
_atom_site_fract_y
_atom_site_fract_z
Si Si1 0.357457 0.926466 0.172795
Si Si2 0.983836 0.586126 0.325195
Si Si3 0.732192 0.507535 0.031694
Si Si4 0.381273 0.370412 0.482612
Si Si5 0.794619 0.844507 0.180669
Si Si6 0.352150 0.172379 0.142814
Si Si7 0.185922 0.795574 0.717635
O O1 0.218005 0.765203 0.279751
O O2 0.055079 0.873798 0.171156
O O3 0.642875 0.066669 0.243979
O O4 0.500000 0.000000 0.000000
O O5 0.970511 0.572700 0.171012
O O6 0.615090 0.468125 0.343629
O O7 0.000000 0.500000 0.500000
O O8 0.495168 0.327048 0.091533
O O9 0.500000 0.500000 0.000000
O O10 0.945240 0.627992 0.866826
O O11 0.500000 0.500000 0.500000
O O12 0.413974 0.292597 0.655490
O O13 0.018278 0.235969 0.435500
O O14 0.612264 0.815768 0.020853
O O15 0.979602 0.998504 0.186313
O O16 0.538729 0.163540 0.284277
#
# Coordination Sequence:
#
# PCOD9040820 Si02
#       7
#     2   2   2   2   2   2   2
#     4  11  23  46  73 100 141 182 232 284 346 411
#     4  12  28  43  68 106 139 182 224 289 352 402
#     4  12  23  44  66  98 138 177 232 278 342 413
#     4  12  25  45  69  97 144 177 225 283 351 407
#     4  10  23  43  69 101 138 181 224 287 349 405
#     4  10  24  41  70 101 131 177 237 283 334 415
#     4  11  25  42  73 100 128 188 233 281 339 412
#
# _framework density 23.884176
#
# number of rings (size 3 to 8) (size 9 to 14) (size 15 to 20)
#    0.000    0.857    4.286    2.143    4.000    4.571 
#    0.000    1.429    0.000    0.000    0.000    0.000 
#    0.000    0.000    0.000    0.000    0.000    0.000 
#
# Total GULP energy -78257.290419 kJ/mol
# GULP energy per Si atom -5589.806458 kJ/mol
# Density = 2.382981 g / cm^3
# Si number density = 23.884176 Si / 1000 Ang^3
#
#
#
# Elastic Constant Matrix: (Units=GPa)
#
#
# Indices 1 2 3 4 5 6 
#
# 1 44.9266 35.0975 4.1688 -0.3747 5.7351 2.4299
# 2 35.0975 157.5328 22.5689 -12.4129 18.9077 -42.8227
# 3 4.1688 22.5689 92.5563 -13.3297 16.6702 0.7689
# 4 -0.3747 -12.4129 -13.3297 52.8980 8.5043 8.5375
# 5 5.7351 18.9077 16.6702 8.5043 34.7032 -8.2587
# 6 2.4299 -42.8227 0.7689 8.5375 -8.2587 44.8237
#
#
#
# Elastic Compliance Matrix: (Units=1/GPa)
#
#
# Indices 1 2 3 4 5 6 
#
# 1 0.030982 -0.009941 0.001934 0.000923 -0.003732 -0.012073
# 2 -0.009941 0.012371 -0.002387 0.000471 -0.001189 0.012090
# 3 0.001934 -0.002387 0.013471 0.004924 -0.007888 -0.005008
# 4 0.000923 0.000471 0.004924 0.022766 -0.009738 -0.005815
# 5 -0.003732 -0.001189 -0.007888 -0.009738 0.038181 0.008091
# 6 -0.012073 0.012090 -0.005008 -0.005815 0.008091 0.037199
#
#
# Mechanical properties :
#
#
# Convention : Reuss Voigt Hill
#
# Bulk Modulus (GPa) = 27.75060 46.52069 37.13565
# Shear Modulus (GPa) = 26.62819 42.03034 34.32927
#
# Velocity S-wave (km/s) = 3.34262 4.19950 3.79532
# Velocity P-wave (km/s) = 5.15184 6.56005 5.89813
#
# Compressibility (1/GPa) = 0.03603525
#
# Stress axis : x y z
#
# Youngs Moduli (GPa) = 32.27646 80.83480 74.23445
#
# Poissons Ratio (x) = 0.80358 -0.14357
# Poissons Ratio (y) = 0.32086 0.17722
# Poissons Ratio (z) = -0.06242 0.19298
#
# Static dielectric constant tensor:
#      x y z
#    x 1.992020 0.033070 0.032690 
#    y 0.033070 1.873040 0.051000 
#    z 0.032690 0.051000 1.830290 
# 
# From -- ./inp_files/157717.got.cif
#   From: 2010.05.17/outbox.cif.g08.bks.cpg/sg2_79_cif.got.tgz:157717.got - 2010.06.03 11:33:40.
