data_PCOD9040233
_publ_section_title
;
Structure prediction by ZEFSAII (Michael W. Deem and Ramdas Pophale) SiO2 
 PCOD9040233
Probable space group: P -1
;
_chemical_formula_sum "Si O2"
_cell_formula_units_Z 13
_cell_length_a 22.893639
_cell_length_b 5.418632
_cell_length_c 8.810445
_cell_angle_alpha 76.927862
_cell_angle_beta 30.598741
_cell_angle_gamma 69.259308
_cell_volume 513.133871
_symmetry_space_group_name_H-M "P -1"
_symmetry_group_IT_number 2
_symmetry_cell_setting 'triclinic'
loop_
_space_group_symop_operation_xyz
x,y,z
-x,-y,-z
loop_
_atom_site_type_symbol
_atom_site_label
_atom_site_fract_x
_atom_site_fract_y
_atom_site_fract_z
Si Si1 0.209410 0.159440 0.664035
Si Si2 0.441446 0.646738 0.264583
Si Si3 0.426415 0.312770 0.616209
Si Si4 0.308596 0.428232 0.148167
Si Si5 0.000000 0.000000 0.000000
Si Si6 0.867792 0.068151 0.589323
Si Si7 0.061482 0.308263 0.251734
O O1 0.227862 0.347313 0.463245
O O2 0.332685 0.920057 0.451009
O O3 0.151516 0.338507 0.915336
O O4 0.111847 0.025774 0.845213
O O5 0.401215 0.437882 0.488179
O O6 0.500000 0.500000 0.000000
O O7 0.554686 0.703170 0.083941
O O8 0.500000 0.500000 0.500000
O O9 0.500000 0.000000 0.500000
O O10 0.310126 0.351071 0.979051
O O11 0.262695 0.749798 0.204267
O O12 0.938806 0.908335 0.308240
O O13 0.949550 0.255934 0.422551
O O14 0.859698 0.942543 0.787665
O O15 0.000000 0.500000 0.500000
#
# Coordination Sequence:
#
# PCOD9040233 Si02
#       7
#     2   2   2   2   1   2   2
#     4  11  24  44  72 106 147 191 247 305 371 446
#     4  11  23  45  72 108 152 188 241 305 376 455
#     4  10  23  45  72 103 150 195 244 298 367 452
#     4  11  24  43  71 110 145 190 245 299 380 452
#     4  10  24  42  72  94 146 182 250 298 368 428
#     4  10  23  43  65 101 136 182 244 299 363 436
#     4  10  24  45  67  96 142 188 245 299 364 428
#
# _framework density 25.334520000000001
#
# number of rings (size 3 to 8) (size 9 to 14) (size 15 to 20)
#    0.000    1.538    0.000    3.231    4.308    3.692 
#   11.077    0.000    0.000    0.000    0.000    0.000 
#    0.000    0.000    0.000    0.000    0.000    0.000 
#
# Total GULP energy -72408.609098 kJ/mol
# GULP energy per Si atom -5569.893008 kJ/mol
# Density = 2.527686 g / cm^3
# Si number density = 25.334520 Si / 1000 Ang^3
#
#
#
# Elastic Constant Matrix: (Units=GPa)
#
#
# Indices 1 2 3 4 5 6 
#
# 1 96.5170 22.4263 56.4572 4.0638 7.6915 -12.1875
# 2 22.4263 93.9599 38.2375 6.3095 16.9694 -20.4751
# 3 56.4572 38.2375 166.9628 -3.6708 60.9059 -16.8047
# 4 4.0638 6.3095 -3.6708 39.8467 -10.5239 7.2562
# 5 7.6915 16.9694 60.9059 -10.5239 74.3071 -11.7735
# 6 -12.1875 -20.4751 -16.8047 7.2562 -11.7735 35.9893
#
#
#
# Elastic Compliance Matrix: (Units=1/GPa)
#
#
# Indices 1 2 3 4 5 6 
#
# 1 0.013988 -0.000975 -0.005546 -0.001386 0.003608 0.003052
# 2 -0.000975 0.013554 -0.001815 -0.003731 -0.000929 0.006982
# 3 -0.005546 -0.001815 0.011289 -0.000254 -0.008351 -0.000320
# 4 -0.001386 -0.003731 -0.000254 0.028166 0.004075 -0.007056
# 5 0.003608 -0.000929 -0.008351 0.004075 0.021178 0.002900
# 6 0.003052 0.006982 -0.000320 -0.007056 0.002900 0.035014
#
#
# Mechanical properties :
#
#
# Convention : Reuss Voigt Hill
#
# Bulk Modulus (GPa) = 45.12846 65.74240 55.43543
# Shear Modulus (GPa) = 33.95676 46.04989 40.00333
#
# Velocity S-wave (km/s) = 3.66503 4.26804 3.97798
# Velocity P-wave (km/s) = 5.98010 7.09185 6.55957
#
# Compressibility (1/GPa) = 0.02215897
#
# Stress axis : x y z
#
# Youngs Moduli (GPa) = 71.49122 73.78002 88.58275
#
# Poissons Ratio (x) = 0.07194 0.49127
# Poissons Ratio (y) = 0.06971 0.16076
# Poissons Ratio (z) = 0.39648 0.13390
#
# Static dielectric constant tensor:
#      x y z
#    x 2.079520 0.009460 0.050630 
#    y 0.009460 2.099830 -0.010880 
#    z 0.050630 -0.010880 2.048560 
# 
# From -- ./inp_files/59944.got.cif
#   From: 2010.05.17/outbox.cif.g08.bks.cpg/sg2_30_cif.got.tgz:59944.got - 2010.06.03 11:33:40.
