data_PCOD9040143
_publ_section_title
;
Structure prediction by ZEFSAII (Michael W. Deem and Ramdas Pophale) SiO2 
 PCOD9040143
Probable space group: P -1
;
_chemical_formula_sum "Si O2"
_cell_formula_units_Z 14
_cell_length_a 16.546953
_cell_length_b 20.278611
_cell_length_c 20.251288
_cell_angle_alpha 160.439389
_cell_angle_beta 160.897428
_cell_angle_gamma 19.318416
_cell_volume 650.535697
_symmetry_space_group_name_H-M "P -1"
_symmetry_group_IT_number 2
_symmetry_cell_setting 'triclinic'
loop_
_space_group_symop_operation_xyz
x,y,z
-x,-y,-z
loop_
_atom_site_type_symbol
_atom_site_label
_atom_site_fract_x
_atom_site_fract_y
_atom_site_fract_z
Si Si1 0.658434 0.031983 0.483798
Si Si2 0.763039 0.481617 0.757372
Si Si3 0.320555 0.416286 0.689454
Si Si4 0.347173 0.358311 0.804533
Si Si5 0.551823 0.751301 0.717325
Si Si6 0.794141 0.817107 0.837710
Si Si7 0.268239 0.896601 0.823728
O O1 0.526776 0.244248 0.631790
O O2 0.428688 0.086352 0.301406
O O3 0.708051 0.812608 0.356200
O O4 0.954383 0.990474 0.642632
O O5 0.736189 0.580029 0.755870
O O6 0.742131 0.253765 0.517688
O O7 0.469834 0.641627 0.720134
O O8 0.000000 0.500000 0.000000
O O9 0.379310 0.299528 0.696591
O O10 0.000000 0.500000 0.500000
O O11 0.386415 0.622440 0.944018
O O12 0.091559 0.616185 0.854388
O O13 0.693654 0.704686 0.710922
O O14 0.557522 0.982237 0.954120
O O15 0.789383 0.026138 0.071104
#
# Coordination Sequence:
#
# PCOD9040143 Si02
#       7
#     2   2   2   2   2   2   2
#     4  12  24  43  68  94 129 178 209 264 334 371
#     4  11  23  41  69  92 124 173 213 262 330 373
#     4  11  23  44  69  94 133 172 212 270 324 369
#     4  11  24  43  66  97 133 163 227 266 304 403
#     4   9  23  42  60  95 127 156 222 258 312 389
#     4  10  23  43  63  97 131 168 216 265 318 384
#     4  10  24  42  62  91 130 164 211 267 316 380
#
# _framework density 21.520724999999999
#
# number of rings (size 3 to 8) (size 9 to 14) (size 15 to 20)
#    0.857    0.571    2.857    1.714    2.000    5.714 
#    2.571    0.000    0.000    0.000    0.000    0.000 
#    0.000    0.000    0.000    0.000    0.000    0.000 
#
# Total GULP energy -78069.069856 kJ/mol
# GULP energy per Si atom -5576.362133 kJ/mol
# Density = 2.147174 g / cm^3
# Si number density = 21.520725 Si / 1000 Ang^3
#
#
#
# Elastic Constant Matrix: (Units=GPa)
#
#
# Indices 1 2 3 4 5 6 
#
# 1 63.4740 12.1912 5.2215 -2.1827 -12.0463 0.6023
# 2 12.1912 62.0711 30.7452 -15.2565 -2.9186 -10.4972
# 3 5.2215 30.7452 111.6321 -18.4672 10.5362 18.0803
# 4 -2.1827 -15.2565 -18.4672 34.8489 9.1704 -1.2356
# 5 -12.0463 -2.9186 10.5362 9.1704 25.6485 -1.9612
# 6 0.6023 -10.4972 18.0803 -1.2356 -1.9612 26.7922
#
#
#
# Elastic Compliance Matrix: (Units=1/GPa)
#
#
# Indices 1 2 3 4 5 6 
#
# 1 0.018323 -0.003324 -0.001512 -0.003797 0.010197 -0.000123
# 2 -0.003324 0.025764 -0.009164 0.005655 0.004408 0.016937
# 3 -0.001512 -0.009164 0.016359 0.007241 -0.012221 -0.015156
# 4 -0.003797 0.005655 0.007241 0.039541 -0.018413 -0.002109
# 5 0.010197 0.004408 -0.012221 -0.018413 0.056881 0.013059
# 6 -0.000123 0.016937 -0.015156 -0.002109 0.013059 0.055050
#
#
# Mechanical properties :
#
#
# Convention : Reuss Voigt Hill
#
# Bulk Modulus (GPa) = 30.82107 37.05477 33.93792
# Shear Modulus (GPa) = 19.94147 30.05922 25.00035
#
# Velocity S-wave (km/s) = 3.04734 3.74138 3.41205
# Velocity P-wave (km/s) = 5.17053 5.99328 5.59704
#
# Compressibility (1/GPa) = 0.03244534
#
# Stress axis : x y z
#
# Youngs Moduli (GPa) = 54.57582 38.81350 61.12963
#
# Poissons Ratio (x) = 0.12903 0.09243
# Poissons Ratio (y) = 0.18143 0.56019
# Poissons Ratio (z) = 0.08252 0.35569
#
# Static dielectric constant tensor:
#      x y z
#    x 1.771190 -0.015290 0.003970 
#    y -0.015290 1.749130 0.008440 
#    z 0.003970 0.008440 1.828480 
# 
# From -- ./inp_files/600563.got.cif
#   From: 2010.05.17/outbox.cif.g08.bks.cpg/sg2_301_cif.got.tgz:600563.got - 2010.06.03 11:33:40.
