data_PCOD9040382
_publ_section_title
;
Structure prediction by ZEFSAII (Michael W. Deem and Ramdas Pophale) SiO2 
 PCOD9040382
Probable space group: P -1
;
_chemical_formula_sum "Si O2"
_cell_formula_units_Z 14
_cell_length_a 8.454390
_cell_length_b 8.662196
_cell_length_c 16.528861
_cell_angle_alpha 112.068359
_cell_angle_beta 57.380518
_cell_angle_gamma 145.846697
_cell_volume 566.003652
_symmetry_space_group_name_H-M "P -1"
_symmetry_group_IT_number 2
_symmetry_cell_setting 'triclinic'
loop_
_space_group_symop_operation_xyz
x,y,z
-x,-y,-z
loop_
_atom_site_type_symbol
_atom_site_label
_atom_site_fract_x
_atom_site_fract_y
_atom_site_fract_z
Si Si1 0.624452 0.008798 0.798979
Si Si2 0.700465 0.036130 0.388510
Si Si3 0.313579 0.449041 0.740079
Si Si4 0.144130 0.635056 0.352428
Si Si5 0.112050 0.226721 0.454953
Si Si6 0.711515 0.661273 0.097677
Si Si7 0.563661 0.800595 0.026854
O O1 0.722744 0.179586 0.725673
O O2 0.507496 0.059601 0.906185
O O3 0.948007 0.158850 0.769864
O O4 0.377065 0.691795 0.781486
O O5 0.911878 0.318441 0.337377
O O6 0.919746 0.084015 0.395491
O O7 0.500000 0.000000 0.500000
O O8 0.436876 0.776512 0.352021
O O9 0.529317 0.544453 0.624995
O O10 0.404461 0.436194 0.798672
O O11 0.962064 0.648800 0.457536
O O12 0.000000 0.000000 0.500000
O O13 0.542096 0.678077 0.091884
O O14 0.657199 0.446491 0.025376
O O15 0.079324 0.964137 0.054832
#
# Coordination Sequence:
#
# PCOD9040382 Si02
#       7
#     2   2   2   2   2   2   2
#     4  12  26  43  68 103 134 179 218 276 330 403
#     4  10  23  43  66  92 122 183 226 275 320 389
#     4  12  27  43  66 104 136 179 224 265 339 397
#     4  11  24  46  66  96 134 175 234 264 333 389
#     4  11  24  46  66  98 141 180 217 282 324 389
#     4  10  23  46  70 101 129 171 224 273 337 399
#     4  10  23  46  72  96 134 172 216 283 333 390
#
# _framework density 24.734822000000001
#
# number of rings (size 3 to 8) (size 9 to 14) (size 15 to 20)
#    0.000    1.143    1.429    4.286    4.000    7.429 
#    5.143    0.000    0.000    0.000    0.000    0.000 
#    0.000    0.000    0.000    0.000    0.000    0.000 
#
# Total GULP energy -78503.538839 kJ/mol
# GULP energy per Si atom -5607.395631 kJ/mol
# Density = 2.467852 g / cm^3
# Si number density = 24.734822 Si / 1000 Ang^3
#
#
#
# Elastic Constant Matrix: (Units=GPa)
#
#
# Indices 1 2 3 4 5 6 
#
# 1 64.5722 0.7320 30.4630 6.3610 4.2412 -9.5484
# 2 0.7320 74.0363 -0.3362 0.9044 -6.2462 -16.0269
# 3 30.4630 -0.3362 84.8408 0.1117 9.6473 -22.1917
# 4 6.3610 0.9044 0.1117 28.9929 -14.3352 -1.9142
# 5 4.2412 -6.2462 9.6473 -14.3352 45.0099 1.4448
# 6 -9.5484 -16.0269 -22.1917 -1.9142 1.4448 39.9651
#
#
#
# Elastic Compliance Matrix: (Units=1/GPa)
#
#
# Indices 1 2 3 4 5 6 
#
# 1 0.019316 -0.000170 -0.006484 -0.005214 -0.002140 0.000774
# 2 -0.000170 0.015171 0.001741 0.000916 0.001816 0.006989
# 3 -0.006484 0.001741 0.016678 0.000458 -0.002850 0.008535
# 4 -0.005214 0.000916 0.000458 0.042619 0.014065 0.000909
# 5 -0.002140 0.001816 -0.002850 0.014065 0.027816 -0.001698
# 6 0.000774 0.006989 0.008535 0.000909 -0.001698 0.032854
#
#
# Mechanical properties :
#
#
# Convention : Reuss Voigt Hill
#
# Bulk Modulus (GPa) = 24.18891 31.68522 27.93707
# Shear Modulus (GPa) = 28.08082 35.63293 31.85687
#
# Velocity S-wave (km/s) = 3.37304 3.79964 3.59268
# Velocity P-wave (km/s) = 4.99704 5.66458 5.34125
#
# Compressibility (1/GPa) = 0.04134126
#
# Stress axis : x y z
#
# Youngs Moduli (GPa) = 51.77089 65.91380 59.96047
#
# Poissons Ratio (x) = 0.01118 0.38876
# Poissons Ratio (y) = 0.00878 -0.10441
# Poissons Ratio (z) = 0.33566 -0.11478
#
# Static dielectric constant tensor:
#      x y z
#    x 1.985130 -0.005400 0.000290 
#    y -0.005400 1.918580 0.020330 
#    z 0.000290 0.020330 1.938560 
# 
# From -- ./inp_files/217233.got.cif
#   From: 2010.05.17/outbox.cif.g08.bks.cpg/sg2_109_cif.got.tgz:217233.got - 2010.06.03 11:33:40.
