data_PCOD9040094
_publ_section_title
;
Structure prediction by ZEFSAII (Michael W. Deem and Ramdas Pophale) SiO2 
 PCOD9040094
Probable space group: P -1
;
_chemical_formula_sum "Si O2"
_cell_formula_units_Z 16
_cell_length_a 25.475906
_cell_length_b 17.255414
_cell_length_c 12.315675
_cell_angle_alpha 139.957052
_cell_angle_beta 150.180123
_cell_angle_gamma 18.760526
_cell_volume 811.166749
_symmetry_space_group_name_H-M "P -1"
_symmetry_group_IT_number 2
_symmetry_cell_setting 'triclinic'
loop_
_space_group_symop_operation_xyz
x,y,z
-x,-y,-z
loop_
_atom_site_type_symbol
_atom_site_label
_atom_site_fract_x
_atom_site_fract_y
_atom_site_fract_z
Si Si1 0.504479 0.581536 0.492407
Si Si2 0.436252 0.624413 0.167613
Si Si3 0.219398 0.603074 0.719075
Si Si4 0.932092 0.198452 0.550822
Si Si5 0.935547 0.433633 0.930806
Si Si6 0.978200 0.875815 0.803704
Si Si7 0.706653 0.719217 0.617086
Si Si8 0.972178 0.239886 0.990936
O O1 0.500000 0.500000 0.500000
O O2 0.457280 0.579197 0.285542
O O3 0.283338 0.887723 0.439357
O O4 0.752319 0.385686 0.721421
O O5 0.660960 0.468823 0.372508
O O6 0.404649 0.522350 0.954544
O O7 0.209398 0.930328 0.064520
O O8 0.020759 0.842867 0.536890
O O9 0.284288 0.410495 0.577708
O O10 0.130732 0.690405 0.775753
O O11 0.028856 0.217472 0.806371
O O12 0.000000 0.000000 0.500000
O O13 0.719477 0.677416 0.725264
O O14 0.939630 0.388945 0.015878
O O15 0.081345 0.406926 0.156736
O O16 0.038332 0.743550 0.879293
O O17 0.000000 0.000000 0.000000
O O18 0.500000 0.000000 0.500000
#
# Coordination Sequence:
#
# PCOD9040094 Si02
#       8
#     2   2   2   2   2   2   2   2
#     4  11  19  33  59  86 129 169 200 242 315 381
#     4  11  22  36  58  99 127 161 199 260 333 380
#     4  11  22  41  59  92 133 161 212 254 319 381
#     4  11  24  35  62  97 130 158 204 269 329 388
#     4  10  23  43  62  91 119 165 220 253 317 373
#     4  11  21  37  60  93 130 169 201 255 323 385
#     4  10  25  44  67  86 125 176 213 266 305 368
#     4  11  21  38  66  93 130 165 210 259 320 389
#
# _framework density 19.724675000000001
#
# number of rings (size 3 to 8) (size 9 to 14) (size 15 to 20)
#    0.000    1.250    5.000    1.125    7.000    0.000 
#    0.000    0.625    0.000    1.500    0.000    0.000 
#    0.000    0.000    0.000    0.000    0.000    0.000 
#
# Total GULP energy -89098.052137 kJ/mol
# GULP energy per Si atom -5568.628259 kJ/mol
# Density = 1.967978 g / cm^3
# Si number density = 19.724675 Si / 1000 Ang^3
#
#
#
# Elastic Constant Matrix: (Units=GPa)
#
#
# Indices 1 2 3 4 5 6 
#
# 1 130.1556 30.2461 32.1002 2.6257 -29.1721 23.1248
# 2 30.2461 75.2587 37.9191 -8.3919 -4.2868 17.1389
# 3 32.1002 37.9191 80.4689 -2.1663 0.5711 2.5312
# 4 2.6257 -8.3919 -2.1663 35.2003 8.5170 -2.0585
# 5 -29.1721 -4.2868 0.5711 8.5170 45.4704 -11.8258
# 6 23.1248 17.1389 2.5312 -2.0585 -11.8258 34.3434
#
#
#
# Elastic Compliance Matrix: (Units=1/GPa)
#
#
# Indices 1 2 3 4 5 6 
#
# 1 0.011332 -0.001652 -0.003739 -0.003333 0.006629 -0.004448
# 2 -0.001652 0.020801 -0.008718 0.004548 -0.002211 -0.009115
# 3 -0.003739 -0.008718 0.017895 0.000120 -0.002222 0.004792
# 4 -0.003333 0.004548 0.000120 0.031599 -0.007849 -0.000843
# 5 0.006629 -0.002211 -0.002222 -0.007849 0.029196 0.006387
# 6 -0.004448 -0.009115 0.004792 -0.000843 0.006387 0.038457
#
#
# Mechanical properties :
#
#
# Convention : Reuss Voigt Hill
#
# Bulk Modulus (GPa) = 45.84964 54.04603 49.94783
# Shear Modulus (GPa) = 27.06086 35.37735 31.21910
#
# Velocity S-wave (km/s) = 3.70797 4.23964 3.98269
# Velocity P-wave (km/s) = 6.45193 7.17117 6.82104
#
# Compressibility (1/GPa) = 0.02181042
#
# Stress axis : x y z
#
# Youngs Moduli (GPa) = 88.24199 48.07503 55.88047
#
# Poissons Ratio (x) = 0.07940 0.20895
# Poissons Ratio (y) = 0.14574 0.48718
# Poissons Ratio (z) = 0.32996 0.41913
#
# Static dielectric constant tensor:
#      x y z
#    x 1.793830 -0.006580 -0.056410 
#    y -0.006580 1.725090 -0.036320 
#    z -0.056410 -0.036320 1.738840 
# 
# From -- ./inp_files/476972.got.cif
#   From: 2010.05.17/outbox.cif.g08.bks.cpg/sg2_239_cif.got.tgz:476972.got - 2010.06.03 11:33:40.
