data_PCOD9040306
_publ_section_title
;
Structure prediction by ZEFSAII (Michael W. Deem and Ramdas Pophale) SiO2 
 PCOD9040306
Probable space group: P -1
;
_chemical_formula_sum "Si O2"
_cell_formula_units_Z 16
_cell_length_a 12.736441
_cell_length_b 22.998837
_cell_length_c 8.496696
_cell_angle_alpha 129.130166
_cell_angle_beta 127.846587
_cell_angle_gamma 23.980688
_cell_volume 779.271261
_symmetry_space_group_name_H-M "P -1"
_symmetry_group_IT_number 2
_symmetry_cell_setting 'triclinic'
loop_
_space_group_symop_operation_xyz
x,y,z
-x,-y,-z
loop_
_atom_site_type_symbol
_atom_site_label
_atom_site_fract_x
_atom_site_fract_y
_atom_site_fract_z
Si Si1 0.471549 0.860356 0.895279
Si Si2 0.977098 0.297739 0.202423
Si Si3 0.775150 0.552444 0.322690
Si Si4 0.677163 0.475149 0.537230
Si Si5 0.042835 0.551306 0.016226
Si Si6 0.487172 0.003567 0.309986
Si Si7 0.137258 0.102723 0.756617
Si Si8 0.656211 0.237342 0.454797
O O1 0.327334 0.851518 0.762309
O O2 0.378430 0.943502 0.789549
O O3 0.403598 0.959050 0.121059
O O4 0.775060 0.697560 0.926307
O O5 0.871175 0.422790 0.234465
O O6 0.806794 0.371723 0.329522
O O7 0.265848 0.164343 0.310375
O O8 0.994636 0.223225 0.962863
O O9 0.512985 0.692935 0.421723
O O10 0.000000 0.500000 0.500000
O O11 0.754790 0.565503 0.137348
O O12 0.500000 0.500000 0.500000
O O13 0.872045 0.420558 0.747311
O O14 0.509443 0.625045 0.568386
O O15 0.000000 0.500000 0.000000
O O16 0.747289 0.900248 0.278580
O O17 0.500000 0.000000 0.500000
O O18 0.931381 0.141872 0.576349
#
# Coordination Sequence:
#
# PCOD9040306 Si02
#       8
#     2   2   2   2   2   2   2   2
#     4  11  22  46  67  95 131 174 224 266 329 404
#     4  10  23  43  65  97 126 178 233 256 334 397
#     4  11  22  39  68  96 131 177 225 271 322 404
#     4  11  26  41  68 100 139 170 213 287 336 388
#     4  12  22  42  67  97 133 168 219 278 331 389
#     4  11  24  42  70  97 127 176 226 277 325 399
#     4  11  25  43  70  95 134 179 222 281 323 401
#     4  11  25  43  65 100 136 172 222 272 343 392
#
# _framework density 20.532003
#
# number of rings (size 3 to 8) (size 9 to 14) (size 15 to 20)
#    0.000    1.000    2.500    4.875    7.000    1.000 
#    0.000    0.625    0.000    0.000    0.000    0.000 
#    0.000    0.000    0.000    0.000    0.000    0.000 
#
# Total GULP energy -89376.933910 kJ/mol
# GULP energy per Si atom -5586.058369 kJ/mol
# Density = 2.048527 g / cm^3
# Si number density = 20.532003 Si / 1000 Ang^3
#
#
#
# Elastic Constant Matrix: (Units=GPa)
#
#
# Indices 1 2 3 4 5 6 
#
# 1 146.3669 28.0444 92.7311 7.8003 -3.5977 -8.4718
# 2 28.0444 67.9121 38.3651 -4.0369 2.6239 4.4182
# 3 92.7311 38.3651 138.2410 -12.5084 2.9751 -1.4134
# 4 7.8003 -4.0369 -12.5084 30.2834 0.9659 3.0124
# 5 -3.5977 2.6239 2.9751 0.9659 29.0725 3.2581
# 6 -8.4718 4.4182 -1.4134 3.0124 3.2581 14.0982
#
#
#
# Elastic Compliance Matrix: (Units=1/GPa)
#
#
# Indices 1 2 3 4 5 6 
#
# 1 0.014732 -0.001578 -0.010231 -0.009276 0.002224 0.009790
# 2 -0.001578 0.018181 -0.003868 0.001980 -0.000688 -0.007298
# 3 -0.010231 -0.003868 0.016011 0.009283 -0.002329 -0.004776
# 4 -0.009276 0.001980 0.009283 0.040921 -0.002121 -0.013517
# 5 0.002224 -0.000688 -0.002329 -0.002121 0.035771 -0.006495
# 6 0.009790 -0.007298 -0.004776 -0.013517 -0.006495 0.083011
#
#
# Mechanical properties :
#
#
# Convention : Reuss Voigt Hill
#
# Bulk Modulus (GPa) = 56.91452 74.53345 65.72399
# Shear Modulus (GPa) = 20.33861 27.58279 23.96070
#
# Velocity S-wave (km/s) = 3.15076 3.66922 3.41983
# Velocity P-wave (km/s) = 6.40441 7.37095 6.90461
#
# Compressibility (1/GPa) = 0.01757021
#
# Stress axis : x y z
#
# Youngs Moduli (GPa) = 67.87838 55.00383 62.45520
#
# Poissons Ratio (x) = 0.08679 0.63901
# Poissons Ratio (y) = 0.10711 0.24156
# Poissons Ratio (z) = 0.69449 0.21274
#
# Static dielectric constant tensor:
#      x y z
#    x 1.705990 0.001270 -0.013360 
#    y 0.001270 1.756350 0.000610 
#    z -0.013360 0.000610 1.746920 
# 
# From -- ./inp_files/283269.got.cif
#   From: 2010.05.17/outbox.cif.g08.bks.cpg/sg2_142_cif.got.tgz:283269.got - 2010.06.03 11:33:40.
