data_PCOD9040825
_publ_section_title
;
Structure prediction by ZEFSAII (Michael W. Deem and Ramdas Pophale) SiO2 
 PCOD9040825
Probable space group: P -1
;
_chemical_formula_sum "Si O2"
_cell_formula_units_Z 16
_cell_length_a 8.789941
_cell_length_b 8.895663
_cell_length_c 17.042996
_cell_angle_alpha 75.363476
_cell_angle_beta 135.434328
_cell_angle_gamma 128.173402
_cell_volume 691.324997
_symmetry_space_group_name_H-M "P -1"
_symmetry_group_IT_number 2
_symmetry_cell_setting 'triclinic'
loop_
_space_group_symop_operation_xyz
x,y,z
-x,-y,-z
loop_
_atom_site_type_symbol
_atom_site_label
_atom_site_fract_x
_atom_site_fract_y
_atom_site_fract_z
Si Si1 0.336631 0.151279 0.620922
Si Si2 0.797619 0.365483 0.180978
Si Si3 0.268675 0.935982 0.484978
Si Si4 0.649259 0.579609 0.628987
Si Si5 0.748117 0.606483 0.252901
Si Si6 0.482981 0.751764 0.665163
Si Si7 0.658497 0.022129 0.835212
Si Si8 0.838393 0.527307 0.002005
O O1 0.484649 0.384016 0.652450
O O2 0.456198 0.078330 0.733761
O O3 0.419731 0.132514 0.567449
O O4 0.000000 0.000000 0.500000
O O5 0.866020 0.551256 0.233348
O O6 0.799437 0.419811 0.084234
O O7 0.037045 0.343175 0.278005
O O8 0.507613 0.159731 0.138062
O O9 0.248905 0.771590 0.552505
O O10 0.974489 0.825751 0.347559
O O11 0.500000 0.000000 0.500000
O O12 0.500000 0.500000 0.500000
O O13 0.622465 0.731538 0.644096
O O14 0.658197 0.441251 0.306894
O O15 0.470833 0.566410 0.127643
O O16 0.687356 0.939819 0.775209
O O17 0.959954 0.229506 0.943670
O O18 0.000000 0.500000 0.000000
#
# Coordination Sequence:
#
# PCOD9040825 Si02
#       8
#     2   2   2   2   2   2   2   2
#     4  11  22  38  68 100 142 181 229 291 351 415
#     4  11  24  46  70 104 140 183 238 293 349 424
#     4  11  23  40  65 106 138 178 228 286 350 418
#     4  12  22  40  69 109 147 184 233 293 357 415
#     4  11  24  44  71  99 139 190 236 283 359 414
#     4  10  23  43  69 101 142 188 225 293 354 419
#     4  10  25  47  71 101 140 185 237 287 358 418
#     4  12  27  49  73 101 143 189 235 300 347 419
#
# _framework density 23.143964
#
# number of rings (size 3 to 8) (size 9 to 14) (size 15 to 20)
#    0.000    1.000    1.250    5.250    3.500    4.500 
#    2.250    0.000    0.000    0.000    0.000    0.000 
#    0.000    0.000    0.000    0.000    0.000    0.000 
#
# Total GULP energy -89446.928890 kJ/mol
# GULP energy per Si atom -5590.433056 kJ/mol
# Density = 2.309129 g / cm^3
# Si number density = 23.143964 Si / 1000 Ang^3
#
#
#
# Elastic Constant Matrix: (Units=GPa)
#
#
# Indices 1 2 3 4 5 6 
#
# 1 113.2842 19.8681 36.8900 1.5435 -16.1706 -14.2917
# 2 19.8681 97.4742 30.4050 4.2216 -12.2902 -1.2552
# 3 36.8900 30.4050 128.1780 9.4851 3.6467 5.7374
# 4 1.5435 4.2216 9.4851 35.4057 2.8852 -7.4354
# 5 -16.1706 -12.2902 3.6467 2.8852 40.8627 -1.7175
# 6 -14.2917 -1.2552 5.7374 -7.4354 -1.7175 41.3945
#
#
#
# Elastic Compliance Matrix: (Units=1/GPa)
#
#
# Indices 1 2 3 4 5 6 
#
# 1 0.011361 -0.000592 -0.003565 0.001151 0.004757 0.004803
# 2 -0.000592 0.011711 -0.002671 -0.000840 0.003608 0.000520
# 3 -0.003565 -0.002671 0.009888 -0.002615 -0.003050 -0.003279
# 4 0.001151 -0.000840 -0.002615 0.030401 -0.001452 0.006135
# 5 0.004757 0.003608 -0.003050 -0.001452 0.027943 0.003073
# 6 0.004803 0.000520 -0.003279 0.006135 0.003073 0.027516
#
#
# Mechanical properties :
#
#
# Convention : Reuss Voigt Hill
#
# Bulk Modulus (GPa) = 51.80244 57.02917 54.41580
# Shear Modulus (GPa) = 35.99392 40.31745 38.15568
#
# Velocity S-wave (km/s) = 3.94790 4.17829 4.06473
# Velocity P-wave (km/s) = 6.57363 6.92618 6.75221
#
# Compressibility (1/GPa) = 0.01930411
#
# Stress axis : x y z
#
# Youngs Moduli (GPa) = 88.01825 85.38991 101.12909
#
# Poissons Ratio (x) = 0.05055 0.36051
# Poissons Ratio (y) = 0.05211 0.27015
# Poissons Ratio (z) = 0.31378 0.22810
#
# Static dielectric constant tensor:
#      x y z
#    x 1.875640 0.005580 0.006290 
#    y 0.005580 1.883310 -0.034750 
#    z 0.006290 -0.034750 1.890990 
# 
# From -- ./inp_files/354955.got.cif
#   From: 2010.05.17/outbox.cif.g08.bks.cpg/sg2_178_cif.got.tgz:354955.got - 2010.06.03 11:33:40.
