data_PCOD9040653
_publ_section_title
;
Structure prediction by ZEFSAII (Michael W. Deem and Ramdas Pophale) SiO2 
 PCOD9040653
Probable space group: P -1
;
_chemical_formula_sum "Si O2"
_cell_formula_units_Z 16
_cell_length_a 12.737077
_cell_length_b 10.069291
_cell_length_c 10.956237
_cell_angle_alpha 92.948645
_cell_angle_beta 91.114399
_cell_angle_gamma 155.694101
_cell_volume 570.045889
_symmetry_space_group_name_H-M "P -1"
_symmetry_group_IT_number 2
_symmetry_cell_setting 'triclinic'
loop_
_space_group_symop_operation_xyz
x,y,z
-x,-y,-z
loop_
_atom_site_type_symbol
_atom_site_label
_atom_site_fract_x
_atom_site_fract_y
_atom_site_fract_z
Si Si1 0.152651 0.680545 0.199315
Si Si2 0.810611 0.521947 0.974588
Si Si3 0.844017 0.613676 0.452138
Si Si4 0.732500 0.734988 0.606625
Si Si5 0.322667 0.838657 0.647230
Si Si6 0.227223 0.176445 0.908025
Si Si7 0.549892 0.756410 0.244367
Si Si8 0.426863 0.662276 0.807922
O O1 0.100521 0.512317 0.085056
O O2 0.909469 0.419999 0.270316
O O3 0.405513 0.908190 0.285467
O O4 0.268559 0.952444 0.159413
O O5 0.584494 0.317780 0.870449
O O6 0.690999 0.368225 0.098939
O O7 0.015217 0.879849 0.984042
O O8 0.860122 0.744133 0.561622
O O9 0.789577 0.395534 0.465793
O O10 0.623352 0.394516 0.339750
O O11 0.089426 0.931000 0.387899
O O12 0.500000 0.500000 0.500000
O O13 0.628985 0.570112 0.727168
O O14 0.383306 0.064359 0.636833
O O15 0.209657 0.037359 0.801190
O O16 0.265155 0.348834 0.834345
O O17 0.500000 0.500000 0.000000
#
# Coordination Sequence:
#
# PCOD9040653 Si02
#       8
#     2   2   2   2   2   2   2   2
#     4  10  23  43  68 102 144 186 228 281 341 419
#     4  11  23  44  63 101 144 179 227 278 351 414
#     4  10  25  45  68 101 134 179 233 288 343 412
#     4  11  25  46  72  98 135 177 236 289 350 408
#     4  10  23  45  71 102 139 182 234 286 345 413
#     4  12  24  37  62 100 138 179 233 277 342 411
#     4  11  24  44  68  98 139 183 224 290 345 414
#     4  11  23  41  70  99 136 187 223 285 342 417
#
# _framework density 28.067917000000001
#
# number of rings (size 3 to 8) (size 9 to 14) (size 15 to 20)
#    0.000    1.250    2.500    2.250    7.000    2.500 
#    0.000    5.000    0.000    0.000    0.000    0.000 
#    0.000    0.000    0.000    0.000    0.000    0.000 
#
# Total GULP energy -89397.370540 kJ/mol
# GULP energy per Si atom -5587.335659 kJ/mol
# Density = 2.800403 g / cm^3
# Si number density = 28.067917 Si / 1000 Ang^3
#
#
#
# Elastic Constant Matrix: (Units=GPa)
#
#
# Indices 1 2 3 4 5 6 
#
# 1 75.0083 22.2852 29.5871 -3.3007 -3.1013 -16.6675
# 2 22.2852 146.1729 6.9567 -5.2335 -1.6149 -18.7159
# 3 29.5871 6.9567 82.8615 -10.6575 -15.5598 9.4166
# 4 -3.3007 -5.2335 -10.6575 53.2854 -1.1085 -6.2058
# 5 -3.1013 -1.6149 -15.5598 -1.1085 42.5971 3.4966
# 6 -16.6675 -18.7159 9.4166 -6.2058 3.4966 50.7203
#
#
#
# Elastic Compliance Matrix: (Units=1/GPa)
#
#
# Indices 1 2 3 4 5 6 
#
# 1 0.018241 -0.001541 -0.007532 0.000244 -0.002050 0.006995
# 2 -0.001541 0.007424 -0.000253 0.000860 -0.000097 0.002392
# 3 -0.007532 -0.000253 0.016900 0.002336 0.006156 -0.005845
# 4 0.000244 0.000860 0.002336 0.019625 0.001227 0.002280
# 5 -0.002050 -0.000097 0.006156 0.001227 0.025890 -0.003487
# 6 0.006995 0.002392 -0.005845 0.002280 -0.003487 0.024502
#
#
# Mechanical properties :
#
#
# Convention : Reuss Voigt Hill
#
# Bulk Modulus (GPa) = 41.81748 46.85561 44.33655
# Shear Modulus (GPa) = 35.91850 45.66814 40.79332
#
# Velocity S-wave (km/s) = 3.58117 4.03806 3.81646
# Velocity P-wave (km/s) = 5.65957 6.20251 5.93725
#
# Compressibility (1/GPa) = 0.02391344
#
# Stress axis : x y z
#
# Youngs Moduli (GPa) = 54.82080 134.69622 59.17267
#
# Poissons Ratio (x) = 0.20753 0.44572
# Poissons Ratio (y) = 0.08446 0.01495
# Poissons Ratio (z) = 0.41294 0.03402
#
# Static dielectric constant tensor:
#      x y z
#    x 2.416850 0.025780 0.106570 
#    y 0.025780 2.165630 0.040860 
#    z 0.106570 0.040860 2.660470 
# 
# From -- ./inp_files/364878.got.cif
#   From: 2010.05.17/outbox.cif.g08.bks.cpg/sg2_183_cif.got.tgz:364878.got - 2010.06.03 11:33:40.
