data_PCOD9040118
_publ_section_title
;
Structure prediction by ZEFSAII (Michael W. Deem and Ramdas Pophale) SiO2 
 PCOD9040118
Probable space group: P -1
;
_chemical_formula_sum "Si O2"
_cell_formula_units_Z 15
_cell_length_a 9.144109
_cell_length_b 5.353768
_cell_length_c 17.491984
_cell_angle_alpha 127.847034
_cell_angle_beta 115.188727
_cell_angle_gamma 57.344112
_cell_volume 563.526675
_symmetry_space_group_name_H-M "P -1"
_symmetry_group_IT_number 2
_symmetry_cell_setting 'triclinic'
loop_
_space_group_symop_operation_xyz
x,y,z
-x,-y,-z
loop_
_atom_site_type_symbol
_atom_site_label
_atom_site_fract_x
_atom_site_fract_y
_atom_site_fract_z
Si Si1 0.489386 0.387604 0.623056
Si Si2 0.222072 0.216001 0.482901
Si Si3 0.739516 0.749463 0.809347
Si Si4 0.590741 0.890947 0.126555
Si Si5 0.669994 0.540313 0.240758
Si Si6 0.000000 0.000000 0.500000
Si Si7 0.071413 0.327085 0.308298
Si Si8 0.050361 0.595525 0.947398
O O1 0.294875 0.525206 0.563957
O O2 0.606209 0.589680 0.715504
O O3 0.427844 0.270793 0.668070
O O4 0.608029 0.137234 0.537166
O O5 0.084024 0.238289 0.520072
O O6 0.172760 0.167778 0.377488
O O7 0.810848 0.874694 0.774468
O O8 0.920882 0.507866 0.843616
O O9 0.616416 0.023269 0.895099
O O10 0.649535 0.775150 0.206323
O O11 0.743948 0.603905 0.060377
O O12 0.597539 0.241027 0.160140
O O13 0.876580 0.343723 0.262738
O O14 0.946976 0.275554 0.614050
O O15 0.000000 0.500000 0.000000
O O16 0.000000 0.000000 0.000000
#
# Coordination Sequence:
#
# PCOD9040118 Si02
#       8
#     2   2   2   2   2   1   2   2
#     4  10  23  43  63 103 146 200 260 319 372 448
#     4  11  24  40  62  98 146 202 264 323 373 432
#     4  11  26  49  80 108 153 207 252 317 393 462
#     4  11  26  49  77 117 150 199 252 315 381 472
#     4  11  24  42  74 106 151 201 262 311 369 452
#     4  12  24  40  62 100 150 200 264 324 370 426
#     4  12  25  41  70 103 146 211 264 314 377 447
#     4  12  29  52  84 121 155 190 251 321 397 479
#
# _framework density 26.618086000000002
#
# number of rings (size 3 to 8) (size 9 to 14) (size 15 to 20)
#    0.000    0.800    4.000    2.000    3.733    4.800 
#    0.000    0.000    0.000    0.000    0.000    0.000 
#    0.000    0.000    0.000    0.000    0.000    0.000 
#
# Total GULP energy -83528.954160 kJ/mol
# GULP energy per Si atom -5568.596944 kJ/mol
# Density = 2.655750 g / cm^3
# Si number density = 26.618086 Si / 1000 Ang^3
#
#
#
# Elastic Constant Matrix: (Units=GPa)
#
#
# Indices 1 2 3 4 5 6 
#
# 1 170.1394 27.1032 40.9578 -0.5427 -22.2783 13.8490
# 2 27.1032 65.2889 17.9285 11.9196 -11.2846 5.9549
# 3 40.9578 17.9285 49.9763 5.0657 -10.0552 19.5475
# 4 -0.5427 11.9196 5.0657 47.1384 -11.6693 -17.1754
# 5 -22.2783 -11.2846 -10.0552 -11.6693 63.9074 -2.5403
# 6 13.8490 5.9549 19.5475 -17.1754 -2.5403 29.9267
#
#
#
# Elastic Compliance Matrix: (Units=1/GPa)
#
#
# Indices 1 2 3 4 5 6 
#
# 1 0.007840 -0.001836 -0.006848 0.002886 0.001979 0.003034
# 2 -0.001836 0.018408 -0.002653 -0.005704 0.000982 -0.004270
# 3 -0.006848 -0.002653 0.040350 -0.015373 -0.000567 -0.031529
# 4 0.002886 -0.005704 -0.015373 0.037301 0.005652 0.031728
# 5 0.001979 0.000982 -0.000567 0.005652 0.017613 0.003998
# 6 0.003034 -0.004270 -0.031529 0.031728 0.003998 0.072004
#
#
# Mechanical properties :
#
#
# Convention : Reuss Voigt Hill
#
# Bulk Modulus (GPa) = 22.76664 50.82041 36.79353
# Shear Modulus (GPa) = 21.66107 41.48885 31.57496
#
# Velocity S-wave (km/s) = 2.85576 3.95228 3.44789
# Velocity P-wave (km/s) = 4.40970 6.32149 5.45008
#
# Compressibility (1/GPa) = 0.04392391
#
# Stress axis : x y z
#
# Youngs Moduli (GPa) = 127.55525 54.32536 24.78342
#
# Poissons Ratio (x) = 0.09972 0.16971
# Poissons Ratio (y) = 0.23415 0.06576
# Poissons Ratio (z) = 0.87345 0.14414
#
# Static dielectric constant tensor:
#      x y z
#    x 2.048380 -0.171930 0.045790 
#    y -0.171930 2.188220 0.035030 
#    z 0.045790 0.035030 2.201930 
# 
# From -- ./inp_files/552254.got.cif
#   From: 2010.05.17/outbox.cif.g08.bks.cpg/sg2_277_cif.got.tgz:552254.got - 2010.06.03 11:33:40.
