data_PCOD9040637
_publ_section_title
;
Structure prediction by ZEFSAII (Michael W. Deem and Ramdas Pophale) SiO2 
 PCOD9040637
Probable space group: P -1
;
_chemical_formula_sum "Si O2"
_cell_formula_units_Z 14
_cell_length_a 9.694720
_cell_length_b 14.804958
_cell_length_c 9.151347
_cell_angle_alpha 81.793732
_cell_angle_beta 118.462922
_cell_angle_gamma 141.257053
_cell_volume 657.094307
_symmetry_space_group_name_H-M "P -1"
_symmetry_group_IT_number 2
_symmetry_cell_setting 'triclinic'
loop_
_space_group_symop_operation_xyz
x,y,z
-x,-y,-z
loop_
_atom_site_type_symbol
_atom_site_label
_atom_site_fract_x
_atom_site_fract_y
_atom_site_fract_z
Si Si1 0.881382 0.543059 0.968894
Si Si2 0.074788 0.946259 0.641238
Si Si3 0.735882 0.701580 0.291622
Si Si4 0.929681 0.996582 0.803239
Si Si5 0.616343 0.155326 0.003923
Si Si6 0.370197 0.748435 0.691397
Si Si7 0.834211 0.545402 0.289491
O O1 0.900905 0.568477 0.146192
O O2 0.565589 0.405248 0.799641
O O3 0.000000 0.500000 0.000000
O O4 0.083289 0.704120 0.943923
O O5 0.934998 0.800333 0.510975
O O6 0.943623 0.909604 0.737913
O O7 0.000000 0.000000 0.500000
O O8 0.397679 0.094974 0.795566
O O9 0.716069 0.589076 0.250544
O O10 0.869559 0.833358 0.207904
O O11 0.628854 0.895140 0.688048
O O12 0.000000 0.000000 0.000000
O O13 0.610816 0.203972 0.145370
O O14 0.500000 0.000000 0.000000
O O15 0.353387 0.630535 0.724394
O O16 0.102207 0.658230 0.497510
#
# Coordination Sequence:
#
# PCOD9040637 Si02
#       7
#     2   2   2   2   2   2   2
#     4  12  25  46  73  98 144 186 230 283 357 420
#     4  10  23  43  68 101 139 178 230 279 352 419
#     4  11  26  45  72 106 135 187 238 284 345 427
#     4  11  22  41  72  98 140 178 229 287 352 409
#     4  12  26  45  70 106 138 181 237 292 349 417
#     4  11  25  45  69 101 145 186 228 294 356 407
#     4  11  26  45  68 104 142 185 238 283 353 419
#
# _framework density 21.305921000000001
#
# number of rings (size 3 to 8) (size 9 to 14) (size 15 to 20)
#    0.000    0.857    2.857    3.857    8.000    1.714 
#    0.000    2.143    0.000    0.000    0.000    0.000 
#    0.000    0.000    0.000    0.000    0.000    0.000 
#
# Total GULP energy -78255.718041 kJ/mol
# GULP energy per Si atom -5589.694146 kJ/mol
# Density = 2.125743 g / cm^3
# Si number density = 21.305921 Si / 1000 Ang^3
#
#
#
# Elastic Constant Matrix: (Units=GPa)
#
#
# Indices 1 2 3 4 5 6 
#
# 1 103.2364 31.8044 13.0170 13.3946 -9.2955 -2.6821
# 2 31.8044 122.7264 7.3331 16.8516 9.5836 18.1448
# 3 13.0170 7.3331 80.4471 24.6527 -16.7711 8.0361
# 4 13.3946 16.8516 24.6527 27.6736 4.4180 5.4005
# 5 -9.2955 9.5836 -16.7711 4.4180 38.5883 3.7395
# 6 -2.6821 18.1448 8.0361 5.4005 3.7395 45.8441
#
#
#
# Elastic Compliance Matrix: (Units=1/GPa)
#
#
# Indices 1 2 3 4 5 6 
#
# 1 0.011667 -0.002929 0.000830 -0.005691 0.004355 0.002012
# 2 -0.002929 0.010173 0.000895 -0.004546 -0.001968 -0.003658
# 3 0.000830 0.000895 0.021624 -0.021647 0.012100 -0.002533
# 4 -0.005691 -0.004546 -0.021647 0.063807 -0.016870 -0.000880
# 5 0.004355 -0.001968 0.012100 -0.016870 0.034831 -0.001941
# 6 0.002012 -0.003658 -0.002533 -0.000880 -0.001941 0.024085
#
#
# Mechanical properties :
#
#
# Convention : Reuss Voigt Hill
#
# Bulk Modulus (GPa) = 24.35752 45.63543 34.99647
# Shear Modulus (GPa) = 27.43034 39.37156 33.40095
#
# Velocity S-wave (km/s) = 3.59200 4.30340 3.96369
# Velocity P-wave (km/s) = 5.35354 6.79397 6.11631
#
# Compressibility (1/GPa) = 0.04105509
#
# Stress axis : x y z
#
# Youngs Moduli (GPa) = 85.71170 98.30331 46.24510
#
# Poissons Ratio (x) = 0.28795 -0.03839
# Poissons Ratio (y) = 0.25107 -0.04138
# Poissons Ratio (z) = -0.07115 -0.08797
#
# Static dielectric constant tensor:
#      x y z
#    x 1.759040 -0.010720 0.014560 
#    y -0.010720 1.825420 0.040670 
#    z 0.014560 0.040670 1.834350 
# 
# From -- ./inp_files/207140.got.cif
#   From: 2010.05.17/outbox.cif.g08.bks.cpg/sg2_104_cif.got.tgz:207140.got - 2010.06.03 11:33:40.
