data_PCOD9040490
_publ_section_title
;
Structure prediction by ZEFSAII (Michael W. Deem and Ramdas Pophale) SiO2 
 PCOD9040490
Probable space group: P -1
;
_chemical_formula_sum "Si O2"
_cell_formula_units_Z 15
_cell_length_a 13.956749
_cell_length_b 7.992993
_cell_length_c 16.092777
_cell_angle_alpha 135.872973
_cell_angle_beta 26.436605
_cell_angle_gamma 122.804660
_cell_volume 526.141119
_symmetry_space_group_name_H-M "P -1"
_symmetry_group_IT_number 2
_symmetry_cell_setting 'triclinic'
loop_
_space_group_symop_operation_xyz
x,y,z
-x,-y,-z
loop_
_atom_site_type_symbol
_atom_site_label
_atom_site_fract_x
_atom_site_fract_y
_atom_site_fract_z
Si Si1 0.603281 0.116169 0.765081
Si Si2 0.390567 0.398525 0.625825
Si Si3 0.785127 0.185109 0.338537
Si Si4 0.500000 0.000000 0.000000
Si Si5 0.189548 0.926316 0.047509
Si Si6 0.076118 0.414422 0.738125
Si Si7 0.003689 0.250215 0.459907
Si Si8 0.551370 0.555661 0.160720
O O1 0.488093 0.257716 0.820733
O O2 0.782271 0.274186 0.695994
O O3 0.774259 0.838309 0.514065
O O4 0.389200 0.058380 0.956123
O O5 0.500000 0.500000 0.500000
O O6 0.578396 0.150555 0.429994
O O7 0.167072 0.372032 0.747622
O O8 0.327021 0.632674 0.822396
O O9 0.863801 0.365935 0.280391
O O10 0.647336 0.314492 0.573136
O O11 0.021810 0.997216 0.123708
O O12 0.237500 0.146146 0.290088
O O13 0.532443 0.280316 0.057492
O O14 0.038139 0.035639 0.284551
O O15 0.807306 0.501597 0.972568
O O16 0.000000 0.500000 0.500000
#
# Coordination Sequence:
#
# PCOD9040490 Si02
#       8
#     2   2   2   1   2   2   2   2
#     4  12  24  43  70 102 137 178 228 287 337 413
#     4  10  23  43  67 103 142 187 226 284 343 406
#     4  11  23  43  69  98 137 185 226 276 347 404
#     4  12  24  44  72  94 136 178 220 292 348 398
#     4  12  24  44  74 101 143 182 230 284 346 409
#     4  11  25  44  68  99 142 182 230 282 341 411
#     4  12  26  47  68 105 141 177 227 293 348 408
#     4  12  25  45  69 100 137 180 234 288 344 409
#
# _framework density 28.509461000000002
#
# number of rings (size 3 to 8) (size 9 to 14) (size 15 to 20)
#    0.000    0.533    8.000    0.800    0.000    4.267 
#    0.000    2.667    0.000    0.000    0.000    0.000 
#    0.000    0.000    0.000    0.000    0.000    0.000 
#
# Total GULP energy -83773.430811 kJ/mol
# GULP energy per Si atom -5584.895387 kJ/mol
# Density = 2.844457 g / cm^3
# Si number density = 28.509461 Si / 1000 Ang^3
#
#
#
# Elastic Constant Matrix: (Units=GPa)
#
#
# Indices 1 2 3 4 5 6 
#
# 1 81.0360 8.8982 58.6630 -13.0218 -29.1906 24.5049
# 2 8.8982 101.4497 40.6713 -24.5856 4.7589 3.6657
# 3 58.6630 40.6713 169.5378 -34.9412 -34.4423 1.5161
# 4 -13.0218 -24.5856 -34.9412 51.6274 2.9879 -3.8740
# 5 -29.1906 4.7589 -34.4423 2.9879 78.2437 -8.8301
# 6 24.5049 3.6657 1.5161 -3.8740 -8.8301 27.2209
#
#
#
# Elastic Compliance Matrix: (Units=1/GPa)
#
#
# Indices 1 2 3 4 5 6 
#
# 1 0.026463 0.001773 -0.008754 -0.000291 0.003381 -0.022518
# 2 0.001773 0.012102 -0.003050 0.004024 -0.001921 -0.003106
# 3 -0.008754 -0.003050 0.011002 0.004320 0.002630 0.009146
# 4 -0.000291 0.004024 0.004320 0.024324 0.000987 0.003261
# 5 0.003381 -0.001921 0.002630 0.000987 0.015532 0.002247
# 6 -0.022518 -0.003106 0.009146 0.003261 0.002247 0.058110
#
#
# Mechanical properties :
#
#
# Convention : Reuss Voigt Hill
#
# Bulk Modulus (GPa) = 33.89203 63.16541 48.52872
# Shear Modulus (GPa) = 28.18020 47.67114 37.92567
#
# Velocity S-wave (km/s) = 3.14737 4.09359 3.65126
# Velocity P-wave (km/s) = 5.01216 6.67438 5.90208
#
# Compressibility (1/GPa) = 0.02950546
#
# Stress axis : x y z
#
# Youngs Moduli (GPa) = 37.78840 82.63178 90.89524
#
# Poissons Ratio (x) = -0.14649 0.79566
# Poissons Ratio (y) = -0.06699 0.27721
# Poissons Ratio (z) = 0.33079 0.25201
#
# Static dielectric constant tensor:
#      x y z
#    x 2.331830 0.028500 -0.035590 
#    y 0.028500 2.285040 -0.031540 
#    z -0.035590 -0.031540 2.087920 
# 
# From -- ./inp_files/599606.got.cif
#   From: 2010.05.17/outbox.cif.g08.bks.cpg/sg2_300_cif.got.tgz:599606.got - 2010.06.03 11:33:40.
