data_PCOD9040308
_publ_section_title
;
Structure prediction by ZEFSAII (Michael W. Deem and Ramdas Pophale) SiO2 
 PCOD9040308
Probable space group: P -1
;
_chemical_formula_sum "Si O2"
_cell_formula_units_Z 16
_cell_length_a 13.276163
_cell_length_b 8.982266
_cell_length_c 12.079896
_cell_angle_alpha 118.821449
_cell_angle_beta 130.653591
_cell_angle_gamma 98.376964
_cell_volume 691.500177
_symmetry_space_group_name_H-M "P -1"
_symmetry_group_IT_number 2
_symmetry_cell_setting 'triclinic'
loop_
_space_group_symop_operation_xyz
x,y,z
-x,-y,-z
loop_
_atom_site_type_symbol
_atom_site_label
_atom_site_fract_x
_atom_site_fract_y
_atom_site_fract_z
Si Si1 0.796214 0.372620 0.340119
Si Si2 0.604961 0.511069 0.181548
Si Si3 0.975028 0.007956 0.618095
Si Si4 0.306371 0.070604 0.946224
Si Si5 0.264892 0.108515 0.160216
Si Si6 0.097048 0.484443 0.960515
Si Si7 0.913086 0.596496 0.736766
Si Si8 0.624212 0.411552 0.650361
O O1 0.705459 0.418467 0.202867
O O2 0.000000 0.500000 0.500000
O O3 0.820876 0.495773 0.515819
O O4 0.691858 0.102115 0.182756
O O5 0.768505 0.782315 0.423911
O O6 0.500000 0.500000 0.000000
O O7 0.458526 0.335368 0.107296
O O8 0.000000 0.000000 0.500000
O O9 0.112809 0.993148 0.763965
O O10 0.019311 0.233106 0.776878
O O11 0.323458 0.039702 0.075542
O O12 0.407249 0.210424 0.399193
O O13 0.309841 0.333734 0.221748
O O14 0.051856 0.878962 0.947890
O O15 0.052653 0.567214 0.856077
O O16 0.300859 0.617587 0.197894
O O17 0.000000 0.500000 0.000000
O O18 0.744839 0.443566 0.646974
#
# Coordination Sequence:
#
# PCOD9040308 Si02
#       8
#     2   2   2   2   2   2   2   2
#     4  12  24  45  71 103 144 185 231 289 362 427
#     4  12  27  43  69 107 140 187 232 294 361 421
#     4  12  23  45  74 101 143 184 240 293 354 423
#     4  12  24  45  70 102 141 183 233 294 351 432
#     4  11  22  42  68  95 133 176 231 283 342 411
#     4  10  24  46  69 102 144 187 234 293 356 419
#     4  11  23  43  70  95 134 185 226 279 350 412
#     4  10  23  43  65  97 132 175 233 287 336 413
#
# _framework density 23.138100999999999
#
# number of rings (size 3 to 8) (size 9 to 14) (size 15 to 20)
#    0.000    0.750    5.000    2.250    0.000    0.500 
#   11.250    0.000    0.000    0.000    0.000    0.000 
#    0.000    0.000    0.000    0.000    0.000    0.000 
#
# Total GULP energy -89365.747430 kJ/mol
# GULP energy per Si atom -5585.359214 kJ/mol
# Density = 2.308544 g / cm^3
# Si number density = 23.138101 Si / 1000 Ang^3
#
#
#
# Elastic Constant Matrix: (Units=GPa)
#
#
# Indices 1 2 3 4 5 6 
#
# 1 45.4900 21.6881 23.9358 3.4312 -2.7062 -8.6117
# 2 21.6881 116.9446 47.2572 -14.3852 -11.6830 -20.4326
# 3 23.9358 47.2572 112.1167 -4.4297 -11.1012 -12.1642
# 4 3.4312 -14.3852 -4.4297 42.7003 -6.3042 4.7389
# 5 -2.7062 -11.6830 -11.1012 -6.3042 28.4238 5.6629
# 6 -8.6117 -20.4326 -12.1642 4.7389 5.6629 32.1956
#
#
#
# Elastic Compliance Matrix: (Units=1/GPa)
#
#
# Indices 1 2 3 4 5 6 
#
# 1 0.026855 -0.003245 -0.004282 -0.004556 -0.002375 0.004594
# 2 -0.003245 0.012139 -0.003462 0.004003 0.003350 0.004349
# 3 -0.004282 -0.003462 0.011648 0.000748 0.002794 0.000457
# 4 -0.004556 0.004003 0.000748 0.026845 0.008213 -0.003792
# 5 -0.002375 0.003350 0.002794 0.008213 0.040394 -0.005768
# 6 0.004594 0.004349 0.000457 -0.003792 -0.005768 0.036795
#
#
# Mechanical properties :
#
#
# Convention : Reuss Voigt Hill
#
# Bulk Modulus (GPa) = 34.88707 51.14597 43.01652
# Shear Modulus (GPa) = 26.85150 32.77527 29.81339
#
# Velocity S-wave (km/s) = 3.41029 3.76773 3.59346
# Velocity P-wave (km/s) = 5.53329 6.40940 5.98739
#
# Compressibility (1/GPa) = 0.02866392
#
# Stress axis : x y z
#
# Youngs Moduli (GPa) = 37.23659 82.38037 85.84797
#
# Poissons Ratio (x) = 0.26733 0.36763
# Poissons Ratio (y) = 0.12083 0.29721
# Poissons Ratio (z) = 0.15946 0.28520
#
# Static dielectric constant tensor:
#      x y z
#    x 1.930850 -0.027300 -0.050360 
#    y -0.027300 1.963430 0.039780 
#    z -0.050360 0.039780 1.926930 
# 
# From -- ./inp_files/530161.got.cif
#   From: 2010.05.17/outbox.cif.g08.bks.cpg/sg2_266_cif.got.tgz:530161.got - 2010.06.03 11:33:40.
