data_PCOD9040518
_publ_section_title
;
Structure prediction by ZEFSAII (Michael W. Deem and Ramdas Pophale) SiO2 
 PCOD9040518
Probable space group: P -1
;
_chemical_formula_sum "Si O2"
_cell_formula_units_Z 16
_cell_length_a 20.377724
_cell_length_b 8.959833
_cell_length_c 11.966986
_cell_angle_alpha 130.599016
_cell_angle_beta 35.174112
_cell_angle_gamma 138.600684
_cell_volume 828.292893
_symmetry_space_group_name_H-M "P -1"
_symmetry_group_IT_number 2
_symmetry_cell_setting 'triclinic'
loop_
_space_group_symop_operation_xyz
x,y,z
-x,-y,-z
loop_
_atom_site_type_symbol
_atom_site_label
_atom_site_fract_x
_atom_site_fract_y
_atom_site_fract_z
Si Si1 0.121327 0.948625 0.811056
Si Si2 0.371830 0.018513 0.197127
Si Si3 0.137497 0.600753 0.794142
Si Si4 0.379503 0.245440 0.059875
Si Si5 0.409799 0.237502 0.489077
Si Si6 0.589403 0.093999 0.311595
Si Si7 0.119060 0.262206 0.462488
Si Si8 0.125272 0.629043 0.461971
O O1 0.132969 0.795006 0.818486
O O2 0.111361 0.808171 0.645699
O O3 0.268790 0.162156 0.704616
O O4 0.000000 0.000000 0.000000
O O5 0.368955 0.132836 0.140986
O O6 0.385072 0.166118 0.359406
O O7 0.250333 0.771933 0.277838
O O8 0.500000 0.000000 0.000000
O O9 0.266833 0.709570 0.747675
O O10 0.134231 0.399910 0.624154
O O11 0.000000 0.500000 0.000000
O O12 0.246591 0.251944 0.245667
O O13 0.500000 0.500000 0.000000
O O14 0.387898 0.089042 0.875512
O O15 0.500000 0.500000 0.500000
O O16 0.496356 0.142001 0.381613
O O17 0.500000 0.000000 0.500000
O O18 0.119081 0.435592 0.455987
O O19 0.000000 0.000000 0.500000
O O20 0.000000 0.500000 0.500000
#
# Coordination Sequence:
#
# PCOD9040518 Si02
#       8
#     2   2   2   2   2   2   2   2
#     4  10  24  44  65  96 133 174 227 275 334 405
#     4  11  23  44  66  97 137 174 227 276 339 404
#     4  11  25  42  71  98 139 182 224 285 343 405
#     4  12  26  41  72 103 135 182 229 282 343 411
#     4  11  26  44  69 102 135 181 227 281 343 406
#     4  12  25  47  69  99 144 180 229 286 348 411
#     4  11  24  45  67 101 136 177 235 278 342 413
#     4  10  23  43  67  92 133 176 217 282 335 395
#
# _framework density 19.316838000000001
#
# number of rings (size 3 to 8) (size 9 to 14) (size 15 to 20)
#    0.000    1.000    2.500    3.000    7.000    5.000 
#    0.000    0.000    0.000    0.000    0.000    0.000 
#    0.000    0.000    0.000    0.000    0.000    0.000 
#
# Total GULP energy -89211.447464 kJ/mol
# GULP energy per Si atom -5575.715467 kJ/mol
# Density = 1.927287 g / cm^3
# Si number density = 19.316838 Si / 1000 Ang^3
#
#
#
# Elastic Constant Matrix: (Units=GPa)
#
#
# Indices 1 2 3 4 5 6 
#
# 1 95.5620 53.6775 60.3233 2.3433 0.8958 18.5458
# 2 53.6775 164.8121 87.4074 -19.7535 -3.3512 19.8868
# 3 60.3233 87.4074 175.5241 -12.6045 -16.8339 6.3196
# 4 2.3433 -19.7535 -12.6045 44.0985 -2.2303 -11.2382
# 5 0.8958 -3.3512 -16.8339 -2.2303 45.6696 -5.5707
# 6 18.5458 19.8868 6.3196 -11.2382 -5.5707 28.2640
#
#
#
# Elastic Compliance Matrix: (Units=1/GPa)
#
#
# Indices 1 2 3 4 5 6 
#
# 1 0.017846 -0.002347 -0.005435 -0.006954 -0.004387 -0.012473
# 2 -0.002347 0.009495 -0.003715 0.002362 -0.000945 -0.003557
# 3 -0.005435 -0.003715 0.009845 0.003219 0.004366 0.006120
# 4 -0.006954 0.002362 0.003219 0.028991 0.004697 0.014634
# 5 -0.004387 -0.000945 0.004366 0.004697 0.024891 0.009341
# 6 -0.012473 -0.003557 0.006120 0.014634 0.009341 0.052359
#
#
# Mechanical properties :
#
#
# Convention : Reuss Voigt Hill
#
# Bulk Modulus (GPa) = 70.46551 93.19052 81.82801
# Shear Modulus (GPa) = 29.21365 39.23907 34.22636
#
# Velocity S-wave (km/s) = 3.89310 4.51193 4.21389
# Velocity P-wave (km/s) = 7.53434 8.68857 8.13196
#
# Compressibility (1/GPa) = 0.01419134
#
# Stress axis : x y z
#
# Youngs Moduli (GPa) = 56.03427 105.31701 101.57801
#
# Poissons Ratio (x) = 0.24721 0.55212
# Poissons Ratio (y) = 0.13153 0.37732
# Poissons Ratio (z) = 0.30457 0.39121
#
# Static dielectric constant tensor:
#      x y z
#    x 1.622070 0.028380 -0.002030 
#    y 0.028380 1.642800 -0.015650 
#    z -0.002030 -0.015650 1.679540 
# 
# From -- ./inp_files/158719.got.cif
#   From: 2010.05.17/outbox.cif.g08.bks.cpg/sg2_80_cif.got.tgz:158719.got - 2010.06.03 11:33:40.
