data_PCOD9040692
_publ_section_title
;
Structure prediction by ZEFSAII (Michael W. Deem and Ramdas Pophale) SiO2 
 PCOD9040692
Probable space group: P -1
;
_chemical_formula_sum "Si O2"
_cell_formula_units_Z 16
_cell_length_a 8.262492
_cell_length_b 11.518676
_cell_length_c 9.495018
_cell_angle_alpha 65.833145
_cell_angle_beta 65.914582
_cell_angle_gamma 70.907633
_cell_volume 738.668057
_symmetry_space_group_name_H-M "P -1"
_symmetry_group_IT_number 2
_symmetry_cell_setting 'triclinic'
loop_
_space_group_symop_operation_xyz
x,y,z
-x,-y,-z
loop_
_atom_site_type_symbol
_atom_site_label
_atom_site_fract_x
_atom_site_fract_y
_atom_site_fract_z
Si Si1 0.213532 0.831780 0.731705
Si Si2 0.102857 0.177097 0.965758
Si Si3 0.352498 0.374012 0.722750
Si Si4 0.790771 0.210454 0.827832
Si Si5 0.530898 0.440429 0.173620
Si Si6 0.330931 0.871034 0.357157
Si Si7 0.790194 0.496806 0.577699
Si Si8 0.396079 0.948715 0.854230
O O1 0.319100 0.688970 0.809867
O O2 0.247910 0.854721 0.545847
O O3 0.304404 0.928769 0.747708
O O4 0.007662 0.837222 0.847391
O O5 0.188237 0.305101 0.861806
O O6 0.263306 0.058308 0.935013
O O7 0.955093 0.177118 0.894379
O O8 0.409057 0.458976 0.786706
O O9 0.511431 0.256506 0.669808
O O10 0.289040 0.468621 0.566450
O O11 0.810787 0.129764 0.717170
O O12 0.778197 0.356639 0.711858
O O13 0.613585 0.179019 0.986669
O O14 0.342481 0.408959 0.316752
O O15 0.500000 0.500000 0.000000
O O16 0.422086 0.997417 0.254996
O O17 0.000000 0.500000 0.500000
#
# Coordination Sequence:
#
# PCOD9040692 Si02
#       8
#     2   2   2   2   2   2   2   2
#     4  11  22  40  65  96 133 169 217 271 327 371
#     4  10  23  44  66  92 133 178 217 268 329 384
#     4  11  23  44  65  95 133 178 217 263 331 393
#     4  11  20  39  66  96 124 171 217 264 323 388
#     4  12  25  42  64  98 135 172 219 270 323 397
#     4  11  22  40  69  96 127 169 225 273 319 386
#     4  12  23  42  68  96 133 170 217 260 328 399
#     4  10  23  43  68  90 130 179 221 263 329 385
#
# _framework density 21.660609000000001
#
# number of rings (size 3 to 8) (size 9 to 14) (size 15 to 20)
#    0.000    1.000    3.750    4.875    0.000    0.500 
#    2.250    2.500    0.000    0.000    0.000    0.000 
#    0.000    0.000    0.000    0.000    0.000    0.000 
#
# Total GULP energy -89468.953526 kJ/mol
# GULP energy per Si atom -5591.809595 kJ/mol
# Density = 2.161131 g / cm^3
# Si number density = 21.660609 Si / 1000 Ang^3
#
#
#
# Elastic Constant Matrix: (Units=GPa)
#
#
# Indices 1 2 3 4 5 6 
#
# 1 70.8227 8.8896 55.3036 6.3717 -6.7750 2.7991
# 2 8.8896 59.9324 39.3549 -2.3551 -8.9028 -0.5601
# 3 55.3036 39.3549 165.4437 11.3497 6.7509 8.0397
# 4 6.3717 -2.3551 11.3497 44.1824 0.4186 3.4061
# 5 -6.7750 -8.9028 6.7509 0.4186 36.1491 2.1084
# 6 2.7991 -0.5601 8.0397 3.4061 2.1084 25.3928
#
#
#
# Elastic Compliance Matrix: (Units=1/GPa)
#
#
# Indices 1 2 3 4 5 6 
#
# 1 0.020418 0.002874 -0.007687 -0.000863 0.005988 -0.000135
# 2 0.002874 0.021774 -0.006651 0.002282 0.007036 0.001379
# 3 -0.007687 -0.006651 0.010616 -0.001771 -0.004923 -0.002014
# 4 -0.000863 0.002282 -0.001771 0.023521 0.000604 -0.002499
# 5 0.005988 0.007036 -0.004923 0.000604 0.031527 -0.001645
# 6 -0.000135 0.001379 -0.002014 -0.002499 -0.001645 0.040536
#
#
# Mechanical properties :
#
#
# Convention : Reuss Voigt Hill
#
# Bulk Modulus (GPa) = 33.46778 55.92167 44.69472
# Shear Modulus (GPa) = 27.58149 33.98824 30.78487
#
# Velocity S-wave (km/s) = 3.57227 3.96552 3.77402
# Velocity P-wave (km/s) = 5.70082 6.84400 6.29840
#
# Compressibility (1/GPa) = 0.02987949
#
# Stress axis : x y z
#
# Youngs Moduli (GPa) = 48.97735 45.92573 94.19449
#
# Poissons Ratio (x) = -0.13198 0.72410
# Poissons Ratio (y) = -0.14074 0.62647
# Poissons Ratio (z) = 0.37650 0.30544
#
# Static dielectric constant tensor:
#      x y z
#    x 1.810440 -0.022450 -0.010440 
#    y -0.022450 1.840760 -0.012580 
#    z -0.010440 -0.012580 1.787370 
# 
# From -- ./inp_files/184815.got.cif
#   From: 2010.05.17/outbox.cif.g08.bks.cpg/sg2_93_cif.got.tgz:184815.got - 2010.06.03 11:33:40.
