data_PCOD9040602
_publ_section_title
;
Structure prediction by ZEFSAII (Michael W. Deem and Ramdas Pophale) SiO2 
 PCOD9040602
Probable space group: P -1
;
_chemical_formula_sum "Si O2"
_cell_formula_units_Z 16
_cell_length_a 14.093709
_cell_length_b 6.848957
_cell_length_c 8.479039
_cell_angle_alpha 102.412187
_cell_angle_beta 88.444606
_cell_angle_gamma 115.518470
_cell_volume 719.358505
_symmetry_space_group_name_H-M "P -1"
_symmetry_group_IT_number 2
_symmetry_cell_setting 'triclinic'
loop_
_space_group_symop_operation_xyz
x,y,z
-x,-y,-z
loop_
_atom_site_type_symbol
_atom_site_label
_atom_site_fract_x
_atom_site_fract_y
_atom_site_fract_z
Si Si1 0.328798 0.881771 0.195967
Si Si2 0.766209 0.459615 0.314358
Si Si3 0.038690 0.628308 0.772282
Si Si4 0.359576 0.521966 0.951764
Si Si5 0.898694 0.169915 0.870568
Si Si6 0.599899 0.236145 0.524348
Si Si7 0.079792 0.180322 0.407661
Si Si8 0.569105 0.609567 0.772750
O O1 0.215093 0.829950 0.123530
O O2 0.319079 0.774874 0.350192
O O3 0.394758 0.144920 0.250796
O O4 0.383201 0.764708 0.062925
O O5 0.847510 0.352825 0.276524
O O6 0.742552 0.545771 0.164694
O O7 0.655742 0.287069 0.362384
O O8 0.818790 0.658061 0.470858
O O9 0.973416 0.378502 0.795894
O O10 0.978304 0.685657 0.646616
O O11 0.054312 0.787178 0.949153
O O12 0.454110 0.524846 0.841435
O O13 0.353992 0.379929 0.082672
O O14 0.890243 0.948421 0.751346
O O15 0.571841 0.433978 0.616117
O O16 0.500000 0.000000 0.500000
O O17 0.000000 0.000000 0.500000
#
# Coordination Sequence:
#
# PCOD9040602 Si02
#       8
#     2   2   2   2   2   2   2   2
#     4  11  22  42  69  97 130 180 224 269 340 399
#     4  12  24  46  69  99 138 176 221 280 332 395
#     4  11  25  47  67  95 139 178 221 277 329 397
#     4  10  23  43  67  99 131 176 226 274 336 398
#     4  11  24  45  70  96 132 182 222 272 332 401
#     4  11  26  43  67  99 137 177 221 278 339 396
#     4  12  26  42  68 104 135 175 224 277 334 394
#     4  10  23  45  68  97 136 174 222 284 327 406
#
# _framework density 22.242038000000001
#
# number of rings (size 3 to 8) (size 9 to 14) (size 15 to 20)
#    0.000    1.000    2.500    3.375    1.750    7.000 
#    0.000    0.000    0.000    0.000    0.000    0.000 
#    0.000    0.000    0.000    0.000    0.000    0.000 
#
# Total GULP energy -89566.316211 kJ/mol
# GULP energy per Si atom -5597.894763 kJ/mol
# Density = 2.219141 g / cm^3
# Si number density = 22.242038 Si / 1000 Ang^3
#
#
#
# Elastic Constant Matrix: (Units=GPa)
#
#
# Indices 1 2 3 4 5 6 
#
# 1 64.9882 16.7160 10.3182 -1.4594 -0.2368 -11.0831
# 2 16.7160 74.5549 31.3195 8.7746 -7.3278 -11.1354
# 3 10.3182 31.3195 70.1120 12.1381 9.0574 -14.2731
# 4 -1.4594 8.7746 12.1381 33.1307 -5.2869 -3.6898
# 5 -0.2368 -7.3278 9.0574 -5.2869 52.8248 -4.2336
# 6 -11.0831 -11.1354 -14.2731 -3.6898 -4.2336 37.1729
#
#
#
# Elastic Compliance Matrix: (Units=1/GPa)
#
#
# Indices 1 2 3 4 5 6 
#
# 1 0.017073 -0.003156 -0.000711 0.002362 0.000329 0.004144
# 2 -0.003156 0.018079 -0.007477 -0.001371 0.003791 0.001899
# 3 -0.000711 -0.007477 0.020162 -0.005728 -0.004736 0.004182
# 4 0.002362 -0.001371 -0.005728 0.033654 0.004325 0.001927
# 5 0.000329 0.003791 -0.004736 0.004325 0.020881 0.002223
# 6 0.004144 0.001899 0.004182 0.001927 0.002223 0.030756
#
#
# Mechanical properties :
#
#
# Convention : Reuss Voigt Hill
#
# Bulk Modulus (GPa) = 30.64987 36.26250 33.45619
# Shear Modulus (GPa) = 28.70768 34.71245 31.71006
#
# Velocity S-wave (km/s) = 3.59652 3.95482 3.77992
# Velocity P-wave (km/s) = 5.57285 6.09861 5.84165
#
# Compressibility (1/GPa) = 0.03262657
#
# Stress axis : x y z
#
# Youngs Moduli (GPa) = 58.57195 55.31157 49.59733
#
# Poissons Ratio (x) = 0.17458 0.03524
# Poissons Ratio (y) = 0.18487 0.37086
# Poissons Ratio (z) = 0.04162 0.41358
#
# Static dielectric constant tensor:
#      x y z
#    x 1.814850 0.004360 0.009690 
#    y 0.004360 1.778370 0.000320 
#    z 0.009690 0.000320 1.827290 
# 
# From -- ./inp_files/289032.got.cif
#   From: 2010.05.17/outbox.cif.g08.bks.cpg/sg2_145_cif.got.tgz:289032.got - 2010.06.03 11:33:40.
