data_PCOD9040746
_publ_section_title
;
Structure prediction by ZEFSAII (Michael W. Deem and Ramdas Pophale) SiO2 
 PCOD9040746
Probable space group: P -1
;
_chemical_formula_sum "Si O2"
_cell_formula_units_Z 16
_cell_length_a 6.348565
_cell_length_b 11.799574
_cell_length_c 15.397004
_cell_angle_alpha 57.951893
_cell_angle_beta 47.406673
_cell_angle_gamma 73.119209
_cell_volume 715.320044
_symmetry_space_group_name_H-M "P -1"
_symmetry_group_IT_number 2
_symmetry_cell_setting 'triclinic'
loop_
_space_group_symop_operation_xyz
x,y,z
-x,-y,-z
loop_
_atom_site_type_symbol
_atom_site_label
_atom_site_fract_x
_atom_site_fract_y
_atom_site_fract_z
Si Si1 0.662818 0.764462 0.047336
Si Si2 0.666161 0.496805 0.053611
Si Si3 0.957794 0.156803 0.942454
Si Si4 0.961374 0.263242 0.714476
Si Si5 0.194580 0.554533 0.558761
Si Si6 0.711983 0.890711 0.817459
Si Si7 0.050532 0.822718 0.420816
Si Si8 0.176884 0.281158 0.302125
O O1 0.582835 0.630684 0.068805
O O2 0.373042 0.799447 0.161062
O O3 0.883727 0.749381 0.067535
O O4 0.815857 0.876576 0.893231
O O5 0.490379 0.361425 0.192884
O O6 0.500000 0.500000 0.000000
O O7 0.000000 0.500000 0.000000
O O8 0.069047 0.215939 0.795561
O O9 0.621992 0.156572 0.054908
O O10 0.000000 0.000000 0.000000
O O11 0.116659 0.206651 0.611373
O O12 0.987464 0.424775 0.638025
O O13 0.500000 0.500000 0.500000
O O14 0.208306 0.687179 0.441269
O O15 0.055280 0.611451 0.661626
O O16 0.847902 0.792312 0.752857
O O17 0.760810 0.037622 0.703405
O O18 0.877720 0.820022 0.559943
#
# Coordination Sequence:
#
# PCOD9040746 Si02
#       8
#     2   2   2   2   2   2   2   2
#     4  11  23  41  70 100 144 188 244 314 369 450
#     4  12  25  47  77 111 151 199 253 321 389 454
#     4  11  25  40  70 103 138 193 244 309 374 446
#     4  11  23  44  66 101 138 179 251 296 382 432
#     4  10  24  41  68 100 137 189 241 301 375 443
#     4  11  22  44  68 101 144 185 246 295 382 451
#     4  10  23  43  68  97 146 188 239 312 368 460
#     4  10  23  45  70 104 144 191 243 307 382 452
#
# _framework density 22.367612999999999
#
# number of rings (size 3 to 8) (size 9 to 14) (size 15 to 20)
#    0.750    0.500    2.500    3.000    5.250    2.000 
#    2.250    0.000    0.000    3.750    0.000    0.000 
#    0.000    0.000    0.000    0.000    0.000    0.000 
#
# Total GULP energy -89071.738756 kJ/mol
# GULP energy per Si atom -5566.983672 kJ/mol
# Density = 2.231670 g / cm^3
# Si number density = 22.367613 Si / 1000 Ang^3
#
#
#
# Elastic Constant Matrix: (Units=GPa)
#
#
# Indices 1 2 3 4 5 6 
#
# 1 78.5318 12.9118 28.2171 8.8705 3.7969 9.7971
# 2 12.9118 81.9390 1.2339 6.8628 -5.3984 3.1620
# 3 28.2171 1.2339 103.2091 -5.7649 4.8380 1.7253
# 4 8.8705 6.8628 -5.7649 45.7030 0.8349 3.7457
# 5 3.7969 -5.3984 4.8380 0.8349 21.4941 4.7471
# 6 9.7971 3.1620 1.7253 3.7457 4.7471 26.5878
#
#
#
# Elastic Compliance Matrix: (Units=1/GPa)
#
#
# Indices 1 2 3 4 5 6 
#
# 1 0.015552 -0.002048 -0.004254 -0.002849 -0.001177 -0.004599
# 2 -0.002048 0.012958 0.000159 -0.001494 0.003923 -0.001287
# 3 -0.004254 0.000159 0.011049 0.002159 -0.001974 0.000880
# 4 -0.002849 -0.001494 0.002159 0.023111 -0.000809 -0.002024
# 5 -0.001177 0.003923 -0.001974 -0.000809 0.050123 -0.008740
# 6 -0.004599 -0.001287 0.000880 -0.002024 -0.008740 0.041248
#
#
# Mechanical properties :
#
#
# Convention : Reuss Voigt Hill
#
# Bulk Modulus (GPa) = 36.66802 38.71172 37.68987
# Shear Modulus (GPa) = 28.50356 33.51145 31.00751
#
# Velocity S-wave (km/s) = 3.57364 3.87488 3.72730
# Velocity P-wave (km/s) = 5.78419 6.11262 5.95067
#
# Compressibility (1/GPa) = 0.02727172
#
# Stress axis : x y z
#
# Youngs Moduli (GPa) = 64.30232 77.17378 90.50830
#
# Poissons Ratio (x) = 0.15805 0.38505
# Poissons Ratio (y) = 0.13169 -0.01441
# Poissons Ratio (z) = 0.27356 -0.01228
#
# Static dielectric constant tensor:
#      x y z
#    x 1.938820 0.005700 0.040170 
#    y 0.005700 1.847280 0.009790 
#    z 0.040170 0.009790 1.860900 
# 
# From -- ./inp_files/482714.got.cif
#   From: 2010.05.17/outbox.cif.g08.bks.cpg/sg2_242_cif.got.tgz:482714.got - 2010.06.03 11:33:40.
