data_PCOD9040933
_publ_section_title
;
Structure prediction by ZEFSAII (Michael W. Deem and Ramdas Pophale) SiO2 
 PCOD9040933
Probable space group: P -1
;
_chemical_formula_sum "Si O2"
_cell_formula_units_Z 14
_cell_length_a 9.549691
_cell_length_b 7.141975
_cell_length_c 11.735176
_cell_angle_alpha 86.920999
_cell_angle_beta 67.017603
_cell_angle_gamma 114.110776
_cell_volume 650.556766
_symmetry_space_group_name_H-M "P -1"
_symmetry_group_IT_number 2
_symmetry_cell_setting 'triclinic'
loop_
_space_group_symop_operation_xyz
x,y,z
-x,-y,-z
loop_
_atom_site_type_symbol
_atom_site_label
_atom_site_fract_x
_atom_site_fract_y
_atom_site_fract_z
Si Si1 0.090177 0.897831 0.895616
Si Si2 0.422555 0.983901 0.334877
Si Si3 0.640346 0.296306 0.439049
Si Si4 0.451815 0.382257 0.209828
Si Si5 0.269685 0.386318 0.053960
Si Si6 0.395723 0.047515 0.934856
Si Si7 0.330957 0.308662 0.665337
O O1 0.195805 0.084835 0.765793
O O2 0.221367 0.866203 0.938199
O O3 0.931214 0.697021 0.897823
O O4 0.000000 0.000000 0.000000
O O5 0.591750 0.147484 0.348555
O O6 0.361221 0.143572 0.294300
O O7 0.477815 0.883317 0.216964
O O8 0.308175 0.807326 0.469193
O O9 0.455597 0.276047 0.538554
O O10 0.746619 0.544100 0.367863
O O11 0.324715 0.424475 0.166917
O O12 0.544384 0.541674 0.278739
O O13 0.609828 0.421403 0.072937
O O14 0.329871 0.210422 0.998897
O O15 0.500000 0.000000 0.000000
#
# Coordination Sequence:
#
# PCOD9040933 Si02
#       7
#     2   2   2   2   2   2   2
#     4  10  19  34  56  82 112 147 175 226 275 335
#     4  10  18  31  52  81 109 134 190 232 268 301
#     4   9  19  31  54  82 100 146 188 236 249 324
#     4  10  18  31  54  80 110 144 182 220 262 344
#     4  10  20  33  54  81 115 145 177 212 287 330
#     4  11  19  33  55  84 110 144 173 227 277 331
#     4  10  17  33  57  78 106 140 195 220 271 319
#
# _framework density 21.520029000000001
#
# number of rings (size 3 to 8) (size 9 to 14) (size 15 to 20)
#    0.000    2.000    5.714    0.000    0.000    0.000 
#    0.000    0.714    0.000    8.571    0.000    0.000 
#    0.000    0.000    0.000    0.000    0.000    0.000 
#
# Total GULP energy -77981.666416 kJ/mol
# GULP energy per Si atom -5570.119030 kJ/mol
# Density = 2.147105 g / cm^3
# Si number density = 21.520029 Si / 1000 Ang^3
#
#
#
# Elastic Constant Matrix: (Units=GPa)
#
#
# Indices 1 2 3 4 5 6 
#
# 1 106.6490 33.7348 28.4419 -14.0740 25.8543 12.8901
# 2 33.7348 71.9380 24.0111 -2.1567 8.4038 -2.4311
# 3 28.4419 24.0111 94.1265 2.2499 26.6046 0.0942
# 4 -14.0740 -2.1567 2.2499 34.3319 -3.3191 2.7634
# 5 25.8543 8.4038 26.6046 -3.3191 30.0241 -2.5562
# 6 12.8901 -2.4311 0.0942 2.7634 -2.5562 37.3754
#
#
#
# Elastic Compliance Matrix: (Units=1/GPa)
#
#
# Indices 1 2 3 4 5 6 
#
# 1 0.015747 -0.006079 0.000024 0.005491 -0.011873 -0.007044
# 2 -0.006079 0.017638 -0.003706 -0.001066 0.003770 0.003590
# 3 0.000024 -0.003706 0.015251 -0.002385 -0.012845 -0.000990
# 4 0.005491 -0.001066 -0.002385 0.031892 0.000846 -0.004257
# 5 -0.011873 0.003770 -0.012845 0.000846 0.054636 0.008046
# 6 -0.007044 0.003590 -0.000990 -0.004257 0.008046 0.030286
#
#
# Mechanical properties :
#
#
# Convention : Reuss Voigt Hill
#
# Bulk Modulus (GPa) = 34.34825 49.45433 41.90129
# Shear Modulus (GPa) = 25.68360 32.78132 29.23246
#
# Velocity S-wave (km/s) = 3.45842 3.90717 3.68962
# Velocity P-wave (km/s) = 5.65184 6.58674 6.13712
#
# Compressibility (1/GPa) = 0.02911357
#
# Stress axis : x y z
#
# Youngs Moduli (GPa) = 63.50249 56.69717 65.57074
#
# Poissons Ratio (x) = 0.34467 -0.00157
# Poissons Ratio (y) = 0.38604 0.24300
# Poissons Ratio (z) = -0.00152 0.21012
#
# Static dielectric constant tensor:
#      x y z
#    x 1.821820 -0.054330 0.041290 
#    y -0.054330 1.911770 -0.014060 
#    z 0.041290 -0.014060 1.818960 
# 
# From -- ./inp_files/294856.got.cif
#   From: 2010.05.17/outbox.cif.g08.bks.cpg/sg2_148_cif.got.tgz:294856.got - 2010.06.03 11:33:40.
