data_PCOD9040779
_publ_section_title
;
Structure prediction by ZEFSAII (Michael W. Deem and Ramdas Pophale) SiO2 
 PCOD9040779
Probable space group: P -1
;
_chemical_formula_sum "Si O2"
_cell_formula_units_Z 15
_cell_length_a 13.794203
_cell_length_b 6.564023
_cell_length_c 12.105033
_cell_angle_alpha 87.614117
_cell_angle_beta 136.080075
_cell_angle_gamma 116.591270
_cell_volume 606.208396
_symmetry_space_group_name_H-M "P -1"
_symmetry_group_IT_number 2
_symmetry_cell_setting 'triclinic'
loop_
_space_group_symop_operation_xyz
x,y,z
-x,-y,-z
loop_
_atom_site_type_symbol
_atom_site_label
_atom_site_fract_x
_atom_site_fract_y
_atom_site_fract_z
Si Si1 0.276957 0.861532 0.702489
Si Si2 0.778918 0.148236 0.921186
Si Si3 0.509200 0.735221 0.540656
Si Si4 0.745544 0.228150 0.570246
Si Si5 0.606222 0.398756 0.040826
Si Si6 0.051401 0.324796 0.947189
Si Si7 0.000000 0.000000 0.500000
Si Si8 0.101086 0.057712 0.825372
O O1 0.265000 0.783304 0.568042
O O2 0.291858 0.664586 0.790264
O O3 0.462193 0.137815 0.867251
O O4 0.127660 0.900200 0.605567
O O5 0.941529 0.250337 0.970044
O O6 0.620030 0.891377 0.737780
O O7 0.770063 0.387151 0.905869
O O8 0.810273 0.079311 0.068500
O O9 0.500000 0.500000 0.500000
O O10 0.314133 0.621965 0.419682
O O11 0.609599 0.949776 0.522582
O O12 0.939220 0.347910 0.763321
O O13 0.753313 0.644387 0.088442
O O14 0.500000 0.500000 0.000000
O O15 0.038096 0.089248 0.890752
O O16 0.020206 0.044054 0.379449
#
# Coordination Sequence:
#
# PCOD9040779 Si02
#       8
#     2   2   2   2   2   2   1   2
#     4  11  26  48  72 101 149 187 253 305 358 443
#     4  10  25  43  71 101 142 183 243 300 373 447
#     4  10  24  42  68 105 136 179 240 299 373 443
#     4  10  23  43  68  99 136 185 233 298 366 435
#     4  11  27  46  69 103 141 195 244 294 365 434
#     4  10  23  46  68 102 139 190 235 302 374 438
#     4  12  26  48  72 112 144 196 256 304 368 426
#     4  12  26  43  70 102 144 193 244 305 365 438
#
# _framework density 24.743969
#
# number of rings (size 3 to 8) (size 9 to 14) (size 15 to 20)
#    0.000    1.333    2.667    0.400    7.467    6.933 
#    0.000    0.000    0.000    0.000    0.000    0.000 
#    0.000    0.000    0.000    0.000    0.000    0.000 
#
# Total GULP energy -83533.308156 kJ/mol
# GULP energy per Si atom -5568.887210 kJ/mol
# Density = 2.468765 g / cm^3
# Si number density = 24.743969 Si / 1000 Ang^3
#
#
#
# Elastic Constant Matrix: (Units=GPa)
#
#
# Indices 1 2 3 4 5 6 
#
# 1 85.6358 18.7485 9.3609 -12.2466 1.4083 -26.0277
# 2 18.7485 66.8454 33.4409 -19.7420 -1.5922 -18.9811
# 3 9.3609 33.4409 120.1692 -21.4014 -14.3513 -2.5341
# 4 -12.2466 -19.7420 -21.4014 39.1325 1.6466 3.6530
# 5 1.4083 -1.5922 -14.3513 1.6466 38.9114 -8.0662
# 6 -26.0277 -18.9811 -2.5341 3.6530 -8.0662 34.3319
#
#
#
# Elastic Compliance Matrix: (Units=1/GPa)
#
#
# Indices 1 2 3 4 5 6 
#
# 1 0.015844 0.000245 -0.000165 0.003786 0.001732 0.012139
# 2 0.000245 0.022991 -0.004572 0.007992 0.001403 0.012038
# 3 -0.000165 -0.004572 0.010576 0.003425 0.003270 -0.001469
# 4 0.003786 0.007992 0.003425 0.032196 0.000992 0.004349
# 5 0.001732 0.001403 0.003270 0.000992 0.028718 0.008972
# 6 0.012139 0.012038 -0.001469 0.004349 0.008972 0.046523
#
#
# Mechanical properties :
#
#
# Convention : Reuss Voigt Hill
#
# Bulk Modulus (GPa) = 24.73639 43.97231 34.35435
# Shear Modulus (GPa) = 27.88480 36.54850 32.21665
#
# Velocity S-wave (km/s) = 3.36062 3.84743 3.61224
# Velocity P-wave (km/s) = 5.00770 6.12752 5.59569
#
# Compressibility (1/GPa) = 0.04042627
#
# Stress axis : x y z
#
# Youngs Moduli (GPa) = 63.11452 43.49602 94.54948
#
# Poissons Ratio (x) = -0.01066 0.01564
# Poissons Ratio (y) = -0.01547 0.43230
# Poissons Ratio (z) = 0.01044 0.19887
#
# Static dielectric constant tensor:
#      x y z
#    x 1.694680 0.138490 0.091900 
#    y 0.138490 2.045870 0.000900 
#    z 0.091900 0.000900 2.013660 
# 
# From -- ./inp_files/441853.got.cif
#   From: 2010.05.17/outbox.cif.g08.bks.cpg/sg2_221_cif.got.tgz:441853.got - 2010.06.03 11:33:40.
