data_PCOD9040836
_publ_section_title
;
Structure prediction by ZEFSAII (Michael W. Deem and Ramdas Pophale) SiO2 
 PCOD9040836
Probable space group: P -1
;
_chemical_formula_sum "Si O2"
_cell_formula_units_Z 14
_cell_length_a 9.946221
_cell_length_b 9.543659
_cell_length_c 11.707870
_cell_angle_alpha 48.625757
_cell_angle_beta 39.588507
_cell_angle_gamma 63.574251
_cell_volume 526.629622
_symmetry_space_group_name_H-M "P -1"
_symmetry_group_IT_number 2
_symmetry_cell_setting 'triclinic'
loop_
_space_group_symop_operation_xyz
x,y,z
-x,-y,-z
loop_
_atom_site_type_symbol
_atom_site_label
_atom_site_fract_x
_atom_site_fract_y
_atom_site_fract_z
Si Si1 0.746996 0.869220 0.959062
Si Si2 0.154977 0.795818 0.829424
Si Si3 0.508046 0.546206 0.692834
Si Si4 0.766859 0.053038 0.612353
Si Si5 0.649372 0.076089 0.138184
Si Si6 0.193944 0.509461 0.279426
Si Si7 0.879936 0.471571 0.324422
O O1 0.004443 0.879818 0.792814
O O2 0.691787 0.003931 0.819588
O O3 0.695599 0.929698 0.088876
O O4 0.630363 0.659061 0.122507
O O5 0.356520 0.705878 0.700289
O O6 0.240726 0.931292 0.806329
O O7 0.991301 0.619921 0.082055
O O8 0.294190 0.439427 0.532776
O O9 0.762949 0.271919 0.470983
O O10 0.000000 0.000000 0.500000
O O11 0.605060 0.937768 0.692374
O O12 0.743147 0.277395 0.916800
O O13 0.389979 0.444890 0.252066
O O14 0.000000 0.500000 0.500000
O O15 0.080223 0.411281 0.297141
#
# Coordination Sequence:
#
# PCOD9040836 Si02
#       7
#     2   2   2   2   2   2   2
#     4  12  23  46  70  99 140 183 227 288 352 404
#     4  11  27  44  70 102 142 183 230 283 350 418
#     4  11  21  41  69  97 139 180 230 278 348 403
#     4  12  25  43  74 104 137 178 242 287 341 415
#     4  11  23  45  70  99 137 185 226 288 350 401
#     4   9  19  36  66  98 124 171 231 280 324 400
#     4  10  23  43  69 102 134 181 234 284 338 416
#
# _framework density 26.584149
#
# number of rings (size 3 to 8) (size 9 to 14) (size 15 to 20)
#    0.000    1.143    2.857    3.857    2.000    1.714 
#    2.571    0.714    0.000    0.000    0.000    0.000 
#    0.000    0.000    0.000    0.000    0.000    0.000 
#
# Total GULP energy -78458.878854 kJ/mol
# GULP energy per Si atom -5604.205632 kJ/mol
# Density = 2.652364 g / cm^3
# Si number density = 26.584149 Si / 1000 Ang^3
#
#
#
# Elastic Constant Matrix: (Units=GPa)
#
#
# Indices 1 2 3 4 5 6 
#
# 1 198.6570 28.0636 38.3374 -7.5251 -8.8523 17.5577
# 2 28.0636 99.9512 21.1641 4.3767 -10.2353 17.4335
# 3 38.3374 21.1641 99.2245 2.6960 -28.5148 12.7950
# 4 -7.5251 4.3767 2.6960 37.7195 0.2582 -19.3077
# 5 -8.8523 -10.2353 -28.5148 0.2582 45.3086 2.7215
# 6 17.5577 17.4335 12.7950 -19.3077 2.7215 34.3405
#
#
#
# Elastic Compliance Matrix: (Units=1/GPa)
#
#
# Indices 1 2 3 4 5 6 
#
# 1 0.005674 -0.001039 -0.001911 0.000773 -0.000261 -0.001206
# 2 -0.001039 0.012675 0.000170 -0.006889 0.003414 -0.010111
# 3 -0.001911 0.000170 0.014820 -0.006014 0.009553 -0.008769
# 4 0.000773 -0.006889 -0.006014 0.043491 -0.007262 0.030371
# 5 -0.000261 0.003414 0.009553 -0.007262 0.029540 -0.011583
# 6 -0.001206 -0.010111 -0.008769 0.030371 -0.011583 0.056131
#
#
# Mechanical properties :
#
#
# Convention : Reuss Voigt Hill
#
# Bulk Modulus (GPa) = 36.22013 63.66255 49.94134
# Shear Modulus (GPa) = 28.23372 44.15823 36.19597
#
# Velocity S-wave (km/s) = 3.26245 4.08005 3.69394
# Velocity P-wave (km/s) = 5.27690 6.79671 6.08445
#
# Compressibility (1/GPa) = 0.02760896
#
# Stress axis : x y z
#
# Youngs Moduli (GPa) = 176.25564 78.89339 67.47732
#
# Poissons Ratio (x) = 0.08194 0.12895
# Poissons Ratio (y) = 0.18305 -0.01145
# Poissons Ratio (z) = 0.33683 -0.01339
#
# Static dielectric constant tensor:
#      x y z
#    x 2.059370 0.021570 0.004230 
#    y 0.021570 2.022170 0.078680 
#    z 0.004230 0.078680 2.113650 
# 
# From -- ./inp_files/381207.got.cif
#   From: 2010.05.17/outbox.cif.g08.bks.cpg/sg2_191_cif.got.tgz:381207.got - 2010.06.03 11:33:40.
