data_PCOD9040433
_publ_section_title
;
Structure prediction by ZEFSAII (Michael W. Deem and Ramdas Pophale) SiO2 
 PCOD9040433
Probable space group: P -1
;
_chemical_formula_sum "Si O2"
_cell_formula_units_Z 14
_cell_length_a 20.269597
_cell_length_b 8.555767
_cell_length_c 11.183886
_cell_angle_alpha 64.370660
_cell_angle_beta 34.940097
_cell_angle_gamma 40.760701
_cell_volume 626.504373
_symmetry_space_group_name_H-M "P -1"
_symmetry_group_IT_number 2
_symmetry_cell_setting 'triclinic'
loop_
_space_group_symop_operation_xyz
x,y,z
-x,-y,-z
loop_
_atom_site_type_symbol
_atom_site_label
_atom_site_fract_x
_atom_site_fract_y
_atom_site_fract_z
Si Si1 0.410312 0.987714 0.481598
Si Si2 0.067541 0.615821 0.372874
Si Si3 0.297728 0.755309 0.377523
Si Si4 0.723962 0.523383 0.329124
Si Si5 0.477964 0.192531 0.886361
Si Si6 0.071552 0.217891 0.999651
Si Si7 0.898660 0.257810 0.480216
O O1 0.615348 0.711751 0.313425
O O2 0.404194 0.973014 0.354379
O O3 0.344201 0.252523 0.543590
O O4 0.284306 0.989397 0.731654
O O5 0.111762 0.580037 0.461115
O O6 0.000000 0.500000 0.500000
O O7 0.262412 0.449555 0.085657
O O8 0.900363 0.922480 0.461507
O O9 0.316769 0.618225 0.513642
O O10 0.449186 0.726303 0.175693
O O11 0.284381 0.622093 0.337802
O O12 0.943647 0.274735 0.074106
O O13 0.500000 0.000000 0.000000
O O14 0.016813 0.190181 0.214655
O O15 0.000000 0.500000 0.000000
O O16 0.000000 0.000000 0.500000
#
# Coordination Sequence:
#
# PCOD9040433 Si02
#       7
#     2   2   2   2   2   2   2
#     4  10  23  43  66  99 134 175 226 276 333 412
#     4  11  24  43  66  96 138 178 225 279 341 404
#     4  10  23  44  66  98 131 179 229 276 335 395
#     4   9  21  42  68  98 127 174 228 277 335 388
#     4  12  27  43  65 100 140 182 222 278 349 407
#     4   9  19  37  67  93 127 172 222 274 326 389
#     4   9  21  42  67  99 131 174 230 277 329 398
#
# _framework density 22.346212999999999
#
# number of rings (size 3 to 8) (size 9 to 14) (size 15 to 20)
#    0.000    2.000    1.429    0.000    6.000    9.143 
#    0.000    3.571    0.000    0.000    0.000    0.000 
#    0.000    0.000    0.000    0.000    0.000    0.000 
#
# Total GULP energy -77980.614592 kJ/mol
# GULP energy per Si atom -5570.043899 kJ/mol
# Density = 2.229535 g / cm^3
# Si number density = 22.346213 Si / 1000 Ang^3
#
#
#
# Elastic Constant Matrix: (Units=GPa)
#
#
# Indices 1 2 3 4 5 6 
#
# 1 125.3753 28.5680 52.3409 -18.4888 -11.6131 11.1391
# 2 28.5680 96.5513 31.1240 -19.0627 -12.1636 -13.1573
# 3 52.3409 31.1240 105.8879 -21.4049 -11.0601 6.7284
# 4 -18.4888 -19.0627 -21.4049 38.9752 1.3548 -10.3733
# 5 -11.6131 -12.1636 -11.0601 1.3548 40.1070 -13.6541
# 6 11.1391 -13.1573 6.7284 -10.3733 -13.6541 30.3257
#
#
#
# Elastic Compliance Matrix: (Units=1/GPa)
#
#
# Indices 1 2 3 4 5 6 
#
# 1 0.010677 -0.002148 -0.004275 0.000689 -0.000013 -0.003675
# 2 -0.002148 0.017008 -0.001941 0.010236 0.009182 0.016234
# 3 -0.004275 -0.001941 0.013146 0.004181 0.001653 -0.000014
# 4 0.000689 0.010236 0.004181 0.038543 0.010338 0.021099
# 5 -0.000013 0.009182 0.001653 0.010338 0.035735 0.023248
# 6 -0.003675 0.016234 -0.000014 0.021099 0.023248 0.059057
#
#
# Mechanical properties :
#
#
# Convention : Reuss Voigt Hill
#
# Bulk Modulus (GPa) = 41.48638 61.32003 51.40320
# Shear Modulus (GPa) = 25.13463 36.26701 30.70082
#
# Velocity S-wave (km/s) = 3.35742 4.03297 3.71060
# Velocity P-wave (km/s) = 5.79959 7.01334 6.43514
#
# Compressibility (1/GPa) = 0.02410430
#
# Stress axis : x y z
#
# Youngs Moduli (GPa) = 93.65894 58.79482 76.06604
#
# Poissons Ratio (x) = 0.12627 0.32519
# Poissons Ratio (y) = 0.20114 0.14766
# Poissons Ratio (z) = 0.40040 0.11413
#
# Static dielectric constant tensor:
#      x y z
#    x 1.964610 0.202280 -0.057210 
#    y 0.202280 2.076270 -0.024380 
#    z -0.057210 -0.024380 1.955830 
# 
# From -- ./inp_files/469882.got.cif
#   From: 2010.05.17/outbox.cif.g08.bks.cpg/sg2_235_cif.got.tgz:469882.got - 2010.06.03 11:33:40.
