data_PCOD9040305
_publ_section_title
;
Structure prediction by ZEFSAII (Michael W. Deem and Ramdas Pophale) SiO2 
 PCOD9040305
Probable space group: P -1
;
_chemical_formula_sum "Si O2"
_cell_formula_units_Z 14
_cell_length_a 15.023002
_cell_length_b 12.770924
_cell_length_c 8.158688
_cell_angle_alpha 116.438013
_cell_angle_beta 56.346087
_cell_angle_gamma 150.512120
_cell_volume 638.726198
_symmetry_space_group_name_H-M "P -1"
_symmetry_group_IT_number 2
_symmetry_cell_setting 'triclinic'
loop_
_space_group_symop_operation_xyz
x,y,z
-x,-y,-z
loop_
_atom_site_type_symbol
_atom_site_label
_atom_site_fract_x
_atom_site_fract_y
_atom_site_fract_z
Si Si1 0.450380 0.153084 0.037925
Si Si2 0.870690 0.530034 0.803009
Si Si3 0.514275 0.643548 0.153077
Si Si4 0.198140 0.492307 0.525968
Si Si5 0.905088 0.041146 0.570967
Si Si6 0.821304 0.296072 0.153464
Si Si7 0.928921 0.058633 0.167991
O O1 0.312779 0.114358 0.260672
O O2 0.674242 0.312770 0.952417
O O3 0.510136 0.293135 0.928467
O O4 0.320010 0.926901 0.943947
O O5 0.862011 0.514633 0.600491
O O6 0.063531 0.647521 0.765131
O O7 0.921835 0.712958 0.901285
O O8 0.346086 0.521517 0.365329
O O9 0.714278 0.868600 0.183857
O O10 0.500000 0.500000 0.000000
O O11 0.285119 0.682482 0.664553
O O12 0.032445 0.273679 0.647126
O O13 0.918896 0.054962 0.370502
O O14 0.000000 0.000000 0.500000
O O15 0.000000 0.500000 0.000000
O O16 0.000000 0.000000 0.000000
#
# Coordination Sequence:
#
# PCOD9040305 Si02
#       7
#     2   2   2   2   2   2   2
#     4  11  23  44  66  96 133 175 214 276 333 383
#     4  10  24  43  66  94 131 173 224 265 327 394
#     4  11  22  43  69  98 130 170 225 270 328 400
#     4  10  23  43  65  96 130 176 220 269 327 393
#     4  11  23  41  65  96 135 169 218 278 332 390
#     4  12  24  43  67  95 138 171 222 274 329 386
#     4  11  22  41  68  95 130 175 219 271 328 395
#
# _framework density 21.918624999999999
#
# number of rings (size 3 to 8) (size 9 to 14) (size 15 to 20)
#    0.000    1.143    2.857    4.714    0.000    4.000 
#    5.143    3.571    0.000    0.000    0.000    0.000 
#    0.000    0.000    0.000    0.000    0.000    0.000 
#
# Total GULP energy -77950.995324 kJ/mol
# GULP energy per Si atom -5567.928237 kJ/mol
# Density = 2.186874 g / cm^3
# Si number density = 21.918625 Si / 1000 Ang^3
#
#
#
# Elastic Constant Matrix: (Units=GPa)
#
#
# Indices 1 2 3 4 5 6 
#
# 1 36.9569 23.0857 6.9662 7.4664 -12.0863 2.9616
# 2 23.0857 147.1846 38.5840 7.9131 -13.8743 -2.9048
# 3 6.9662 38.5840 77.2134 12.2052 -23.0174 -11.1410
# 4 7.4664 7.9131 12.2052 44.8115 -8.7978 -11.0238
# 5 -12.0863 -13.8743 -23.0174 -8.7978 22.5619 2.2205
# 6 2.9616 -2.9048 -11.1410 -11.0238 2.2205 36.5091
#
#
#
# Elastic Compliance Matrix: (Units=1/GPa)
#
#
# Indices 1 2 3 4 5 6 
#
# 1 0.037349 -0.005188 0.005623 -0.003624 0.021547 -0.004132
# 2 -0.005188 0.008577 -0.004441 0.000152 -0.001968 -0.000086
# 3 0.005623 -0.004441 0.021952 -0.000757 0.021955 0.004325
# 4 -0.003624 0.000152 -0.000757 0.026323 0.006896 0.007604
# 5 0.021547 -0.001968 0.021955 0.006896 0.079542 0.002040
# 6 -0.004132 -0.000086 0.004325 0.007604 0.002040 0.031211
#
#
# Mechanical properties :
#
#
# Convention : Reuss Voigt Hill
#
# Bulk Modulus (GPa) = 16.70393 44.29185 30.49789
# Shear Modulus (GPa) = 21.46658 33.62443 27.54551
#
# Velocity S-wave (km/s) = 3.13289 3.92095 3.54887
# Velocity P-wave (km/s) = 4.55238 6.38355 5.54409
#
# Compressibility (1/GPa) = 0.05986613
#
# Stress axis : x y z
#
# Youngs Moduli (GPa) = 26.77413 116.59525 45.55492
#
# Poissons Ratio (x) = 0.60487 -0.25614
# Poissons Ratio (y) = 0.13890 0.20230
# Poissons Ratio (z) = -0.15054 0.51778
#
# Static dielectric constant tensor:
#      x y z
#    x 2.145680 0.155470 -0.111260 
#    y 0.155470 1.880290 -0.083800 
#    z -0.111260 -0.083800 1.885490 
# 
# From -- ./inp_files/206522.got.cif
#   From: 2010.05.17/outbox.cif.g08.bks.cpg/sg2_104_cif.got.tgz:206522.got - 2010.06.03 11:33:40.
