data_PCOD9040542
_publ_section_title
;
Structure prediction by ZEFSAII (Michael W. Deem and Ramdas Pophale) SiO2 
 PCOD9040542
Probable space group: P -1
;
_chemical_formula_sum "Si O2"
_cell_formula_units_Z 13
_cell_length_a 12.596307
_cell_length_b 9.427759
_cell_length_c 15.547255
_cell_angle_alpha 41.094322
_cell_angle_beta 154.286438
_cell_angle_gamma 126.711678
_cell_volume 504.739446
_symmetry_space_group_name_H-M "P -1"
_symmetry_group_IT_number 2
_symmetry_cell_setting 'triclinic'
loop_
_space_group_symop_operation_xyz
x,y,z
-x,-y,-z
loop_
_atom_site_type_symbol
_atom_site_label
_atom_site_fract_x
_atom_site_fract_y
_atom_site_fract_z
Si Si1 0.500000 0.500000 0.500000
Si Si2 0.811175 0.308826 0.160289
Si Si3 0.612647 0.803403 0.360088
Si Si4 0.541739 0.964856 0.412856
Si Si5 0.207709 0.679146 0.657006
Si Si6 0.327137 0.209334 0.858174
Si Si7 0.113788 0.259984 0.073361
O O1 0.607218 0.554574 0.451404
O O2 0.812168 0.347620 0.823878
O O3 0.745060 0.362131 0.188517
O O4 0.107608 0.164435 0.449337
O O5 0.594656 0.207283 0.011072
O O6 0.808644 0.522599 0.003620
O O7 0.554785 0.778806 0.432652
O O8 0.405769 0.004862 0.075490
O O9 0.636734 0.162281 0.345372
O O10 0.260295 0.069431 0.197712
O O11 0.742667 0.846233 0.685925
O O12 0.252143 0.444243 0.747414
O O13 0.907053 0.792211 0.371472
#
# Coordination Sequence:
#
# PCOD9040542 Si02
#       7
#     1   2   2   2   2   2   2
#     4  10  24  44  58  96 130 170 218 280 316 404
#     4  11  22  43  63 100 135 175 212 280 325 396
#     4  11  24  42  67  92 137 172 223 272 337 382
#     4  11  22  43  70  95 130 185 214 278 328 403
#     4  11  23  40  70  98 135 168 226 267 334 392
#     4  11  22  40  66 100 129 174 217 273 324 402
#     4  10  23  43  67  95 135 170 226 272 336 387
#
# _framework density 25.755863000000002
#
# number of rings (size 3 to 8) (size 9 to 14) (size 15 to 20)
#    0.000    1.231    3.077    2.769    0.000    3.692 
#   11.077    0.000    0.000    0.000    0.000    0.000 
#    0.000    0.000    0.000    0.000    0.000    0.000 
#
# Total GULP energy -72586.789057 kJ/mol
# GULP energy per Si atom -5583.599158 kJ/mol
# Density = 2.569724 g / cm^3
# Si number density = 25.755863 Si / 1000 Ang^3
#
#
#
# Elastic Constant Matrix: (Units=GPa)
#
#
# Indices 1 2 3 4 5 6 
#
# 1 93.2059 37.7545 37.6842 4.6146 -7.3059 8.6300
# 2 37.7545 100.9359 47.5933 -3.7090 -6.7132 34.5031
# 3 37.6842 47.5933 199.1812 4.9356 6.8458 20.0861
# 4 4.6146 -3.7090 4.9356 58.6130 14.4933 6.3985
# 5 -7.3059 -6.7132 6.8458 14.4933 53.9047 -11.7840
# 6 8.6300 34.5031 20.0861 6.3985 -11.7840 51.5144
#
#
#
# Elastic Compliance Matrix: (Units=1/GPa)
#
#
# Indices 1 2 3 4 5 6 
#
# 1 0.013521 -0.005097 -0.001642 -0.002173 0.002569 0.002646
# 2 -0.005097 0.016114 -0.001915 0.003011 -0.001412 -0.009889
# 3 -0.001642 -0.001915 0.005949 -0.000015 -0.001451 -0.001092
# 4 -0.002173 0.003011 -0.000015 0.019613 -0.006404 -0.005548
# 5 0.002569 -0.001412 -0.001451 -0.006404 0.022147 0.006943
# 6 0.002646 -0.009889 -0.001092 -0.005548 0.006943 0.028295
#
#
# Mechanical properties :
#
#
# Convention : Reuss Voigt Hill
#
# Bulk Modulus (GPa) = 54.71287 71.04298 62.87792
# Shear Modulus (GPa) = 38.74785 50.82583 44.78684
#
# Velocity S-wave (km/s) = 3.88290 4.44708 4.17453
# Velocity P-wave (km/s) = 6.43363 7.34927 6.90664
#
# Compressibility (1/GPa) = 0.01827724
#
# Stress axis : x y z
#
# Youngs Moduli (GPa) = 73.95785 62.05841 168.09415
#
# Poissons Ratio (x) = 0.31632 0.27593
# Poissons Ratio (y) = 0.37697 0.32186
# Poissons Ratio (z) = 0.12141 0.11883
#
# Static dielectric constant tensor:
#      x y z
#    x 2.138560 -0.016740 0.052170 
#    y -0.016740 2.079800 -0.049540 
#    z 0.052170 -0.049540 2.022300 
# 
# From -- ./inp_files/213996.got.cif
#   From: 2010.05.17/outbox.cif.g08.bks.cpg/sg2_107_cif.got.tgz:213996.got - 2010.06.03 11:33:40.
