data_PCOD9040396
_publ_section_title
;
Structure prediction by ZEFSAII (Michael W. Deem and Ramdas Pophale) SiO2 
 PCOD9040396
Probable space group: P -1
;
_chemical_formula_sum "Si O2"
_cell_formula_units_Z 16
_cell_length_a 12.507254
_cell_length_b 5.456123
_cell_length_c 11.513648
_cell_angle_alpha 66.813498
_cell_angle_beta 97.888564
_cell_angle_gamma 117.709563
_cell_volume 638.397079
_symmetry_space_group_name_H-M "P -1"
_symmetry_group_IT_number 2
_symmetry_cell_setting 'triclinic'
loop_
_space_group_symop_operation_xyz
x,y,z
-x,-y,-z
loop_
_atom_site_type_symbol
_atom_site_label
_atom_site_fract_x
_atom_site_fract_y
_atom_site_fract_z
Si Si1 0.949107 0.556832 0.601852
Si Si2 0.187764 0.083013 0.575523
Si Si3 0.670629 0.531107 0.011176
Si Si4 0.744825 0.163276 0.789016
Si Si5 0.692795 0.760503 0.203447
Si Si6 0.428184 0.200055 0.466189
Si Si7 0.445770 0.665331 0.208321
Si Si8 0.859740 0.366351 0.002377
O O1 0.871961 0.743286 0.538694
O O2 0.848945 0.242778 0.695296
O O3 0.000000 0.500000 0.500000
O O4 0.072653 0.767926 0.649894
O O5 0.250715 0.281521 0.661879
O O6 0.293461 0.042330 0.530908
O O7 0.590452 0.320351 0.934125
O O8 0.797875 0.523201 0.040321
O O9 0.694393 0.845175 0.900672
O O10 0.627439 0.512500 0.140499
O O11 0.632454 0.232120 0.739429
O O12 0.819458 0.389362 0.861723
O O13 0.589200 0.855849 0.205423
O O14 0.798723 0.029131 0.101933
O O15 0.500000 0.500000 0.500000
O O16 0.418627 0.338631 0.314346
O O17 0.500000 0.000000 0.500000
O O18 0.000000 0.500000 0.000000
#
# Coordination Sequence:
#
# PCOD9040396 Si02
#       8
#     2   2   2   2   2   2   2   2
#     4  11  26  43  71 102 142 191 249 307 381 456
#     4  11  26  45  68 106 144 189 246 312 377 453
#     4  10  25  41  71 100 136 193 238 302 372 442
#     4  10  23  43  66  99 138 184 242 300 371 442
#     4  11  24  44  68 103 143 181 244 300 373 440
#     4  12  28  48  77 112 153 202 254 313 385 450
#     4  11  24  43  71 101 148 186 247 300 374 450
#     4  10  23  43  66  94 136 183 237 301 362 438
#
# _framework density 25.062771000000001
#
# number of rings (size 3 to 8) (size 9 to 14) (size 15 to 20)
#    0.000    1.250    2.500    1.125    5.250   12.500 
#    0.000    0.000    0.000    0.000    0.000    0.000 
#    0.000    0.000    0.000    0.000    0.000    0.000 
#
# Total GULP energy -89418.790532 kJ/mol
# GULP energy per Si atom -5588.674408 kJ/mol
# Density = 2.500573 g / cm^3
# Si number density = 25.062771 Si / 1000 Ang^3
#
#
#
# Elastic Constant Matrix: (Units=GPa)
#
#
# Indices 1 2 3 4 5 6 
#
# 1 173.0866 45.3935 29.2066 5.3696 -8.1334 10.5718
# 2 45.3935 70.5319 20.2652 0.7496 0.9904 -7.1218
# 3 29.2066 20.2652 92.5760 21.1627 -6.1603 4.7465
# 4 5.3696 0.7496 21.1627 30.1389 -0.6991 2.8294
# 5 -8.1334 0.9904 -6.1603 -0.6991 42.6068 -3.2321
# 6 10.5718 -7.1218 4.7465 2.8294 -3.2321 48.2180
#
#
#
# Elastic Compliance Matrix: (Units=1/GPa)
#
#
# Indices 1 2 3 4 5 6 
#
# 1 0.007373 -0.004666 -0.001066 -0.000224 0.001198 -0.002107
# 2 -0.004666 0.018552 -0.003430 0.002382 -0.001486 0.003862
# 3 -0.001066 -0.003430 0.014247 -0.009596 0.001703 -0.000998
# 4 -0.000224 0.002382 -0.009596 0.039977 -0.000910 -0.001061
# 5 0.001198 -0.001486 0.001703 -0.000910 0.024042 0.001015
# 6 -0.002107 0.003862 -0.000998 -0.001061 0.001015 0.022000
#
#
# Mechanical properties :
#
#
# Convention : Reuss Voigt Hill
#
# Bulk Modulus (GPa) = 45.77130 58.43612 52.10371
# Shear Modulus (GPa) = 32.93850 40.28135 36.60993
#
# Velocity S-wave (km/s) = 3.62918 4.01336 3.82610
# Velocity P-wave (km/s) = 5.98862 6.69646 6.35241
#
# Compressibility (1/GPa) = 0.02184775
#
# Stress axis : x y z
#
# Youngs Moduli (GPa) = 135.62993 53.90209 70.18975
#
# Poissons Ratio (x) = 0.25152 0.07481
# Poissons Ratio (y) = 0.63288 0.24077
# Poissons Ratio (z) = 0.14455 0.18490
#
# Static dielectric constant tensor:
#      x y z
#    x 1.989570 0.002530 -0.036880 
#    y 0.002530 2.124150 0.023590 
#    z -0.036880 0.023590 2.045280 
# 
# From -- ./inp_files/128483.got.cif
#   From: 2010.05.17/outbox.cif.g08.bks.cpg/sg2_65_cif.got.tgz:128483.got - 2010.06.03 11:33:40.
