data_PCOD9040286
_publ_section_title
;
Structure prediction by ZEFSAII (Michael W. Deem and Ramdas Pophale) SiO2 
 PCOD9040286
Probable space group: P -1
;
_chemical_formula_sum "Si O2"
_cell_formula_units_Z 11
_cell_length_a 4.730082
_cell_length_b 12.221726
_cell_length_c 8.510112
_cell_angle_alpha 121.336744
_cell_angle_beta 108.857858
_cell_angle_gamma 92.213815
_cell_volume 384.421376
_symmetry_space_group_name_H-M "P -1"
_symmetry_group_IT_number 2
_symmetry_cell_setting 'triclinic'
loop_
_space_group_symop_operation_xyz
x,y,z
-x,-y,-z
loop_
_atom_site_type_symbol
_atom_site_label
_atom_site_fract_x
_atom_site_fract_y
_atom_site_fract_z
Si Si1 0.312876 0.287953 0.873545
Si Si2 0.594849 0.727188 0.674373
Si Si3 0.000000 0.500000 0.500000
Si Si4 0.599545 0.539793 0.269198
Si Si5 0.695141 0.926787 0.088216
Si Si6 0.298592 0.894502 0.506964
O O1 0.441012 0.353530 0.782089
O O2 0.479611 0.186314 0.906913
O O3 0.971031 0.203755 0.709965
O O4 0.340698 0.410436 0.085673
O O5 0.296297 0.640008 0.643884
O O6 0.700457 0.607019 0.512747
O O7 0.494321 0.814582 0.585453
O O8 0.811149 0.834128 0.910631
O O9 0.069383 0.493742 0.705377
O O10 0.856134 0.036409 0.327602
O O11 0.500000 0.000000 0.000000
O O12 0.500000 0.000000 0.500000
#
# Coordination Sequence:
#
# PCOD9040286 Si02
#       6
#     2   2   1   2   2   2
#     4  11  23  45  67 102 138 176 234 284 341 410
#     4  11  24  45  68 104 136 182 232 277 354 401
#     4  12  22  44  72 102 142 172 228 296 338 414
#     4  11  25  44  74 103 137 180 223 297 347 399
#     4  10  23  43  65  94 138 179 228 276 328 411
#     4  11  24  45  68  98 141 188 227 280 338 412
#
# _framework density 28.614432999999998
#
# number of rings (size 3 to 8) (size 9 to 14) (size 15 to 20)
#    0.000    1.091    3.636    2.182    0.000    2.182 
#    0.000    2.727    0.000    0.000    0.000    0.000 
#    0.000    0.000    0.000    0.000    0.000    0.000 
#
# Total GULP energy -61242.456292 kJ/mol
# GULP energy per Si atom -5567.496027 kJ/mol
# Density = 2.854930 g / cm^3
# Si number density = 28.614433 Si / 1000 Ang^3
#
#
#
# Elastic Constant Matrix: (Units=GPa)
#
#
# Indices 1 2 3 4 5 6 
#
# 1 74.7593 34.0387 96.5959 15.5448 -10.1596 0.7960
# 2 34.0387 241.2702 52.7820 -17.1087 14.2430 2.1122
# 3 96.5959 52.7820 284.0791 14.7996 -14.2174 -3.4132
# 4 15.5448 -17.1087 14.7996 55.1553 -3.6203 5.6411
# 5 -10.1596 14.2430 -14.2174 -3.6203 47.2933 11.8781
# 6 0.7960 2.1122 -3.4132 5.6411 11.8781 28.0531
#
#
#
# Elastic Compliance Matrix: (Units=1/GPa)
#
#
# Indices 1 2 3 4 5 6 
#
# 1 0.026950 -0.002647 -0.008189 -0.005715 0.004242 -0.002209
# 2 -0.002647 0.004831 -0.000206 0.002165 -0.001938 0.000071
# 3 -0.008189 -0.000206 0.006331 0.000451 0.000009 0.000924
# 4 -0.005715 0.002165 0.000451 0.020823 0.000994 -0.004554
# 5 0.004242 -0.001938 0.000009 0.000994 0.025470 -0.010958
# 6 -0.002209 0.000071 0.000924 -0.004554 -0.010958 0.041372
#
#
# Mechanical properties :
#
#
# Convention : Reuss Voigt Hill
#
# Bulk Modulus (GPa) = 62.39202 107.43800 84.91501
# Shear Modulus (GPa) = 32.63625 53.87980 43.25802
#
# Velocity S-wave (km/s) = 3.38087 4.34402 3.89235
# Velocity P-wave (km/s) = 6.09033 7.92395 7.06686
#
# Compressibility (1/GPa) = 0.01602769
#
# Stress axis : x y z
#
# Youngs Moduli (GPa) = 37.10518 207.01156 157.95504
#
# Poissons Ratio (x) = 0.54799 1.29344
# Poissons Ratio (y) = 0.09822 0.03259
# Poissons Ratio (z) = 0.30384 0.04272
#
# Static dielectric constant tensor:
#      x y z
#    x 2.518950 -0.189170 -0.125990 
#    y -0.189170 2.450900 0.044020 
#    z -0.125990 0.044020 2.285810 
# 
# From -- ./inp_files/17061.got.cif
#   From: 2010.05.17/outbox.cif.g08.bks.cpg/sg2_9_cif.got.tgz:17061.got - 2010.06.03 11:33:40.
