data_PCOD9040010
_publ_section_title
;
Structure prediction by ZEFSAII (Michael W. Deem and Ramdas Pophale) SiO2 
 PCOD9040010
Probable space group: P -1
;
_chemical_formula_sum "Si O2"
_cell_formula_units_Z 16
_cell_length_a 9.882623
_cell_length_b 25.053905
_cell_length_c 19.303860
_cell_angle_alpha 17.052424
_cell_angle_beta 150.202617
_cell_angle_gamma 141.141679
_cell_volume 652.567546
_symmetry_space_group_name_H-M "P -1"
_symmetry_group_IT_number 2
_symmetry_cell_setting 'triclinic'
loop_
_space_group_symop_operation_xyz
x,y,z
-x,-y,-z
loop_
_atom_site_type_symbol
_atom_site_label
_atom_site_fract_x
_atom_site_fract_y
_atom_site_fract_z
Si Si1 0.375937 0.286060 0.819777
Si Si2 0.251755 0.577335 0.092207
Si Si3 0.589684 0.101629 0.478709
Si Si4 0.788971 0.128415 0.909522
Si Si5 0.195016 0.771306 0.358843
Si Si6 0.083909 0.716877 0.695018
Si Si7 0.334731 0.147645 0.450096
Si Si8 0.412020 0.869768 0.035020
O O1 0.467702 0.422471 0.742626
O O2 0.515666 0.070891 0.183514
O O3 0.513204 0.267082 0.827999
O O4 0.030685 0.337931 0.594201
O O5 0.259810 0.624228 0.956664
O O6 0.987715 0.760576 0.778674
O O7 0.127247 0.403538 0.264341
O O8 0.347557 0.164248 0.352544
O O9 0.709897 0.261900 0.301193
O O10 0.500000 0.000000 0.500000
O O11 0.866107 0.951051 0.828323
O O12 0.659015 0.207458 0.828329
O O13 0.678188 0.947398 0.070644
O O14 0.710970 0.247060 0.656773
O O15 0.469276 0.736063 0.573779
O O16 0.000000 0.000000 0.000000
O O17 0.866804 0.935600 0.343796
#
# Coordination Sequence:
#
# PCOD9040010 Si02
#       8
#     2   2   2   2   2   2   2   2
#     4  11  19  33  59  89 106 140 198 237 268 329
#     4  11  23  37  57  80 120 155 188 228 281 342
#     4  11  22  34  58  87 115 141 190 238 282 330
#     4  10  18  32  55  86 112 142 177 243 284 327
#     4  10  17  33  55  88 111 139 184 238 288 320
#     4  10  23  39  53  80 120 157 179 227 295 337
#     4  11  20  35  61  86 111 148 191 235 281 333
#     4  10  19  33  59  83 109 142 194 230 283 330
#
# _framework density 24.518532
#
# number of rings (size 3 to 8) (size 9 to 14) (size 15 to 20)
#    0.000    1.500    6.250    1.125    3.500    0.500 
#    0.000    0.000    2.750   12.750    0.000    0.000 
#    0.000    0.000    0.000    0.000    0.000    0.000 
#
# Total GULP energy -89604.166603 kJ/mol
# GULP energy per Si atom -5600.260413 kJ/mol
# Density = 2.446273 g / cm^3
# Si number density = 24.518532 Si / 1000 Ang^3
#
#
#
# Elastic Constant Matrix: (Units=GPa)
#
#
# Indices 1 2 3 4 5 6 
#
# 1 149.1628 7.9482 17.4108 -17.5313 -0.4749 -33.6306
# 2 7.9482 123.3404 16.7619 -10.1286 -3.3166 -19.0167
# 3 17.4108 16.7619 53.3719 -3.4454 -17.6362 -8.1461
# 4 -17.5313 -10.1286 -3.4454 24.6754 -5.1010 8.8727
# 5 -0.4749 -3.3166 -17.6362 -5.1010 24.0548 0.4022
# 6 -33.6306 -19.0167 -8.1461 8.8727 0.4022 38.7669
#
#
#
# Elastic Compliance Matrix: (Units=1/GPa)
#
#
# Indices 1 2 3 4 5 6 
#
# 1 0.008911 0.001087 -0.002108 0.003882 -0.000513 0.006937
# 2 0.001087 0.009259 -0.002418 0.002669 0.000019 0.004366
# 3 -0.002108 -0.002418 0.027669 0.005214 0.020994 0.001388
# 4 0.003882 0.002669 0.005214 0.050341 0.015041 -0.005905
# 5 -0.000513 0.000019 0.020994 0.015041 0.060147 -0.000091
# 6 0.006937 0.004366 0.001388 -0.005905 -0.000091 0.035599
#
#
# Mechanical properties :
#
#
# Convention : Reuss Voigt Hill
#
# Bulk Modulus (GPa) = 25.66663 45.56857 35.61760
# Shear Modulus (GPa) = 23.60817 36.41637 30.01227
#
# Velocity S-wave (km/s) = 3.10638 3.85809 3.50246
# Velocity P-wave (km/s) = 4.83292 6.20259 5.56009
#
# Compressibility (1/GPa) = 0.03896110
#
# Stress axis : x y z
#
# Youngs Moduli (GPa) = 112.22074 108.00357 36.14144
#
# Poissons Ratio (x) = -0.11739 0.07619
# Poissons Ratio (y) = -0.12197 0.08738
# Poissons Ratio (z) = 0.23658 0.26112
#
# Static dielectric constant tensor:
#      x y z
#    x 1.929520 0.011920 0.062210 
#    y 0.011920 1.922290 0.006360 
#    z 0.062210 0.006360 2.071450 
# 
# From -- ./inp_files/591918.got.cif
#   From: 2010.05.17/outbox.cif.g08.bks.cpg/sg2_296_cif.got.tgz:591918.got - 2010.06.03 11:33:40.
