data_PCOD9040723
_publ_section_title
;
Structure prediction by ZEFSAII (Michael W. Deem and Ramdas Pophale) SiO2 
 PCOD9040723
Probable space group: P -1
;
_chemical_formula_sum "Si O2"
_cell_formula_units_Z 12
_cell_length_a 7.887062
_cell_length_b 13.627394
_cell_length_c 9.623580
_cell_angle_alpha 123.642105
_cell_angle_beta 57.030037
_cell_angle_gamma 141.668508
_cell_volume 521.891957
_symmetry_space_group_name_H-M "P -1"
_symmetry_group_IT_number 2
_symmetry_cell_setting 'triclinic'
loop_
_space_group_symop_operation_xyz
x,y,z
-x,-y,-z
loop_
_atom_site_type_symbol
_atom_site_label
_atom_site_fract_x
_atom_site_fract_y
_atom_site_fract_z
Si Si1 0.702076 0.359906 0.444316
Si Si2 0.264678 0.808297 0.318247
Si Si3 0.185190 0.853552 0.701387
Si Si4 0.110651 0.164264 0.657054
Si Si5 0.019872 0.530205 0.853284
Si Si6 0.801310 0.686801 0.990913
O O1 0.662605 0.204251 0.357686
O O2 0.435054 0.313775 0.590564
O O3 0.000000 0.500000 0.500000
O O4 0.726800 0.407417 0.309511
O O5 0.171383 0.828147 0.522134
O O6 0.225570 0.653700 0.234688
O O7 0.067343 0.797138 0.289584
O O8 0.580145 0.952761 0.239877
O O9 0.905825 0.756174 0.841456
O O10 0.123025 0.177323 0.829737
O O11 0.000000 0.000000 0.500000
O O12 0.992878 0.654660 0.927936
O O13 0.000000 0.500000 0.000000
O O14 0.500000 0.500000 0.000000
#
# Coordination Sequence:
#
# PCOD9040723 Si02
#       6
#     2   2   2   2   2   2
#     4  11  22  42  68  92 137 180 218 273 345 398
#     4  11  23  42  69  98 134 174 230 274 345 393
#     4  10  23  43  68  95 135 182 216 279 344 404
#     4  12  25  43  69 103 134 174 231 283 332 403
#     4  11  23  41  63  96 130 173 220 277 328 398
#     4  11  26  43  70  99 137 178 230 276 337 403
#
# _framework density 22.993264
#
# number of rings (size 3 to 8) (size 9 to 14) (size 15 to 20)
#    0.000    1.000    5.000    2.000    0.000    4.000 
#    0.000    1.667    0.000    0.000    0.000    0.000 
#    0.000    0.000    0.000    0.000    0.000    0.000 
#
# Total GULP energy -66851.609408 kJ/mol
# GULP energy per Si atom -5570.967451 kJ/mol
# Density = 2.294093 g / cm^3
# Si number density = 22.993264 Si / 1000 Ang^3
#
#
#
# Elastic Constant Matrix: (Units=GPa)
#
#
# Indices 1 2 3 4 5 6 
#
# 1 36.2166 2.9655 11.9348 -3.4011 14.0394 5.5487
# 2 2.9655 105.3654 50.3871 -12.3664 -0.6214 2.5002
# 3 11.9348 50.3871 112.0975 -23.7502 11.8559 16.3760
# 4 -3.4011 -12.3664 -23.7502 47.8795 -16.7510 -5.7182
# 5 14.0394 -0.6214 11.8559 -16.7510 24.4897 -0.3933
# 6 5.5487 2.5002 16.3760 -5.7182 -0.3933 32.2772
#
#
#
# Elastic Compliance Matrix: (Units=1/GPa)
#
#
# Indices 1 2 3 4 5 6 
#
# 1 0.039571 -0.001560 -0.001266 -0.009146 -0.028496 -0.008007
# 2 -0.001560 0.012696 -0.006042 0.002604 0.005969 0.002884
# 3 -0.001266 -0.006042 0.013686 0.003022 -0.004079 -0.005772
# 4 -0.009146 0.002604 0.003022 0.032188 0.025957 0.005856
# 5 -0.028496 0.005969 -0.004079 0.025957 0.077244 0.012046
# 6 -0.008007 0.002884 -0.005772 0.005856 0.012046 0.036248
#
#
# Mechanical properties :
#
#
# Convention : Reuss Voigt Hill
#
# Bulk Modulus (GPa) = 20.73890 42.69491 31.71691
# Shear Modulus (GPa) = 20.37143 33.48875 26.93009
#
# Velocity S-wave (km/s) = 2.97976 3.82050 3.42602
# Velocity P-wave (km/s) = 4.56922 6.17012 5.42900
#
# Compressibility (1/GPa) = 0.04821857
#
# Stress axis : x y z
#
# Youngs Moduli (GPa) = 25.27095 78.76302 73.06576
#
# Poissons Ratio (x) = 0.12285 0.09251
# Poissons Ratio (y) = 0.03942 0.44144
# Poissons Ratio (z) = 0.03200 0.47586
#
# Static dielectric constant tensor:
#      x y z
#    x 1.844880 0.043100 0.002550 
#    y 0.043100 1.984500 0.007930 
#    z 0.002550 0.007930 1.995850 
# 
# From -- ./inp_files/144957.got.cif
#   From: 2010.05.17/outbox.cif.g08.bks.cpg/sg2_73_cif.got.tgz:144957.got - 2010.06.03 11:33:40.
