data_PCOD9040359
_publ_section_title
;
Structure prediction by ZEFSAII (Michael W. Deem and Ramdas Pophale) SiO2 
 PCOD9040359
Probable space group: P -1
;
_chemical_formula_sum "Si O2"
_cell_formula_units_Z 16
_cell_length_a 5.814888
_cell_length_b 14.933591
_cell_length_c 11.951896
_cell_angle_alpha 132.383678
_cell_angle_beta 80.524932
_cell_angle_gamma 116.286879
_cell_volume 673.142797
_symmetry_space_group_name_H-M "P -1"
_symmetry_group_IT_number 2
_symmetry_cell_setting 'triclinic'
loop_
_space_group_symop_operation_xyz
x,y,z
-x,-y,-z
loop_
_atom_site_type_symbol
_atom_site_label
_atom_site_fract_x
_atom_site_fract_y
_atom_site_fract_z
Si Si1 0.264366 0.141073 0.602185
Si Si2 0.269047 0.475323 0.582197
Si Si3 0.142708 0.702259 0.688311
Si Si4 0.465555 0.575930 0.892749
Si Si5 0.464965 0.839949 0.173120
Si Si6 0.130429 0.366675 0.905570
Si Si7 0.820651 0.052468 0.991220
Si Si8 0.418003 0.087957 0.307588
O O1 0.431506 0.132952 0.686030
O O2 0.228352 0.273005 0.746723
O O3 0.386198 0.147553 0.476726
O O4 0.000000 0.000000 0.500000
O O5 0.500000 0.500000 0.500000
O O6 0.149248 0.579174 0.651530
O O7 0.387102 0.502525 0.718798
O O8 0.038609 0.334181 0.438329
O O9 0.069007 0.790295 0.853837
O O10 0.427300 0.790525 0.687433
O O11 0.209032 0.495062 0.924242
O O12 0.542608 0.736156 0.014053
O O13 0.697989 0.573513 0.945642
O O14 0.154254 0.745684 0.130495
O O15 0.543972 0.985568 0.234482
O O16 0.500000 0.000000 0.000000
O O17 0.834853 0.013141 0.828363
O O18 0.000000 0.000000 0.000000
#
# Coordination Sequence:
#
# PCOD9040359 Si02
#       8
#     2   2   2   2   2   2   2   2
#     4  11  24  40  64 105 141 172 234 283 356 426
#     4  11  26  46  71  99 138 183 238 306 353 433
#     4  10  26  47  65 106 133 183 245 285 371 432
#     4  10  24  43  69  96 135 180 231 285 352 419
#     4  11  23  44  66 100 137 178 227 289 351 430
#     4  10  23  43  66 102 132 181 228 282 351 423
#     4  10  24  45  70 104 141 186 243 293 354 439
#     4  11  24  43  72  97 138 186 222 297 359 428
#
# _framework density 23.769102
#
# number of rings (size 3 to 8) (size 9 to 14) (size 15 to 20)
#    0.000    1.500    1.250    1.500    7.000    5.000 
#    0.000    0.000    0.000    0.000    0.000    0.000 
#    0.000    0.000    0.000    0.000    0.000    0.000 
#
# Total GULP energy -89333.995776 kJ/mol
# GULP energy per Si atom -5583.374736 kJ/mol
# Density = 2.371500 g / cm^3
# Si number density = 23.769102 Si / 1000 Ang^3
#
#
#
# Elastic Constant Matrix: (Units=GPa)
#
#
# Indices 1 2 3 4 5 6 
#
# 1 58.3802 -5.7328 25.7428 -8.0358 13.8496 0.8410
# 2 -5.7328 30.7135 6.8645 -3.4503 6.1678 -1.7767
# 3 25.7428 6.8645 163.6849 -26.9668 36.1824 -9.9661
# 4 -8.0358 -3.4503 -26.9668 47.4352 -6.8849 4.0191
# 5 13.8496 6.1678 36.1824 -6.8849 35.7684 6.3506
# 6 0.8410 -1.7767 -9.9661 4.0191 6.3506 28.2446
#
#
#
# Elastic Compliance Matrix: (Units=1/GPa)
#
#
# Indices 1 2 3 4 5 6 
#
# 1 0.020298 0.005790 -0.001532 0.001924 -0.007032 0.000527
# 2 0.005790 0.035835 0.000102 0.002045 -0.008807 0.003807
# 3 -0.001532 0.000102 0.009142 0.003245 -0.008903 0.004818
# 4 0.001924 0.002045 0.003245 0.023679 0.000584 -0.002284
# 5 -0.007032 -0.008807 -0.008903 0.000584 0.043695 -0.013394
# 6 0.000527 0.003807 0.004818 -0.002284 -0.013394 0.040665
#
#
# Mechanical properties :
#
#
# Convention : Reuss Voigt Hill
#
# Bulk Modulus (GPa) = 13.51435 34.05861 23.78648
# Shear Modulus (GPa) = 26.41865 37.34990 31.88428
#
# Velocity S-wave (km/s) = 3.33749 3.96834 3.66651
# Velocity P-wave (km/s) = 4.53319 5.94618 5.28710
#
# Compressibility (1/GPa) = 0.07399541
#
# Stress axis : x y z
#
# Youngs Moduli (GPa) = 49.26487 27.90546 109.38768
#
# Poissons Ratio (x) = -0.16157 0.16756
# Poissons Ratio (y) = -0.28523 -0.01115
# Poissons Ratio (z) = 0.07546 -0.00284
#
# Static dielectric constant tensor:
#      x y z
#    x 2.090070 0.045300 0.045020 
#    y 0.045300 1.945200 0.058330 
#    z 0.045020 0.058330 1.987530 
# 
# From -- ./inp_files/364385.got.cif
#   From: 2010.05.17/outbox.cif.g08.bks.cpg/sg2_183_cif.got.tgz:364385.got - 2010.06.03 11:33:40.
