data_PCOD9040673
_publ_section_title
;
Structure prediction by ZEFSAII (Michael W. Deem and Ramdas Pophale) SiO2 
 PCOD9040673
Probable space group: P -1
;
_chemical_formula_sum "Si O2"
_cell_formula_units_Z 15
_cell_length_a 18.262949
_cell_length_b 16.329473
_cell_length_c 13.707492
_cell_angle_alpha 146.526872
_cell_angle_beta 159.880076
_cell_angle_gamma 24.520668
_cell_volume 577.756779
_symmetry_space_group_name_H-M "P -1"
_symmetry_group_IT_number 2
_symmetry_cell_setting 'triclinic'
loop_
_space_group_symop_operation_xyz
x,y,z
-x,-y,-z
loop_
_atom_site_type_symbol
_atom_site_label
_atom_site_fract_x
_atom_site_fract_y
_atom_site_fract_z
Si Si1 0.316987 0.806435 0.235611
Si Si2 0.020667 0.273321 0.162734
Si Si3 0.255924 0.788600 0.474906
Si Si4 0.500000 0.500000 0.000000
Si Si5 0.080645 0.767867 0.569486
Si Si6 0.664311 0.714935 0.082935
Si Si7 0.812584 0.438049 0.708141
Si Si8 0.498151 0.043437 0.694179
O O1 0.240026 0.709368 0.114607
O O2 0.461162 0.890449 0.534351
O O3 0.476345 0.661921 0.199299
O O4 0.000000 0.000000 0.000000
O O5 0.217142 0.210030 0.441418
O O6 0.888320 0.482012 0.158727
O O7 0.230879 0.091268 0.171092
O O8 0.912885 0.273174 0.752522
O O9 0.496407 0.625052 0.536826
O O10 0.438556 0.766290 0.772416
O O11 0.068481 0.007459 0.416389
O O12 0.325435 0.662397 0.852538
O O13 0.170288 0.649952 0.462366
O O14 0.841831 0.770366 0.319074
O O15 0.511237 0.838690 0.112566
O O16 0.000000 0.500000 0.000000
#
# Coordination Sequence:
#
# PCOD9040673 Si02
#       8
#     2   2   2   1   2   2   2   2
#     4  10  23  46  70 104 151 211 262 322 390 462
#     4  10  23  43  68 104 157 210 262 318 391 467
#     4  11  28  54  82 121 157 213 270 338 402 480
#     4  12  28  48  80 122 162 214 272 326 406 482
#     4  12  27  52  82 116 167 213 265 335 407 479
#     4  12  25  46  76 119 157 207 268 329 404 480
#     4  11  26  56  87 118 159 209 275 333 403 476
#     4  10  23  46  69 107 158 210 265 321 390 469
#
# _framework density 25.962479999999999
#
# number of rings (size 3 to 8) (size 9 to 14) (size 15 to 20)
#    0.000    1.067    1.333    3.600    1.867    7.467 
#   12.000    0.000    0.000    0.800    0.000    0.000 
#    0.000    0.000    0.000    0.000    0.000    0.000 
#
# Total GULP energy -83981.747942 kJ/mol
# GULP energy per Si atom -5598.783196 kJ/mol
# Density = 2.590339 g / cm^3
# Si number density = 25.962480 Si / 1000 Ang^3
#
#
#
# Elastic Constant Matrix: (Units=GPa)
#
#
# Indices 1 2 3 4 5 6 
#
# 1 132.2408 43.2751 58.9657 -10.5006 -1.4342 36.8289
# 2 43.2751 195.1983 82.4704 -27.8851 -24.4218 28.5824
# 3 58.9657 82.4704 123.6486 0.4132 -33.3567 8.9456
# 4 -10.5006 -27.8851 0.4132 38.3918 -2.7803 -9.8097
# 5 -1.4342 -24.4218 -33.3567 -2.7803 37.0716 13.3899
# 6 36.8289 28.5824 8.9456 -9.8097 13.3899 52.6233
#
#
#
# Elastic Compliance Matrix: (Units=1/GPa)
#
#
# Indices 1 2 3 4 5 6 
#
# 1 0.012335 0.001266 -0.006742 0.002376 -0.001964 -0.007232
# 2 0.001266 0.009108 -0.005502 0.006083 0.003209 -0.004581
# 3 -0.006742 -0.005502 0.018120 -0.005004 0.011794 0.000692
# 4 0.002376 0.006083 -0.005004 0.031635 0.001460 0.001410
# 5 -0.001964 0.003209 0.011794 0.001460 0.044591 -0.013447
# 6 -0.007232 -0.004581 0.000692 0.001410 -0.013447 0.030119
#
#
# Mechanical properties :
#
#
# Convention : Reuss Voigt Hill
#
# Bulk Modulus (GPa) = 56.78969 91.16780 73.97874
# Shear Modulus (GPa) = 28.77992 43.37577 36.07785
#
# Velocity S-wave (km/s) = 3.33306 4.09187 3.73180
# Velocity P-wave (km/s) = 6.06082 7.58393 6.86475
#
# Compressibility (1/GPa) = 0.01760883
#
# Stress axis : x y z
#
# Youngs Moduli (GPa) = 81.06992 109.79373 55.18727
#
# Poissons Ratio (x) = -0.13902 0.37205
# Poissons Ratio (y) = -0.10265 0.30363
# Poissons Ratio (z) = 0.54654 0.60406
#
# Static dielectric constant tensor:
#      x y z
#    x 2.072330 0.045220 0.003320 
#    y 0.045220 2.010430 -0.036210 
#    z 0.003320 -0.036210 2.060620 
# 
# From -- ./inp_files/472436.got.cif
#   From: 2010.05.17/outbox.cif.g08.bks.cpg/sg2_237_cif.got.tgz:472436.got - 2010.06.03 11:33:40.
