data_PCOD9040724
_publ_section_title
;
Structure prediction by ZEFSAII (Michael W. Deem and Ramdas Pophale) SiO2 
 PCOD9040724
Probable space group: P -1
;
_chemical_formula_sum "Si O2"
_cell_formula_units_Z 15
_cell_length_a 11.440134
_cell_length_b 7.951479
_cell_length_c 12.098081
_cell_angle_alpha 70.805105
_cell_angle_beta 60.870257
_cell_angle_gamma 38.737923
_cell_volume 598.939101
_symmetry_space_group_name_H-M "P -1"
_symmetry_group_IT_number 2
_symmetry_cell_setting 'triclinic'
loop_
_space_group_symop_operation_xyz
x,y,z
-x,-y,-z
loop_
_atom_site_type_symbol
_atom_site_label
_atom_site_fract_x
_atom_site_fract_y
_atom_site_fract_z
Si Si1 0.265005 0.922300 0.858477
Si Si2 0.029870 0.248882 0.267806
Si Si3 0.712050 0.548260 0.788633
Si Si4 0.834541 0.381522 0.020768
Si Si5 0.962439 0.950182 0.407930
Si Si6 0.674192 0.799800 0.373581
Si Si7 0.000000 0.500000 0.000000
Si Si8 0.341770 0.988200 0.346285
O O1 0.482285 0.708088 0.860848
O O2 0.276519 0.053056 0.727178
O O3 0.211312 0.772191 0.888590
O O4 0.080577 0.180818 0.965192
O O5 0.882992 0.492432 0.373361
O O6 0.029600 0.380903 0.137637
O O7 0.254079 0.990139 0.272429
O O8 0.927745 0.162144 0.305758
O O9 0.798153 0.425734 0.897301
O O10 0.709307 0.756062 0.711158
O O11 0.845181 0.326316 0.680279
O O12 0.769297 0.619951 0.063870
O O13 0.787152 0.982958 0.504656
O O14 0.000000 0.000000 0.500000
O O15 0.500000 0.000000 0.500000
O O16 0.566369 0.780476 0.336356
#
# Coordination Sequence:
#
# PCOD9040724 Si02
#       8
#     2   2   2   2   2   2   1   2
#     4  10  24  43  69 101 131 179 239 276 344 417
#     4  11  25  47  63 100 145 180 231 289 352 407
#     4  11  22  44  72  99 133 182 237 276 346 421
#     4  11  24  45  70  98 138 181 227 290 343 412
#     4  10  25  41  67 101 141 182 221 287 348 412
#     4  11  25  41  73 104 134 180 242 284 340 429
#     4  12  24  46  70  98 144 180 230 292 352 410
#     4  10  23  43  68  95 137 188 223 278 349 411
#
# _framework density 25.044281999999999
#
# number of rings (size 3 to 8) (size 9 to 14) (size 15 to 20)
#    0.000    1.333    2.667    0.800   14.933    0.533 
#    4.800    1.333    0.000    0.000    0.000    0.000 
#    0.000    0.000    0.000    0.000    0.000    0.000 
#
# Total GULP energy -83600.138585 kJ/mol
# GULP energy per Si atom -5573.342572 kJ/mol
# Density = 2.498728 g / cm^3
# Si number density = 25.044282 Si / 1000 Ang^3
#
#
#
# Elastic Constant Matrix: (Units=GPa)
#
#
# Indices 1 2 3 4 5 6 
#
# 1 144.5007 30.4717 58.7712 -13.1869 -29.5146 -1.5289
# 2 30.4717 33.5550 8.7262 -9.9363 -17.5406 0.3562
# 3 58.7712 8.7262 101.9168 0.5608 -23.3044 0.0263
# 4 -13.1869 -9.9363 0.5608 37.3524 12.1009 -9.8601
# 5 -29.5146 -17.5406 -23.3044 12.1009 58.2921 -11.7277
# 6 -1.5289 0.3562 0.0263 -9.8601 -11.7277 35.0178
#
#
#
# Elastic Compliance Matrix: (Units=1/GPa)
#
#
# Indices 1 2 3 4 5 6 
#
# 1 0.011211 -0.007588 -0.005592 0.002088 0.001026 0.001502
# 2 -0.007588 0.042969 0.002883 0.006712 0.009728 0.004377
# 3 -0.005592 0.002883 0.013756 -0.002667 0.004161 0.000359
# 4 0.002088 0.006712 -0.002667 0.032485 -0.003097 0.008135
# 5 0.001026 0.009728 0.004161 -0.003097 0.024363 0.007230
# 6 0.001502 0.004377 0.000359 0.008135 0.007230 0.033290
#
#
# Mechanical properties :
#
#
# Convention : Reuss Voigt Hill
#
# Bulk Modulus (GPa) = 21.12328 52.87896 37.00112
# Shear Modulus (GPa) = 25.71365 38.26603 31.98984
#
# Velocity S-wave (km/s) = 3.20773 3.91312 3.57785
# Velocity P-wave (km/s) = 4.70873 6.44800 5.64574
#
# Compressibility (1/GPa) = 0.04734113
#
# Stress axis : x y z
#
# Youngs Moduli (GPa) = 89.19760 23.27263 72.69466
#
# Poissons Ratio (x) = 0.17659 0.40654
# Poissons Ratio (y) = 0.67682 -0.20957
# Poissons Ratio (z) = 0.49884 -0.06709
#
# Static dielectric constant tensor:
#      x y z
#    x 2.954320 0.761350 0.218200 
#    y 0.761350 2.655070 0.238240 
#    z 0.218200 0.238240 2.060720 
# 
# From -- ./inp_files/416817.got.cif
#   From: 2010.05.17/outbox.cif.g08.bks.cpg/sg2_209_cif.got.tgz:416817.got - 2010.06.03 11:33:40.
