data_PCOD9040893
_publ_section_title
;
Structure prediction by ZEFSAII (Michael W. Deem and Ramdas Pophale) SiO2 
 PCOD9040893
Probable space group: P -1
;
_chemical_formula_sum "Si O2"
_cell_formula_units_Z 14
_cell_length_a 8.798811
_cell_length_b 23.040740
_cell_length_c 5.080956
_cell_angle_alpha 84.919444
_cell_angle_beta 99.179116
_cell_angle_gamma 35.791758
_cell_volume 550.708004
_symmetry_space_group_name_H-M "P -1"
_symmetry_group_IT_number 2
_symmetry_cell_setting 'triclinic'
loop_
_space_group_symop_operation_xyz
x,y,z
-x,-y,-z
loop_
_atom_site_type_symbol
_atom_site_label
_atom_site_fract_x
_atom_site_fract_y
_atom_site_fract_z
Si Si1 0.258769 0.626770 0.901155
Si Si2 0.986688 0.667938 0.314643
Si Si3 0.664363 0.265749 0.999754
Si Si4 0.716339 0.979359 0.666692
Si Si5 0.203475 0.973555 0.803088
Si Si6 0.391317 0.815591 0.290650
Si Si7 0.945352 0.557153 0.208511
O O1 0.373617 0.653867 0.000678
O O2 0.140075 0.662505 0.558906
O O3 0.500000 0.500000 0.000000
O O4 0.016736 0.688759 0.028671
O O5 0.711972 0.735935 0.388454
O O6 0.107488 0.565521 0.311749
O O7 0.973288 0.148420 0.223731
O O8 0.637793 0.245498 0.708767
O O9 0.382574 0.322298 0.999018
O O10 0.659900 0.048662 0.416566
O O11 0.500000 0.000000 0.500000
O O12 0.700882 0.011629 0.942408
O O13 0.865631 0.086661 0.628706
O O14 0.272641 0.888505 0.970910
O O15 0.000000 0.500000 0.500000
O O16 0.000000 0.500000 0.000000
#
# Coordination Sequence:
#
# PCOD9040893 Si02
#       7
#     2   2   2   2   2   2   2
#     4  12  26  45  66  98 140 177 222 283 348 403
#     4  11  25  41  69  96 130 175 228 273 342 405
#     4  10  25  43  68 101 136 178 228 279 338 406
#     4  11  25  42  67 103 141 181 225 279 344 407
#     4  10  23  43  69  94 141 177 229 280 333 400
#     4   9  23  44  69 101 131 184 229 281 334 400
#     4  11  23  44  69  96 128 172 226 283 336 403
#
# _framework density 25.421821999999999
#
# number of rings (size 3 to 8) (size 9 to 14) (size 15 to 20)
#    0.000    1.429    0.000    3.429    4.000   15.429 
#    0.000    0.000    0.000    0.000    0.000    0.000 
#    0.000    0.000    0.000    0.000    0.000    0.000 
#
# Total GULP energy -78002.967683 kJ/mol
# GULP energy per Si atom -5571.640549 kJ/mol
# Density = 2.536396 g / cm^3
# Si number density = 25.421822 Si / 1000 Ang^3
#
#
#
# Elastic Constant Matrix: (Units=GPa)
#
#
# Indices 1 2 3 4 5 6 
#
# 1 100.7585 7.3004 17.7993 18.0997 32.2628 21.6945
# 2 7.3004 86.0484 21.3586 -0.7111 25.1702 22.7635
# 3 17.7993 21.3586 117.7836 30.4950 12.9373 -4.6300
# 4 18.0997 -0.7111 30.4950 35.2844 -2.1076 11.5336
# 5 32.2628 25.1702 12.9373 -2.1076 39.6879 8.5464
# 6 21.6945 22.7635 -4.6300 11.5336 8.5464 44.6179
#
#
#
# Elastic Compliance Matrix: (Units=1/GPa)
#
#
# Indices 1 2 3 4 5 6 
#
# 1 0.017527 0.004706 0.000232 -0.008255 -0.016542 -0.005597
# 2 0.004706 0.018801 -0.004596 0.004988 -0.011523 -0.011439
# 3 0.000232 -0.004596 0.014142 -0.015512 -0.004556 0.008582
# 4 -0.008255 0.004988 -0.015512 0.052383 0.014949 -0.016545
# 5 -0.016542 -0.011523 -0.004556 0.014949 0.048153 0.000362
# 6 -0.005597 -0.011439 0.008582 -0.016545 0.000362 0.036068
#
#
# Mechanical properties :
#
#
# Convention : Reuss Voigt Hill
#
# Bulk Modulus (GPa) = 19.54799 44.16745 31.85772
# Shear Modulus (GPa) = 24.57706 41.12684 32.85195
#
# Velocity S-wave (km/s) = 3.11267 4.02652 3.59872
# Velocity P-wave (km/s) = 4.54141 6.24730 5.46137
#
# Compressibility (1/GPa) = 0.05115615
#
# Stress axis : x y z
#
# Youngs Moduli (GPa) = 57.05340 53.18888 70.70979
#
# Poissons Ratio (x) = -0.25033 -0.01641
# Poissons Ratio (y) = -0.26852 0.32497
# Poissons Ratio (z) = -0.01324 0.24445
#
# Static dielectric constant tensor:
#      x y z
#    x 2.109350 0.069410 0.066890 
#    y 0.069410 2.334290 0.078560 
#    z 0.066890 0.078560 2.044520 
# 
# From -- ./inp_files/54943.got.cif
#   From: 2010.05.17/outbox.cif.g08.bks.cpg/sg2_28_cif.got.tgz:54943.got - 2010.06.03 11:33:40.
