data_PCOD9040480
_publ_section_title
;
Structure prediction by ZEFSAII (Michael W. Deem and Ramdas Pophale) SiO2 
 PCOD9040480
Probable space group: P -1
;
_chemical_formula_sum "Si O2"
_cell_formula_units_Z 14
_cell_length_a 14.028934
_cell_length_b 11.674348
_cell_length_c 15.318540
_cell_angle_alpha 152.035813
_cell_angle_beta 143.246868
_cell_angle_gamma 32.955673
_cell_volume 621.959717
_symmetry_space_group_name_H-M "P -1"
_symmetry_group_IT_number 2
_symmetry_cell_setting 'triclinic'
loop_
_space_group_symop_operation_xyz
x,y,z
-x,-y,-z
loop_
_atom_site_type_symbol
_atom_site_label
_atom_site_fract_x
_atom_site_fract_y
_atom_site_fract_z
Si Si1 0.905226 0.361523 0.237426
Si Si2 0.136296 0.656936 0.617705
Si Si3 0.451254 0.259574 0.828605
Si Si4 0.906538 0.329494 0.667517
Si Si5 0.184775 0.792800 0.307284
Si Si6 0.178608 0.553092 0.956884
Si Si7 0.589320 0.660137 0.526861
O O1 0.074559 0.417219 0.410994
O O2 0.875107 0.234927 0.219047
O O3 0.725888 0.665597 0.309850
O O4 0.891354 0.271910 0.067635
O O5 0.328355 0.528143 0.625317
O O6 0.984518 0.901448 0.614144
O O7 0.371342 0.313775 0.904176
O O8 0.597526 0.947680 0.714572
O O9 0.500000 0.500000 0.000000
O O10 0.865670 0.374986 0.771268
O O11 0.720291 0.485705 0.583190
O O12 0.040140 0.440231 0.804367
O O13 0.000000 0.000000 0.500000
O O14 0.379612 0.755676 0.452677
O O15 0.203675 0.693376 0.154893
#
# Coordination Sequence:
#
# PCOD9040480 Si02
#       7
#     2   2   2   2   2   2   2
#     4   9  21  43  62  95 141 178 224 282 338 413
#     4  11  22  42  70 102 134 189 232 277 347 414
#     4  10  23  43  67 102 140 180 229 287 341 417
#     4  12  23  49  74  97 137 188 238 289 342 413
#     4  12  25  43  72 105 141 181 236 287 348 416
#     4  10  24  46  65 103 144 179 225 292 349 409
#     4  12  24  45  73 103 137 185 237 285 350 409
#
# _framework density 22.509495999999999
#
# number of rings (size 3 to 8) (size 9 to 14) (size 15 to 20)
#    0.857    0.286    4.286    1.714    2.000    4.571 
#    0.000    1.429    0.000    0.000    0.000    0.000 
#    0.000    0.000    0.000    0.000    0.000    0.000 
#
# Total GULP energy -78092.810758 kJ/mol
# GULP energy per Si atom -5578.057911 kJ/mol
# Density = 2.245826 g / cm^3
# Si number density = 22.509496 Si / 1000 Ang^3
#
#
#
# Elastic Constant Matrix: (Units=GPa)
#
#
# Indices 1 2 3 4 5 6 
#
# 1 140.8978 44.6756 27.2772 2.4476 -18.2592 8.4367
# 2 44.6756 127.1736 26.8656 16.1764 -5.7891 7.8227
# 3 27.2772 26.8656 61.3345 -4.4476 -15.2198 3.4201
# 4 2.4476 16.1764 -4.4476 18.4419 2.9562 -10.6134
# 5 -18.2592 -5.7891 -15.2198 2.9562 39.4715 -6.0990
# 6 8.4367 7.8227 3.4201 -10.6134 -6.0990 39.5283
#
#
#
# Elastic Compliance Matrix: (Units=1/GPa)
#
#
# Indices 1 2 3 4 5 6 
#
# 1 0.008675 -0.002335 -0.002146 -0.000603 0.002743 -0.000943
# 2 -0.002335 0.011877 -0.005171 -0.014294 -0.001098 -0.005412
# 3 -0.002146 -0.005171 0.021701 0.011086 0.006336 0.003558
# 4 -0.000603 -0.014294 0.011086 0.083632 -0.000600 0.024361
# 5 0.002743 -0.001098 0.006336 -0.000600 0.029467 0.003469
# 6 -0.000943 -0.005412 0.003558 0.024361 0.003469 0.033339
#
#
# Mechanical properties :
#
#
# Convention : Reuss Voigt Hill
#
# Bulk Modulus (GPa) = 43.57347 58.56029 51.06688
# Shear Modulus (GPa) = 23.18622 34.86083 29.02353
#
# Velocity S-wave (km/s) = 3.21294 3.93964 3.59470
# Velocity P-wave (km/s) = 5.75881 6.83862 6.32181
#
# Compressibility (1/GPa) = 0.02294974
#
# Stress axis : x y z
#
# Youngs Moduli (GPa) = 115.26730 84.19671 46.08020
#
# Poissons Ratio (x) = 0.19657 0.09890
# Poissons Ratio (y) = 0.26912 0.23829
# Poissons Ratio (z) = 0.24738 0.43539
#
# Static dielectric constant tensor:
#      x y z
#    x 1.868380 -0.007070 -0.021500 
#    y -0.007070 1.839020 0.012290 
#    z -0.021500 0.012290 1.873230 
# 
# From -- ./inp_files/531407.got.cif
#   From: 2010.05.17/outbox.cif.g08.bks.cpg/sg2_266_cif.got.tgz:531407.got - 2010.06.03 11:33:40.
