data_PCOD9040795
_publ_section_title
;
Structure prediction by ZEFSAII (Michael W. Deem and Ramdas Pophale) SiO2 
 PCOD9040795
Probable space group: P -1
;
_chemical_formula_sum "Si O2"
_cell_formula_units_Z 12
_cell_length_a 8.823114
_cell_length_b 13.011549
_cell_length_c 25.686594
_cell_angle_alpha 17.378929
_cell_angle_beta 149.878786
_cell_angle_gamma 148.253552
_cell_volume 435.869513
_symmetry_space_group_name_H-M "P -1"
_symmetry_group_IT_number 2
_symmetry_cell_setting 'triclinic'
loop_
_space_group_symop_operation_xyz
x,y,z
-x,-y,-z
loop_
_atom_site_type_symbol
_atom_site_label
_atom_site_fract_x
_atom_site_fract_y
_atom_site_fract_z
Si Si1 0.052171 0.493256 0.736368
Si Si2 0.153823 0.225023 0.567907
Si Si3 0.356662 0.643612 0.033010
Si Si4 0.272083 0.135459 0.110599
Si Si5 0.266969 0.497363 0.188890
Si Si6 0.516941 0.558541 0.343604
O O1 0.407125 0.572316 0.819861
O O2 0.006259 0.650230 0.590400
O O3 0.819087 0.597746 0.658726
O O4 0.938692 0.079162 0.892938
O O5 0.248971 0.494824 0.514248
O O6 0.467196 0.116546 0.689794
O O7 0.929713 0.889369 0.685992
O O8 0.448664 0.634666 0.125134
O O9 0.000000 0.500000 0.000000
O O10 0.416596 0.020885 0.843187
O O11 0.500000 0.500000 0.000000
O O12 0.992348 0.252577 0.003518
O O13 0.491777 0.472435 0.316760
#
# Coordination Sequence:
#
# PCOD9040795 Si02
#       6
#     2   2   2   2   2   2
#     4  11  24  43  70  98 139 173 221 281 334 391
#     4  10  23  43  69 100 136 173 221 277 339 392
#     4  12  25  43  68 100 133 180 224 273 334 399
#     4   9  19  36  67  98 126 168 223 269 321 386
#     4  11  23  40  68  99 136 170 227 271 329 397
#     4  11  22  43  71  96 128 180 229 270 324 399
#
# _framework density 27.531172999999999
#
# number of rings (size 3 to 8) (size 9 to 14) (size 15 to 20)
#    0.000    1.333    3.333    3.000    2.333    2.667 
#    0.000    2.500    0.000    0.000    0.000    0.000 
#    0.000    0.000    0.000    0.000    0.000    0.000 
#
# Total GULP energy -66987.454153 kJ/mol
# GULP energy per Si atom -5582.287846 kJ/mol
# Density = 2.746851 g / cm^3
# Si number density = 27.531173 Si / 1000 Ang^3
#
#
#
# Elastic Constant Matrix: (Units=GPa)
#
#
# Indices 1 2 3 4 5 6 
#
# 1 91.4760 14.3655 43.5522 18.9134 -28.4308 2.3364
# 2 14.3655 121.9648 54.1520 23.3229 3.6748 16.9455
# 3 43.5522 54.1520 76.8072 19.3397 -14.8449 5.3771
# 4 18.9134 23.3229 19.3397 41.5481 5.0362 -2.2927
# 5 -28.4308 3.6748 -14.8449 5.0362 55.6650 10.2563
# 6 2.3364 16.9455 5.3771 -2.2927 10.2563 54.0963
#
#
#
# Elastic Compliance Matrix: (Units=1/GPa)
#
#
# Indices 1 2 3 4 5 6 
#
# 1 0.019141 0.003660 -0.009822 -0.007335 0.008103 -0.002844
# 2 0.003660 0.013867 -0.010605 -0.004608 -0.000815 -0.003489
# 3 -0.009822 -0.010605 0.027322 -0.002658 0.003151 0.000320
# 4 -0.007335 -0.004608 -0.002658 0.032471 -0.007995 0.004916
# 5 0.008103 -0.000815 0.003151 -0.007995 0.024722 -0.005434
# 6 -0.002844 -0.003489 0.000320 0.004916 -0.005434 0.020908
#
#
# Mechanical properties :
#
#
# Convention : Reuss Voigt Hill
#
# Bulk Modulus (GPa) = 37.31934 57.15415 47.23675
# Shear Modulus (GPa) = 27.64008 42.14043 34.89025
#
# Velocity S-wave (km/s) = 3.17196 3.91659 3.56378
# Velocity P-wave (km/s) = 5.19614 6.42322 5.84199
#
# Compressibility (1/GPa) = 0.02679575
#
# Stress axis : x y z
#
# Youngs Moduli (GPa) = 52.24412 72.11378 36.60084
#
# Poissons Ratio (x) = -0.26394 0.35949
# Poissons Ratio (y) = -0.19122 0.38816
# Poissons Ratio (z) = 0.51313 0.76478
#
# Static dielectric constant tensor:
#      x y z
#    x 2.151660 -0.055050 0.009950 
#    y -0.055050 2.155920 0.062720 
#    z 0.009950 0.062720 2.290440 
# 
# From -- ./inp_files/235432.got.cif
#   From: 2010.05.17/outbox.cif.g08.bks.cpg/sg2_118_cif.got.tgz:235432.got - 2010.06.03 11:33:40.
