data_PCOD9040327
_publ_section_title
;
Structure prediction by ZEFSAII (Michael W. Deem and Ramdas Pophale) SiO2 
 PCOD9040327
Probable space group: P -1
;
_chemical_formula_sum "Si O2"
_cell_formula_units_Z 16
_cell_length_a 19.158675
_cell_length_b 9.126517
_cell_length_c 12.315499
_cell_angle_alpha 37.560433
_cell_angle_beta 139.764826
_cell_angle_gamma 115.172883
_cell_volume 754.343649
_symmetry_space_group_name_H-M "P -1"
_symmetry_group_IT_number 2
_symmetry_cell_setting 'triclinic'
loop_
_space_group_symop_operation_xyz
x,y,z
-x,-y,-z
loop_
_atom_site_type_symbol
_atom_site_label
_atom_site_fract_x
_atom_site_fract_y
_atom_site_fract_z
Si Si1 0.745919 0.536699 0.698525
Si Si2 0.298484 0.698716 0.701854
Si Si3 0.327860 0.901376 0.210117
Si Si4 0.872233 0.522395 0.296829
Si Si5 0.553478 0.408465 0.258606
Si Si6 0.467550 0.989375 0.120982
Si Si7 0.875630 0.264068 0.220491
Si Si8 0.278308 0.009842 0.714803
O O1 0.739909 0.268093 0.812405
O O2 0.606201 0.757427 0.427242
O O3 0.787311 0.668343 0.571822
O O4 0.829290 0.464912 0.945626
O O5 0.183703 0.639717 0.602158
O O6 0.337623 0.764436 0.593824
O O7 0.281502 0.903887 0.658379
O O8 0.425320 0.442667 0.040540
O O9 0.423015 0.718766 0.520887
O O10 0.394610 0.961216 0.154139
O O11 0.230100 0.171965 0.991016
O O12 0.882042 0.411489 0.251504
O O13 0.000000 0.500000 0.500000
O O14 0.546234 0.707237 0.075731
O O15 0.401566 0.947907 0.960680
O O16 0.782023 0.140791 0.201209
O O17 0.000000 0.000000 0.500000
#
# Coordination Sequence:
#
# PCOD9040327 Si02
#       8
#     2   2   2   2   2   2   2   2
#     4  12  24  40  72 104 135 183 222 271 348 406
#     4  10  23  43  65  98 139 176 219 287 336 397
#     4  12  25  40  70 104 138 181 223 267 355 405
#     4  11  26  47  70  93 134 185 234 286 337 397
#     4  11  23  41  67 102 147 174 218 279 346 415
#     4  12  23  41  68 107 147 175 216 276 341 421
#     4  11  27  47  70  97 135 177 237 289 328 399
#     4  11  23  42  70  98 141 172 225 276 338 402
#
# _framework density 21.210494000000001
#
# number of rings (size 3 to 8) (size 9 to 14) (size 15 to 20)
#    0.000    0.750    5.000    2.250    5.250    1.000 
#    0.000    0.625    0.000    0.000    0.000    0.000 
#    0.000    0.000    0.000    0.000    0.000    0.000 
#
# Total GULP energy -89412.015623 kJ/mol
# GULP energy per Si atom -5588.250976 kJ/mol
# Density = 2.116222 g / cm^3
# Si number density = 21.210494 Si / 1000 Ang^3
#
#
#
# Elastic Constant Matrix: (Units=GPa)
#
#
# Indices 1 2 3 4 5 6 
#
# 1 62.7523 33.0284 28.0000 9.0535 -11.0981 -1.3761
# 2 33.0284 100.0706 35.8975 3.7221 10.5911 5.5170
# 3 28.0000 35.8975 94.0155 6.5236 -11.8919 -5.4471
# 4 9.0535 3.7221 6.5236 40.2111 -3.5456 8.9592
# 5 -11.0981 10.5911 -11.8919 -3.5456 36.3999 1.5697
# 6 -1.3761 5.5170 -5.4471 8.9592 1.5697 40.4726
#
#
#
# Elastic Compliance Matrix: (Units=1/GPa)
#
#
# Indices 1 2 3 4 5 6 
#
# 1 0.023019 -0.007453 -0.002635 -0.003813 0.007869 0.001983
# 2 -0.007453 0.015153 -0.004818 0.000989 -0.008035 -0.002875
# 3 -0.002635 -0.004818 0.014136 -0.001392 0.004969 0.002585
# 4 -0.003813 0.000989 -0.001392 0.027416 0.001048 -0.006561
# 5 0.007869 -0.008035 0.004969 0.001048 0.033914 0.000484
# 6 0.001983 -0.002875 0.002585 -0.006561 0.000484 0.026949
#
#
# Mechanical properties :
#
#
# Convention : Reuss Voigt Hill
#
# Bulk Modulus (GPa) = 44.45033 50.07669 47.26351
# Shear Modulus (GPa) = 28.10603 34.07754 31.09179
#
# Velocity S-wave (km/s) = 3.64414 4.01263 3.83282
# Velocity P-wave (km/s) = 6.22163 6.71781 6.47447
#
# Compressibility (1/GPa) = 0.02249702
#
# Stress axis : x y z
#
# Youngs Moduli (GPa) = 43.44165 65.99363 70.74207
#
# Poissons Ratio (x) = 0.49182 0.18643
# Poissons Ratio (y) = 0.32375 0.34082
# Poissons Ratio (z) = 0.11448 0.31794
#
# Static dielectric constant tensor:
#      x y z
#    x 1.837010 0.010800 -0.015530 
#    y 0.010800 1.812330 -0.027450 
#    z -0.015530 -0.027450 1.758300 
# 
# From -- ./inp_files/258396.got.cif
#   From: 2010.05.17/outbox.cif.g08.bks.cpg/sg2_130_cif.got.tgz:258396.got - 2010.06.03 11:33:40.
