data_PCOD9040695
_publ_section_title
;
Structure prediction by ZEFSAII (Michael W. Deem and Ramdas Pophale) SiO2 
 PCOD9040695
Probable space group: P -1
;
_chemical_formula_sum "Si O2"
_cell_formula_units_Z 13
_cell_length_a 10.269537
_cell_length_b 13.223378
_cell_length_c 13.170625
_cell_angle_alpha 147.032645
_cell_angle_beta 34.950117
_cell_angle_gamma 134.645232
_cell_volume 556.892893
_symmetry_space_group_name_H-M "P -1"
_symmetry_group_IT_number 2
_symmetry_cell_setting 'triclinic'
loop_
_space_group_symop_operation_xyz
x,y,z
-x,-y,-z
loop_
_atom_site_type_symbol
_atom_site_label
_atom_site_fract_x
_atom_site_fract_y
_atom_site_fract_z
Si Si1 0.257939 0.810773 0.839575
Si Si2 0.828958 0.011020 0.744032
Si Si3 0.401553 0.604846 0.054788
Si Si4 0.000000 0.000000 0.000000
Si Si5 0.822195 0.640166 0.690781
Si Si6 0.337800 0.993939 0.363320
Si Si7 0.874760 0.594461 0.383059
O O1 0.036096 0.845546 0.942205
O O2 0.262483 0.601351 0.702954
O O3 0.455956 0.861874 0.673350
O O4 0.270074 0.935394 0.039097
O O5 0.720378 0.100509 0.789436
O O6 0.807401 0.789796 0.542672
O O7 0.099872 0.062650 0.614579
O O8 0.411211 0.829964 0.252511
O O9 0.137886 0.556822 0.160761
O O10 0.500000 0.500000 0.000000
O O11 0.571455 0.569744 0.824812
O O12 0.882079 0.839452 0.868934
O O13 0.856716 0.648059 0.556959
O O14 0.000000 0.500000 0.500000
#
# Coordination Sequence:
#
# PCOD9040695 Si02
#       7
#     2   2   2   1   2   2   2
#     4  12  23  40  67  98 129 171 213 268 319 381
#     4  10  23  46  65  93 131 173 217 263 318 380
#     4  11  21  39  64  94 126 169 212 260 323 378
#     4  12  22  38  62 100 128 158 216 254 318 390
#     4  12  22  40  61  90 134 164 204 265 315 380
#     4  10  23  43  68  92 131 174 214 266 321 376
#     4  11  24  40  65  95 128 169 214 263 318 383
#
# _framework density 23.343806000000001
#
# number of rings (size 3 to 8) (size 9 to 14) (size 15 to 20)
#    0.000    0.923    6.154    0.462    0.000    1.846 
#    0.000    8.462    0.000    0.000    0.000    0.000 
#    0.000    0.000    0.000    0.000    0.000    0.000 
#
# Total GULP energy -72369.156188 kJ/mol
# GULP energy per Si atom -5566.858168 kJ/mol
# Density = 2.329067 g / cm^3
# Si number density = 23.343806 Si / 1000 Ang^3
#
#
#
# Elastic Constant Matrix: (Units=GPa)
#
#
# Indices 1 2 3 4 5 6 
#
# 1 72.6037 -3.1863 17.6604 9.6110 -2.5699 -24.7464
# 2 -3.1863 142.1453 49.5944 2.9268 -13.8319 -4.4836
# 3 17.6604 49.5944 64.0500 -0.9934 -10.9439 8.6185
# 4 9.6110 2.9268 -0.9934 42.4985 -4.7230 -3.1574
# 5 -2.5699 -13.8319 -10.9439 -4.7230 28.5570 8.2897
# 6 -24.7464 -4.4836 8.6185 -3.1574 8.2897 33.2269
#
#
#
# Elastic Compliance Matrix: (Units=1/GPa)
#
#
# Indices 1 2 3 4 5 6 
#
# 1 0.030381 0.007954 -0.020851 -0.006870 -0.011644 0.031361
# 2 0.007954 0.012125 -0.013551 -0.002358 -0.002312 0.011427
# 3 -0.020851 -0.013551 0.038936 0.006088 0.016485 -0.030991
# 4 -0.006870 -0.002358 0.006088 0.025662 0.006625 -0.006228
# 5 -0.011644 -0.002312 0.016485 0.006625 0.047360 -0.024446
# 6 0.031361 0.011427 -0.030991 -0.006228 -0.024446 0.068540
#
#
# Mechanical properties :
#
#
# Convention : Reuss Voigt Hill
#
# Bulk Modulus (GPa) = 35.03287 45.21512 40.12400
# Shear Modulus (GPa) = 17.51829 35.17184 26.34506
#
# Velocity S-wave (km/s) = 2.74240 3.88582 3.36306
# Velocity P-wave (km/s) = 5.00676 6.28841 5.68382
#
# Compressibility (1/GPa) = 0.02854462
#
# Stress axis : x y z
#
# Youngs Moduli (GPa) = 32.91570 82.47208 25.68320
#
# Poissons Ratio (x) = -0.65595 0.53553
# Poissons Ratio (y) = -0.26180 0.34803
# Poissons Ratio (z) = 0.68633 1.11757
#
# Static dielectric constant tensor:
#      x y z
#    x 1.823640 -0.003780 -0.073590 
#    y -0.003780 2.017960 0.025260 
#    z -0.073590 0.025260 1.900410 
# 
# From -- ./inp_files/521056.got.cif
#   From: 2010.05.17/outbox.cif.g08.bks.cpg/sg2_261_cif.got.tgz:521056.got - 2010.06.03 11:33:40.
