data_PCOD9040650
_publ_section_title
;
Structure prediction by ZEFSAII (Michael W. Deem and Ramdas Pophale) SiO2 
 PCOD9040650
Probable space group: P -1
;
_chemical_formula_sum "Si O2"
_cell_formula_units_Z 16
_cell_length_a 9.289168
_cell_length_b 8.516450
_cell_length_c 18.495181
_cell_angle_alpha 122.592355
_cell_angle_beta 45.085378
_cell_angle_gamma 130.702081
_cell_volume 777.138049
_symmetry_space_group_name_H-M "P -1"
_symmetry_group_IT_number 2
_symmetry_cell_setting 'triclinic'
loop_
_space_group_symop_operation_xyz
x,y,z
-x,-y,-z
loop_
_atom_site_type_symbol
_atom_site_label
_atom_site_fract_x
_atom_site_fract_y
_atom_site_fract_z
Si Si1 0.535029 0.952168 0.055753
Si Si2 0.253537 0.692057 0.456266
Si Si3 0.494374 0.185057 0.750107
Si Si4 0.700412 0.455699 0.884698
Si Si5 0.987577 0.917886 0.902954
Si Si6 0.471576 0.180763 0.267758
Si Si7 0.583194 0.590666 0.413027
Si Si8 0.038661 0.993194 0.572137
O O1 0.322978 0.741454 0.108885
O O2 0.571127 0.127332 0.146976
O O3 0.759115 0.920213 0.958946
O O4 0.500000 0.000000 0.000000
O O5 0.397269 0.712014 0.337990
O O6 0.405330 0.667591 0.460922
O O7 0.000000 0.500000 0.500000
O O8 0.197376 0.887798 0.515005
O O9 0.614676 0.360302 0.812277
O O10 0.537141 0.988965 0.711622
O O11 0.219611 0.077921 0.822206
O O12 0.931011 0.673284 0.858744
O O13 0.500000 0.500000 0.000000
O O14 0.000000 0.000000 0.000000
O O15 0.588814 0.411973 0.315807
O O16 0.210165 0.132044 0.336542
O O17 0.500000 0.500000 0.500000
O O18 0.833395 0.776153 0.383821
O O19 0.000000 0.000000 0.500000
#
# Coordination Sequence:
#
# PCOD9040650 Si02
#       8
#     2   2   2   2   2   2   2   2
#     4  10  23  43  68 102 143 177 224 288 342 406
#     4  12  25  47  70 102 137 180 232 289 347 418
#     4  11  23  42  70  99 132 180 231 284 343 413
#     4   9  19  39  68  94 130 177 219 274 343 395
#     4  11  20  43  68  95 134 179 232 279 333 412
#     4  11  23  43  68  99 138 179 225 280 351 403
#     4  12  25  44  70  98 137 182 229 284 349 413
#     4  12  23  46  68  97 140 175 226 288 341 412
#
# _framework density 20.588362
#
# number of rings (size 3 to 8) (size 9 to 14) (size 15 to 20)
#    0.000    1.000    7.500    0.375    0.000    5.000 
#    4.500    0.625    0.000    0.000    0.000    0.000 
#    0.000    0.000    0.000    0.000    0.000    0.000 
#
# Total GULP energy -89262.126895 kJ/mol
# GULP energy per Si atom -5578.882931 kJ/mol
# Density = 2.054150 g / cm^3
# Si number density = 20.588362 Si / 1000 Ang^3
#
#
#
# Elastic Constant Matrix: (Units=GPa)
#
#
# Indices 1 2 3 4 5 6 
#
# 1 126.9867 43.2680 33.6951 -3.1472 14.3303 -11.5988
# 2 43.2680 148.2991 62.0933 12.6427 23.6018 34.2352
# 3 33.6951 62.0933 95.6568 -12.1081 5.2659 -2.5170
# 4 -3.1472 12.6427 -12.1081 44.2793 -3.8107 -2.7446
# 5 14.3303 23.6018 5.2659 -3.8107 27.2138 -4.1083
# 6 -11.5988 34.2352 -2.5170 -2.7446 -4.1083 35.5771
#
#
#
# Elastic Compliance Matrix: (Units=1/GPa)
#
#
# Indices 1 2 3 4 5 6 
#
# 1 0.010674 -0.006826 0.001328 0.003924 0.002207 0.010700
# 2 -0.006826 0.035050 -0.022508 -0.022065 -0.032021 -0.042946
# 3 0.001328 -0.022508 0.026383 0.017194 0.020294 0.027628
# 4 0.003924 -0.022065 0.017194 0.037702 0.023452 0.029345
# 5 0.002207 -0.032021 0.020294 0.023452 0.069168 0.042765
# 6 0.010700 -0.042946 0.027628 0.029345 0.042765 0.082079
#
#
# Mechanical properties :
#
#
# Convention : Reuss Voigt Hill
#
# Bulk Modulus (GPa) = 62.13156 72.11729 67.12443
# Shear Modulus (GPa) = 15.50714 36.87312 26.19013
#
# Velocity S-wave (km/s) = 2.74743 4.23658 3.57050
# Velocity P-wave (km/s) = 6.34886 7.68347 7.04782
#
# Compressibility (1/GPa) = 0.01609488
#
# Stress axis : x y z
#
# Youngs Moduli (GPa) = 93.68678 28.53059 37.90368
#
# Poissons Ratio (x) = 0.19476 -0.05033
# Poissons Ratio (y) = 0.63953 0.85312
# Poissons Ratio (z) = -0.12441 0.64215
#
# Static dielectric constant tensor:
#      x y z
#    x 1.680160 -0.027180 -0.040220 
#    y -0.027180 1.806820 0.039160 
#    z -0.040220 0.039160 1.752210 
# 
# From -- ./inp_files/557431.got.cif
#   From: 2010.05.17/outbox.cif.g08.bks.cpg/sg2_279_cif.got.tgz:557431.got - 2010.06.03 11:33:40.
