data_PCOD9040704
_publ_section_title
;
Structure prediction by ZEFSAII (Michael W. Deem and Ramdas Pophale) SiO2 
 PCOD9040704
Probable space group: P -1
;
_chemical_formula_sum "Si O2"
_cell_formula_units_Z 16
_cell_length_a 5.334817
_cell_length_b 7.872249
_cell_length_c 18.180210
_cell_angle_alpha 131.174806
_cell_angle_beta 94.163156
_cell_angle_gamma 85.582528
_cell_volume 572.749704
_symmetry_space_group_name_H-M "P -1"
_symmetry_group_IT_number 2
_symmetry_cell_setting 'triclinic'
loop_
_space_group_symop_operation_xyz
x,y,z
-x,-y,-z
loop_
_atom_site_type_symbol
_atom_site_label
_atom_site_fract_x
_atom_site_fract_y
_atom_site_fract_z
Si Si1 0.771821 0.945246 0.420479
Si Si2 0.893174 0.704788 0.960162
Si Si3 0.106985 0.926812 0.282310
Si Si4 0.912862 0.488370 0.348302
Si Si5 0.348223 0.296434 0.466761
Si Si6 0.287606 0.713809 0.089953
Si Si7 0.332605 0.914378 0.842070
Si Si8 0.711905 0.514385 0.766130
O O1 0.532273 0.119729 0.465926
O O2 0.735933 0.677804 0.355209
O O3 0.000000 0.000000 0.500000
O O4 0.880398 0.956597 0.343101
O O5 0.690593 0.531954 0.941617
O O6 0.922432 0.627585 0.855289
O O7 0.154617 0.670500 0.998074
O O8 0.800935 0.951769 0.055048
O O9 0.077421 0.833276 0.173748
O O10 0.291609 0.734210 0.270148
O O11 0.245714 0.158718 0.357042
O O12 0.874970 0.591564 0.457050
O O13 0.818555 0.238439 0.262430
O O14 0.180066 0.503192 0.318789
O O15 0.500000 0.500000 0.500000
O O16 0.500586 0.896327 0.140147
O O17 0.505414 0.713614 0.823640
#
# Coordination Sequence:
#
# PCOD9040704 Si02
#       8
#     2   2   2   2   2   2   2   2
#     4  11  24  45  73  93 136 184 223 274 335 395
#     4  10  23  45  66  95 131 178 223 275 335 397
#     4  10  23  45  68  94 133 181 221 267 338 396
#     4  11  25  41  67 100 135 177 225 274 331 405
#     4  12  26  43  69 104 137 176 226 275 335 407
#     4  10  23  43  68  93 137 175 221 272 338 398
#     4  12  23  38  66  99 135 169 223 277 336 389
#     4  10  24  42  68  97 129 177 224 279 327 397
#
# _framework density 27.935414000000002
#
# number of rings (size 3 to 8) (size 9 to 14) (size 15 to 20)
#    0.000    1.250    1.250    3.375    3.500    6.500 
#    2.250    5.000    0.000    0.000    0.000    0.000 
#    0.000    0.000    0.000    0.000    0.000    0.000 
#
# Total GULP energy -89575.846235 kJ/mol
# GULP energy per Si atom -5598.490390 kJ/mol
# Density = 2.787183 g / cm^3
# Si number density = 27.935414 Si / 1000 Ang^3
#
#
#
# Elastic Constant Matrix: (Units=GPa)
#
#
# Indices 1 2 3 4 5 6 
#
# 1 62.5560 11.4509 30.7909 15.2821 -6.6128 -8.0046
# 2 11.4509 93.2858 34.5532 39.3798 4.9838 3.6281
# 3 30.7909 34.5532 197.2061 24.5074 -5.8263 -3.2339
# 4 15.2821 39.3798 24.5074 74.0638 0.2292 10.0106
# 5 -6.6128 4.9838 -5.8263 0.2292 57.0006 15.5113
# 6 -8.0046 3.6281 -3.2339 10.0106 15.5113 40.3126
#
#
#
# Elastic Compliance Matrix: (Units=1/GPa)
#
#
# Indices 1 2 3 4 5 6 
#
# 1 0.018648 -0.000116 -0.002357 -0.003561 0.000835 0.004087
# 2 -0.000116 0.014454 -0.001648 -0.007245 -0.001686 0.000992
# 3 -0.002357 -0.001648 0.005814 -0.000580 0.000434 0.000124
# 4 -0.003561 -0.007245 -0.000580 0.019009 0.001560 -0.005422
# 5 0.000835 -0.001686 0.000434 0.001560 0.019921 -0.007700
# 6 0.004087 0.000992 0.000124 -0.005422 -0.007700 0.029848
#
#
# Mechanical properties :
#
#
# Convention : Reuss Voigt Hill
#
# Bulk Modulus (GPa) = 32.59983 56.29311 44.44647
# Shear Modulus (GPa) = 39.63162 52.69228 46.16195
#
# Velocity S-wave (km/s) = 3.77063 4.34777 4.06945
# Velocity P-wave (km/s) = 5.53642 6.73788 6.16648
#
# Compressibility (1/GPa) = 0.03067501
#
# Stress axis : x y z
#
# Youngs Moduli (GPa) = 53.62402 69.18393 171.98629
#
# Poissons Ratio (x) = 0.00805 0.40538
# Poissons Ratio (y) = 0.00624 0.28337
# Poissons Ratio (z) = 0.12639 0.11399
#
# Static dielectric constant tensor:
#      x y z
#    x 2.250980 -0.046350 0.032200 
#    y -0.046350 2.258910 -0.025170 
#    z 0.032200 -0.025170 2.080710 
# 
# From -- ./inp_files/582661.got.cif
#   From: 2010.05.17/outbox.cif.g08.bks.cpg/sg2_292_cif.got.tgz:582661.got - 2010.06.03 11:33:40.
