data_PCOD9040487
_publ_section_title
;
Structure prediction by ZEFSAII (Michael W. Deem and Ramdas Pophale) SiO2 
 PCOD9040487
Probable space group: P -1
;
_chemical_formula_sum "Si O2"
_cell_formula_units_Z 14
_cell_length_a 5.523789
_cell_length_b 12.372008
_cell_length_c 11.691930
_cell_angle_alpha 105.057086
_cell_angle_beta 127.264238
_cell_angle_gamma 78.038521
_cell_volume 612.778627
_symmetry_space_group_name_H-M "P -1"
_symmetry_group_IT_number 2
_symmetry_cell_setting 'triclinic'
loop_
_space_group_symop_operation_xyz
x,y,z
-x,-y,-z
loop_
_atom_site_type_symbol
_atom_site_label
_atom_site_fract_x
_atom_site_fract_y
_atom_site_fract_z
Si Si1 0.011086 0.752041 0.798056
Si Si2 0.677473 0.953661 0.425158
Si Si3 0.595757 0.711193 0.293008
Si Si4 0.391400 0.378705 0.958380
Si Si5 0.044166 0.000209 0.148025
Si Si6 0.931531 0.768120 0.029771
Si Si7 0.280991 0.429254 0.497892
O O1 0.058203 0.876952 0.798937
O O2 0.856705 0.668022 0.645840
O O3 0.825325 0.772291 0.869543
O O4 0.323541 0.694455 0.922466
O O5 0.740864 0.819961 0.412808
O O6 0.500000 0.000000 0.500000
O O7 0.407714 0.983525 0.266334
O O8 0.000000 0.000000 0.500000
O O9 0.760635 0.655372 0.214909
O O10 0.544547 0.628977 0.360015
O O11 0.290240 0.756427 0.154051
O O12 0.151922 0.350858 0.977355
O O13 0.500000 0.500000 0.000000
O O14 0.864148 0.890553 0.105103
O O15 0.000000 0.000000 0.000000
O O16 0.500000 0.500000 0.500000
O O17 0.000000 0.500000 0.500000
#
# Coordination Sequence:
#
# PCOD9040487 Si02
#       7
#     2   2   2   2   2   2   2
#     4  10  23  43  67 103 138 179 236 293 355 411
#     4  11  25  45  73 105 143 190 234 286 358 433
#     4  10  25  44  67 100 137 185 234 290 350 423
#     4  11  24  41  70 100 136 185 242 285 350 422
#     4   9  20  46  68 106 139 179 237 296 361 419
#     4   9  22  42  72  98 133 182 231 292 354 421
#     4  12  29  46  69  99 143 185 234 289 350 415
#
# _framework density 22.84675
#
# number of rings (size 3 to 8) (size 9 to 14) (size 15 to 20)
#    0.000    1.714    0.000    2.571   12.000    2.857 
#    7.714    0.000    0.000    0.000    0.000    0.000 
#    0.000    0.000    0.000    0.000    0.000    0.000 
#
# Total GULP energy -77941.974589 kJ/mol
# GULP energy per Si atom -5567.283899 kJ/mol
# Density = 2.279475 g / cm^3
# Si number density = 22.846750 Si / 1000 Ang^3
#
#
#
# Elastic Constant Matrix: (Units=GPa)
#
#
# Indices 1 2 3 4 5 6 
#
# 1 71.9895 25.4853 28.2195 14.0537 -1.8129 9.2398
# 2 25.4853 92.1298 21.4867 13.6373 0.2278 2.3203
# 3 28.2195 21.4867 119.7403 -1.3816 -13.3906 -7.4665
# 4 14.0537 13.6373 -1.3816 43.9038 -0.2261 -4.0547
# 5 -1.8129 0.2278 -13.3906 -0.2261 31.0018 -0.8550
# 6 9.2398 2.3203 -7.4665 -4.0547 -0.8550 24.7569
#
#
#
# Elastic Compliance Matrix: (Units=1/GPa)
#
#
# Indices 1 2 3 4 5 6 
#
# 1 0.019236 -0.003043 -0.004782 -0.006237 -0.001223 -0.009400
# 2 -0.003043 0.012600 -0.001772 -0.003105 -0.001089 -0.001126
# 3 -0.004782 -0.001772 0.010701 0.002979 0.004538 0.005823
# 4 -0.006237 -0.003105 0.002979 0.026570 0.001357 0.007916
# 5 -0.001223 -0.001089 0.004538 0.001357 0.034254 0.003332
# 6 -0.009400 -0.001126 0.005823 0.007916 0.003332 0.047174
#
#
# Mechanical properties :
#
#
# Convention : Reuss Voigt Hill
#
# Bulk Modulus (GPa) = 42.83829 48.24917 45.54373
# Shear Modulus (GPa) = 28.16730 33.84372 31.00551
#
# Velocity S-wave (km/s) = 3.51505 3.85299 3.68789
# Velocity P-wave (km/s) = 5.93844 6.39988 6.17347
#
# Compressibility (1/GPa) = 0.02334360
#
# Stress axis : x y z
#
# Youngs Moduli (GPa) = 51.98570 79.36617 93.44624
#
# Poissons Ratio (x) = 0.24149 0.44689
# Poissons Ratio (y) = 0.15818 0.16556
# Poissons Ratio (z) = 0.24861 0.14062
#
# Static dielectric constant tensor:
#      x y z
#    x 1.771890 -0.330960 0.116700 
#    y -0.330960 1.672180 0.230400 
#    z 0.116700 0.230400 1.766420 
# 
# From -- ./inp_files/75619.got.cif
#   From: 2010.05.17/outbox.cif.g08.bks.cpg/sg2_38_cif.got.tgz:75619.got - 2010.06.03 11:33:40.
