data_PCOD9040941
_publ_section_title
;
Structure prediction by ZEFSAII (Michael W. Deem and Ramdas Pophale) SiO2 
 PCOD9040941
Probable space group: P -1
;
_chemical_formula_sum "Si O2"
_cell_formula_units_Z 12
_cell_length_a 20.594173
_cell_length_b 9.611564
_cell_length_c 8.737700
_cell_angle_alpha 60.617282
_cell_angle_beta 150.158896
_cell_angle_gamma 139.598934
_cell_volume 474.106171
_symmetry_space_group_name_H-M "P -1"
_symmetry_group_IT_number 2
_symmetry_cell_setting 'triclinic'
loop_
_space_group_symop_operation_xyz
x,y,z
-x,-y,-z
loop_
_atom_site_type_symbol
_atom_site_label
_atom_site_fract_x
_atom_site_fract_y
_atom_site_fract_z
Si Si1 0.364570 0.527261 0.672506
Si Si2 0.017837 0.979976 0.226893
Si Si3 0.344236 0.726126 0.258497
Si Si4 0.076439 0.556541 0.303271
Si Si5 0.699482 0.485365 0.024539
Si Si6 0.358841 0.080840 0.752260
O O1 0.134946 0.246284 0.386717
O O2 0.379910 0.594963 0.493145
O O3 0.500000 0.500000 0.000000
O O4 0.457474 0.762930 0.831636
O O5 0.176029 0.980511 0.536517
O O6 0.820772 0.742244 0.049498
O O7 0.000000 0.000000 0.000000
O O8 0.500000 0.000000 0.500000
O O9 0.351734 0.694071 0.113414
O O10 0.118266 0.569400 0.928030
O O11 0.144121 0.451555 0.570975
O O12 0.261835 0.851840 0.573483
O O13 0.000000 0.500000 0.000000
O O14 0.485011 0.315454 0.765703
#
# Coordination Sequence:
#
# PCOD9040941 Si02
#       6
#     2   2   2   2   2   2
#     4  10  23  43  69  98 144 182 224 296 339 409
#     4  11  23  46  68 100 144 183 237 286 343 418
#     4  12  24  42  71 104 137 183 237 287 354 415
#     4  12  25  45  69 102 144 179 237 298 346 417
#     4  12  25  42  73 102 136 190 230 283 361 411
#     4  11  24  45  68 100 143 175 238 291 344 410
#
# _framework density 25.310787000000001
#
# number of rings (size 3 to 8) (size 9 to 14) (size 15 to 20)
#    0.000    0.667    3.333    4.000    4.667    1.333 
#    0.000    0.000    0.000    0.000    0.000    0.000 
#    0.000    0.000    0.000    0.000    0.000    0.000 
#
# Total GULP energy -67038.895563 kJ/mol
# GULP energy per Si atom -5586.574630 kJ/mol
# Density = 2.525318 g / cm^3
# Si number density = 25.310787 Si / 1000 Ang^3
#
#
#
# Elastic Constant Matrix: (Units=GPa)
#
#
# Indices 1 2 3 4 5 6 
#
# 1 118.6214 21.8360 24.7623 12.4902 -31.3831 0.2107
# 2 21.8360 152.4582 55.9152 28.4747 -18.8308 6.1086
# 3 24.7623 55.9152 100.7065 3.8927 -36.7092 -7.0655
# 4 12.4902 28.4747 3.8927 59.7486 -8.3169 -5.9237
# 5 -31.3831 -18.8308 -36.7092 -8.3169 51.9500 17.1806
# 6 0.2107 6.1086 -7.0655 -5.9237 17.1806 49.3612
#
#
#
# Elastic Compliance Matrix: (Units=1/GPa)
#
#
# Indices 1 2 3 4 5 6 
#
# 1 0.010436 -0.000279 -0.000066 -0.001353 0.006781 -0.002542
# 2 -0.000279 0.009395 -0.005305 -0.004364 -0.000454 -0.002287
# 3 -0.000066 -0.005305 0.016490 0.002870 0.010213 -0.000193
# 4 -0.001353 -0.004364 0.002870 0.019434 0.001868 0.002639
# 5 0.006781 -0.000454 0.010213 0.001868 0.034050 -0.010138
# 6 -0.002542 -0.002287 -0.000193 0.002639 -0.010138 0.024370
#
#
# Mechanical properties :
#
#
# Convention : Reuss Voigt Hill
#
# Bulk Modulus (GPa) = 39.96397 64.09036 52.02716
# Shear Modulus (GPa) = 37.36491 50.16345 43.76418
#
# Velocity S-wave (km/s) = 3.84636 4.45668 4.16272
# Velocity P-wave (km/s) = 5.96235 7.20132 6.61092
#
# Compressibility (1/GPa) = 0.02502254
#
# Stress axis : x y z
#
# Youngs Moduli (GPa) = 95.82013 106.43517 60.64314
#
# Poissons Ratio (x) = 0.02965 0.00398
# Poissons Ratio (y) = 0.02669 0.32173
# Poissons Ratio (z) = 0.00628 0.56467
#
# Static dielectric constant tensor:
#      x y z
#    x 2.085940 -0.073480 0.085370 
#    y -0.073480 2.042410 -0.043150 
#    z 0.085370 -0.043150 2.170810 
# 
# From -- ./inp_files/160178.got.cif
#   From: 2010.05.17/outbox.cif.g08.bks.cpg/sg2_81_cif.got.tgz:160178.got - 2010.06.03 11:33:40.
