data_PCOD9040758
_publ_section_title
;
Structure prediction by ZEFSAII (Michael W. Deem and Ramdas Pophale) SiO2 
 PCOD9040758
Probable space group: P -1
;
_chemical_formula_sum "Si O2"
_cell_formula_units_Z 16
_cell_length_a 11.464010
_cell_length_b 11.526782
_cell_length_c 7.495169
_cell_angle_alpha 123.994091
_cell_angle_beta 76.110613
_cell_angle_gamma 128.494063
_cell_volume 633.746409
_symmetry_space_group_name_H-M "P -1"
_symmetry_group_IT_number 2
_symmetry_cell_setting 'triclinic'
loop_
_space_group_symop_operation_xyz
x,y,z
-x,-y,-z
loop_
_atom_site_type_symbol
_atom_site_label
_atom_site_fract_x
_atom_site_fract_y
_atom_site_fract_z
Si Si1 0.611915 0.558907 0.352401
Si Si2 0.178960 0.039481 0.317962
Si Si3 0.130371 0.037638 0.719447
Si Si4 0.666446 0.572641 0.887384
Si Si5 0.656243 0.318316 0.955555
Si Si6 0.625334 0.008500 0.074526
Si Si7 0.946947 0.683032 0.683561
Si Si8 0.129879 0.627258 0.795120
O O1 0.500000 0.500000 0.500000
O O2 0.751261 0.758238 0.495411
O O3 0.503833 0.524639 0.198262
O O4 0.650229 0.424808 0.211175
O O5 0.283908 0.033950 0.129471
O O6 0.008298 0.951762 0.249034
O O7 0.169850 0.979415 0.474431
O O8 0.067893 0.885637 0.757280
O O9 0.265078 0.232836 0.898056
O O10 0.781398 0.627294 0.728090
O O11 0.680508 0.441182 0.888336
O O12 0.485740 0.133653 0.855638
O O13 0.794938 0.323354 0.991190
O O14 0.500000 0.000000 0.000000
O O15 0.742591 0.215968 0.250387
O O16 0.933363 0.559990 0.424891
O O17 0.998423 0.646293 0.818676
#
# Coordination Sequence:
#
# PCOD9040758 Si02
#       8
#     2   2   2   2   2   2   2   2
#     4  12  23  41  71 101 141 178 219 297 361 411
#     4  11  23  42  70 106 143 181 232 291 357 415
#     4  11  25  43  70 110 141 181 234 295 359 415
#     4  12  26  41  72 111 137 177 230 296 362 415
#     4  11  23  42  69  99 138 175 233 285 347 420
#     4  10  23  43  68  98 134 192 232 278 341 422
#     4  11  25  44  67  98 143 185 236 289 341 421
#     4  10  24  47  66  92 137 195 237 277 341 417
#
# _framework density 25.246693
#
# number of rings (size 3 to 8) (size 9 to 14) (size 15 to 20)
#    0.000    1.000    2.500    3.750    5.250    0.500 
#    9.000    0.625    0.000    0.000    0.000    0.000 
#    0.000    0.000    0.000    0.000    0.000    0.000 
#
# Total GULP energy -89322.919862 kJ/mol
# GULP energy per Si atom -5582.682491 kJ/mol
# Density = 2.518923 g / cm^3
# Si number density = 25.246693 Si / 1000 Ang^3
#
#
#
# Elastic Constant Matrix: (Units=GPa)
#
#
# Indices 1 2 3 4 5 6 
#
# 1 100.1916 16.9124 6.6114 4.2230 12.0047 1.9908
# 2 16.9124 149.3011 28.0042 22.4291 4.7753 -0.1759
# 3 6.6114 28.0042 67.5966 13.4123 -0.3631 -1.4961
# 4 4.2230 22.4291 13.4123 46.2289 4.6799 10.6045
# 5 12.0047 4.7753 -0.3631 4.6799 27.2390 -2.3911
# 6 1.9908 -0.1759 -1.4961 10.6045 -2.3911 46.0718
#
#
#
# Elastic Compliance Matrix: (Units=1/GPa)
#
#
# Indices 1 2 3 4 5 6 
#
# 1 0.010763 -0.000983 -0.000765 0.000383 -0.004720 -0.000827
# 2 -0.000983 0.007750 -0.002494 -0.003064 -0.000373 0.000677
# 3 -0.000765 -0.002494 0.016770 -0.004144 0.001852 0.001618
# 4 0.000383 -0.003064 -0.004144 0.026248 -0.004763 -0.006452
# 5 -0.004720 -0.000373 0.001852 -0.004763 0.040002 0.003435
# 6 -0.000827 0.000677 0.001618 -0.006452 0.003435 0.023459
#
#
# Mechanical properties :
#
#
# Convention : Reuss Voigt Hill
#
# Bulk Modulus (GPa) = 37.31484 46.68282 41.99883
# Shear Modulus (GPa) = 35.11026 41.61203 38.36115
#
# Velocity S-wave (km/s) = 3.73324 4.06423 3.90224
# Velocity P-wave (km/s) = 5.77883 6.36826 6.08069
#
# Compressibility (1/GPa) = 0.02679899
#
# Stress axis : x y z
#
# Youngs Moduli (GPa) = 92.90980 129.03143 59.63184
#
# Poissons Ratio (x) = 0.12688 0.04562
# Poissons Ratio (y) = 0.09136 0.14869
# Poissons Ratio (z) = 0.07108 0.32174
#
# Static dielectric constant tensor:
#      x y z
#    x 1.969450 0.028830 0.091910 
#    y 0.028830 2.049040 -0.106790 
#    z 0.091910 -0.106790 2.054360 
# 
# From -- ./inp_files/263446.got.cif
#   From: 2010.05.17/outbox.cif.g08.bks.cpg/sg2_132_cif.got.tgz:263446.got - 2010.06.03 11:33:40.
