data_PCOD9040245
_publ_section_title
;
Structure prediction by ZEFSAII (Michael W. Deem and Ramdas Pophale) SiO2 
 PCOD9040245
Probable space group: P -1
;
_chemical_formula_sum "Si O2"
_cell_formula_units_Z 16
_cell_length_a 11.135032
_cell_length_b 9.514009
_cell_length_c 14.935602
_cell_angle_alpha 63.484962
_cell_angle_beta 122.339542
_cell_angle_gamma 68.197448
_cell_volume 706.195884
_symmetry_space_group_name_H-M "P -1"
_symmetry_group_IT_number 2
_symmetry_cell_setting 'triclinic'
loop_
_space_group_symop_operation_xyz
x,y,z
-x,-y,-z
loop_
_atom_site_type_symbol
_atom_site_label
_atom_site_fract_x
_atom_site_fract_y
_atom_site_fract_z
Si Si1 0.974930 0.290264 0.034614
Si Si2 0.583969 0.572144 0.068954
Si Si3 0.131970 0.391109 0.412300
Si Si4 0.780091 0.736089 0.715435
Si Si5 0.471407 0.805411 0.276042
Si Si6 0.538045 0.463482 0.781108
Si Si7 0.103008 0.063288 0.471813
Si Si8 0.651710 0.896682 0.178490
O O1 0.093805 0.228282 0.195050
O O2 0.811381 0.577701 0.849871
O O3 0.801185 0.295732 0.957064
O O4 0.198298 0.077562 0.116962
O O5 0.529704 0.587733 0.147395
O O6 0.871334 0.320863 0.248769
O O7 0.500000 0.500000 0.000000
O O8 0.437215 0.853293 0.897771
O O9 0.085966 0.432482 0.275366
O O10 0.359606 0.301114 0.543102
O O11 0.167196 0.173660 0.512295
O O12 0.923583 0.639626 0.324269
O O13 0.500000 0.000000 0.500000
O O14 0.484027 0.621399 0.291900
O O15 0.575105 0.834998 0.236386
O O16 0.346315 0.776462 0.609414
O O17 0.000000 0.000000 0.500000
O O18 0.500000 0.000000 0.000000
#
# Coordination Sequence:
#
# PCOD9040245 Si02
#       8
#     2   2   2   2   2   2   2   2
#     4  11  26  46  75 101 146 195 240 300 354 430
#     4  11  26  41  69 103 144 185 233 299 362 428
#     4  12  25  44  76 102 145 189 242 302 357 436
#     4  11  24  47  71 107 138 189 249 293 358 427
#     4  12  26  46  71 104 147 192 240 297 362 432
#     4  11  25  46  68 102 144 190 242 292 365 429
#     4  10  23  43  65 102 141 182 233 291 359 426
#     4  12  23  44  68 107 139 184 238 297 361 430
#
# _framework density 22.656603
#
# number of rings (size 3 to 8) (size 9 to 14) (size 15 to 20)
#    0.000    0.750    3.750    3.000    8.750    0.000 
#    0.000    0.625    0.000    0.000    0.000    0.000 
#    0.000    0.000    0.000    0.000    0.000    0.000 
#
# Total GULP energy -89372.537175 kJ/mol
# GULP energy per Si atom -5585.783573 kJ/mol
# Density = 2.260504 g / cm^3
# Si number density = 22.656603 Si / 1000 Ang^3
#
#
#
# Elastic Constant Matrix: (Units=GPa)
#
#
# Indices 1 2 3 4 5 6 
#
# 1 79.4789 27.8805 41.3463 -1.9608 20.5045 -0.6045
# 2 27.8805 147.6144 72.1070 -0.2178 18.0405 24.5409
# 3 41.3463 72.1070 135.0036 -2.2365 32.2486 5.9342
# 4 -1.9608 -0.2178 -2.2365 48.9598 -0.7963 4.7892
# 5 20.5045 18.0405 32.2486 -0.7963 41.7696 5.8084
# 6 -0.6045 24.5409 5.9342 4.7892 5.8084 40.8949
#
#
#
# Elastic Compliance Matrix: (Units=1/GPa)
#
#
# Indices 1 2 3 4 5 6 
#
# 1 0.015987 -0.001232 -0.003079 0.000199 -0.005233 0.002142
# 2 -0.001232 0.010326 -0.005092 0.000330 0.000866 -0.005638
# 3 -0.003079 -0.005092 0.012461 0.000120 -0.006195 0.002068
# 4 0.000199 0.000330 0.000120 0.020711 0.000437 -0.002700
# 5 -0.005233 0.000866 -0.006195 0.000437 0.031514 -0.004225
# 6 0.002142 -0.005638 0.002068 -0.002700 -0.004225 0.028484
#
#
# Mechanical properties :
#
#
# Convention : Reuss Voigt Hill
#
# Bulk Modulus (GPa) = 50.07864 71.64050 60.85957
# Shear Modulus (GPa) = 34.49589 41.04241 37.76915
#
# Velocity S-wave (km/s) = 3.90622 4.26079 4.08735
# Velocity P-wave (km/s) = 6.51890 7.47626 7.01394
#
# Compressibility (1/GPa) = 0.01996859
#
# Stress axis : x y z
#
# Youngs Moduli (GPa) = 62.55049 96.84143 80.25237
#
# Poissons Ratio (x) = 0.11928 0.24712
# Poissons Ratio (y) = 0.07704 0.40862
# Poissons Ratio (z) = 0.19261 0.49309
#
# Static dielectric constant tensor:
#      x y z
#    x 1.869500 -0.030970 0.042910 
#    y -0.030970 1.814930 0.163070 
#    z 0.042910 0.163070 1.546640 
# 
# From -- ./inp_files/515415.got.cif
#   From: 2010.05.17/outbox.cif.g08.bks.cpg/sg2_258_cif.got.tgz:515415.got - 2010.06.03 11:33:40.
