data_PCOD9040347
_publ_section_title
;
Structure prediction by ZEFSAII (Michael W. Deem and Ramdas Pophale) SiO2 
 PCOD9040347
Probable space group: P -1
;
_chemical_formula_sum "Si O2"
_cell_formula_units_Z 16
_cell_length_a 5.325732
_cell_length_b 11.942286
_cell_length_c 20.768445
_cell_angle_alpha 149.945086
_cell_angle_beta 95.808312
_cell_angle_gamma 91.246051
_cell_volume 642.108624
_symmetry_space_group_name_H-M "P -1"
_symmetry_group_IT_number 2
_symmetry_cell_setting 'triclinic'
loop_
_space_group_symop_operation_xyz
x,y,z
-x,-y,-z
loop_
_atom_site_type_symbol
_atom_site_label
_atom_site_fract_x
_atom_site_fract_y
_atom_site_fract_z
Si Si1 0.226926 0.530546 0.169809
Si Si2 0.319192 0.816162 0.680728
Si Si3 0.280873 0.297904 0.286265
Si Si4 0.705237 0.844297 0.923059
Si Si5 0.015498 0.691701 0.492037
Si Si6 0.979310 0.847262 0.117894
Si Si7 0.781944 0.141771 0.555474
Si Si8 0.291122 0.959021 0.306577
O O1 0.341285 0.329894 0.105077
O O2 0.128722 0.640617 0.285790
O O3 0.373729 0.757312 0.248783
O O4 0.049451 0.385268 0.037955
O O5 0.455907 0.638973 0.633721
O O6 0.063855 0.724410 0.586485
O O7 0.269266 0.034750 0.827527
O O8 0.496397 0.911106 0.671661
O O9 0.350997 0.302879 0.216512
O O10 0.050657 0.429477 0.355954
O O11 0.179290 0.038533 0.178380
O O12 0.500000 0.000000 0.000000
O O13 0.000000 0.000000 0.000000
O O14 0.206474 0.789869 0.485521
O O15 0.804988 0.849761 0.558111
O O16 0.067998 0.837185 0.189125
O O17 0.500000 0.000000 0.500000
O O18 0.000000 0.000000 0.500000
#
# Coordination Sequence:
#
# PCOD9040347 Si02
#       8
#     2   2   2   2   2   2   2   2
#     4  12  23  47  74 104 144 192 234 308 360 439
#     4  10  23  43  66 100 146 185 247 298 358 434
#     4  11  23  43  68 103 142 192 243 300 361 429
#     4  12  27  49  72 108 149 193 241 294 365 437
#     4  11  23  43  68 103 142 192 243 300 361 429
#     4  10  23  43  68 103 142 184 244 296 363 429
#     4  12  27  49  72 108 149 193 241 294 365 437
#     4  10  23  43  68 103 142 184 244 296 363 429
#
# _framework density 24.917902999999999
#
# number of rings (size 3 to 8) (size 9 to 14) (size 15 to 20)
#    0.000    1.000    3.750    2.250    0.000    7.000 
#    9.000    0.000    0.000    0.000    0.000    0.000 
#    0.000    0.000    0.000    0.000    0.000    0.000 
#
# Total GULP energy -89212.996401 kJ/mol
# GULP energy per Si atom -5575.812275 kJ/mol
# Density = 2.486119 g / cm^3
# Si number density = 24.917903 Si / 1000 Ang^3
#
#
#
# Elastic Constant Matrix: (Units=GPa)
#
#
# Indices 1 2 3 4 5 6 
#
# 1 95.9208 16.3954 21.8847 6.5837 -22.6337 -10.4003
# 2 16.3954 157.0491 25.3643 11.4330 -3.7114 -14.5412
# 3 21.8847 25.3643 137.7955 -6.6846 -17.3771 -15.6718
# 4 6.5837 11.4330 -6.6846 54.1912 1.5034 -9.4089
# 5 -22.6337 -3.7114 -17.3771 1.5034 24.3191 -0.6826
# 6 -10.4003 -14.5412 -15.6718 -9.4089 -0.6826 23.4741
#
#
#
# Elastic Compliance Matrix: (Units=1/GPa)
#
#
# Indices 1 2 3 4 5 6 
#
# 1 0.014457 -0.000575 0.000207 -0.000911 0.013746 0.006222
# 2 -0.000575 0.006924 -0.000877 -0.000969 0.000040 0.003062
# 3 0.000207 -0.000877 0.009093 0.002265 0.006604 0.006719
# 4 -0.000911 -0.000969 0.002265 0.020577 -0.000404 0.008744
# 5 0.013746 0.000040 0.006604 -0.000404 0.059003 0.012078
# 6 0.006222 0.003062 0.006719 0.008744 0.012078 0.055595
#
#
# Mechanical properties :
#
#
# Convention : Reuss Voigt Hill
#
# Bulk Modulus (GPa) = 35.73641 57.56160 46.64900
# Shear Modulus (GPa) = 28.17429 42.20494 35.18962
#
# Velocity S-wave (km/s) = 3.36621 4.12000 3.76203
# Velocity P-wave (km/s) = 5.42967 6.76632 6.13451
#
# Compressibility (1/GPa) = 0.02798267
#
# Stress axis : x y z
#
# Youngs Moduli (GPa) = 69.17019 144.42355 109.98054
#
# Poissons Ratio (x) = 0.08311 -0.02274
# Poissons Ratio (y) = 0.03981 0.09643
# Poissons Ratio (z) = -0.01430 0.12663
#
# Static dielectric constant tensor:
#      x y z
#    x 2.236050 -0.088320 0.124830 
#    y -0.088320 2.037590 -0.008500 
#    z 0.124830 -0.008500 2.066650 
# 
# From -- ./inp_files/583372.got.cif
#   From: 2010.05.17/outbox.cif.g08.bks.cpg/sg2_292_cif.got.tgz:583372.got - 2010.06.03 11:33:40.
