data_PCOD9040796
_publ_section_title
;
Structure prediction by ZEFSAII (Michael W. Deem and Ramdas Pophale) SiO2 
 PCOD9040796
Probable space group: P -1
;
_chemical_formula_sum "Si O2"
_cell_formula_units_Z 16
_cell_length_a 19.650753
_cell_length_b 11.554563
_cell_length_c 9.040618
_cell_angle_alpha 149.718334
_cell_angle_beta 54.591919
_cell_angle_gamma 134.484962
_cell_volume 736.579096
_symmetry_space_group_name_H-M "P -1"
_symmetry_group_IT_number 2
_symmetry_cell_setting 'triclinic'
loop_
_space_group_symop_operation_xyz
x,y,z
-x,-y,-z
loop_
_atom_site_type_symbol
_atom_site_label
_atom_site_fract_x
_atom_site_fract_y
_atom_site_fract_z
Si Si1 0.691732 0.769128 0.296730
Si Si2 0.596175 0.063058 0.866629
Si Si3 0.858544 0.930963 0.792593
Si Si4 0.219790 0.419771 0.776348
Si Si5 0.781901 0.194847 0.401504
Si Si6 0.944948 0.721540 0.680455
Si Si7 0.034801 0.472400 0.089189
Si Si8 0.405553 0.781425 0.299101
O O1 0.756881 0.683653 0.215804
O O2 0.630574 0.845812 0.570269
O O3 0.755759 0.013676 0.380111
O O4 0.618946 0.521577 0.014931
O O5 0.586337 0.127938 0.780790
O O6 0.683270 0.325348 0.112655
O O7 0.500000 0.000000 0.000000
O O8 0.814704 0.799828 0.548052
O O9 0.873076 0.734927 0.665557
O O10 0.799512 0.043525 0.078244
O O11 0.963239 0.175758 0.903179
O O12 0.139574 0.506548 0.991115
O O13 0.878156 0.476519 0.599235
O O14 0.689603 0.228213 0.527004
O O15 0.017162 0.658962 0.428487
O O16 0.000000 0.000000 0.000000
O O17 0.000000 0.500000 0.000000
O O18 0.500000 0.000000 0.500000
#
# Coordination Sequence:
#
# PCOD9040796 Si02
#       8
#     2   2   2   2   2   2   2   2
#     4  10  24  45  69 100 140 182 232 280 357 409
#     4  10  25  43  67 103 136 178 230 280 347 416
#     4  11  25  42  67 100 134 182 233 286 344 410
#     4  11  25  43  72 100 137 189 226 294 345 414
#     4  10  24  45  68  99 137 182 232 284 350 417
#     4  11  26  45  69 101 141 181 237 295 347 410
#     4  11  25  46  68 100 140 183 240 281 353 418
#     4  10  23  43  69 100 136 179 225 287 348 415
#
# _framework density 21.72204
#
# number of rings (size 3 to 8) (size 9 to 14) (size 15 to 20)
#    0.000    1.500    1.250    1.125    1.750   18.000 
#    0.000    1.875    0.000    0.000    0.000    0.000 
#    0.000    0.000    0.000    0.000    0.000    0.000 
#
# Total GULP energy -89567.204088 kJ/mol
# GULP energy per Si atom -5597.950255 kJ/mol
# Density = 2.167260 g / cm^3
# Si number density = 21.722040 Si / 1000 Ang^3
#
#
#
# Elastic Constant Matrix: (Units=GPa)
#
#
# Indices 1 2 3 4 5 6 
#
# 1 71.7188 47.7521 49.6290 4.9211 3.3951 13.6338
# 2 47.7521 126.6946 64.5178 -8.0166 -10.7395 27.6870
# 3 49.6290 64.5178 154.2159 7.5816 8.3882 30.1448
# 4 4.9211 -8.0166 7.5816 32.5056 5.1400 -8.0269
# 5 3.3951 -10.7395 8.3882 5.1400 38.4804 1.1207
# 6 13.6338 27.6870 30.1448 -8.0269 1.1207 40.1082
#
#
#
# Elastic Compliance Matrix: (Units=1/GPa)
#
#
# Indices 1 2 3 4 5 6 
#
# 1 0.021286 -0.006410 -0.003721 -0.003738 -0.002336 -0.000697
# 2 -0.006410 0.013436 -0.003149 0.003236 0.004692 -0.004213
# 3 -0.003721 -0.003149 0.010245 -0.003467 -0.002178 -0.004894
# 4 -0.003738 0.003236 -0.003467 0.035601 -0.003024 0.008852
# 5 -0.002336 0.004692 -0.002178 -0.003024 0.028446 -0.002208
# 6 -0.000697 -0.004213 -0.004894 0.008852 -0.002208 0.033589
#
#
# Mechanical properties :
#
#
# Convention : Reuss Voigt Hill
#
# Bulk Modulus (GPa) = 54.33094 75.15858 64.74476
# Shear Modulus (GPa) = 28.52276 34.93420 31.72848
#
# Velocity S-wave (km/s) = 3.62757 4.01463 3.82600
# Velocity P-wave (km/s) = 6.52778 7.49433 7.02769
#
# Compressibility (1/GPa) = 0.01840572
#
# Stress axis : x y z
#
# Youngs Moduli (GPa) = 46.97910 74.42869 97.60825
#
# Poissons Ratio (x) = 0.47710 0.36324
# Poissons Ratio (y) = 0.30114 0.30737
# Poissons Ratio (z) = 0.17483 0.23437
#
# Static dielectric constant tensor:
#      x y z
#    x 1.804880 -0.024090 -0.013670 
#    y -0.024090 1.787870 0.017110 
#    z -0.013670 0.017110 1.818190 
# 
# From -- ./inp_files/346527.got.cif
#   From: 2010.05.17/outbox.cif.g08.bks.cpg/sg2_174_cif.got.tgz:346527.got - 2010.06.03 11:33:40.
