data_PCOD9040835
_publ_section_title
;
Structure prediction by ZEFSAII (Michael W. Deem and Ramdas Pophale) SiO2 
 PCOD9040835
Probable space group: P -1
;
_chemical_formula_sum "Si O2"
_cell_formula_units_Z 12
_cell_length_a 5.257488
_cell_length_b 9.568656
_cell_length_c 15.180915
_cell_angle_alpha 143.479092
_cell_angle_beta 74.884648
_cell_angle_gamma 97.953965
_cell_volume 435.389800
_symmetry_space_group_name_H-M "P -1"
_symmetry_group_IT_number 2
_symmetry_cell_setting 'triclinic'
loop_
_space_group_symop_operation_xyz
x,y,z
-x,-y,-z
loop_
_atom_site_type_symbol
_atom_site_label
_atom_site_fract_x
_atom_site_fract_y
_atom_site_fract_z
Si Si1 0.245696 0.184898 0.640520
Si Si2 0.030646 0.419397 0.217499
Si Si3 0.937724 0.126727 0.361073
Si Si4 0.242149 0.034241 0.884913
Si Si5 0.512067 0.461289 0.082885
Si Si6 0.346104 0.368365 0.341498
O O1 0.283447 0.388014 0.813476
O O2 0.190881 0.357596 0.648967
O O3 0.500000 0.000000 0.500000
O O4 0.056314 0.018739 0.623104
O O5 0.244738 0.548944 0.205321
O O6 0.180521 0.338129 0.252078
O O7 0.018554 0.190052 0.041071
O O8 0.710463 0.352901 0.496814
O O9 0.200433 0.240856 0.367986
O O10 0.857382 0.967300 0.206489
O O11 0.356906 0.765395 0.762888
O O12 0.495838 0.179745 0.950997
O O13 0.500000 0.500000 0.000000
#
# Coordination Sequence:
#
# PCOD9040835 Si02
#       6
#     2   2   2   2   2   2
#     4  12  26  45  71  99 134 174 227 280 334 392
#     4  10  26  44  68 102 133 174 222 278 333 391
#     4  11  26  43  70  97 135 182 222 272 330 399
#     4  10  24  43  71  98 135 174 225 270 333 396
#     4  10  23  43  69 102 132 172 222 279 330 389
#     4  11  25  46  67 100 140 178 219 270 335 401
#
# _framework density 27.561506999999999
#
# number of rings (size 3 to 8) (size 9 to 14) (size 15 to 20)
#    1.000    0.333    1.667    2.000    4.667   10.000 
#    0.000    0.000    0.000    0.000    0.000    0.000 
#    0.000    0.000    0.000    0.000    0.000    0.000 
#
# Total GULP energy -67066.713891 kJ/mol
# GULP energy per Si atom -5588.892824 kJ/mol
# Density = 2.749878 g / cm^3
# Si number density = 27.561507 Si / 1000 Ang^3
#
#
#
# Elastic Constant Matrix: (Units=GPa)
#
#
# Indices 1 2 3 4 5 6 
#
# 1 30.1978 -8.6453 12.6425 5.7278 0.4747 -9.6124
# 2 -8.6453 143.2256 23.4144 29.0010 -14.3351 5.4170
# 3 12.6425 23.4144 142.7907 10.9065 1.7750 -8.6480
# 4 5.7278 29.0010 10.9065 54.6535 -5.3106 -1.0486
# 5 0.4747 -14.3351 1.7750 -5.3106 63.0128 6.7524
# 6 -9.6124 5.4170 -8.6480 -1.0486 6.7524 38.0191
#
#
#
# Elastic Compliance Matrix: (Units=1/GPa)
#
#
# Indices 1 2 3 4 5 6 
#
# 1 0.039211 0.003537 -0.003113 -0.005274 -0.000779 0.008695
# 2 0.003537 0.008551 -0.001460 -0.004472 0.001699 -0.001081
# 3 -0.003113 -0.001460 0.007640 -0.000467 -0.000699 0.001270
# 4 -0.005274 -0.004472 -0.000467 0.021394 0.000878 -0.000368
# 5 -0.000779 0.001699 -0.000699 0.000878 0.016736 -0.003546
# 6 0.008695 -0.001081 0.001270 -0.000368 -0.003546 0.029564
#
#
# Mechanical properties :
#
#
# Convention : Reuss Voigt Hill
#
# Bulk Modulus (GPa) = 18.75157 41.22636 29.98896
# Shear Modulus (GPa) = 34.97890 50.39057 42.68474
#
# Velocity S-wave (km/s) = 3.56634 4.28050 3.93963
# Velocity P-wave (km/s) = 4.87613 6.27858 5.62127
#
# Compressibility (1/GPa) = 0.05332888
#
# Stress axis : x y z
#
# Youngs Moduli (GPa) = 25.50316 116.95009 130.89722
#
# Poissons Ratio (x) = -0.41361 0.40742
# Poissons Ratio (y) = -0.09020 0.19114
# Poissons Ratio (z) = 0.07938 0.17078
#
# Static dielectric constant tensor:
#      x y z
#    x 2.430570 0.106160 -0.079340 
#    y 0.106160 2.313510 -0.005500 
#    z -0.079340 -0.005500 2.126440 
# 
# From -- ./inp_files/480903.got.cif
#   From: 2010.05.17/outbox.cif.g08.bks.cpg/sg2_241_cif.got.tgz:480903.got - 2010.06.03 11:33:40.
