data_PCOD9040841
_publ_section_title
;
Structure prediction by ZEFSAII (Michael W. Deem and Ramdas Pophale) SiO2 
 PCOD9040841
Probable space group: P -1
;
_chemical_formula_sum "Si O2"
_cell_formula_units_Z 16
_cell_length_a 24.971912
_cell_length_b 12.306403
_cell_length_c 5.245105
_cell_angle_alpha 110.179297
_cell_angle_beta 119.192433
_cell_angle_gamma 27.925119
_cell_volume 644.256691
_symmetry_space_group_name_H-M "P -1"
_symmetry_group_IT_number 2
_symmetry_cell_setting 'triclinic'
loop_
_space_group_symop_operation_xyz
x,y,z
-x,-y,-z
loop_
_atom_site_type_symbol
_atom_site_label
_atom_site_fract_x
_atom_site_fract_y
_atom_site_fract_z
Si Si1 0.768977 0.665134 0.946715
Si Si2 0.895906 0.925123 0.133150
Si Si3 0.488590 0.882518 0.357035
Si Si4 0.837609 0.419741 0.417803
Si Si5 0.507213 0.330914 0.473339
Si Si6 0.702728 0.410305 0.193570
Si Si7 0.697115 0.172965 0.483974
Si Si8 0.117016 0.282125 0.778911
O O1 0.831364 0.496256 0.193649
O O2 0.840310 0.660182 0.006857
O O3 0.758482 0.605462 0.618303
O O4 0.632855 0.928511 0.951663
O O5 0.923047 0.748784 0.136156
O O6 0.021217 0.794633 0.320989
O O7 0.800130 0.149846 0.282326
O O8 0.812956 0.050416 0.786689
O O9 0.450229 0.862787 0.482748
O O10 0.622597 0.609572 0.376869
O O11 0.500000 0.000000 0.500000
O O12 0.785367 0.375638 0.223308
O O13 0.624514 0.213086 0.558390
O O14 0.419358 0.551605 0.641117
O O15 0.406034 0.468302 0.131018
O O16 0.762506 0.977297 0.284413
O O17 0.000000 0.500000 0.500000
#
# Coordination Sequence:
#
# PCOD9040841 Si02
#       8
#     2   2   2   2   2   2   2   2
#     4  12  28  44  76 106 148 188 244 300 366 426
#     4  11  25  45  71 102 144 191 244 299 362 431
#     4  12  24  41  68 101 139 187 230 302 349 434
#     4  12  27  50  70 110 145 198 242 296 359 434
#     4  10  23  43  69 102 138 183 238 299 362 427
#     4  11  25  45  71 102 144 191 244 299 362 431
#     4  10  23  43  69 102 138 183 238 299 362 427
#     4  12  24  41  68 101 139 187 230 302 349 434
#
# _framework density 24.834821999999999
#
# number of rings (size 3 to 8) (size 9 to 14) (size 15 to 20)
#    0.000    0.750    2.500    4.125    5.250    2.000 
#    0.000    6.250    0.000    0.000    0.000    0.000 
#    0.000    0.000    0.000    0.000    0.000    0.000 
#
# Total GULP energy -89377.347067 kJ/mol
# GULP energy per Si atom -5586.084192 kJ/mol
# Density = 2.477830 g / cm^3
# Si number density = 24.834822 Si / 1000 Ang^3
#
#
#
# Elastic Constant Matrix: (Units=GPa)
#
#
# Indices 1 2 3 4 5 6 
#
# 1 100.3712 50.1213 39.3088 -4.2837 27.3050 16.6451
# 2 50.1213 93.0195 19.6542 -2.5374 -0.0745 8.2481
# 3 39.3088 19.6542 58.2270 -6.7905 6.3366 4.2341
# 4 -4.2837 -2.5374 -6.7905 39.4460 -6.8378 6.4730
# 5 27.3050 -0.0745 6.3366 -6.8378 38.9507 -5.7124
# 6 16.6451 8.2481 4.2341 6.4730 -5.7124 50.4255
#
#
#
# Elastic Compliance Matrix: (Units=1/GPa)
#
#
# Indices 1 2 3 4 5 6 
#
# 1 0.025971 -0.010939 -0.011553 -0.001703 -0.017762 -0.007607
# 2 -0.010939 0.016323 0.001025 0.001156 0.007972 0.001609
# 3 -0.011553 0.001025 0.024377 0.003598 0.005017 0.001705
# 4 -0.001703 0.001156 0.003598 0.027189 0.004965 -0.002857
# 5 -0.017762 0.007972 0.005017 0.004965 0.039363 0.007960
# 6 -0.007607 0.001609 0.001705 -0.002857 0.007960 0.023204
#
#
# Mechanical properties :
#
#
# Convention : Reuss Voigt Hill
#
# Bulk Modulus (GPa) = 42.12658 52.19848 47.16253
# Shear Modulus (GPa) = 24.12285 35.26667 29.69476
#
# Velocity S-wave (km/s) = 3.12000 3.77244 3.46163
# Velocity P-wave (km/s) = 5.47528 6.32764 5.91683
#
# Compressibility (1/GPa) = 0.02373798
#
# Stress axis : x y z
#
# Youngs Moduli (GPa) = 38.50506 61.26275 41.02239
#
# Poissons Ratio (x) = 0.67014 0.47392
# Poissons Ratio (y) = 0.42120 -0.04206
# Poissons Ratio (z) = 0.44484 -0.06281
#
# Static dielectric constant tensor:
#      x y z
#    x 1.897420 -0.114170 -0.002460 
#    y -0.114170 2.077510 0.062750 
#    z -0.002460 0.062750 1.989540 
# 
# From -- ./inp_files/71414.got.cif
#   From: 2010.05.17/outbox.cif.g08.bks.cpg/sg2_36_cif.got.tgz:71414.got - 2010.06.03 11:33:40.
