data_PCOD9040376
_publ_section_title
;
Structure prediction by ZEFSAII (Michael W. Deem and Ramdas Pophale) SiO2 
 PCOD9040376
Probable space group: P -1
;
_chemical_formula_sum "Si O2"
_cell_formula_units_Z 12
_cell_length_a 8.440587
_cell_length_b 11.012332
_cell_length_c 10.823673
_cell_angle_alpha 143.520571
_cell_angle_beta 86.670628
_cell_angle_gamma 114.793426
_cell_volume 464.765587
_symmetry_space_group_name_H-M "P -1"
_symmetry_group_IT_number 2
_symmetry_cell_setting 'triclinic'
loop_
_space_group_symop_operation_xyz
x,y,z
-x,-y,-z
loop_
_atom_site_type_symbol
_atom_site_label
_atom_site_fract_x
_atom_site_fract_y
_atom_site_fract_z
Si Si1 0.687545 0.501826 0.280552
Si Si2 0.567123 0.770538 0.334965
Si Si3 0.759470 0.322608 0.888908
Si Si4 0.067211 0.405891 0.305686
Si Si5 0.850063 0.103177 0.370233
Si Si6 0.717001 0.848109 0.896519
O O1 0.588581 0.601864 0.287529
O O2 0.909660 0.748550 0.516088
O O3 0.722824 0.356021 0.058553
O O4 0.523894 0.315914 0.240779
O O5 0.351420 0.608110 0.142090
O O6 0.632197 0.018452 0.614849
O O7 0.734741 0.910807 0.332559
O O8 0.000000 0.500000 0.000000
O O9 0.164928 0.660590 0.424860
O O10 0.000000 0.500000 0.500000
O O11 0.862978 0.120819 0.038082
O O12 0.211320 0.328781 0.264365
O O13 0.762110 0.952628 0.122039
#
# Coordination Sequence:
#
# PCOD9040376 Si02
#       6
#     2   2   2   2   2   2
#     4  12  25  38  63  96 129 168 208 251 310 373
#     4  11  25  39  60  95 132 165 211 253 302 375
#     4  11  24  40  61  90 131 175 204 250 305 366
#     4   9  22  45  67  88 121 162 212 264 315 368
#     4  11  23  40  64  94 126 166 210 255 309 372
#     4  10  23  43  66  89 123 165 208 267 312 360
#
# _framework density 25.819468000000001
#
# number of rings (size 3 to 8) (size 9 to 14) (size 15 to 20)
#    0.000    1.333    3.333    1.000    4.667    2.000 
#    0.000    7.500    0.000    0.000    0.000    0.000 
#    0.000    0.000    0.000    0.000    0.000    0.000 
#
# Total GULP energy -67207.167246 kJ/mol
# GULP energy per Si atom -5600.597270 kJ/mol
# Density = 2.576070 g / cm^3
# Si number density = 25.819468 Si / 1000 Ang^3
#
#
#
# Elastic Constant Matrix: (Units=GPa)
#
#
# Indices 1 2 3 4 5 6 
#
# 1 123.9794 25.6979 70.6549 23.0446 13.1331 17.6564
# 2 25.6979 64.0665 40.1927 13.3264 -0.9635 15.6898
# 3 70.6549 40.1927 130.7141 24.5848 3.0780 -1.8515
# 4 23.0446 13.3264 24.5848 36.0028 4.1307 8.3943
# 5 13.1331 -0.9635 3.0780 4.1307 67.6117 12.1311
# 6 17.6564 15.6898 -1.8515 8.3943 12.1311 47.0205
#
#
#
# Elastic Compliance Matrix: (Units=1/GPa)
#
#
# Indices 1 2 3 4 5 6 
#
# 1 0.013108 0.000708 -0.006816 -0.002781 -0.001228 -0.004613
# 2 0.000708 0.022150 -0.006928 -0.002281 0.002079 -0.008059
# 3 -0.006816 -0.006928 0.014373 -0.004319 -0.000293 0.006284
# 4 -0.002781 -0.002281 -0.004319 0.034435 -0.000619 -0.004353
# 5 -0.001228 0.002079 -0.000293 -0.000619 0.015868 -0.004228
# 6 -0.004613 -0.008059 0.006284 -0.004353 -0.004228 0.027804
#
#
# Mechanical properties :
#
#
# Convention : Reuss Voigt Hill
#
# Bulk Modulus (GPa) = 42.44556 65.76122 54.10339
# Shear Modulus (GPa) = 30.92858 42.27463 36.60160
#
# Velocity S-wave (km/s) = 3.46479 4.05077 3.76918
# Velocity P-wave (km/s) = 5.69925 6.88500 6.31999
#
# Compressibility (1/GPa) = 0.02355959
#
# Stress axis : x y z
#
# Youngs Moduli (GPa) = 76.29193 45.14611 69.57432
#
# Poissons Ratio (x) = -0.03198 0.47424
# Poissons Ratio (y) = -0.05405 0.48201
# Poissons Ratio (z) = 0.52002 0.31277
#
# Static dielectric constant tensor:
#      x y z
#    x 2.099570 0.001090 -0.017520 
#    y 0.001090 2.076810 0.020070 
#    z -0.017520 0.020070 2.002950 
# 
# From -- ./inp_files/504635.got.cif
#   From: 2010.05.17/outbox.cif.g08.bks.cpg/sg2_253_cif.got.tgz:504635.got - 2010.06.03 11:33:40.
