data_PCOD9040726
_publ_section_title
;
Structure prediction by ZEFSAII (Michael W. Deem and Ramdas Pophale) SiO2 
 PCOD9040726
Probable space group: P -1
;
_chemical_formula_sum "Si O2"
_cell_formula_units_Z 16
_cell_length_a 13.826666
_cell_length_b 5.019606
_cell_length_c 13.757168
_cell_angle_alpha 118.477407
_cell_angle_beta 133.315077
_cell_angle_gamma 75.063591
_cell_volume 607.053873
_symmetry_space_group_name_H-M "P -1"
_symmetry_group_IT_number 2
_symmetry_cell_setting 'triclinic'
loop_
_space_group_symop_operation_xyz
x,y,z
-x,-y,-z
loop_
_atom_site_type_symbol
_atom_site_label
_atom_site_fract_x
_atom_site_fract_y
_atom_site_fract_z
Si Si1 0.339278 0.280608 0.124625
Si Si2 0.998907 0.642577 0.756506
Si Si3 0.659178 0.837256 0.672975
Si Si4 0.644105 0.167917 0.100497
Si Si5 0.201681 0.227313 0.720444
Si Si6 0.851867 0.019429 0.567695
Si Si7 0.570006 0.713120 0.391213
Si Si8 0.888344 0.313637 0.956837
O O1 0.489845 0.431015 0.232625
O O2 0.327498 0.298298 0.235638
O O3 0.325697 0.955793 0.008204
O O4 0.219787 0.465892 0.040740
O O5 0.951175 0.866270 0.681589
O O6 0.103745 0.435058 0.743982
O O7 0.052579 0.799597 0.921122
O O8 0.879957 0.382402 0.659030
O O9 0.542883 0.058291 0.640118
O O10 0.613559 0.626450 0.514621
O O11 0.797270 0.053044 0.789599
O O12 0.748490 0.032975 0.222517
O O13 0.670879 0.531485 0.179200
O O14 0.500000 0.000000 0.000000
O O15 0.133748 0.082534 0.551380
O O16 0.701931 0.884113 0.466731
O O17 0.000000 0.500000 0.000000
#
# Coordination Sequence:
#
# PCOD9040726 Si02
#       8
#     2   2   2   2   2   2   2   2
#     4  11  24  42  71  98 137 182 225 293 345 412
#     4  12  26  46  69 103 140 184 231 284 345 410
#     4  10  23  43  68  95 139 175 229 282 353 402
#     4  12  26  43  74 105 142 184 231 285 349 412
#     4  12  25  48  68 102 143 180 236 286 345 412
#     4  12  27  44  74  99 138 184 236 283 341 413
#     4  10  24  43  66 102 132 179 228 288 339 414
#     4  11  25  43  68 101 137 183 232 284 348 415
#
# _framework density 26.356802999999999
#
# number of rings (size 3 to 8) (size 9 to 14) (size 15 to 20)
#    0.000    0.750    1.250    5.250    8.750    0.500 
#    0.000    0.000    0.000    0.000    0.000    0.000 
#    0.000    0.000    0.000    0.000    0.000    0.000 
#
# Total GULP energy -89780.901497 kJ/mol
# GULP energy per Si atom -5611.306344 kJ/mol
# Density = 2.629681 g / cm^3
# Si number density = 26.356803 Si / 1000 Ang^3
#
#
#
# Elastic Constant Matrix: (Units=GPa)
#
#
# Indices 1 2 3 4 5 6 
#
# 1 83.7088 0.0394 47.3792 -17.4910 6.7033 20.2025
# 2 0.0394 93.0507 36.8395 -13.5722 -2.5733 13.0814
# 3 47.3792 36.8395 152.2594 -3.3487 -5.4919 6.1111
# 4 -17.4910 -13.5722 -3.3487 56.2865 -0.8323 9.7074
# 5 6.7033 -2.5733 -5.4919 -0.8323 44.7675 9.7313
# 6 20.2025 13.0814 6.1111 9.7074 9.7313 35.5188
#
#
#
# Elastic Compliance Matrix: (Units=1/GPa)
#
#
# Indices 1 2 3 4 5 6 
#
# 1 0.023136 0.007321 -0.008009 0.011519 0.000021 -0.017632
# 2 0.007321 0.015691 -0.005370 0.007774 0.001822 -0.011643
# 3 -0.008009 -0.005370 0.010067 -0.004159 0.000805 0.005717
# 4 0.011519 0.007774 -0.004159 0.025831 0.002252 -0.016376
# 5 0.000021 0.001822 0.000805 0.002252 0.024342 -0.008106
# 6 -0.017632 -0.011643 0.005717 -0.016376 -0.008106 0.048183
#
#
# Mechanical properties :
#
#
# Convention : Reuss Voigt Hill
#
# Bulk Modulus (GPa) = 27.19078 55.28167 41.23622
# Shear Modulus (GPa) = 29.13288 43.63196 36.38242
#
# Velocity S-wave (km/s) = 3.32825 4.07312 3.71938
# Velocity P-wave (km/s) = 5.01084 6.56812 5.84161
#
# Compressibility (1/GPa) = 0.03677717
#
# Stress axis : x y z
#
# Youngs Moduli (GPa) = 43.22193 63.73098 99.33033
#
# Poissons Ratio (x) = -0.46655 0.79553
# Poissons Ratio (y) = -0.31641 0.53345
# Poissons Ratio (z) = 0.34616 0.34226
#
# Static dielectric constant tensor:
#      x y z
#    x 2.128640 0.054290 0.065630 
#    y 0.054290 2.024650 0.017110 
#    z 0.065630 0.017110 2.032580 
# 
# From -- ./inp_files/143436.got.cif
#   From: 2010.05.17/outbox.cif.g08.bks.cpg/sg2_72_cif.got.tgz:143436.got - 2010.06.03 11:33:40.
