data_PCOD9040097
_publ_section_title
;
Structure prediction by ZEFSAII (Michael W. Deem and Ramdas Pophale) SiO2 
 PCOD9040097
Probable space group: P -1
;
_chemical_formula_sum "Si O2"
_cell_formula_units_Z 10
_cell_length_a 21.494072
_cell_length_b 7.784821
_cell_length_c 11.113514
_cell_angle_alpha 143.781810
_cell_angle_beta 19.717522
_cell_angle_gamma 148.124621
_cell_volume 331.028287
_symmetry_space_group_name_H-M "P -1"
_symmetry_group_IT_number 2
_symmetry_cell_setting 'triclinic'
loop_
_space_group_symop_operation_xyz
x,y,z
-x,-y,-z
loop_
_atom_site_type_symbol
_atom_site_label
_atom_site_fract_x
_atom_site_fract_y
_atom_site_fract_z
Si Si1 0.148686 0.014240 0.004797
Si Si2 0.202580 0.659467 0.349685
Si Si3 0.366163 0.298767 0.993172
Si Si4 0.202052 0.334936 0.724644
Si Si5 0.414917 0.839948 0.819500
O O1 0.215756 0.995255 0.009460
O O2 0.366188 0.135441 0.607348
O O3 0.072026 0.297424 0.323137
O O4 0.975697 0.728050 0.084356
O O5 0.163582 0.967772 0.618215
O O6 0.268882 0.546370 0.289183
O O7 0.378634 0.791834 0.999539
O O8 0.583577 0.465564 0.623647
O O9 0.390593 0.151129 0.989617
O O10 0.239047 0.539580 0.895197
#
# Coordination Sequence:
#
# PCOD9040097 Si02
#       5
#     2   2   2   2   2
#     4   9  21  39  65  89 124 159 207 254 298 371
#     4  10  23  43  62  92 125 159 211 250 301 378
#     4   9  23  40  63  91 126 158 205 258 301 363
#     4  11  21  41  67  86 127 168 193 260 316 346
#     4  11  23  43  63  91 125 162 206 254 304 368
#
# _framework density 30.208898999999999
#
# number of rings (size 3 to 8) (size 9 to 14) (size 15 to 20)
#    1.200    0.800    0.000    4.200    0.000    4.800 
#    0.000    3.000    0.000    0.000    0.000    1.400 
#    0.000    0.000    0.000    0.000    0.000    0.000 
#
# Total GULP energy -56066.369368 kJ/mol
# GULP energy per Si atom -5606.636937 kJ/mol
# Density = 3.014014 g / cm^3
# Si number density = 30.208899 Si / 1000 Ang^3
#
#
#
# Elastic Constant Matrix: (Units=GPa)
#
#
# Indices 1 2 3 4 5 6 
#
# 1 196.3799 51.8705 67.9139 11.8282 -26.1949 19.1697
# 2 51.8705 183.8295 72.4529 8.1811 -19.5760 28.5869
# 3 67.9139 72.4529 125.4483 27.9155 5.6060 7.0967
# 4 11.8282 8.1811 27.9155 68.3996 7.6911 -16.1452
# 5 -26.1949 -19.5760 5.6060 7.6911 59.3972 6.2828
# 6 19.1697 28.5869 7.0967 -16.1452 6.2828 65.5477
#
#
#
# Elastic Compliance Matrix: (Units=1/GPa)
#
#
# Indices 1 2 3 4 5 6 
#
# 1 0.007184 0.000378 -0.004004 -0.000666 0.004009 -0.002381
# 2 0.000378 0.008218 -0.004836 -0.000351 0.003759 -0.003618
# 3 -0.004004 -0.004836 0.013849 -0.003583 -0.004342 0.001314
# 4 -0.000666 -0.000351 -0.003583 0.017850 -0.002956 0.005416
# 5 0.004009 0.003759 -0.004342 -0.002956 0.021175 -0.005099
# 6 -0.002381 -0.003618 0.001314 0.005416 -0.005099 0.019211
#
#
# Mechanical properties :
#
#
# Convention : Reuss Voigt Hill
#
# Bulk Modulus (GPa) = 81.12231 98.90361 90.01296
# Shear Modulus (GPa) = 46.07504 59.56359 52.81931
#
# Velocity S-wave (km/s) = 3.90964 4.44523 4.18601
# Velocity P-wave (km/s) = 6.87695 7.69140 7.29555
#
# Compressibility (1/GPa) = 0.01232707
#
# Stress axis : x y z
#
# Youngs Moduli (GPa) = 139.19366 121.68754 72.20911
#
# Poissons Ratio (x) = -0.04594 0.28909
# Poissons Ratio (y) = -0.05255 0.34918
# Poissons Ratio (z) = 0.55727 0.58845
#
# Static dielectric constant tensor:
#      x y z
#    x 2.279950 0.038040 -0.043100 
#    y 0.038040 2.419110 0.001880 
#    z -0.043100 0.001880 2.379010 
# 
# From -- ./inp_files/167065.got.cif
#   From: 2010.05.17/outbox.cif.g08.bks.cpg/sg2_84_cif.got.tgz:167065.got - 2010.06.03 11:33:40.
