data_PCOD9040590
_publ_section_title
;
Structure prediction by ZEFSAII (Michael W. Deem and Ramdas Pophale) SiO2 
 PCOD9040590
Probable space group: P -1
;
_chemical_formula_sum "Si O2"
_cell_formula_units_Z 16
_cell_length_a 19.217328
_cell_length_b 11.154939
_cell_length_c 9.039379
_cell_angle_alpha 138.381979
_cell_angle_beta 42.934694
_cell_angle_gamma 146.928579
_cell_volume 671.779025
_symmetry_space_group_name_H-M "P -1"
_symmetry_group_IT_number 2
_symmetry_cell_setting 'triclinic'
loop_
_space_group_symop_operation_xyz
x,y,z
-x,-y,-z
loop_
_atom_site_type_symbol
_atom_site_label
_atom_site_fract_x
_atom_site_fract_y
_atom_site_fract_z
Si Si1 0.826037 0.436908 0.285432
Si Si2 0.529386 0.360064 0.543559
Si Si3 0.968498 0.256042 0.522450
Si Si4 0.613705 0.034422 0.086426
Si Si5 0.805556 0.725232 0.342853
Si Si6 0.781816 0.553346 0.890487
Si Si7 0.605407 0.404204 0.784047
Si Si8 0.689186 0.063827 0.668463
O O1 0.762597 0.200363 0.075661
O O2 0.844789 0.619112 0.305277
O O3 0.709820 0.376755 0.523580
O O4 0.953599 0.547149 0.289550
O O5 0.573524 0.199879 0.304793
O O6 0.649768 0.601111 0.498645
O O7 0.547652 0.432188 0.752702
O O8 0.381598 0.170642 0.535069
O O9 0.844049 0.207403 0.593418
O O10 0.078880 0.330798 0.298024
O O11 0.905464 0.004114 0.457311
O O12 0.519279 0.822838 0.148505
O O13 0.615093 0.980387 0.864632
O O14 0.807380 0.653568 0.107113
O O15 0.698042 0.586286 0.939244
O O16 0.692898 0.269400 0.783952
#
# Coordination Sequence:
#
# PCOD9040590 Si02
#       8
#     2   2   2   2   2   2   2   2
#     4   9  19  36  58  79 107 145 186 224 262 329
#     4  10  19  34  61  84 107 141 186 230 270 321
#     4  11  25  36  53  82 117 151 176 220 279 329
#     4  10  17  33  56  84 107 139 183 231 267 317
#     4  10  20  40  61  79 105 148 192 221 263 328
#     4  11  20  38  58  82 109 143 189 225 267 325
#     4   9  18  31  60  89 100 133 190 237 262 311
#     4  12  22  35  55  86 117 139 177 234 281 315
#
# _framework density 23.817357000000001
#
# number of rings (size 3 to 8) (size 9 to 14) (size 15 to 20)
#    0.000    2.000    3.750    3.750    1.750    1.000 
#    0.000    0.000    0.000    3.750    0.000    0.000 
#    0.000    0.000    0.000    0.000    0.000    0.000 
#
# Total GULP energy -89390.216687 kJ/mol
# GULP energy per Si atom -5586.888543 kJ/mol
# Density = 2.376315 g / cm^3
# Si number density = 23.817357 Si / 1000 Ang^3
#
#
#
# Elastic Constant Matrix: (Units=GPa)
#
#
# Indices 1 2 3 4 5 6 
#
# 1 122.3039 33.4612 41.2299 1.8391 27.0315 29.9089
# 2 33.4612 116.5074 17.1678 18.6274 2.9277 20.5734
# 3 41.2299 17.1678 94.9129 -12.9516 27.2468 1.1270
# 4 1.8391 18.6274 -12.9516 83.1197 -7.0065 22.4583
# 5 27.0315 2.9277 27.2468 -7.0065 31.0017 7.2497
# 6 29.9089 20.5734 1.1270 22.4583 7.2497 43.9945
#
#
#
# Elastic Compliance Matrix: (Units=1/GPa)
#
#
# Indices 1 2 3 4 5 6 
#
# 1 0.012982 -0.001974 -0.003227 0.001101 -0.006332 -0.007339
# 2 -0.001974 0.010145 -0.001968 -0.001461 0.002883 -0.003081
# 3 -0.003227 -0.001968 0.015681 0.000850 -0.011569 0.004185
# 4 0.001101 -0.001461 0.000850 0.015056 0.003797 -0.008399
# 5 -0.006332 0.002883 -0.011569 0.003797 0.050156 -0.006951
# 6 -0.007339 -0.003081 0.004185 -0.008399 -0.006951 0.034485
#
#
# Mechanical properties :
#
#
# Convention : Reuss Voigt Hill
#
# Bulk Modulus (GPa) = 40.86651 57.49355 49.18003
# Shear Modulus (GPa) = 31.05586 47.74754 39.40170
#
# Velocity S-wave (km/s) = 3.61490 4.48229 4.07175
# Velocity P-wave (km/s) = 5.88378 7.14000 6.54211
#
# Compressibility (1/GPa) = 0.02446991
#
# Stress axis : x y z
#
# Youngs Moduli (GPa) = 77.03129 98.56783 63.77078
#
# Poissons Ratio (x) = 0.19457 0.20580
# Poissons Ratio (y) = 0.15206 0.12550
# Poissons Ratio (z) = 0.24859 0.19398
#
# Static dielectric constant tensor:
#      x y z
#    x 2.044440 0.053370 -0.049190 
#    y 0.053370 1.894460 0.004560 
#    z -0.049190 0.004560 1.930630 
# 
# From -- ./inp_files/189257.got.cif
#   From: 2010.05.17/outbox.cif.g08.bks.cpg/sg2_95_cif.got.tgz:189257.got - 2010.06.03 11:33:40.
