data_PCOD9040727
_publ_section_title
;
Structure prediction by ZEFSAII (Michael W. Deem and Ramdas Pophale) SiO2 
 PCOD9040727
Probable space group: P -1
;
_chemical_formula_sum "Si O2"
_cell_formula_units_Z 16
_cell_length_a 5.511300
_cell_length_b 13.293707
_cell_length_c 14.419338
_cell_angle_alpha 45.864565
_cell_angle_beta 86.593219
_cell_angle_gamma 107.500661
_cell_volume 665.002583
_symmetry_space_group_name_H-M "P -1"
_symmetry_group_IT_number 2
_symmetry_cell_setting 'triclinic'
loop_
_space_group_symop_operation_xyz
x,y,z
-x,-y,-z
loop_
_atom_site_type_symbol
_atom_site_label
_atom_site_fract_x
_atom_site_fract_y
_atom_site_fract_z
Si Si1 0.292912 0.043317 0.919302
Si Si2 0.391659 0.603013 0.377208
Si Si3 0.055445 0.899816 0.828948
Si Si4 0.483813 0.343669 0.317129
Si Si5 0.936430 0.086340 0.583533
Si Si6 0.854401 0.372377 0.446855
Si Si7 0.357116 0.781356 0.776349
Si Si8 0.474796 0.591940 0.031661
O O1 0.407331 0.230595 0.779381
O O2 0.244532 0.950472 0.882004
O O3 0.500000 0.000000 0.000000
O O4 0.000000 0.000000 0.000000
O O5 0.500000 0.500000 0.500000
O O6 0.245931 0.652873 0.429392
O O7 0.173739 0.496978 0.372192
O O8 0.177930 0.866730 0.752007
O O9 0.767066 0.742394 0.954887
O O10 0.018696 0.052751 0.704864
O O11 0.214796 0.179064 0.457736
O O12 0.673434 0.420427 0.353589
O O13 0.675285 0.316225 0.253772
O O14 0.384000 0.460610 0.197267
O O15 0.815805 0.207988 0.512982
O O16 0.678646 0.915486 0.675361
O O17 0.301931 0.671359 0.940075
O O18 0.500000 0.500000 0.000000
#
# Coordination Sequence:
#
# PCOD9040727 Si02
#       8
#     2   2   2   2   2   2   2   2
#     4  12  31  49  77 112 148 192 255 315 373 446
#     4  11  26  50  73 100 144 190 243 303 382 434
#     4  11  25  46  70  95 141 188 232 295 366 429
#     4  11  23  40  65 106 135 178 238 288 348 431
#     4  11  23  42  67  99 137 183 229 289 354 434
#     4  11  25  41  75  99 139 182 237 297 359 434
#     4  10  23  43  68  95 141 187 227 284 359 431
#     4   9  23  42  65  96 140 181 229 286 363 425
#
# _framework density 24.060055999999999
#
# number of rings (size 3 to 8) (size 9 to 14) (size 15 to 20)
#    0.000    1.250    0.000    4.125   10.500    9.000 
#    0.000    0.000    0.000    0.000    0.000    0.000 
#    0.000    0.000    0.000    0.000    0.000    0.000 
#
# Total GULP energy -89406.948295 kJ/mol
# GULP energy per Si atom -5587.934268 kJ/mol
# Density = 2.400529 g / cm^3
# Si number density = 24.060056 Si / 1000 Ang^3
#
#
#
# Elastic Constant Matrix: (Units=GPa)
#
#
# Indices 1 2 3 4 5 6 
#
# 1 72.4993 5.3969 35.8666 0.1887 2.8280 1.3191
# 2 5.3969 52.5914 39.5617 8.2432 1.1407 11.2137
# 3 35.8666 39.5617 157.2324 -11.1709 8.4625 17.2931
# 4 0.1887 8.2432 -11.1709 31.4382 -2.4186 0.1019
# 5 2.8280 1.1407 8.4625 -2.4186 33.4095 3.1848
# 6 1.3191 11.2137 17.2931 0.1019 3.1848 34.6639
#
#
#
# Elastic Compliance Matrix: (Units=1/GPa)
#
#
# Indices 1 2 3 4 5 6 
#
# 1 0.015784 0.001709 -0.004263 -0.002105 -0.000565 0.001031
# 2 0.001709 0.026934 -0.007314 -0.009610 0.000584 -0.005155
# 3 -0.004263 -0.007314 0.009875 0.005361 -0.001284 -0.002296
# 4 -0.002105 -0.009610 0.005361 0.036380 0.001759 0.000246
# 5 -0.000565 0.000584 -0.001284 0.001759 0.030636 -0.002347
# 6 0.001031 -0.005155 -0.002296 0.000246 -0.002347 0.031837
#
#
# Mechanical properties :
#
#
# Convention : Reuss Voigt Hill
#
# Bulk Modulus (GPa) = 30.43458 49.33037 39.88247
# Shear Modulus (GPa) = 27.45237 33.33552 30.39395
#
# Velocity S-wave (km/s) = 3.38152 3.72629 3.55808
# Velocity P-wave (km/s) = 5.28424 6.24989 5.78724
#
# Compressibility (1/GPa) = 0.03285736
#
# Stress axis : x y z
#
# Youngs Moduli (GPa) = 63.35618 37.12820 101.26272
#
# Poissons Ratio (x) = -0.06347 0.43169
# Poissons Ratio (y) = -0.10830 0.74064
# Poissons Ratio (z) = 0.27009 0.27156
#
# Static dielectric constant tensor:
#      x y z
#    x 1.847220 -0.016410 0.183300 
#    y -0.016410 1.945760 0.043420 
#    z 0.183300 0.043420 1.523380 
# 
# From -- ./inp_files/484258.got.cif
#   From: 2010.05.17/outbox.cif.g08.bks.cpg/sg2_243_cif.got.tgz:484258.got - 2010.06.03 11:33:40.
