data_PCOD9040927
_publ_section_title
;
Structure prediction by ZEFSAII (Michael W. Deem and Ramdas Pophale) SiO2 
 PCOD9040927
Probable space group: P -1
;
_chemical_formula_sum "Si O2"
_cell_formula_units_Z 14
_cell_length_a 15.640069
_cell_length_b 10.092114
_cell_length_c 17.028887
_cell_angle_alpha 147.128348
_cell_angle_beta 155.997171
_cell_angle_gamma 35.187045
_cell_volume 578.010445
_symmetry_space_group_name_H-M "P -1"
_symmetry_group_IT_number 2
_symmetry_cell_setting 'triclinic'
loop_
_space_group_symop_operation_xyz
x,y,z
-x,-y,-z
loop_
_atom_site_type_symbol
_atom_site_label
_atom_site_fract_x
_atom_site_fract_y
_atom_site_fract_z
Si Si1 0.470028 0.596430 0.611898
Si Si2 0.355858 0.532680 0.134716
Si Si3 0.977380 0.805100 0.316940
Si Si4 0.253621 0.041138 0.344287
Si Si5 0.381993 0.351434 0.723804
Si Si6 0.838222 0.252299 0.140931
Si Si7 0.132116 0.204899 0.953944
O O1 0.500000 0.500000 0.500000
O O2 0.572072 0.462615 0.711134
O O3 0.216904 0.635017 0.431206
O O4 0.610073 0.810481 0.836204
O O5 0.559073 0.509067 0.235854
O O6 0.198247 0.805697 0.136193
O O7 0.219911 0.328367 0.900438
O O8 0.933601 0.892256 0.233053
O O9 0.000000 0.000000 0.500000
O O10 0.298166 0.109811 0.506637
O O11 0.043952 0.267942 0.268265
O O12 0.500000 0.000000 0.500000
O O13 0.220628 0.533629 0.736140
O O14 0.615123 0.270170 0.918579
O O15 0.907532 0.978203 0.102384
O O16 0.000000 0.500000 0.000000
#
# Coordination Sequence:
#
# PCOD9040927 Si02
#       7
#     2   2   2   2   2   2   2
#     4  11  24  41  70  98 137 183 233 286 360 417
#     4  10  25  44  67 100 144 177 247 288 350 436
#     4  11  26  43  67 105 138 183 232 296 367 409
#     4  10  23  43  69  98 135 182 236 290 348 421
#     4  10  25  45  66 105 139 196 230 291 362 410
#     4  11  24  43  73  99 148 179 241 293 350 437
#     4  11  24  44  70 108 138 183 242 291 350 436
#
# _framework density 24.221015999999999
#
# number of rings (size 3 to 8) (size 9 to 14) (size 15 to 20)
#    0.000    1.429    1.429    2.143    6.000    5.714 
#    2.571    0.000    0.000    0.000    0.000    0.000 
#    0.000    0.000    0.000    0.000    0.000    0.000 
#
# Total GULP energy -77974.502504 kJ/mol
# GULP energy per Si atom -5569.607322 kJ/mol
# Density = 2.416589 g / cm^3
# Si number density = 24.221016 Si / 1000 Ang^3
#
#
#
# Elastic Constant Matrix: (Units=GPa)
#
#
# Indices 1 2 3 4 5 6 
#
# 1 87.9800 31.7262 33.7157 -2.0540 -11.1279 -10.9008
# 2 31.7262 64.7926 33.1743 -2.6820 -9.1902 -22.6811
# 3 33.7157 33.1743 154.7722 -2.7196 -18.2570 -2.8884
# 4 -2.0540 -2.6820 -2.7196 34.6223 -15.8167 6.6365
# 5 -11.1279 -9.1902 -18.2570 -15.8167 54.1811 3.9805
# 6 -10.9008 -22.6811 -2.8884 6.6365 3.9805 30.1297
#
#
#
# Elastic Compliance Matrix: (Units=1/GPa)
#
#
# Indices 1 2 3 4 5 6 
#
# 1 0.014367 -0.005834 -0.001660 0.000997 0.001678 0.000206
# 2 -0.005834 0.026618 -0.004135 -0.002055 0.000003 0.017983
# 3 -0.001660 -0.004135 0.007974 0.002079 0.002526 -0.003740
# 4 0.000997 -0.002055 0.002079 0.036448 0.011975 -0.010597
# 5 0.001678 0.000003 0.002526 0.011975 0.023508 -0.004892
# 6 0.000206 0.017983 -0.003740 -0.010597 -0.004892 0.049423
#
#
# Mechanical properties :
#
#
# Convention : Reuss Voigt Hill
#
# Bulk Modulus (GPa) = 38.90804 56.08633 47.49718
# Shear Modulus (GPa) = 26.29339 37.71519 32.00429
#
# Velocity S-wave (km/s) = 3.29836 3.95033 3.63897
# Velocity P-wave (km/s) = 5.53211 6.63424 6.10808
#
# Compressibility (1/GPa) = 0.02570163
#
# Stress axis : x y z
#
# Youngs Moduli (GPa) = 69.60375 37.56925 125.41263
#
# Poissons Ratio (x) = 0.21916 0.20819
# Poissons Ratio (y) = 0.40604 0.51854
# Poissons Ratio (z) = 0.11555 0.15534
#
# Static dielectric constant tensor:
#      x y z
#    x 2.145810 0.166440 0.071970 
#    y 0.166440 2.042160 0.024230 
#    z 0.071970 0.024230 1.976700 
# 
# From -- ./inp_files/576014.got.cif
#   From: 2010.05.17/outbox.cif.g08.bks.cpg/sg2_289_cif.got.tgz:576014.got - 2010.06.03 11:33:40.
