data_PCOD9040457
_publ_section_title
;
Structure prediction by ZEFSAII (Michael W. Deem and Ramdas Pophale) SiO2 
 PCOD9040457
Probable space group: P -1
;
_chemical_formula_sum "Si O2"
_cell_formula_units_Z 14
_cell_length_a 11.658498
_cell_length_b 5.153525
_cell_length_c 11.260814
_cell_angle_alpha 62.768550
_cell_angle_beta 84.892219
_cell_angle_gamma 88.083999
_cell_volume 599.178888
_symmetry_space_group_name_H-M "P -1"
_symmetry_group_IT_number 2
_symmetry_cell_setting 'triclinic'
loop_
_space_group_symop_operation_xyz
x,y,z
-x,-y,-z
loop_
_atom_site_type_symbol
_atom_site_label
_atom_site_fract_x
_atom_site_fract_y
_atom_site_fract_z
Si Si1 0.527362 0.264248 0.730067
Si Si2 0.754081 0.310144 0.096938
Si Si3 0.613353 0.648699 0.849126
Si Si4 0.712020 0.067004 0.587654
Si Si5 0.677065 0.903013 0.378722
Si Si6 0.902289 0.783696 0.103999
Si Si7 0.102169 0.492184 0.586268
O O1 0.539621 0.473560 0.795919
O O2 0.413578 0.265770 0.660916
O O3 0.544709 0.929765 0.841618
O O4 0.637239 0.293411 0.624859
O O5 0.854517 0.545781 0.065376
O O6 0.701232 0.212497 0.247665
O O7 0.800873 0.009253 0.100321
O O8 0.663676 0.455221 0.987814
O O9 0.719509 0.793764 0.733249
O O10 0.638111 0.966238 0.502361
O O11 0.828859 0.202912 0.498830
O O12 0.798356 0.738452 0.406301
O O13 0.936226 0.604588 0.257688
O O14 0.000000 0.000000 0.000000
O O15 0.000000 0.500000 0.500000
#
# Coordination Sequence:
#
# PCOD9040457 Si02
#       7
#     2   2   2   2   2   2   2
#     4  10  24  41  72 104 137 185 226 273 344 402
#     4  11  24  45  69  99 140 177 226 285 345 399
#     4  10  24  41  67 103 135 183 222 277 334 410
#     4  10  23  43  67 100 140 180 226 278 342 405
#     4  11  24  44  69 100 142 178 231 282 340 412
#     4  11  25  45  70  97 132 185 233 283 338 405
#     4  11  26  44  69 102 136 181 230 289 343 400
#
# _framework density 23.365307000000001
#
# number of rings (size 3 to 8) (size 9 to 14) (size 15 to 20)
#    0.857    0.571    1.429    2.571    4.000    4.000 
#    0.000    0.000    0.000    0.000    0.000    0.000 
#    0.000    0.000    0.000    0.000    0.000    0.000 
#
# Total GULP energy -78269.568315 kJ/mol
# GULP energy per Si atom -5590.683451 kJ/mol
# Density = 2.331213 g / cm^3
# Si number density = 23.365307 Si / 1000 Ang^3
#
#
#
# Elastic Constant Matrix: (Units=GPa)
#
#
# Indices 1 2 3 4 5 6 
#
# 1 71.2278 9.3951 45.0267 1.4818 19.0821 22.3809
# 2 9.3951 93.0192 12.9134 -5.7225 6.5138 19.7066
# 3 45.0267 12.9134 146.3062 -21.2179 7.1485 13.8368
# 4 1.4818 -5.7225 -21.2179 27.5161 1.1010 -1.5451
# 5 19.0821 6.5138 7.1485 1.1010 46.6859 -5.5650
# 6 22.3809 19.7066 13.8368 -1.5451 -5.5650 41.3202
#
#
#
# Elastic Compliance Matrix: (Units=1/GPa)
#
#
# Indices 1 2 3 4 5 6 
#
# 1 0.026109 0.001776 -0.007300 -0.007016 -0.011345 -0.014335
# 2 0.001776 0.012495 -0.000555 0.001807 -0.003274 -0.007108
# 3 -0.007300 -0.000555 0.010104 0.008085 0.001483 0.001337
# 4 -0.007016 0.001807 0.008085 0.043415 0.000584 0.001934
# 5 -0.011345 -0.003274 0.001483 0.000584 0.027578 0.010946
# 6 -0.014335 -0.007108 0.001337 0.001934 0.010946 0.036455
#
#
# Mechanical properties :
#
#
# Convention : Reuss Voigt Hill
#
# Bulk Modulus (GPa) = 27.35946 49.46929 38.41437
# Shear Modulus (GPa) = 27.70144 39.31899 33.51021
#
# Velocity S-wave (km/s) = 3.44696 4.10664 3.79117
# Velocity P-wave (km/s) = 5.25137 6.61090 5.96996
#
# Compressibility (1/GPa) = 0.03655043
#
# Stress axis : x y z
#
# Youngs Moduli (GPa) = 38.30068 80.03507 98.97024
#
# Poissons Ratio (x) = -0.14214 0.72244
# Poissons Ratio (y) = -0.06802 0.05494
# Poissons Ratio (z) = 0.27958 0.04443
#
# Static dielectric constant tensor:
#      x y z
#    x 1.888500 0.003870 -0.072500 
#    y 0.003870 1.906470 -0.039350 
#    z -0.072500 -0.039350 1.894500 
# 
# From -- ./inp_files/68268.got.cif
#   From: 2010.05.17/outbox.cif.g08.bks.cpg/sg2_35_cif.got.tgz:68268.got - 2010.06.03 11:33:40.
