data_PCOD9040298
_publ_section_title
;
Structure prediction by ZEFSAII (Michael W. Deem and Ramdas Pophale) SiO2 
 PCOD9040298
Probable space group: P -1
;
_chemical_formula_sum "Si O2"
_cell_formula_units_Z 16
_cell_length_a 8.890228
_cell_length_b 7.791378
_cell_length_c 16.265547
_cell_angle_alpha 63.555163
_cell_angle_beta 127.042018
_cell_angle_gamma 130.492684
_cell_volume 681.178843
_symmetry_space_group_name_H-M "P -1"
_symmetry_group_IT_number 2
_symmetry_cell_setting 'triclinic'
loop_
_space_group_symop_operation_xyz
x,y,z
-x,-y,-z
loop_
_atom_site_type_symbol
_atom_site_label
_atom_site_fract_x
_atom_site_fract_y
_atom_site_fract_z
Si Si1 0.946094 0.524664 0.141681
Si Si2 0.576956 0.221139 0.191931
Si Si3 0.412982 0.178002 0.323542
Si Si4 0.081559 0.940173 0.802720
Si Si5 0.140389 0.918957 0.014435
Si Si6 0.167779 0.446937 0.520068
Si Si7 0.725330 0.887197 0.335238
Si Si8 0.321709 0.714672 0.351877
O O1 0.997710 0.653171 0.045542
O O2 0.135627 0.689844 0.233163
O O3 0.718529 0.437493 0.134627
O O4 0.952328 0.301422 0.178095
O O5 0.469879 0.254110 0.230547
O O6 0.382666 0.032291 0.110764
O O7 0.727214 0.121312 0.294653
O O8 0.595880 0.382318 0.394443
O O9 0.160452 0.095965 0.278226
O O10 0.426082 0.954129 0.381493
O O11 0.255214 0.120367 0.755739
O O12 0.157944 0.986387 0.911698
O O13 0.000000 0.000000 0.000000
O O14 0.106282 0.189169 0.564437
O O15 0.206401 0.519115 0.422483
O O16 0.000000 0.500000 0.500000
O O17 0.506912 0.722245 0.352673
#
# Coordination Sequence:
#
# PCOD9040298 Si02
#       8
#     2   2   2   2   2   2   2   2
#     4  11  23  43  68  98 140 178 227 280 337 397
#     4  10  23  44  68  97 140 184 219 278 343 399
#     4  11  22  43  66  98 140 173 224 287 339 397
#     4  11  24  42  69 101 134 179 227 280 339 406
#     4  12  23  45  69 101 140 179 229 276 341 407
#     4  12  25  41  70 103 131 180 231 277 345 408
#     4  10  23  43  65  95 137 177 219 282 334 394
#     4  11  22  45  66  96 140 181 226 281 336 405
#
# _framework density 23.488693000000001
#
# number of rings (size 3 to 8) (size 9 to 14) (size 15 to 20)
#    0.000    1.000    3.750    3.375    0.000    3.500 
#    4.500    9.375    0.000    0.000    0.000    0.000 
#    0.000    0.000    0.000    0.000    0.000    0.000 
#
# Total GULP energy -89365.571938 kJ/mol
# GULP energy per Si atom -5585.348246 kJ/mol
# Density = 2.343523 g / cm^3
# Si number density = 23.488693 Si / 1000 Ang^3
#
#
#
# Elastic Constant Matrix: (Units=GPa)
#
#
# Indices 1 2 3 4 5 6 
#
# 1 146.9607 29.2092 45.7854 -16.0677 -17.9077 23.1956
# 2 29.2092 57.3923 24.8843 -1.3784 0.8225 -8.8410
# 3 45.7854 24.8843 81.8914 -13.6315 -18.7810 9.4193
# 4 -16.0677 -1.3784 -13.6315 32.3023 4.4782 -0.1008
# 5 -17.9077 0.8225 -18.7810 4.4782 45.5433 -9.9746
# 6 23.1956 -8.8410 9.4193 -0.1008 -9.9746 28.6560
#
#
#
# Elastic Compliance Matrix: (Units=1/GPa)
#
#
# Indices 1 2 3 4 5 6 
#
# 1 0.010691 -0.005824 -0.002256 0.003958 0.000937 -0.009369
# 2 -0.005824 0.025774 -0.007509 -0.004608 -0.002260 0.014332
# 3 -0.002256 -0.007509 0.018434 0.005591 0.005272 -0.004695
# 4 0.003958 -0.004608 0.005591 0.035204 -0.000980 -0.006680
# 5 0.000937 -0.002260 0.005272 -0.000980 0.025913 0.005827
# 6 -0.009369 0.014332 -0.004695 -0.006680 0.005827 0.050450
#
#
# Mechanical properties :
#
#
# Convention : Reuss Voigt Hill
#
# Bulk Modulus (GPa) = 42.15944 54.00024 48.07984
# Shear Modulus (GPa) = 24.32482 33.72468 29.02475
#
# Velocity S-wave (km/s) = 3.22156 3.79328 3.51905
# Velocity P-wave (km/s) = 5.64143 6.49809 6.08485
#
# Compressibility (1/GPa) = 0.02371948
#
# Stress axis : x y z
#
# Youngs Moduli (GPa) = 93.53946 38.79950 54.24679
#
# Poissons Ratio (x) = 0.22598 0.12237
# Poissons Ratio (y) = 0.54481 0.40735
# Poissons Ratio (z) = 0.21101 0.29136
#
# Static dielectric constant tensor:
#      x y z
#    x 1.906740 -0.003420 0.030200 
#    y -0.003420 1.928780 -0.046510 
#    z 0.030200 -0.046510 1.918560 
# 
# From -- ./inp_files/505101.got.cif
#   From: 2010.05.17/outbox.cif.g08.bks.cpg/sg2_253_cif.got.tgz:505101.got - 2010.06.03 11:33:40.
