data_PCOD9040354
_publ_section_title
;
Structure prediction by ZEFSAII (Michael W. Deem and Ramdas Pophale) SiO2 
 PCOD9040354
Probable space group: P -1
;
_chemical_formula_sum "Si O2"
_cell_formula_units_Z 16
_cell_length_a 10.526998
_cell_length_b 11.315625
_cell_length_c 12.267511
_cell_angle_alpha 76.127215
_cell_angle_beta 51.003244
_cell_angle_gamma 40.526137
_cell_volume 650.445506
_symmetry_space_group_name_H-M "P -1"
_symmetry_group_IT_number 2
_symmetry_cell_setting 'triclinic'
loop_
_space_group_symop_operation_xyz
x,y,z
-x,-y,-z
loop_
_atom_site_type_symbol
_atom_site_label
_atom_site_fract_x
_atom_site_fract_y
_atom_site_fract_z
Si Si1 0.036132 0.169650 0.165580
Si Si2 0.741727 0.325972 0.494609
Si Si3 0.017516 0.579232 0.137998
Si Si4 0.021722 0.340645 0.496247
Si Si5 0.678685 0.599532 0.208269
Si Si6 0.737025 0.169709 0.183797
Si Si7 0.217756 0.096405 0.653129
Si Si8 0.587780 0.772676 0.825459
O O1 0.000023 0.145601 0.314027
O O2 0.941576 0.365837 0.169509
O O3 0.800606 0.254468 0.194222
O O4 0.670623 0.037490 0.000373
O O5 0.500000 0.500000 0.500000
O O6 0.613232 0.288354 0.635392
O O7 0.808020 0.403358 0.516059
O O8 0.153690 0.426081 0.198783
O O9 0.735405 0.691695 0.217876
O O10 0.941810 0.755653 0.187930
O O11 0.243421 0.443268 0.950627
O O12 0.043742 0.237559 0.609760
O O13 0.312698 0.172429 0.310642
O O14 0.000000 0.500000 0.500000
O O15 0.497306 0.283075 0.201764
O O16 0.726240 0.075661 0.306679
O O17 0.000000 0.000000 0.000000
O O18 0.500000 0.000000 0.500000
#
# Coordination Sequence:
#
# PCOD9040354 Si02
#       8
#     2   2   2   2   2   2   2   2
#     4  10  23  43  69  97 138 184 230 276 365 404
#     4  10  24  42  69 100 136 184 226 287 350 410
#     4  11  24  43  68 103 131 184 232 288 352 416
#     4  12  26  44  71 107 138 184 240 286 351 418
#     4  10  24  43  68  97 139 179 229 287 355 414
#     4  10  23  43  66 101 138 187 226 285 349 411
#     4  12  26  43  71 100 142 183 234 288 345 416
#     4  11  22  41  68 100 136 178 230 289 337 419
#
# _framework density 24.598526
#
# number of rings (size 3 to 8) (size 9 to 14) (size 15 to 20)
#    0.000    1.250    2.500    3.000    5.250    4.000 
#    2.250    5.000    0.000    0.000    0.000    0.000 
#    0.000    0.000    0.000    0.000    0.000    0.000 
#
# Total GULP energy -89401.880941 kJ/mol
# GULP energy per Si atom -5587.617559 kJ/mol
# Density = 2.454254 g / cm^3
# Si number density = 24.598526 Si / 1000 Ang^3
#
#
#
# Elastic Constant Matrix: (Units=GPa)
#
#
# Indices 1 2 3 4 5 6 
#
# 1 149.1949 12.9999 40.0155 0.7974 13.0451 -10.3459
# 2 12.9999 58.0079 12.0542 -7.6356 7.0732 -4.9736
# 3 40.0155 12.0542 142.2535 -11.5517 2.7031 -1.4315
# 4 0.7974 -7.6356 -11.5517 37.9464 -2.8215 2.6105
# 5 13.0451 7.0732 2.7031 -2.8215 37.2997 -1.1885
# 6 -10.3459 -4.9736 -1.4315 2.6105 -1.1885 22.2792
#
#
#
# Elastic Compliance Matrix: (Units=1/GPa)
#
#
# Indices 1 2 3 4 5 6 
#
# 1 0.007808 -0.000910 -0.002155 -0.001410 -0.002403 0.003321
# 2 -0.000910 0.018666 -0.000993 0.003045 -0.002818 0.003173
# 3 -0.002155 -0.000993 0.007891 0.002353 0.000517 -0.000963
# 4 -0.001410 0.003045 0.002353 0.028051 0.001771 -0.003016
# 5 -0.002403 -0.002818 0.000517 0.001771 0.028268 -0.000411
# 6 0.003321 0.003173 -0.000963 -0.003016 -0.000411 0.047405
#
#
# Mechanical properties :
#
#
# Convention : Reuss Voigt Hill
#
# Bulk Modulus (GPa) = 38.09535 53.28840 45.69187
# Shear Modulus (GPa) = 32.26765 38.46418 35.36591
#
# Velocity S-wave (km/s) = 3.62577 3.95863 3.79585
# Velocity P-wave (km/s) = 5.74880 6.52722 6.15034
#
# Compressibility (1/GPa) = 0.02624992
#
# Stress axis : x y z
#
# Youngs Moduli (GPa) = 128.07765 53.57397 126.71926
#
# Poissons Ratio (x) = 0.04875 0.27303
# Poissons Ratio (y) = 0.11654 0.12583
# Poissons Ratio (z) = 0.27596 0.05320
#
# Static dielectric constant tensor:
#      x y z
#    x 1.954110 0.017620 0.019980 
#    y 0.017620 2.041470 0.032060 
#    z 0.019980 0.032060 2.040910 
# 
# From -- ./inp_files/392506.got.cif
#   From: 2010.05.17/outbox.cif.g08.bks.cpg/sg2_197_cif.got.tgz:392506.got - 2010.06.03 11:33:40.
