data_PCOD9040918
_publ_section_title
;
Structure prediction by ZEFSAII (Michael W. Deem and Ramdas Pophale) SiO2 
 PCOD9040918
Probable space group: P -1
;
_chemical_formula_sum "Si O2"
_cell_formula_units_Z 14
_cell_length_a 5.302575
_cell_length_b 10.673671
_cell_length_c 11.286244
_cell_angle_alpha 73.946641
_cell_angle_beta 89.067950
_cell_angle_gamma 69.956902
_cell_volume 574.505179
_symmetry_space_group_name_H-M "P -1"
_symmetry_group_IT_number 2
_symmetry_cell_setting 'triclinic'
loop_
_space_group_symop_operation_xyz
x,y,z
-x,-y,-z
loop_
_atom_site_type_symbol
_atom_site_label
_atom_site_fract_x
_atom_site_fract_y
_atom_site_fract_z
Si Si1 0.912102 0.922332 0.630237
Si Si2 0.335512 0.787527 0.015865
Si Si3 0.954303 0.948745 0.189988
Si Si4 0.188641 0.517609 0.101351
Si Si5 0.478271 0.250581 0.323322
Si Si6 0.768522 0.719398 0.216047
Si Si7 0.682740 0.590820 0.471725
O O1 0.865951 0.022228 0.718062
O O2 0.198556 0.797114 0.677596
O O3 0.664003 0.866524 0.646226
O O4 0.000000 0.000000 0.500000
O O5 0.324212 0.633359 0.034515
O O6 0.610454 0.776526 0.081010
O O7 0.259825 0.901203 0.883498
O O8 0.114617 0.866906 0.096205
O O9 0.821693 0.839178 0.259277
O O10 0.360113 0.366134 0.191139
O O11 0.020309 0.592668 0.199139
O O12 0.000000 0.500000 0.000000
O O13 0.395350 0.312143 0.438887
O O14 0.612148 0.660905 0.325057
O O15 0.500000 0.500000 0.500000
O O16 0.000000 0.500000 0.500000
#
# Coordination Sequence:
#
# PCOD9040918 Si02
#       7
#     2   2   2   2   2   2   2
#     4  12  28  47  72 101 143 185 234 291 350 418
#     4  10  23  43  69  97 138 181 238 288 345 423
#     4  10  24  44  67 100 135 188 237 284 349 414
#     4  11  25  43  68 106 142 183 233 293 364 419
#     4  12  27  46  72 106 142 184 233 291 355 417
#     4  11  24  41  73  98 136 186 237 290 349 421
#     4  12  25  45  71 103 144 181 233 288 348 420
#
# _framework density 24.368797000000001
#
# number of rings (size 3 to 8) (size 9 to 14) (size 15 to 20)
#    0.000    0.857    1.429    4.286   10.000    0.571 
#    0.000    0.000    0.000    0.000    0.000    0.000 
#    0.000    0.000    0.000    0.000    0.000    0.000 
#
# Total GULP energy -78275.124175 kJ/mol
# GULP energy per Si atom -5591.080298 kJ/mol
# Density = 2.431333 g / cm^3
# Si number density = 24.368797 Si / 1000 Ang^3
#
#
#
# Elastic Constant Matrix: (Units=GPa)
#
#
# Indices 1 2 3 4 5 6 
#
# 1 66.9873 13.1970 -26.3723 8.4403 -2.9995 11.8277
# 2 13.1970 122.5101 13.2361 14.0020 0.0021 28.1391
# 3 -26.3723 13.2361 74.1588 6.2213 -7.7620 4.9536
# 4 8.4403 14.0020 6.2213 41.3270 5.5171 15.0091
# 5 -2.9995 0.0021 -7.7620 5.5171 41.5954 -5.4385
# 6 11.8277 28.1391 4.9536 15.0091 -5.4385 54.6739
#
#
#
# Elastic Compliance Matrix: (Units=1/GPa)
#
#
# Indices 1 2 3 4 5 6 
#
# 1 0.019634 -0.001945 0.008171 -0.004073 0.003147 -0.002555
# 2 -0.001945 0.009676 -0.002165 -0.000894 -0.000977 -0.004215
# 3 0.008171 -0.002165 0.017602 -0.003884 0.004290 -0.000755
# 4 -0.004073 -0.000894 -0.003884 0.029195 -0.005793 -0.006898
# 5 0.003147 -0.000977 0.004290 -0.005793 0.026313 0.003641
# 6 -0.002555 -0.004215 -0.000755 -0.006898 0.003641 0.023337
#
#
# Mechanical properties :
#
#
# Convention : Reuss Voigt Hill
#
# Bulk Modulus (GPa) = 18.17061 29.30865 23.73963
# Shear Modulus (GPa) = 36.77033 45.09228 40.93131
#
# Velocity S-wave (km/s) = 3.88868 4.30631 4.10281
# Velocity P-wave (km/s) = 5.25692 6.06456 5.67513
#
# Compressibility (1/GPa) = 0.05503393
#
# Stress axis : x y z
#
# Youngs Moduli (GPa) = 50.93314 103.34488 56.81170
#
# Poissons Ratio (x) = 0.20105 -0.46421
# Poissons Ratio (y) = 0.09909 0.12298
# Poissons Ratio (z) = -0.41618 0.22370
#
# Static dielectric constant tensor:
#      x y z
#    x 1.986450 -0.058390 0.005190 
#    y -0.058390 1.943740 -0.015750 
#    z 0.005190 -0.015750 1.958970 
# 
# From -- ./inp_files/28506.got.cif
#   From: 2010.05.17/outbox.cif.g08.bks.cpg/sg2_15_cif.got.tgz:28506.got - 2010.06.03 11:33:40.
