data_PCOD9040926
_publ_section_title
;
Structure prediction by ZEFSAII (Michael W. Deem and Ramdas Pophale) SiO2 
 PCOD9040926
Probable space group: P -1
;
_chemical_formula_sum "Si O2"
_cell_formula_units_Z 16
_cell_length_a 8.283975
_cell_length_b 8.708855
_cell_length_c 8.330358
_cell_angle_alpha 89.112516
_cell_angle_beta 88.558008
_cell_angle_gamma 91.108345
_cell_volume 600.605360
_symmetry_space_group_name_H-M "P -1"
_symmetry_group_IT_number 2
_symmetry_cell_setting 'triclinic'
loop_
_space_group_symop_operation_xyz
x,y,z
-x,-y,-z
loop_
_atom_site_type_symbol
_atom_site_label
_atom_site_fract_x
_atom_site_fract_y
_atom_site_fract_z
Si Si1 0.075627 0.765316 0.483912
Si Si2 0.438327 0.326567 0.459908
Si Si3 0.755509 0.949791 0.413714
Si Si4 0.240789 0.527875 0.282886
Si Si5 0.154584 0.395379 0.964029
Si Si6 0.737371 0.349356 0.229412
Si Si7 0.733355 0.919428 0.047934
Si Si8 0.628286 0.205056 0.903646
O O1 0.098559 0.630379 0.355682
O O2 0.111340 0.695568 0.661846
O O3 0.916234 0.854459 0.445397
O O4 0.217748 0.899023 0.480954
O O5 0.500000 0.500000 0.500000
O O6 0.394271 0.165842 0.547042
O O7 0.266351 0.388796 0.404235
O O8 0.573092 0.297561 0.322072
O O9 0.751337 0.992140 0.223928
O O10 0.363879 0.672600 0.242668
O O11 0.253335 0.435167 0.119768
O O12 0.244250 0.466945 0.805955
O O13 0.134879 0.212983 0.963114
O O14 0.000000 0.500000 0.000000
O O15 0.718615 0.285418 0.051327
O O16 0.557483 0.834837 0.054183
O O17 0.722000 0.043359 0.903979
#
# Coordination Sequence:
#
# PCOD9040926 Si02
#       8
#     2   2   2   2   2   2   2   2
#     4  11  25  46  67 102 144 185 233 284 356 426
#     4  12  24  41  70 105 139 180 233 292 351 412
#     4  11  26  44  70 103 143 186 231 293 352 420
#     4  11  24  42  65 101 134 181 228 288 351 413
#     4  11  25  43  68 100 140 185 230 288 353 422
#     4  11  23  45  67 101 138 184 231 291 347 421
#     4  11  22  43  69 101 134 183 237 287 355 409
#     4  10  23  43  69  98 135 178 234 297 344 414
#
# _framework density 26.639787999999999
#
# number of rings (size 3 to 8) (size 9 to 14) (size 15 to 20)
#    0.000    1.000    2.500    3.750    1.750    6.000 
#    2.250    1.875    0.000    0.000    0.000    0.000 
#    0.000    0.000    0.000    0.000    0.000    0.000 
#
# Total GULP energy -89244.102154 kJ/mol
# GULP energy per Si atom -5577.756385 kJ/mol
# Density = 2.657915 g / cm^3
# Si number density = 26.639788 Si / 1000 Ang^3
#
#
#
# Elastic Constant Matrix: (Units=GPa)
#
#
# Indices 1 2 3 4 5 6 
#
# 1 67.5784 13.6461 1.3812 6.7105 8.6232 -3.0425
# 2 13.6461 112.7273 29.2406 -13.0077 -1.4409 -5.8254
# 3 1.3812 29.2406 60.4140 -4.2358 4.3774 10.0553
# 4 6.7105 -13.0077 -4.2358 40.4760 -2.1634 3.3811
# 5 8.6232 -1.4409 4.3774 -2.1634 30.0745 1.3116
# 6 -3.0425 -5.8254 10.0553 3.3811 1.3116 53.6703
#
#
#
# Elastic Compliance Matrix: (Units=1/GPa)
#
#
# Indices 1 2 3 4 5 6 
#
# 1 0.016415 -0.002688 0.000899 -0.003844 -0.005279 0.000842
# 2 -0.002688 0.011159 -0.005570 0.003418 0.002282 0.001831
# 3 0.000899 -0.005570 0.020201 0.000359 -0.003252 -0.004282
# 4 -0.003844 0.003418 0.000359 0.026791 0.003214 -0.001681
# 5 -0.005279 0.002282 -0.003252 0.003214 0.035601 -0.000515
# 6 0.000842 0.001831 -0.004282 -0.001681 -0.000515 0.019799
#
#
# Mechanical properties :
#
#
# Convention : Reuss Voigt Hill
#
# Bulk Modulus (GPa) = 30.25069 36.58393 33.41731
# Shear Modulus (GPa) = 32.11189 37.94095 35.02642
#
# Velocity S-wave (km/s) = 3.47567 3.77798 3.62997
# Velocity P-wave (km/s) = 5.24282 5.72656 5.49002
#
# Compressibility (1/GPa) = 0.03305710
#
# Stress axis : x y z
#
# Youngs Moduli (GPa) = 60.91904 89.61049 49.50161
#
# Poissons Ratio (x) = 0.24085 -0.04448
# Poissons Ratio (y) = 0.16373 0.27574
# Poissons Ratio (z) = -0.05474 0.49915
#
# Static dielectric constant tensor:
#      x y z
#    x 2.162390 0.013900 0.226610 
#    y 0.013900 2.101230 -0.005060 
#    z 0.226610 -0.005060 2.258510 
# 
# From -- ./inp_files/158703.got.cif
#   From: 2010.05.17/outbox.cif.g08.bks.cpg/sg2_80_cif.got.tgz:158703.got - 2010.06.03 11:33:40.
