data_PCOD9040427
_publ_section_title
;
Structure prediction by ZEFSAII (Michael W. Deem and Ramdas Pophale) SiO2 
 PCOD9040427
Probable space group: P -1
;
_chemical_formula_sum "Si O2"
_cell_formula_units_Z 16
_cell_length_a 9.256859
_cell_length_b 14.723302
_cell_length_c 8.597265
_cell_angle_alpha 111.557395
_cell_angle_beta 101.623956
_cell_angle_gamma 127.610552
_cell_volume 704.578810
_symmetry_space_group_name_H-M "P -1"
_symmetry_group_IT_number 2
_symmetry_cell_setting 'triclinic'
loop_
_space_group_symop_operation_xyz
x,y,z
-x,-y,-z
loop_
_atom_site_type_symbol
_atom_site_label
_atom_site_fract_x
_atom_site_fract_y
_atom_site_fract_z
Si Si1 0.531995 0.601020 0.236237
Si Si2 0.824656 0.719559 0.088402
Si Si3 0.448314 0.231408 0.421700
Si Si4 0.667042 0.048100 0.704351
Si Si5 0.212792 0.106636 0.995673
Si Si6 0.122223 0.635961 0.501239
Si Si7 0.826911 0.452095 0.062782
Si Si8 0.591096 0.161540 0.025291
O O1 0.725333 0.663120 0.203243
O O2 0.632244 0.719247 0.463882
O O3 0.361473 0.431945 0.147219
O O4 0.371341 0.590507 0.092508
O O5 0.073250 0.801578 0.180380
O O6 0.827730 0.833513 0.106138
O O7 0.405178 0.235960 0.236892
O O8 0.710109 0.343116 0.556622
O O9 0.351126 0.077818 0.353107
O O10 0.500000 0.000000 0.500000
O O11 0.608321 0.074648 0.867890
O O12 0.332485 0.067783 0.934697
O O13 0.000000 0.000000 0.000000
O O14 0.270918 0.774416 0.740315
O O15 0.000000 0.500000 0.500000
O O16 0.943981 0.579865 0.298682
O O17 0.714161 0.306284 0.040073
O O18 0.000000 0.500000 0.000000
#
# Coordination Sequence:
#
# PCOD9040427 Si02
#       8
#     2   2   2   2   2   2   2   2
#     4  11  24  43  72 105 139 184 231 302 356 417
#     4  11  26  47  69 102 143 181 242 289 359 424
#     4  11  24  43  70 101 137 184 241 283 358 412
#     4  12  27  44  69 108 138 185 236 295 353 426
#     4  11  23  47  69  97 141 195 228 281 350 427
#     4   9  21  36  61 100 130 178 218 281 344 412
#     4  11  18  36  71 100 136 177 224 288 356 409
#     4  10  23  43  66  97 143 182 233 285 345 421
#
# _framework density 22.708603
#
# number of rings (size 3 to 8) (size 9 to 14) (size 15 to 20)
#    0.000    1.250    3.750    1.500    3.500    4.000 
#    0.000    2.500    0.000    0.000    0.000    0.000 
#    0.000    0.000    0.000    0.000    0.000    0.000 
#
# Total GULP energy -89279.863560 kJ/mol
# GULP energy per Si atom -5579.991472 kJ/mol
# Density = 2.265692 g / cm^3
# Si number density = 22.708603 Si / 1000 Ang^3
#
#
#
# Elastic Constant Matrix: (Units=GPa)
#
#
# Indices 1 2 3 4 5 6 
#
# 1 113.2883 44.9237 38.9215 10.6579 -13.3545 24.9628
# 2 44.9237 105.9071 4.4159 19.1716 0.6286 21.3348
# 3 38.9215 4.4159 75.0593 -9.4821 -11.2289 9.1685
# 4 10.6579 19.1716 -9.4821 27.7910 -3.1738 5.8310
# 5 -13.3545 0.6286 -11.2289 -3.1738 42.0392 -0.8017
# 6 24.9628 21.3348 9.1685 5.8310 -0.8017 36.7862
#
#
#
# Elastic Compliance Matrix: (Units=1/GPa)
#
#
# Indices 1 2 3 4 5 6 
#
# 1 0.014606 -0.004237 -0.006778 -0.003626 0.002521 -0.005135
# 2 -0.004237 0.013216 0.000786 -0.006607 -0.001908 -0.003980
# 3 -0.006778 0.000786 0.018715 0.009243 0.003495 -0.001909
# 4 -0.003626 -0.006607 0.009243 0.046320 0.004851 -0.003248
# 5 0.002521 -0.001908 0.003495 0.004851 0.025884 -0.001680
# 6 -0.005135 -0.003980 -0.001909 -0.003248 -0.001680 0.033931
#
#
# Mechanical properties :
#
#
# Convention : Reuss Voigt Hill
#
# Bulk Modulus (GPa) = 38.34732 52.30853 45.32792
# Shear Modulus (GPa) = 27.49923 35.05620 31.27772
#
# Velocity S-wave (km/s) = 3.48366 3.93331 3.71529
# Velocity P-wave (km/s) = 5.75366 6.61155 6.19746
#
# Compressibility (1/GPa) = 0.02607744
#
# Stress axis : x y z
#
# Youngs Moduli (GPa) = 68.46688 75.66729 53.43289
#
# Poissons Ratio (x) = 0.32060 0.36217
# Poissons Ratio (y) = 0.29009 -0.04197
# Poissons Ratio (z) = 0.46407 -0.05944
#
# Static dielectric constant tensor:
#      x y z
#    x 1.942130 0.005450 0.007440 
#    y 0.005450 1.846690 0.035050 
#    z 0.007440 0.035050 1.888970 
# 
# From -- ./inp_files/208430.got.cif
#   From: 2010.05.17/outbox.cif.g08.bks.cpg/sg2_105_cif.got.tgz:208430.got - 2010.06.03 11:33:40.
