data_PCOD9040022
_publ_section_title
;
Structure prediction by ZEFSAII (Michael W. Deem and Ramdas Pophale) SiO2 
 PCOD9040022
Probable space group: P -1
;
_chemical_formula_sum "Si O2"
_cell_formula_units_Z 12
_cell_length_a 12.381354
_cell_length_b 8.235831
_cell_length_c 13.907706
_cell_angle_alpha 132.547718
_cell_angle_beta 149.814565
_cell_angle_gamma 47.043897
_cell_volume 507.019531
_symmetry_space_group_name_H-M "P -1"
_symmetry_group_IT_number 2
_symmetry_cell_setting 'triclinic'
loop_
_space_group_symop_operation_xyz
x,y,z
-x,-y,-z
loop_
_atom_site_type_symbol
_atom_site_label
_atom_site_fract_x
_atom_site_fract_y
_atom_site_fract_z
Si Si1 0.531356 0.231920 0.160222
Si Si2 0.290066 0.649850 0.459505
Si Si3 0.856808 0.756963 0.718762
Si Si4 0.297850 0.894423 0.088594
Si Si5 0.743108 0.591554 0.369466
Si Si6 0.897533 0.728234 0.069538
O O1 0.640525 0.217995 0.344762
O O2 0.657846 0.372650 0.248534
O O3 0.274496 0.355253 0.028714
O O4 0.500000 0.000000 0.000000
O O5 0.500000 0.500000 0.500000
O O6 0.174290 0.467096 0.342742
O O7 0.098281 0.801727 0.305819
O O8 0.744339 0.963519 0.786517
O O9 0.740948 0.751441 0.525046
O O10 0.111200 0.754844 0.893238
O O11 0.228647 0.074857 0.021018
O O12 0.549651 0.740398 0.212043
O O13 0.000000 0.500000 0.500000
O O14 0.000000 0.500000 0.000000
#
# Coordination Sequence:
#
# PCOD9040022 Si02
#       6
#     2   2   2   2   2   2
#     4  11  27  50  73 109 151 199 249 310 373 440
#     4  11  22  45  77 108 145 193 249 306 367 445
#     4  10  23  42  74 110 142 191 248 309 370 435
#     4  11  24  44  77 110 147 188 249 308 376 440
#     4  11  27  50  73 105 152 200 250 300 370 448
#     4  12  24  46  76 110 146 195 245 311 374 447
#
# _framework density 23.667728
#
# number of rings (size 3 to 8) (size 9 to 14) (size 15 to 20)
#    0.000    1.000    3.333    1.500    4.667    4.000 
#    6.000    0.000    0.000    0.000    0.000    0.000 
#    0.000    0.000    0.000    0.000    0.000    0.000 
#
# Total GULP energy -67113.520642 kJ/mol
# GULP energy per Si atom -5592.793387 kJ/mol
# Density = 2.361386 g / cm^3
# Si number density = 23.667728 Si / 1000 Ang^3
#
#
#
# Elastic Constant Matrix: (Units=GPa)
#
#
# Indices 1 2 3 4 5 6 
#
# 1 93.4393 59.2396 71.0913 -10.6451 29.1729 10.2116
# 2 59.2396 104.0137 95.8766 -21.4432 7.0934 10.6871
# 3 71.0913 95.8766 198.8449 -8.6218 7.0970 6.9984
# 4 -10.6451 -21.4432 -8.6218 60.9312 -4.5999 -3.0685
# 5 29.1729 7.0934 7.0970 -4.5999 61.4100 1.7766
# 6 10.2116 10.6871 6.9984 -3.0685 1.7766 32.3757
#
#
#
# Elastic Compliance Matrix: (Units=1/GPa)
#
#
# Indices 1 2 3 4 5 6 
#
# 1 0.021567 -0.008544 -0.003197 -0.000503 -0.008844 -0.002853
# 2 -0.008544 0.022823 -0.007712 0.005519 0.002808 -0.002803
# 3 -0.003197 -0.007712 0.009732 -0.001750 0.001118 0.001223
# 4 -0.000503 0.005519 -0.001750 0.018124 0.001150 0.000370
# 5 -0.008844 0.002808 0.001118 0.001150 0.020100 0.000627
# 6 -0.002853 -0.002803 0.001223 0.000370 0.000627 0.032449
#
#
# Mechanical properties :
#
#
# Convention : Reuss Voigt Hill
#
# Bulk Modulus (GPa) = 65.71940 94.30144 80.01042
# Shear Modulus (GPa) = 29.62561 42.28273 35.95417
#
# Velocity S-wave (km/s) = 3.54182 4.23130 3.90182
# Velocity P-wave (km/s) = 6.67486 7.98763 7.36057
#
# Compressibility (1/GPa) = 0.01521621
#
# Stress axis : x y z
#
# Youngs Moduli (GPa) = 46.36769 43.81460 102.75539
#
# Poissons Ratio (x) = 0.37434 0.32849
# Poissons Ratio (y) = 0.39615 0.79250
# Poissons Ratio (z) = 0.14823 0.33792
#
# Static dielectric constant tensor:
#      x y z
#    x 1.936890 -0.007370 -0.048960 
#    y -0.007370 1.895820 -0.009970 
#    z -0.048960 -0.009970 1.959040 
# 
# From -- ./inp_files/512443.got.cif
#   From: 2010.05.17/outbox.cif.g08.bks.cpg/sg2_257_cif.got.tgz:512443.got - 2010.06.03 11:33:40.
