data_PCOD9040958
_publ_section_title
;
Structure prediction by ZEFSAII (Michael W. Deem and Ramdas Pophale) SiO2 
 PCOD9040958
Probable space group: P -1
;
_chemical_formula_sum "Si O2"
_cell_formula_units_Z 12
_cell_length_a 8.481241
_cell_length_b 11.905768
_cell_length_c 9.213401
_cell_angle_alpha 41.580000
_cell_angle_beta 62.871440
_cell_angle_gamma 84.358828
_cell_volume 500.929416
_symmetry_space_group_name_H-M "P -1"
_symmetry_group_IT_number 2
_symmetry_cell_setting 'triclinic'
loop_
_space_group_symop_operation_xyz
x,y,z
-x,-y,-z
loop_
_atom_site_type_symbol
_atom_site_label
_atom_site_fract_x
_atom_site_fract_y
_atom_site_fract_z
Si Si1 0.625712 0.773968 0.487653
Si Si2 0.933604 0.425546 0.762573
Si Si3 0.409814 0.886506 0.920269
Si Si4 0.806158 0.512373 0.006273
Si Si5 0.671400 0.491076 0.526784
Si Si6 0.214137 0.117494 0.360414
O O1 0.394992 0.668094 0.721059
O O2 0.688092 0.623253 0.530320
O O3 0.741167 0.860154 0.505829
O O4 0.639607 0.936131 0.211037
O O5 0.000000 0.500000 0.500000
O O6 0.132334 0.419051 0.736592
O O7 0.748885 0.233240 0.016962
O O8 0.872764 0.548789 0.775152
O O9 0.626826 0.945276 0.714605
O O10 0.373412 0.724701 0.211048
O O11 0.746469 0.677873 0.911913
O O12 0.000000 0.500000 0.000000
O O13 0.500000 0.500000 0.500000
O O14 0.000000 0.000000 0.500000
#
# Coordination Sequence:
#
# PCOD9040958 Si02
#       6
#     2   2   2   2   2   2
#     4  12  25  46  75 104 145 191 241 302 362 427
#     4  10  23  43  69  99 145 190 233 293 366 429
#     4  11  24  44  72 105 143 185 243 297 360 431
#     4  12  24  43  75 107 140 192 247 302 367 431
#     4  11  25  47  73 104 148 192 237 297 364 436
#     4  12  25  42  70 111 143 181 244 309 359 420
#
# _framework density 23.955473000000001
#
# number of rings (size 3 to 8) (size 9 to 14) (size 15 to 20)
#    0.000    0.667    3.333    5.000    2.333    1.333 
#    0.000    1.667    0.000    0.000    0.000    0.000 
#    0.000    0.000    0.000    0.000    0.000    0.000 
#
# Total GULP energy -66938.565348 kJ/mol
# GULP energy per Si atom -5578.213779 kJ/mol
# Density = 2.390095 g / cm^3
# Si number density = 23.955473 Si / 1000 Ang^3
#
#
#
# Elastic Constant Matrix: (Units=GPa)
#
#
# Indices 1 2 3 4 5 6 
#
# 1 151.7430 13.2003 44.9944 -16.5219 -10.1717 4.2658
# 2 13.2003 47.3362 22.7117 5.3999 7.9944 0.4591
# 3 44.9944 22.7117 73.4484 -18.5697 16.0602 2.5529
# 4 -16.5219 5.3999 -18.5697 30.1672 -9.4332 -5.3323
# 5 -10.1717 7.9944 16.0602 -9.4332 60.0278 -0.9189
# 6 4.2658 0.4591 2.5529 -5.3323 -0.9189 39.1525
#
#
#
# Elastic Compliance Matrix: (Units=1/GPa)
#
#
# Indices 1 2 3 4 5 6 
#
# 1 0.008716 -0.000887 -0.005086 0.002840 0.003400 -0.000141
# 2 -0.000887 0.028812 -0.011085 -0.013727 -0.003201 -0.001463
# 3 -0.005086 -0.011085 0.024273 0.013089 -0.003811 0.000795
# 4 0.002840 -0.013727 0.013089 0.048256 0.006478 0.005722
# 5 0.003400 -0.003201 -0.003811 0.006478 0.019718 0.001261
# 6 -0.000141 -0.001463 0.000795 0.005722 0.001261 0.026331
#
#
# Mechanical properties :
#
#
# Convention : Reuss Voigt Hill
#
# Bulk Modulus (GPa) = 36.12058 48.26006 42.19032
# Shear Modulus (GPa) = 25.06870 38.64425 31.85648
#
# Velocity S-wave (km/s) = 3.23843 4.02079 3.65063
# Velocity P-wave (km/s) = 5.39390 6.46104 5.95144
#
# Compressibility (1/GPa) = 0.02768505
#
# Stress axis : x y z
#
# Youngs Moduli (GPa) = 114.72604 34.70738 41.19764
#
# Poissons Ratio (x) = 0.03080 0.20952
# Poissons Ratio (y) = 0.10181 0.45669
# Poissons Ratio (z) = 0.58346 0.38474
#
# Static dielectric constant tensor:
#      x y z
#    x 2.088340 0.103160 0.031170 
#    y 0.103160 1.940580 0.025010 
#    z 0.031170 0.025010 1.957140 
# 
# From -- ./inp_files/183691.got.cif
#   From: 2010.05.17/outbox.cif.g08.bks.cpg/sg2_92_cif.got.tgz:183691.got - 2010.06.03 11:33:40.
