data_PCOD9040025
_publ_section_title
;
Structure prediction by ZEFSAII (Michael W. Deem and Ramdas Pophale) SiO2 
 PCOD9040025
Probable space group: P -1
;
_chemical_formula_sum "Si O2"
_cell_formula_units_Z 12
_cell_length_a 8.711613
_cell_length_b 9.092053
_cell_length_c 9.708553
_cell_angle_alpha 131.416245
_cell_angle_beta 98.650640
_cell_angle_gamma 75.834851
_cell_volume 559.072336
_symmetry_space_group_name_H-M "P -1"
_symmetry_group_IT_number 2
_symmetry_cell_setting 'triclinic'
loop_
_space_group_symop_operation_xyz
x,y,z
-x,-y,-z
loop_
_atom_site_type_symbol
_atom_site_label
_atom_site_fract_x
_atom_site_fract_y
_atom_site_fract_z
Si Si1 0.587875 0.984513 0.857741
Si Si2 0.531802 0.581255 0.910163
Si Si3 0.892006 0.657025 0.982691
Si Si4 0.567390 0.318514 0.502775
Si Si5 0.917385 0.079552 0.389222
Si Si6 0.053966 0.191260 0.193741
O O1 0.493383 0.879895 0.671153
O O2 0.757902 0.850153 0.802717
O O3 0.594655 0.212792 0.980671
O O4 0.500000 0.000000 0.000000
O O5 0.710354 0.621287 0.935343
O O6 0.503117 0.418283 0.696896
O O7 0.500000 0.500000 0.000000
O O8 0.974051 0.646116 0.834275
O O9 0.000000 0.500000 0.000000
O O10 0.886160 0.878045 0.184049
O O11 0.500000 0.500000 0.500000
O O12 0.755589 0.240057 0.491533
O O13 0.000182 0.190263 0.346205
O O14 0.000000 0.000000 0.500000
O O15 0.000000 0.000000 0.000000
#
# Coordination Sequence:
#
# PCOD9040025 Si02
#       6
#     2   2   2   2   2   2
#     4  12  22  47  74 102 141 184 240 298 350 431
#     4  12  28  43  71 104 143 184 238 296 358 418
#     4  11  23  45  68 102 143 186 236 293 355 425
#     4  12  25  45  75 104 140 191 241 292 361 428
#     4  11  25  45  71 106 147 183 239 299 356 432
#     4  10  23  42  74  96 139 192 226 288 368 416
#
# _framework density 21.464127999999999
#
# number of rings (size 3 to 8) (size 9 to 14) (size 15 to 20)
#    0.000    0.667    5.000    2.000    7.000    2.000 
#    0.000    5.833    0.000    0.000    0.000    0.000 
#    0.000    0.000    0.000    0.000    0.000    0.000 
#
# Total GULP energy -66873.138492 kJ/mol
# GULP energy per Si atom -5572.761541 kJ/mol
# Density = 2.141527 g / cm^3
# Si number density = 21.464128 Si / 1000 Ang^3
#
#
#
# Elastic Constant Matrix: (Units=GPa)
#
#
# Indices 1 2 3 4 5 6 
#
# 1 48.7180 20.6083 14.6304 -21.3731 1.1611 0.6694
# 2 20.6083 140.7819 32.9502 -26.3196 -38.6481 -2.8211
# 3 14.6304 32.9502 154.9165 -18.9697 -11.7320 11.3183
# 4 -21.3731 -26.3196 -18.9697 46.4192 2.7974 -9.8747
# 5 1.1611 -38.6481 -11.7320 2.7974 19.4785 -3.2808
# 6 0.6694 -2.8211 11.3183 -9.8747 -3.2808 40.7643
#
#
#
# Elastic Compliance Matrix: (Units=1/GPa)
#
#
# Indices 1 2 3 4 5 6 
#
# 1 0.028529 -0.006713 -0.001391 0.009897 -0.017201 0.000466
# 2 -0.006713 0.021659 -0.000234 0.007995 0.043280 0.007094
# 3 -0.001391 -0.000234 0.007202 0.001682 0.003494 -0.001305
# 4 0.009897 0.007995 0.001682 0.032408 0.013118 0.008830
# 5 -0.017201 0.043280 0.003494 0.013118 0.141298 0.016857
# 6 0.000466 0.007094 -0.001305 0.008830 0.016857 0.028872
#
#
# Mechanical properties :
#
#
# Convention : Reuss Voigt Hill
#
# Bulk Modulus (GPa) = 24.56249 53.42159 38.99204
# Shear Modulus (GPa) = 17.22848 39.74756 28.48802
#
# Velocity S-wave (km/s) = 2.83621 4.30794 3.64708
# Velocity P-wave (km/s) = 4.71103 7.04892 5.99504
#
# Compressibility (1/GPa) = 0.04071249
#
# Stress axis : x y z
#
# Youngs Moduli (GPa) = 35.05169 46.17016 138.84617
#
# Poissons Ratio (x) = 0.30995 0.19318
# Poissons Ratio (y) = 0.23531 0.03256
# Poissons Ratio (z) = 0.04877 0.01083
#
# Static dielectric constant tensor:
#      x y z
#    x 1.905890 -0.129760 0.153590 
#    y -0.129760 1.913440 -0.180280 
#    z 0.153590 -0.180280 1.854640 
# 
# From -- ./inp_files/156478.got.cif
#   From: 2010.05.17/outbox.cif.g08.bks.cpg/sg2_79_cif.got.tgz:156478.got - 2010.06.03 11:33:40.
