data_PCOD9040196
_publ_section_title
;
Structure prediction by ZEFSAII (Michael W. Deem and Ramdas Pophale) SiO2 
 PCOD9040196
Probable space group: P -1
;
_chemical_formula_sum "Si O2"
_cell_formula_units_Z 14
_cell_length_a 4.999922
_cell_length_b 15.133248
_cell_length_c 8.637261
_cell_angle_alpha 84.003469
_cell_angle_beta 111.119060
_cell_angle_gamma 70.532389
_cell_volume 555.740315
_symmetry_space_group_name_H-M "P -1"
_symmetry_group_IT_number 2
_symmetry_cell_setting 'triclinic'
loop_
_space_group_symop_operation_xyz
x,y,z
-x,-y,-z
loop_
_atom_site_type_symbol
_atom_site_label
_atom_site_fract_x
_atom_site_fract_y
_atom_site_fract_z
Si Si1 0.968992 0.237236 0.640893
Si Si2 0.366459 0.447826 0.110705
Si Si3 0.343035 0.282381 0.311771
Si Si4 0.037898 0.118907 0.950683
Si Si5 0.258828 0.934452 0.834574
Si Si6 0.229014 0.106567 0.440777
Si Si7 0.115043 0.577980 0.569163
O O1 0.636733 0.253131 0.493529
O O2 0.993249 0.337136 0.594020
O O3 0.986201 0.213688 0.827546
O O4 0.211113 0.151557 0.599965
O O5 0.423584 0.332362 0.167519
O O6 0.520539 0.463480 0.301192
O O7 0.500000 0.500000 0.000000
O O8 0.000000 0.500000 0.000000
O O9 0.253799 0.189202 0.316794
O O10 0.055680 0.367504 0.319985
O O11 0.045139 0.041458 0.834436
O O12 0.388724 0.074977 0.101318
O O13 0.776556 0.129863 0.018702
O O14 0.090657 0.907211 0.662486
O O15 0.500000 0.000000 0.500000
O O16 0.000000 0.500000 0.500000
#
# Coordination Sequence:
#
# PCOD9040196 Si02
#       7
#     2   2   2   2   2   2   2
#     4  10  24  42  71  98 138 184 237 285 347 421
#     4  11  22  45  73 102 142 187 224 299 366 414
#     4  10  23  44  71 103 144 177 242 289 345 432
#     4  10  23  43  64  95 138 179 227 288 344 398
#     4  10  24  41  64  95 138 179 229 286 340 404
#     4  11  25  42  71 102 141 193 239 282 348 420
#     4  10  23  46  73 104 137 180 237 293 354 431
#
# _framework density 25.191624000000001
#
# number of rings (size 3 to 8) (size 9 to 14) (size 15 to 20)
#    0.000    1.714    1.429    0.857   12.000    3.429 
#    5.143    0.000    0.000    0.000    0.000    0.000 
#    0.000    0.000    0.000    0.000    0.000    0.000 
#
# Total GULP energy -78271.128778 kJ/mol
# GULP energy per Si atom -5590.794913 kJ/mol
# Density = 2.513429 g / cm^3
# Si number density = 25.191624 Si / 1000 Ang^3
#
#
#
# Elastic Constant Matrix: (Units=GPa)
#
#
# Indices 1 2 3 4 5 6 
#
# 1 116.8646 45.3551 15.0719 -12.8830 4.3018 23.4583
# 2 45.3551 125.2241 48.0288 -3.1374 6.7923 29.4497
# 3 15.0719 48.0288 61.1776 -29.3642 -6.7004 16.1019
# 4 -12.8830 -3.1374 -29.3642 41.1819 10.9996 -1.6142
# 5 4.3018 6.7923 -6.7004 10.9996 53.7431 -11.5241
# 6 23.4583 29.4497 16.1019 -1.6142 -11.5241 43.0676
#
#
#
# Elastic Compliance Matrix: (Units=1/GPa)
#
#
# Indices 1 2 3 4 5 6 
#
# 1 0.011808 -0.004935 0.006065 0.008070 -0.002434 -0.005674
# 2 -0.004935 0.017064 -0.017315 -0.012142 -0.002196 -0.003550
# 3 0.006065 -0.017315 0.046646 0.033823 -0.001105 -0.007931
# 4 0.008070 -0.012142 0.033823 0.051615 -0.007339 -0.008767
# 5 -0.002434 -0.002196 -0.001105 -0.007339 0.022363 0.008949
# 6 -0.005674 -0.003550 -0.007931 -0.008767 0.008949 0.033768
#
#
# Mechanical properties :
#
#
# Convention : Reuss Voigt Hill
#
# Bulk Modulus (GPa) = 23.17538 57.79757 40.48647
# Shear Modulus (GPa) = 21.73771 40.58589 31.16180
#
# Velocity S-wave (km/s) = 2.94069 4.01819 3.52090
# Velocity P-wave (km/s) = 4.55520 6.67239 5.71273
#
# Compressibility (1/GPa) = 0.04314924
#
# Stress axis : x y z
#
# Youngs Moduli (GPa) = 84.68905 58.60428 21.43812
#
# Poissons Ratio (x) = 0.28918 -0.13003
# Poissons Ratio (y) = 0.41790 0.37120
# Poissons Ratio (z) = -0.51367 1.01473
#
# Static dielectric constant tensor:
#      x y z
#    x 2.105710 -0.006840 -0.064490 
#    y -0.006840 2.034750 -0.013210 
#    z -0.064490 -0.013210 1.988740 
# 
# From -- ./inp_files/135429.got.cif
#   From: 2010.05.17/outbox.cif.g08.bks.cpg/sg2_68_cif.got.tgz:135429.got - 2010.06.03 11:33:40.
