data_PCOD9040555
_publ_section_title
;
Structure prediction by ZEFSAII (Michael W. Deem and Ramdas Pophale) SiO2 
 PCOD9040555
Probable space group: P -1
;
_chemical_formula_sum "Si O2"
_cell_formula_units_Z 14
_cell_length_a 9.940731
_cell_length_b 14.269603
_cell_length_c 8.037828
_cell_angle_alpha 138.790996
_cell_angle_beta 72.674642
_cell_angle_gamma 116.187124
_cell_volume 672.922664
_symmetry_space_group_name_H-M "P -1"
_symmetry_group_IT_number 2
_symmetry_cell_setting 'triclinic'
loop_
_space_group_symop_operation_xyz
x,y,z
-x,-y,-z
loop_
_atom_site_type_symbol
_atom_site_label
_atom_site_fract_x
_atom_site_fract_y
_atom_site_fract_z
Si Si1 0.318480 0.450254 0.028900
Si Si2 0.830498 0.914046 0.386998
Si Si3 0.774152 0.625776 0.384733
Si Si4 0.304405 0.847512 0.768705
Si Si5 0.385851 0.147075 0.328592
Si Si6 0.064631 0.902378 0.719903
Si Si7 0.822613 0.454223 0.464995
O O1 0.237241 0.268277 0.841448
O O2 0.252794 0.476043 0.907579
O O3 0.500000 0.500000 0.000000
O O4 0.259847 0.514755 0.297288
O O5 0.728973 0.941191 0.605643
O O6 0.830039 0.984520 0.301419
O O7 0.000000 0.000000 0.500000
O O8 0.646982 0.705714 0.528591
O O9 0.786308 0.541323 0.437023
O O10 0.925658 0.772435 0.514216
O O11 0.450451 0.818123 0.609719
O O12 0.162663 0.819990 0.667849
O O13 0.245965 0.727217 0.778772
O O14 0.359567 0.024397 0.029565
O O15 0.000000 0.000000 0.000000
O O16 0.000000 0.500000 0.500000
#
# Coordination Sequence:
#
# PCOD9040555 Si02
#       7
#     2   2   2   2   2   2   2
#     4  11  26  46  68 103 144 185 234 285 346 426
#     4  11  21  40  73  96 124 180 238 275 331 413
#     4  11  23  46  73  97 135 189 236 280 346 423
#     4  11  24  42  63 101 141 166 227 298 336 409
#     4  10  23  43  67  96 132 177 229 288 341 403
#     4  12  21  40  70 100 129 176 231 285 342 403
#     4  12  26  42  71 102 140 182 228 284 358 411
#
# _framework density 20.804767999999999
#
# number of rings (size 3 to 8) (size 9 to 14) (size 15 to 20)
#    0.000    0.857    5.714    2.571    2.000    3.429 
#    5.143    0.000    0.000    0.000    0.000    0.000 
#    0.000    0.000    0.000    0.000    0.000    0.000 
#
# Total GULP energy -78052.390523 kJ/mol
# GULP energy per Si atom -5575.170752 kJ/mol
# Density = 2.075742 g / cm^3
# Si number density = 20.804768 Si / 1000 Ang^3
#
#
#
# Elastic Constant Matrix: (Units=GPa)
#
#
# Indices 1 2 3 4 5 6 
#
# 1 141.0304 63.1389 30.7215 -12.4267 -4.4927 3.1572
# 2 63.1389 148.0547 34.6768 -7.4478 -7.5075 -12.7022
# 3 30.7215 34.6768 60.2781 -3.7549 11.5516 -7.9915
# 4 -12.4267 -7.4478 -3.7549 37.5423 1.3387 6.6238
# 5 -4.4927 -7.5075 11.5516 1.3387 27.1438 5.6118
# 6 3.1572 -12.7022 -7.9915 6.6238 5.6118 41.7185
#
#
#
# Elastic Compliance Matrix: (Units=1/GPa)
#
#
# Indices 1 2 3 4 5 6 
#
# 1 0.009820 -0.003256 -0.003974 0.002687 0.002970 -0.003322
# 2 -0.003256 0.009462 -0.004210 -0.000075 0.003488 0.001864
# 3 -0.003974 -0.004210 0.024298 -0.000216 -0.013288 0.005495
# 4 0.002687 -0.000075 -0.000216 0.028329 0.000107 -0.004780
# 5 0.002970 0.003488 -0.013288 0.000107 0.045571 -0.007855
# 6 -0.003322 0.001864 0.005495 -0.004780 -0.007855 0.027657
#
#
# Mechanical properties :
#
#
# Convention : Reuss Voigt Hill
#
# Bulk Modulus (GPa) = 48.30735 67.38196 57.84465
# Shear Modulus (GPa) = 28.58499 36.00268 32.29383
#
# Velocity S-wave (km/s) = 3.71072 4.16444 3.94411
# Velocity P-wave (km/s) = 6.45206 7.45530 6.97175
#
# Compressibility (1/GPa) = 0.02070078
#
# Stress axis : x y z
#
# Youngs Moduli (GPa) = 101.83432 105.68752 41.15497
#
# Poissons Ratio (x) = 0.34414 0.16354
# Poissons Ratio (y) = 0.33160 0.17325
# Poissons Ratio (z) = 0.40467 0.44491
#
# Static dielectric constant tensor:
#      x y z
#    x 1.796600 0.003500 0.023640 
#    y 0.003500 1.871990 0.104270 
#    z 0.023640 0.104270 1.959710 
# 
# From -- ./inp_files/209280.got.cif
#   From: 2010.05.17/outbox.cif.g08.bks.cpg/sg2_105_cif.got.tgz:209280.got - 2010.06.03 11:33:40.
