data_PCOD9040810
_publ_section_title
;
Structure prediction by ZEFSAII (Michael W. Deem and Ramdas Pophale) SiO2 
 PCOD9040810
Probable space group: P -1
;
_chemical_formula_sum "Si O2"
_cell_formula_units_Z 16
_cell_length_a 14.841236
_cell_length_b 17.077897
_cell_length_c 5.291152
_cell_angle_alpha 77.126541
_cell_angle_beta 62.242750
_cell_angle_gamma 37.216948
_cell_volume 689.774839
_symmetry_space_group_name_H-M "P -1"
_symmetry_group_IT_number 2
_symmetry_cell_setting 'triclinic'
loop_
_space_group_symop_operation_xyz
x,y,z
-x,-y,-z
loop_
_atom_site_type_symbol
_atom_site_label
_atom_site_fract_x
_atom_site_fract_y
_atom_site_fract_z
Si Si1 0.128164 0.209303 0.886800
Si Si2 0.296595 0.761445 0.733793
Si Si3 0.268673 0.918019 0.372507
Si Si4 0.669623 0.938644 0.759735
Si Si5 0.940548 0.188840 0.325691
Si Si6 0.304680 0.600459 0.133035
Si Si7 0.594035 0.618839 0.154190
Si Si8 0.066055 0.504407 0.158898
O O1 0.275452 0.117611 0.553278
O O2 0.015333 0.356358 0.860439
O O3 0.195866 0.168007 0.116019
O O4 0.029693 0.187193 0.997233
O O5 0.234783 0.892046 0.699822
O O6 0.203744 0.780312 0.599564
O O7 0.501220 0.639739 0.510135
O O8 0.245374 0.726541 0.021476
O O9 0.421088 0.768377 0.152184
O O10 0.348114 0.954500 0.284828
O O11 0.092793 0.045061 0.367216
O O12 0.500000 0.000000 0.000000
O O13 0.834972 0.322990 0.524143
O O14 0.500000 0.500000 0.000000
O O15 0.322628 0.509242 0.006332
O O16 0.731737 0.602031 0.025051
O O17 0.000000 0.500000 0.500000
O O18 0.000000 0.500000 0.000000
#
# Coordination Sequence:
#
# PCOD9040810 Si02
#       8
#     2   2   2   2   2   2   2   2
#     4  11  27  45  78 105 146 192 250 309 374 455
#     4  10  23  43  69 100 151 188 247 300 375 446
#     4   9  24  44  69 106 142 191 245 315 365 451
#     4  11  25  51  75 105 142 198 251 311 376 442
#     4  11  24  44  70 107 148 196 244 297 385 448
#     4  12  24  41  73 107 147 206 243 305 374 460
#     4  10  25  46  69 107 147 190 258 306 381 449
#     4  12  29  49  78 109 149 196 255 322 388 443
#
# _framework density 23.195974
#
# number of rings (size 3 to 8) (size 9 to 14) (size 15 to 20)
#    0.750    0.500    1.250    2.625   14.000    0.500 
#    9.000    0.000    0.000    0.000    0.000    0.000 
#    0.000    0.000    0.000    0.000    0.000    0.000 
#
# Total GULP energy -89218.139462 kJ/mol
# GULP energy per Si atom -5576.133716 kJ/mol
# Density = 2.314318 g / cm^3
# Si number density = 23.195974 Si / 1000 Ang^3
#
#
#
# Elastic Constant Matrix: (Units=GPa)
#
#
# Indices 1 2 3 4 5 6 
#
# 1 101.4654 13.1228 27.7663 -2.6219 -29.5640 -14.9742
# 2 13.1228 114.8705 23.0049 -13.0531 -8.6288 13.0648
# 3 27.7663 23.0049 38.1250 26.3322 -6.7689 -24.9578
# 4 -2.6219 -13.0531 26.3322 24.6630 -8.2030 1.7955
# 5 -29.5640 -8.6288 -6.7689 -8.2030 31.9491 10.4768
# 6 -14.9742 13.0648 -24.9578 1.7955 10.4768 16.3065
#
#
#
# Elastic Compliance Matrix: (Units=1/GPa)
#
#
# Indices 1 2 3 4 5 6 
#
# 1 0.013971 -0.002958 0.002048 -0.000532 0.008102 0.013186
# 2 -0.002958 0.005739 0.007303 -0.006804 -0.003673 0.006973
# 3 0.002048 0.007303 -0.006563 0.018221 0.015721 -0.026123
# 4 -0.000532 -0.006804 0.018221 0.012454 -0.007088 0.036033
# 5 0.008102 -0.003673 0.015721 -0.007088 0.035176 0.012626
# 6 0.013186 0.006973 -0.026123 0.036033 0.012626 0.015786
#
#
# Mechanical properties :
#
#
# Convention : Reuss Voigt Hill
#
# Bulk Modulus (GPa) = 38.56151 42.47211 40.51681
# Shear Modulus (GPa) = 69.04139 27.28817 48.16478
#
# Velocity S-wave (km/s) = 5.46159 3.43362 4.56173
# Velocity P-wave (km/s) = 7.51214 5.83691 6.72688
#
# Compressibility (1/GPa) = 0.02593260
#
# Stress axis : x y z
#
# Youngs Moduli (GPa) = 71.57818 174.25583 -152.36651
#
# Poissons Ratio (x) = 0.51539 0.31203
# Poissons Ratio (y) = 0.21171 1.11273
# Poissons Ratio (z) = -0.14658 -1.27259
#
# Static dielectric constant tensor:
#      x y z
#    x 1.920830 -0.024360 0.068410 
#    y -0.024360 1.939460 -0.035550 
#    z 0.068410 -0.035550 1.975080 
# 
# From -- ./inp_files/99352.got.cif
#   From: 2010.05.17/outbox.cif.g08.bks.cpg/sg2_50_cif.got.tgz:99352.got - 2010.06.03 11:33:40.
