data_PCOD9040979
_publ_section_title
;
Structure prediction by ZEFSAII (Michael W. Deem and Ramdas Pophale) SiO2 
 PCOD9040979
Probable space group: P -1
;
_chemical_formula_sum "Si O2"
_cell_formula_units_Z 13
_cell_length_a 10.517280
_cell_length_b 13.709348
_cell_length_c 5.077319
_cell_angle_alpha 115.298229
_cell_angle_beta 72.245323
_cell_angle_gamma 131.028893
_cell_volume 498.976183
_symmetry_space_group_name_H-M "P -1"
_symmetry_group_IT_number 2
_symmetry_cell_setting 'triclinic'
loop_
_space_group_symop_operation_xyz
x,y,z
-x,-y,-z
loop_
_atom_site_type_symbol
_atom_site_label
_atom_site_fract_x
_atom_site_fract_y
_atom_site_fract_z
Si Si1 0.360067 0.780691 0.176675
Si Si2 0.500000 0.500000 0.500000
Si Si3 0.877728 0.938648 0.255727
Si Si4 0.945444 0.281352 0.986118
Si Si5 0.689527 0.470642 0.819127
Si Si6 0.228428 0.302630 0.641845
Si Si7 0.696814 0.037472 0.225897
O O1 0.361303 0.670128 0.204290
O O2 0.341148 0.868607 0.499225
O O3 0.529443 0.899320 0.052265
O O4 0.192598 0.704171 0.014807
O O5 0.341298 0.326409 0.359564
O O6 0.355423 0.465082 0.839321
O O7 0.778742 0.782294 0.214551
O O8 0.757729 0.980612 0.336159
O O9 0.000000 0.000000 0.500000
O O10 0.000000 0.000000 0.000000
O O11 0.105444 0.413597 0.185855
O O12 0.844033 0.141283 0.050364
O O13 0.048446 0.268343 0.676232
O O14 0.607066 0.466234 0.598523
#
# Coordination Sequence:
#
# PCOD9040979 Si02
#       7
#     2   1   2   2   2   2   2
#     4  11  24  47  67 104 145 191 256 308 381 457
#     4  12  24  44  70 104 148 188 246 322 372 466
#     4  12  25  47  77 112 153 200 257 315 385 462
#     4  10  23  43  70 101 137 188 243 311 375 454
#     4  10  25  44  71 103 139 192 248 310 385 446
#     4  10  25  43  68 105 141 194 252 308 383 443
#     4  11  25  43  71 107 144 196 249 310 387 447
#
# _framework density 26.053349000000001
#
# number of rings (size 3 to 8) (size 9 to 14) (size 15 to 20)
#    0.923    0.308    1.538    3.231    6.462    1.846 
#    0.000    0.000    0.000    0.000    0.000    0.000 
#    0.000    0.000    0.000    0.000    0.000    0.000 
#
# Total GULP energy -72551.137131 kJ/mol
# GULP energy per Si atom -5580.856702 kJ/mol
# Density = 2.599405 g / cm^3
# Si number density = 26.053349 Si / 1000 Ang^3
#
#
#
# Elastic Constant Matrix: (Units=GPa)
#
#
# Indices 1 2 3 4 5 6 
#
# 1 176.2672 89.3222 37.9965 1.1966 23.2987 -16.8639
# 2 89.3222 210.4561 49.2533 -39.6750 -5.9002 -3.4934
# 3 37.9965 49.2533 76.7690 -11.5157 20.4257 -7.0041
# 4 1.1966 -39.6750 -11.5157 43.9834 -4.7323 -3.6301
# 5 23.2987 -5.9002 20.4257 -4.7323 36.3871 -3.5292
# 6 -16.8639 -3.4934 -7.0041 -3.6301 -3.5292 61.2687
#
#
#
# Elastic Compliance Matrix: (Units=1/GPa)
#
#
# Indices 1 2 3 4 5 6 
#
# 1 0.009566 -0.005326 -0.000025 -0.005758 -0.007574 0.001549
# 2 -0.005326 0.010077 -0.004906 0.008875 0.008913 -0.000413
# 3 -0.000025 -0.004906 0.019296 -0.000516 -0.011560 0.001223
# 4 -0.005758 0.008875 -0.000516 0.031914 0.009693 0.001311
# 5 -0.007574 0.008913 -0.011560 0.009693 0.041533 0.000069
# 6 0.001549 -0.000413 0.001223 0.001311 0.000069 0.016946
#
#
# Mechanical properties :
#
#
# Convention : Reuss Voigt Hill
#
# Bulk Modulus (GPa) = 54.27848 90.73736 72.50792
# Shear Modulus (GPa) = 32.05370 47.45585 39.75478
#
# Velocity S-wave (km/s) = 3.51138 4.27252 3.91051
# Velocity P-wave (km/s) = 6.10889 7.69691 6.94841
#
# Compressibility (1/GPa) = 0.01842351
#
# Stress axis : x y z
#
# Youngs Moduli (GPa) = 104.53668 99.24020 51.82380
#
# Poissons Ratio (x) = 0.52860 0.00128
# Poissons Ratio (y) = 0.55681 0.25427
# Poissons Ratio (z) = 0.00258 0.48692
#
# Static dielectric constant tensor:
#      x y z
#    x 2.001870 0.096430 -0.083580 
#    y 0.096430 2.166430 -0.036780 
#    z -0.083580 -0.036780 2.245700 
# 
# From -- ./inp_files/36119.got.cif
#   From: 2010.05.17/outbox.cif.g08.bks.cpg/sg2_19_cif.got.tgz:36119.got - 2010.06.03 11:33:40.
