data_PCOD9040764
_publ_section_title
;
Structure prediction by ZEFSAII (Michael W. Deem and Ramdas Pophale) SiO2 
 PCOD9040764
Probable space group: P -1
;
_chemical_formula_sum "Si O2"
_cell_formula_units_Z 16
_cell_length_a 8.926657
_cell_length_b 12.198054
_cell_length_c 8.311356
_cell_angle_alpha 98.139539
_cell_angle_beta 53.861921
_cell_angle_gamma 98.952596
_cell_volume 720.568087
_symmetry_space_group_name_H-M "P -1"
_symmetry_group_IT_number 2
_symmetry_cell_setting 'triclinic'
loop_
_space_group_symop_operation_xyz
x,y,z
-x,-y,-z
loop_
_atom_site_type_symbol
_atom_site_label
_atom_site_fract_x
_atom_site_fract_y
_atom_site_fract_z
Si Si1 0.799981 0.511379 0.705654
Si Si2 0.511262 0.587443 0.652746
Si Si3 0.374598 0.195537 0.295432
Si Si4 0.085617 0.247733 0.715284
Si Si5 0.173568 0.443031 0.944879
Si Si6 0.808614 0.967011 0.210886
Si Si7 0.602146 0.055044 0.655427
Si Si8 0.319824 0.731401 0.140288
O O1 0.681018 0.565794 0.656884
O O2 0.699861 0.387678 0.782154
O O3 0.000000 0.500000 0.500000
O O4 0.831017 0.581687 0.866785
O O5 0.500000 0.500000 0.500000
O O6 0.513852 0.716931 0.631839
O O7 0.333946 0.542787 0.856040
O O8 0.167776 0.227081 0.479470
O O9 0.385595 0.065147 0.290178
O O10 0.487377 0.238123 0.073981
O O11 0.185234 0.344402 0.787496
O O12 0.132416 0.136732 0.748817
O O13 0.868630 0.265337 0.845310
O O14 0.000000 0.500000 0.000000
O O15 0.619881 0.935563 0.222667
O O16 0.722029 0.048479 0.413365
O O17 0.000000 0.000000 0.000000
O O18 0.684914 0.163044 0.718293
#
# Coordination Sequence:
#
# PCOD9040764 Si02
#       8
#     2   2   2   2   2   2   2   2
#     4  12  27  43  66 105 140 182 242 290 356 429
#     4  12  24  42  72  97 136 182 228 292 360 418
#     4  11  23  43  68 100 137 182 235 288 357 419
#     4  11  24  42  70  99 137 186 235 287 354 426
#     4  12  23  44  67  99 137 181 230 291 352 417
#     4  10  23  43  68  98 138 182 238 290 356 415
#     4  10  25  42  68 103 137 182 239 294 348 422
#     4  12  25  44  68 100 144 184 234 297 352 418
#
# _framework density 22.204699999999999
#
# number of rings (size 3 to 8) (size 9 to 14) (size 15 to 20)
#    0.000    0.750    3.750    3.000    1.750    5.000 
#    0.000    0.000    0.000    0.000    0.000    0.000 
#    0.000    0.000    0.000    0.000    0.000    0.000 
#
# Total GULP energy -89139.866637 kJ/mol
# GULP energy per Si atom -5571.241665 kJ/mol
# Density = 2.215416 g / cm^3
# Si number density = 22.204700 Si / 1000 Ang^3
#
#
#
# Elastic Constant Matrix: (Units=GPa)
#
#
# Indices 1 2 3 4 5 6 
#
# 1 102.0307 32.9137 28.8727 5.1038 -9.4267 -0.5986
# 2 32.9137 114.5376 32.4968 0.2655 10.1625 4.7752
# 3 28.8727 32.4968 130.5129 -7.0633 -22.9409 5.7274
# 4 5.1038 0.2655 -7.0633 30.8762 7.6668 2.5677
# 5 -9.4267 10.1625 -22.9409 7.6668 36.9693 7.5399
# 6 -0.5986 4.7752 5.7274 2.5677 7.5399 36.5400
#
#
#
# Elastic Compliance Matrix: (Units=1/GPa)
#
#
# Indices 1 2 3 4 5 6 
#
# 1 0.011748 -0.003340 -0.001300 -0.003154 0.003702 0.000290
# 2 -0.003340 0.011077 -0.003022 0.001259 -0.006061 0.000133
# 3 -0.001300 -0.003022 0.010133 0.001016 0.007139 -0.002759
# 4 -0.003154 0.001259 0.001016 0.035109 -0.007539 -0.001287
# 5 0.003702 -0.006061 0.007139 -0.007539 0.037163 -0.007405
# 6 0.000290 0.000133 -0.002759 -0.001287 -0.007405 0.029406
#
#
# Mechanical properties :
#
#
# Convention : Reuss Voigt Hill
#
# Bulk Modulus (GPa) = 56.71051 59.51642 58.11347
# Shear Modulus (GPa) = 32.08433 37.73030 34.90732
#
# Velocity S-wave (km/s) = 3.80535 4.12661 3.96923
# Velocity P-wave (km/s) = 6.70096 7.04038 6.87277
#
# Compressibility (1/GPa) = 0.01763341
#
# Stress axis : x y z
#
# Youngs Moduli (GPa) = 85.12183 90.27416 98.68596
#
# Poissons Ratio (x) = 0.30155 0.12828
# Poissons Ratio (y) = 0.28434 0.29825
# Poissons Ratio (z) = 0.11065 0.27283
#
# Static dielectric constant tensor:
#      x y z
#    x 1.796260 0.036290 0.020940 
#    y 0.036290 1.877990 -0.026690 
#    z 0.020940 -0.026690 1.995640 
# 
# From -- ./inp_files/188231.got.cif
#   From: 2010.05.17/outbox.cif.g08.bks.cpg/sg2_95_cif.got.tgz:188231.got - 2010.06.03 11:33:40.
