data_PCOD9040015
_publ_section_title
;
Structure prediction by ZEFSAII (Michael W. Deem and Ramdas Pophale) SiO2 
 PCOD9040015
Probable space group: P -1
;
_chemical_formula_sum "Si O2"
_cell_formula_units_Z 13
_cell_length_a 14.346812
_cell_length_b 10.436013
_cell_length_c 9.359286
_cell_angle_alpha 46.111604
_cell_angle_beta 118.283066
_cell_angle_gamma 145.100839
_cell_volume 562.340096
_symmetry_space_group_name_H-M "P -1"
_symmetry_group_IT_number 2
_symmetry_cell_setting 'triclinic'
loop_
_space_group_symop_operation_xyz
x,y,z
-x,-y,-z
loop_
_atom_site_type_symbol
_atom_site_label
_atom_site_fract_x
_atom_site_fract_y
_atom_site_fract_z
Si Si1 0.373422 0.225117 0.814025
Si Si2 0.656674 0.836996 0.845962
Si Si3 0.963034 0.272291 0.559877
Si Si4 0.848514 0.281721 0.169657
Si Si5 0.500000 0.000000 0.500000
Si Si6 0.348288 0.669564 0.105129
Si Si7 0.292062 0.530631 0.488393
O O1 0.562328 0.395358 0.826587
O O2 0.351238 0.405611 0.644552
O O3 0.284983 0.017445 0.776360
O O4 0.290667 0.059230 0.031954
O O5 0.815858 0.979519 0.762452
O O6 0.591298 0.929416 0.653164
O O7 0.500000 0.500000 0.000000
O O8 0.902660 0.262744 0.369759
O O9 0.000000 0.500000 0.500000
O O10 0.127476 0.366584 0.586449
O O11 0.767446 0.373278 0.055262
O O12 0.000000 0.500000 0.000000
O O13 0.564989 0.159064 0.582118
O O14 0.256204 0.519128 0.304939
O O15 0.500000 0.000000 0.000000
#
# Coordination Sequence:
#
# PCOD9040015 Si02
#       7
#     2   2   2   2   1   2   2
#     4  11  26  45  72 108 148 193 261 306 372 457
#     4  12  27  48  72 115 149 203 255 310 385 459
#     4  12  27  46  78 109 155 200 252 316 388 458
#     4  11  23  48  74 106 147 199 251 315 384 449
#     4  12  24  46  76 102 156 198 248 312 386 450
#     4  10  23  42  74 102 142 189 251 307 371 440
#     4  12  25  47  71 112 147 198 256 315 377 456
#
# _framework density 23.117683
#
# number of rings (size 3 to 8) (size 9 to 14) (size 15 to 20)
#    0.000    0.615    4.615    3.231    6.462    2.462 
#    2.769    0.000    0.000    0.000    0.000    0.000 
#    0.000    0.000    0.000    0.000    0.000    0.000 
#
# Total GULP energy -72514.798804 kJ/mol
# GULP energy per Si atom -5578.061446 kJ/mol
# Density = 2.306507 g / cm^3
# Si number density = 23.117683 Si / 1000 Ang^3
#
#
#
# Elastic Constant Matrix: (Units=GPa)
#
#
# Indices 1 2 3 4 5 6 
#
# 1 160.9697 19.1861 38.5960 -16.5565 10.6464 0.2939
# 2 19.1861 61.6622 9.1188 14.3484 -4.1770 -14.4121
# 3 38.5960 9.1188 52.8124 13.7500 -13.0815 4.5497
# 4 -16.5565 14.3484 13.7500 40.1839 -0.3203 -7.7104
# 5 10.6464 -4.1770 -13.0815 -0.3203 51.9175 1.7311
# 6 0.2939 -14.4121 4.5497 -7.7104 1.7311 23.6740
#
#
#
# Elastic Compliance Matrix: (Units=1/GPa)
#
#
# Indices 1 2 3 4 5 6 
#
# 1 0.010901 -0.003585 -0.011775 0.010479 -0.005552 0.003764
# 2 -0.003585 0.021584 0.000418 -0.007281 0.002180 0.010573
# 3 -0.011775 0.000418 0.036971 -0.020279 0.012112 -0.014195
# 4 0.010479 -0.007281 -0.020279 0.041240 -0.008035 0.013354
# 5 -0.005552 0.002180 0.012112 -0.008035 0.023754 -0.005286
# 6 0.003764 0.010573 -0.014195 0.013354 -0.005286 0.056094
#
#
# Mechanical properties :
#
#
# Convention : Reuss Voigt Hill
#
# Bulk Modulus (GPa) = 25.27089 45.47180 35.37134
# Shear Modulus (GPa) = 21.40232 37.05798 29.23015
#
# Velocity S-wave (km/s) = 3.04599 4.00811 3.55971
# Velocity P-wave (km/s) = 4.82969 6.41345 5.67707
#
# Compressibility (1/GPa) = 0.03957122
#
# Stress axis : x y z
#
# Youngs Moduli (GPa) = 91.73328 46.33001 27.04830
#
# Poissons Ratio (x) = 0.16610 0.31850
# Poissons Ratio (y) = 0.32888 -0.01130
# Poissons Ratio (z) = 1.08019 -0.01936
#
# Static dielectric constant tensor:
#      x y z
#    x 1.910890 0.006630 -0.026120 
#    y 0.006630 1.896830 -0.021150 
#    z -0.026120 -0.021150 1.861260 
# 
# From -- ./inp_files/236918.got.cif
#   From: 2010.05.17/outbox.cif.g08.bks.cpg/sg2_119_cif.got.tgz:236918.got - 2010.06.03 11:33:40.
