data_PCOD9040260
_publ_section_title
;
Structure prediction by ZEFSAII (Michael W. Deem and Ramdas Pophale) SiO2 
 PCOD9040260
Probable space group: P -1
;
_chemical_formula_sum "Si O2"
_cell_formula_units_Z 12
_cell_length_a 7.972127
_cell_length_b 11.798811
_cell_length_c 11.882971
_cell_angle_alpha 35.438722
_cell_angle_beta 125.036971
_cell_angle_gamma 134.293883
_cell_volume 463.850592
_symmetry_space_group_name_H-M "P -1"
_symmetry_group_IT_number 2
_symmetry_cell_setting 'triclinic'
loop_
_space_group_symop_operation_xyz
x,y,z
-x,-y,-z
loop_
_atom_site_type_symbol
_atom_site_label
_atom_site_fract_x
_atom_site_fract_y
_atom_site_fract_z
Si Si1 0.793658 0.200829 0.047920
Si Si2 0.070164 0.107521 0.565058
Si Si3 0.853480 0.451117 0.667154
Si Si4 0.326233 0.624019 0.572945
Si Si5 0.657964 0.474260 0.938186
Si Si6 0.639907 0.947474 0.691751
O O1 0.756636 0.225507 0.882951
O O2 0.666449 0.304233 0.988520
O O3 0.075290 0.365752 0.048396
O O4 0.739520 0.959363 0.266344
O O5 0.122588 0.361478 0.384548
O O6 0.000000 0.000000 0.500000
O O7 0.878726 0.006883 0.673384
O O8 0.720591 0.478148 0.486694
O O9 0.103086 0.502134 0.668684
O O10 0.538629 0.608183 0.726301
O O11 0.336268 0.863435 0.364668
O O12 0.504085 0.699472 0.887704
O O13 0.500000 0.000000 0.500000
#
# Coordination Sequence:
#
# PCOD9040260 Si02
#       6
#     2   2   2   2   2   2
#     4  11  23  39  62  92 127 165 208 258 312 367
#     4  11  22  39  64  93 126 163 206 256 310 370
#     4  10  23  43  65  91 126 165 204 258 316 369
#     4  10  23  43  65  92 125 162 209 258 313 372
#     4  11  23  40  64  93 125 165 211 259 308 367
#     4  11  22  38  65  94 122 162 211 259 306 367
#
# _framework density 25.870398999999999
#
# number of rings (size 3 to 8) (size 9 to 14) (size 15 to 20)
#    0.000    1.333    0.000    7.000    0.000    5.333 
#    0.000    7.500    0.000    0.000    0.000    0.000 
#    0.000    0.000    0.000    0.000    0.000    0.000 
#
# Total GULP energy -67164.756320 kJ/mol
# GULP energy per Si atom -5597.063027 kJ/mol
# Density = 2.581152 g / cm^3
# Si number density = 25.870399 Si / 1000 Ang^3
#
#
#
# Elastic Constant Matrix: (Units=GPa)
#
#
# Indices 1 2 3 4 5 6 
#
# 1 127.7747 23.8103 49.2786 -0.0586 -3.3555 -7.5214
# 2 23.8103 61.1223 33.9870 9.8285 7.1426 -24.3040
# 3 49.2786 33.9870 155.5805 3.0278 5.0983 -14.3392
# 4 -0.0586 9.8285 3.0278 51.1191 -3.1162 2.8411
# 5 -3.3555 7.1426 5.0983 -3.1162 43.3195 -5.2012
# 6 -7.5214 -24.3040 -14.3392 2.8411 -5.2012 42.4790
#
#
#
# Elastic Compliance Matrix: (Units=1/GPa)
#
#
# Indices 1 2 3 4 5 6 
#
# 1 0.009298 -0.002831 -0.002453 0.000827 0.001454 -0.000679
# 2 -0.002831 0.025794 -0.003320 -0.005675 -0.002910 0.013159
# 3 -0.002453 -0.003320 0.007971 0.000115 -0.000539 0.000284
# 4 0.000827 -0.005675 0.000115 0.021003 0.001990 -0.004223
# 5 0.001454 -0.002910 -0.000539 0.001990 0.024030 0.001220
# 6 -0.000679 0.013159 0.000284 -0.004223 0.001220 0.031477
#
#
# Mechanical properties :
#
#
# Convention : Reuss Voigt Hill
#
# Bulk Modulus (GPa) = 38.67401 62.06992 50.37196
# Shear Modulus (GPa) = 34.38779 43.21030 38.79905
#
# Velocity S-wave (km/s) = 3.64982 4.09132 3.87686
# Velocity P-wave (km/s) = 5.72216 6.80905 6.28913
#
# Compressibility (1/GPa) = 0.02585716
#
# Stress axis : x y z
#
# Youngs Moduli (GPa) = 107.54470 38.76823 125.45092
#
# Poissons Ratio (x) = 0.10974 0.30774
# Poissons Ratio (y) = 0.30444 0.41644
# Poissons Ratio (z) = 0.26381 0.12869
#
# Static dielectric constant tensor:
#      x y z
#    x 2.141990 -0.008780 0.060280 
#    y -0.008780 2.305390 -0.049870 
#    z 0.060280 -0.049870 2.022110 
# 
# From -- ./inp_files/180606.got.cif
#   From: 2010.05.17/outbox.cif.g08.bks.cpg/sg2_91_cif.got.tgz:180606.got - 2010.06.03 11:33:40.
