data_PCOD9040175
_publ_section_title
;
Structure prediction by ZEFSAII (Michael W. Deem and Ramdas Pophale) SiO2 
 PCOD9040175
Probable space group: P -1
;
_chemical_formula_sum "Si O2"
_cell_formula_units_Z 14
_cell_length_a 8.880678
_cell_length_b 16.995796
_cell_length_c 8.348666
_cell_angle_alpha 54.619977
_cell_angle_beta 33.558936
_cell_angle_gamma 49.279724
_cell_volume 526.052746
_symmetry_space_group_name_H-M "P -1"
_symmetry_group_IT_number 2
_symmetry_cell_setting 'triclinic'
loop_
_space_group_symop_operation_xyz
x,y,z
-x,-y,-z
loop_
_atom_site_type_symbol
_atom_site_label
_atom_site_fract_x
_atom_site_fract_y
_atom_site_fract_z
Si Si1 0.392358 0.091352 0.851050
Si Si2 0.385250 0.619081 0.901136
Si Si3 0.243900 0.284743 0.966632
Si Si4 0.919628 0.023377 0.231176
Si Si5 0.134976 0.790386 0.382193
Si Si6 0.110055 0.321540 0.501101
Si Si7 0.297476 0.475035 0.578965
O O1 0.386981 0.197606 0.807706
O O2 0.592901 0.062281 0.547509
O O3 0.500000 0.000000 0.000000
O O4 0.071403 0.098818 0.074492
O O5 0.482244 0.603476 0.651513
O O6 0.569006 0.678751 0.755500
O O7 0.500000 0.500000 0.000000
O O8 0.052534 0.663652 0.201397
O O9 0.129152 0.405261 0.881010
O O10 0.515900 0.270059 0.864266
O O11 0.000785 0.250677 0.302975
O O12 0.075107 0.910697 0.307746
O O13 0.000000 0.000000 0.000000
O O14 0.947569 0.772193 0.422544
O O15 0.922114 0.422758 0.438749
O O16 0.500000 0.500000 0.500000
#
# Coordination Sequence:
#
# PCOD9040175 Si02
#       7
#     2   2   2   2   2   2   2
#     4  12  23  46  74  97 139 182 222 282 347 407
#     4  10  23  43  64  91 130 182 219 267 337 388
#     4  12  26  41  70 103 133 177 230 276 336 404
#     4  12  26  45  73 106 137 176 231 287 343 408
#     4  12  24  43  68 102 135 179 221 278 346 398
#     4  11  24  44  68  92 140 179 214 276 336 396
#     4  11  24  44  67 102 132 175 230 278 322 399
#
# _framework density 26.613302000000001
#
# number of rings (size 3 to 8) (size 9 to 14) (size 15 to 20)
#    0.000    0.571    4.286    4.286    2.000    6.286 
#    0.000    0.000    0.000    0.000    0.000    0.000 
#    0.000    0.000    0.000    0.000    0.000    0.000 
#
# Total GULP energy -78536.669938 kJ/mol
# GULP energy per Si atom -5609.762138 kJ/mol
# Density = 2.655273 g / cm^3
# Si number density = 26.613302 Si / 1000 Ang^3
#
#
#
# Elastic Constant Matrix: (Units=GPa)
#
#
# Indices 1 2 3 4 5 6 
#
# 1 118.3768 27.9646 39.0882 -8.6590 -8.5286 14.6015
# 2 27.9646 98.5373 22.7563 -27.4391 9.8013 6.2692
# 3 39.0882 22.7563 148.7568 -11.4744 -1.8165 -6.8411
# 4 -8.6590 -27.4391 -11.4744 44.5629 10.2845 1.9574
# 5 -8.5286 9.8013 -1.8165 10.2845 47.7712 0.2441
# 6 14.6015 6.2692 -6.8411 1.9574 0.2441 50.3889
#
#
#
# Elastic Compliance Matrix: (Units=1/GPa)
#
#
# Indices 1 2 3 4 5 6 
#
# 1 0.010385 -0.002610 -0.002489 -0.000664 0.002453 -0.003009
# 2 -0.002610 0.014367 -0.000920 0.009431 -0.005471 -0.001496
# 3 -0.002489 -0.000920 0.007668 0.000881 -0.000163 0.001843
# 4 -0.000664 0.009431 0.000881 0.030407 -0.008556 -0.002001
# 5 0.002453 -0.005471 -0.000163 -0.008556 0.024329 0.000162
# 6 -0.003009 -0.001496 0.001843 -0.002001 0.000162 0.021231
#
#
# Mechanical properties :
#
#
# Convention : Reuss Voigt Hill
#
# Bulk Modulus (GPa) = 49.06380 60.58768 54.82574
# Shear Modulus (GPa) = 39.30188 46.93539 43.11863
#
# Velocity S-wave (km/s) = 3.84705 4.20409 4.02953
# Velocity P-wave (km/s) = 6.18134 6.81037 6.50346
#
# Compressibility (1/GPa) = 0.02038162
#
# Stress axis : x y z
#
# Youngs Moduli (GPa) = 96.28865 69.60299 130.41241
#
# Poissons Ratio (x) = 0.18166 0.32464
# Poissons Ratio (y) = 0.25131 0.12001
# Poissons Ratio (z) = 0.23969 0.06405
#
# Static dielectric constant tensor:
#      x y z
#    x 2.126840 -0.014260 0.072860 
#    y -0.014260 2.032870 0.041190 
#    z 0.072860 0.041190 2.072180 
# 
# From -- ./inp_files/216883.got.cif
#   From: 2010.05.17/outbox.cif.g08.bks.cpg/sg2_109_cif.got.tgz:216883.got - 2010.06.03 11:33:40.
