data_PCOD9040658
_publ_section_title
;
Structure prediction by ZEFSAII (Michael W. Deem and Ramdas Pophale) SiO2 
 PCOD9040658
Probable space group: P -1
;
_chemical_formula_sum "Si O2"
_cell_formula_units_Z 16
_cell_length_a 5.028316
_cell_length_b 20.021815
_cell_length_c 11.540024
_cell_angle_alpha 128.069361
_cell_angle_beta 129.410286
_cell_angle_gamma 71.111151
_cell_volume 702.278762
_symmetry_space_group_name_H-M "P -1"
_symmetry_group_IT_number 2
_symmetry_cell_setting 'triclinic'
loop_
_space_group_symop_operation_xyz
x,y,z
-x,-y,-z
loop_
_atom_site_type_symbol
_atom_site_label
_atom_site_fract_x
_atom_site_fract_y
_atom_site_fract_z
Si Si1 0.530668 0.709586 0.535113
Si Si2 0.605942 0.030356 0.192033
Si Si3 0.387262 0.546405 0.173201
Si Si4 0.138038 0.252145 0.088611
Si Si5 0.831925 0.779013 0.329076
Si Si6 0.756310 0.850270 0.604277
Si Si7 0.634932 0.379582 0.006324
Si Si8 0.447092 0.144034 0.867735
O O1 0.454419 0.613390 0.366428
O O2 0.637871 0.718910 0.706601
O O3 0.833612 0.766821 0.608724
O O4 0.191770 0.755639 0.455667
O O5 0.379670 0.090060 0.269671
O O6 0.961014 0.088129 0.322253
O O7 0.599419 0.947081 0.180866
O O8 0.500000 0.000000 0.000000
O O9 0.623579 0.469227 0.162802
O O10 0.441531 0.599022 0.125380
O O11 0.000000 0.500000 0.000000
O O12 0.968432 0.332617 0.075397
O O13 0.364756 0.210976 0.013307
O O14 0.827206 0.178056 0.959514
O O15 0.578872 0.802515 0.389327
O O16 0.823206 0.851882 0.308556
O O17 0.675076 0.693271 0.128374
#
# Coordination Sequence:
#
# PCOD9040658 Si02
#       8
#     2   2   2   2   2   2   2   2
#     4  12  24  44  70 103 140 182 234 285 347 404
#     4  12  25  45  68 100 143 182 229 286 349 410
#     4  11  22  40  72  99 137 182 230 281 343 414
#     4  11  26  44  73  99 143 181 231 283 344 416
#     4  11  24  44  73  99 141 182 234 284 343 416
#     4  12  25  42  70 100 137 181 234 283 341 407
#     4  10  23  43  68 103 135 183 229 278 349 411
#     4  11  26  47  71 101 138 189 229 282 352 411
#
# _framework density 22.782972999999998
#
# number of rings (size 3 to 8) (size 9 to 14) (size 15 to 20)
#    0.000    0.750    3.750    3.375    5.250    1.500 
#    0.000    0.625    0.000    0.000    0.000    0.000 
#    0.000    0.000    0.000    0.000    0.000    0.000 
#
# Total GULP energy -89316.907818 kJ/mol
# GULP energy per Si atom -5582.306739 kJ/mol
# Density = 2.273112 g / cm^3
# Si number density = 22.782973 Si / 1000 Ang^3
#
#
#
# Elastic Constant Matrix: (Units=GPa)
#
#
# Indices 1 2 3 4 5 6 
#
# 1 79.1659 5.9416 20.6176 7.2938 -14.9105 13.2506
# 2 5.9416 87.8595 42.9017 21.2355 0.4956 10.8136
# 3 20.6176 42.9017 121.3831 6.2300 -29.0971 -10.0573
# 4 7.2938 21.2355 6.2300 37.7897 -1.9159 -2.0139
# 5 -14.9105 0.4956 -29.0971 -1.9159 36.5111 -2.2018
# 6 13.2506 10.8136 -10.0573 -2.0139 -2.2018 27.7075
#
#
#
# Elastic Compliance Matrix: (Units=1/GPa)
#
#
# Indices 1 2 3 4 5 6 
#
# 1 0.016071 0.003228 -0.003890 -0.004705 0.002539 -0.010498
# 2 0.003228 0.021461 -0.011038 -0.012165 -0.009346 -0.015553
# 3 -0.003890 -0.011038 0.016778 0.005579 0.013051 0.013701
# 4 -0.004705 -0.012165 0.005579 0.034186 0.005203 0.011922
# 5 0.002539 -0.009346 0.013051 0.005203 0.039873 0.010717
# 6 -0.010498 -0.015553 0.013701 0.011922 0.010717 0.053873
#
#
# Mechanical properties :
#
#
# Convention : Reuss Voigt Hill
#
# Bulk Modulus (GPa) = 32.35308 47.48116 39.91712
# Shear Modulus (GPa) = 23.15400 34.99815 29.07608
#
# Velocity S-wave (km/s) = 3.19138 3.92363 3.57630
# Velocity P-wave (km/s) = 5.27364 6.43525 5.88318
#
# Compressibility (1/GPa) = 0.03090896
#
# Stress axis : x y z
#
# Youngs Moduli (GPa) = 62.22202 46.59699 59.60293
#
# Poissons Ratio (x) = -0.15040 0.23187
# Poissons Ratio (y) = -0.20084 0.65789
# Poissons Ratio (z) = 0.24206 0.51433
#
# Static dielectric constant tensor:
#      x y z
#    x 2.001450 -0.003890 0.048270 
#    y -0.003890 1.900060 0.022260 
#    z 0.048270 0.022260 1.906700 
# 
# From -- ./inp_files/126420.got.cif
#   From: 2010.05.17/outbox.cif.g08.bks.cpg/sg2_64_cif.got.tgz:126420.got - 2010.06.03 11:33:40.
