data_PCOD9040659
_publ_section_title
;
Structure prediction by ZEFSAII (Michael W. Deem and Ramdas Pophale) SiO2 
 PCOD9040659
Probable space group: P -1
;
_chemical_formula_sum "Si O2"
_cell_formula_units_Z 14
_cell_length_a 23.052585
_cell_length_b 11.113086
_cell_length_c 10.536152
_cell_angle_alpha 37.485324
_cell_angle_beta 145.473938
_cell_angle_gamma 154.744669
_cell_volume 639.517138
_symmetry_space_group_name_H-M "P -1"
_symmetry_group_IT_number 2
_symmetry_cell_setting 'triclinic'
loop_
_space_group_symop_operation_xyz
x,y,z
-x,-y,-z
loop_
_atom_site_type_symbol
_atom_site_label
_atom_site_fract_x
_atom_site_fract_y
_atom_site_fract_z
Si Si1 0.007213 0.524440 0.646936
Si Si2 0.343311 0.871364 0.026972
Si Si3 0.771024 0.951934 0.866571
Si Si4 0.001154 0.038922 0.619393
Si Si5 0.676581 0.549568 0.514911
Si Si6 0.437598 0.130844 0.249018
Si Si7 0.478796 0.359997 0.709774
O O1 0.167220 0.654713 0.866606
O O2 0.992945 0.727379 0.511411
O O3 0.000000 0.500000 0.500000
O O4 0.871085 0.209308 0.728798
O O5 0.439454 0.080449 0.905457
O O6 0.381289 0.702330 0.283399
O O7 0.395476 0.072427 0.075365
O O8 0.705044 0.008085 0.807672
O O9 0.625585 0.639260 0.812416
O O10 0.869824 0.915996 0.131171
O O11 0.843103 0.729089 0.635458
O O12 0.000000 0.000000 0.500000
O O13 0.579203 0.444681 0.299680
O O14 0.667692 0.740368 0.413181
O O15 0.500000 0.000000 0.500000
O O16 0.500000 0.500000 0.500000
#
# Coordination Sequence:
#
# PCOD9040659 Si02
#       7
#     2   2   2   2   2   2   2
#     4  12  27  46  70 104 148 191 233 291 357 422
#     4  11  22  43  72  95 139 186 224 295 354 407
#     4  11  26  43  70 106 140 185 238 298 348 425
#     4  12  27  43  75 110 141 183 242 294 358 422
#     4  10  23  43  68 103 136 179 229 299 349 422
#     4   9  22  41  70 101 141 175 234 289 363 409
#     4  11  25  44  66  97 136 185 241 281 344 428
#
# _framework density 21.891515999999999
#
# number of rings (size 3 to 8) (size 9 to 14) (size 15 to 20)
#    0.000    1.143    2.857    1.714    6.000    6.857 
#    0.000    0.000    0.000    0.000    0.000    0.000 
#    0.000    0.000    0.000    0.000    0.000    0.000 
#
# Total GULP energy -78074.034270 kJ/mol
# GULP energy per Si atom -5576.716734 kJ/mol
# Density = 2.184169 g / cm^3
# Si number density = 21.891516 Si / 1000 Ang^3
#
#
#
# Elastic Constant Matrix: (Units=GPa)
#
#
# Indices 1 2 3 4 5 6 
#
# 1 112.0946 21.8737 54.1526 4.8050 7.3869 4.5180
# 2 21.8737 81.9938 36.7116 -6.5436 2.6035 18.0872
# 3 54.1526 36.7116 121.5020 8.1922 -4.4661 5.3729
# 4 4.8050 -6.5436 8.1922 50.5760 0.9305 1.7348
# 5 7.3869 2.6035 -4.4661 0.9305 23.0546 -7.0494
# 6 4.5180 18.0872 5.3729 1.7348 -7.0494 25.3564
#
#
#
# Elastic Compliance Matrix: (Units=1/GPa)
#
#
# Indices 1 2 3 4 5 6 
#
# 1 0.012039 -0.000040 -0.005445 -0.000075 -0.005681 -0.002537
# 2 -0.000040 0.018356 -0.005439 0.003892 -0.007652 -0.014328
# 3 -0.005445 -0.005439 0.012512 -0.002465 0.006127 0.004070
# 4 -0.000075 0.003892 -0.002465 0.020895 -0.003124 -0.004538
# 5 -0.005681 -0.007652 0.006127 -0.003124 0.053573 0.020280
# 6 -0.002537 -0.014328 0.004070 -0.004538 0.020280 0.055196
#
#
# Mechanical properties :
#
#
# Convention : Reuss Voigt Hill
#
# Bulk Modulus (GPa) = 47.48378 60.11847 53.80113
# Shear Modulus (GPa) = 24.82145 33.32089 29.07117
#
# Velocity S-wave (km/s) = 3.37091 3.90563 3.64808
# Velocity P-wave (km/s) = 6.07357 6.91811 6.50955
#
# Compressibility (1/GPa) = 0.02105982
#
# Stress axis : x y z
#
# Youngs Moduli (GPa) = 83.06165 54.47880 79.92341
#
# Poissons Ratio (x) = 0.00216 0.43521
# Poissons Ratio (y) = 0.00329 0.43467
# Poissons Ratio (z) = 0.45230 0.29629
#
# Static dielectric constant tensor:
#      x y z
#    x 1.881640 -0.048730 -0.049630 
#    y -0.048730 1.790490 -0.043950 
#    z -0.049630 -0.043950 1.827650 
# 
# From -- ./inp_files/345014.got.cif
#   From: 2010.05.17/outbox.cif.g08.bks.cpg/sg2_173_cif.got.tgz:345014.got - 2010.06.03 11:33:40.
