data_PCOD9040392
_publ_section_title
;
Structure prediction by ZEFSAII (Michael W. Deem and Ramdas Pophale) SiO2 
 PCOD9040392
Probable space group: P -1
;
_chemical_formula_sum "Si O2"
_cell_formula_units_Z 12
_cell_length_a 8.078196
_cell_length_b 14.506570
_cell_length_c 4.926498
_cell_angle_alpha 111.273639
_cell_angle_beta 78.463951
_cell_angle_gamma 99.760479
_cell_volume 524.132363
_symmetry_space_group_name_H-M "P -1"
_symmetry_group_IT_number 2
_symmetry_cell_setting 'triclinic'
loop_
_space_group_symop_operation_xyz
x,y,z
-x,-y,-z
loop_
_atom_site_type_symbol
_atom_site_label
_atom_site_fract_x
_atom_site_fract_y
_atom_site_fract_z
Si Si1 0.255636 0.257250 0.738833
Si Si2 0.306011 0.790828 0.911636
Si Si3 0.900424 0.449109 0.730489
Si Si4 0.445138 0.592660 0.447620
Si Si5 0.031750 0.253218 0.308821
Si Si6 0.520753 0.115233 0.550560
O O1 0.393131 0.344209 0.674162
O O2 0.354055 0.168553 0.727157
O O3 0.143497 0.215048 0.473120
O O4 0.665910 0.171987 0.753393
O O5 0.352906 0.676673 0.738807
O O6 0.059679 0.663823 0.414862
O O7 0.435401 0.858004 0.746219
O O8 0.699336 0.449240 0.764134
O O9 0.000000 0.500000 0.500000
O O10 0.000000 0.500000 0.000000
O O11 0.500000 0.500000 0.500000
O O12 0.845997 0.704670 0.932338
O O13 0.878548 0.193899 0.130416
O O14 0.500000 0.000000 0.500000
#
# Coordination Sequence:
#
# PCOD9040392 Si02
#       6
#     2   2   2   2   2   2
#     4  11  23  42  66  94 125 166 215 268 316 377
#     4  10  23  43  67  94 130 170 210 262 322 380
#     4  11  24  40  60  87 124 170 214 257 310 368
#     4  10  23  43  66  94 129 172 218 261 313 382
#     4  11  23  42  63  91 131 167 210 268 319 372
#     4  11  23  44  69  96 127 167 213 264 322 385
#
# _framework density 22.894978999999999
#
# number of rings (size 3 to 8) (size 9 to 14) (size 15 to 20)
#    0.000    1.333    0.000    5.500    0.000    9.333 
#    0.000   20.000    0.000    0.000    0.000    0.000 
#    0.000    0.000    0.000    0.000    0.000    0.000 
#
# Total GULP energy -67140.445631 kJ/mol
# GULP energy per Si atom -5595.037136 kJ/mol
# Density = 2.284287 g / cm^3
# Si number density = 22.894979 Si / 1000 Ang^3
#
#
#
# Elastic Constant Matrix: (Units=GPa)
#
#
# Indices 1 2 3 4 5 6 
#
# 1 104.2360 39.1076 41.9211 1.5680 24.5176 -2.5060
# 2 39.1076 122.1977 25.4161 -4.3980 8.7487 -24.6626
# 3 41.9211 25.4161 138.5210 -5.8772 23.0869 -7.1062
# 4 1.5680 -4.3980 -5.8772 27.5124 4.5364 1.9887
# 5 24.5176 8.7487 23.0869 4.5364 43.0206 -10.1179
# 6 -2.5060 -24.6626 -7.1062 1.9887 -10.1179 21.9753
#
#
#
# Elastic Compliance Matrix: (Units=1/GPa)
#
#
# Indices 1 2 3 4 5 6 
#
# 1 0.014141 -0.005185 -0.002506 -0.000298 -0.007628 -0.008502
# 2 -0.005185 0.012827 -0.000695 0.000359 0.004337 0.015544
# 3 -0.002506 -0.000695 0.008776 0.002469 -0.003405 -0.000019
# 4 -0.000298 0.000359 0.002469 0.038410 -0.006529 -0.005314
# 5 -0.007628 0.004337 -0.003405 -0.006529 0.033695 0.019001
# 6 -0.008502 0.015544 -0.000019 -0.005314 0.019001 0.071204
#
#
# Mechanical properties :
#
#
# Convention : Reuss Voigt Hill
#
# Bulk Modulus (GPa) = 52.70431 64.20492 58.45462
# Shear Modulus (GPa) = 24.73444 35.73566 30.23505
#
# Velocity S-wave (km/s) = 3.29042 3.95505 3.63794
# Velocity P-wave (km/s) = 6.12420 6.99719 6.57520
#
# Compressibility (1/GPa) = 0.01897378
#
# Stress axis : x y z
#
# Youngs Moduli (GPa) = 70.71683 77.96136 113.94436
#
# Poissons Ratio (x) = 0.40422 0.28550
# Poissons Ratio (y) = 0.36666 0.07914
# Poissons Ratio (z) = 0.17719 0.05415
#
# Static dielectric constant tensor:
#      x y z
#    x 1.936430 -0.003150 0.030430 
#    y -0.003150 1.825490 0.005540 
#    z 0.030430 0.005540 1.876200 
# 
# From -- ./inp_files/30164.got.cif
#   From: 2010.05.17/outbox.cif.g08.bks.cpg/sg2_16_cif.got.tgz:30164.got - 2010.06.03 11:33:40.
