data_PCOD9040407
_publ_section_title
;
Structure prediction by ZEFSAII (Michael W. Deem and Ramdas Pophale) SiO2 
 PCOD9040407
Probable space group: P -1
;
_chemical_formula_sum "Si O2"
_cell_formula_units_Z 14
_cell_length_a 9.466453
_cell_length_b 11.578971
_cell_length_c 12.552461
_cell_angle_alpha 48.962233
_cell_angle_beta 109.232615
_cell_angle_gamma 143.362445
_cell_volume 556.556575
_symmetry_space_group_name_H-M "P -1"
_symmetry_group_IT_number 2
_symmetry_cell_setting 'triclinic'
loop_
_space_group_symop_operation_xyz
x,y,z
-x,-y,-z
loop_
_atom_site_type_symbol
_atom_site_label
_atom_site_fract_x
_atom_site_fract_y
_atom_site_fract_z
Si Si1 0.901617 0.678629 0.417052
Si Si2 0.076538 0.297779 0.827060
Si Si3 0.205165 0.800101 0.837636
Si Si4 0.504603 0.242101 0.723181
Si Si5 0.436952 0.325958 0.879492
Si Si6 0.209521 0.749221 0.627679
Si Si7 0.102198 0.190227 0.143210
O O1 0.950442 0.639738 0.342581
O O2 0.599375 0.420210 0.541243
O O3 0.450218 0.657648 0.211480
O O4 0.031260 0.955798 0.288188
O O5 0.303816 0.371776 0.783621
O O6 0.122594 0.503216 0.773206
O O7 0.778008 0.971981 0.950870
O O8 0.210727 0.825272 0.699966
O O9 0.850583 0.734764 0.011235
O O10 0.014101 0.676907 0.547081
O O11 0.000000 0.500000 0.000000
O O12 0.492244 0.050981 0.810642
O O13 0.164431 0.936567 0.807536
O O14 0.675623 0.555110 0.880451
O O15 0.500000 0.000000 0.500000
#
# Coordination Sequence:
#
# PCOD9040407 Si02
#       7
#     2   2   2   2   2   2   2
#     4  12  24  45  66  99 133 176 220 276 327 391
#     4  11  25  43  65  99 139 173 217 271 333 399
#     4  10  23  43  66  96 129 170 223 270 322 387
#     4  10  23  43  71  96 129 167 229 275 320 383
#     4  11  23  45  70  99 131 174 224 274 328 388
#     4  12  26  41  65 100 137 177 216 267 338 400
#     4  10  24  41  73  96 130 173 225 274 325 382
#
# _framework density 25.154675000000001
#
# number of rings (size 3 to 8) (size 9 to 14) (size 15 to 20)
#    0.857    0.286    1.429    4.286    0.000    5.143 
#    0.000    2.857    0.000    0.000    0.000    0.000 
#    0.000    0.000    0.000    0.000    0.000    0.000 
#
# Total GULP energy -77971.220162 kJ/mol
# GULP energy per Si atom -5569.372869 kJ/mol
# Density = 2.509742 g / cm^3
# Si number density = 25.154675 Si / 1000 Ang^3
#
#
#
# Elastic Constant Matrix: (Units=GPa)
#
#
# Indices 1 2 3 4 5 6 
#
# 1 56.2538 3.6101 1.8355 5.5134 22.3876 -11.2757
# 2 3.6101 145.8357 53.9121 -10.5902 -3.5586 -41.0855
# 3 1.8355 53.9121 125.3740 8.8132 10.4812 -18.0203
# 4 5.5134 -10.5902 8.8132 51.4044 -12.6230 -10.7771
# 5 22.3876 -3.5586 10.4812 -12.6230 51.4084 2.8933
# 6 -11.2757 -41.0855 -18.0203 -10.7771 2.8933 31.6507
#
#
#
# Elastic Compliance Matrix: (Units=1/GPa)
#
#
# Indices 1 2 3 4 5 6 
#
# 1 0.025568 0.001485 0.002071 -0.003413 -0.012981 0.012240
# 2 0.001485 0.014551 -0.004214 0.008196 0.002128 0.019615
# 3 0.002071 -0.004214 0.010428 -0.003872 -0.004286 0.000279
# 4 -0.003413 0.008196 -0.003872 0.027636 0.008738 0.015830
# 5 -0.012981 0.002128 -0.004286 0.008738 0.028493 -0.003932
# 6 0.012240 0.019615 0.000279 0.015830 -0.003932 0.067326
#
#
# Mechanical properties :
#
#
# Convention : Reuss Voigt Hill
#
# Bulk Modulus (GPa) = 20.31149 49.57544 34.94346
# Shear Modulus (GPa) = 26.07873 44.76642 35.42257
#
# Velocity S-wave (km/s) = 3.22333 4.22316 3.75666
# Velocity P-wave (km/s) = 4.68458 6.59781 5.72173
#
# Compressibility (1/GPa) = 0.04923322
#
# Stress axis : x y z
#
# Youngs Moduli (GPa) = 39.11179 68.72413 95.89263
#
# Poissons Ratio (x) = -0.10207 -0.19864
# Poissons Ratio (y) = -0.05809 0.40405
# Poissons Ratio (z) = -0.08102 0.28957
#
# Static dielectric constant tensor:
#      x y z
#    x 2.025660 0.119610 0.172250 
#    y 0.119610 2.047750 0.014890 
#    z 0.172250 0.014890 1.749420 
# 
# From -- ./inp_files/519607.got.cif
#   From: 2010.05.17/outbox.cif.g08.bks.cpg/sg2_260_cif.got.tgz:519607.got - 2010.06.03 11:33:40.
