data_PCOD9040831
_publ_section_title
;
Structure prediction by ZEFSAII (Michael W. Deem and Ramdas Pophale) SiO2 
 PCOD9040831
Probable space group: P -1
;
_chemical_formula_sum "Si O2"
_cell_formula_units_Z 16
_cell_length_a 9.072060
_cell_length_b 5.126968
_cell_length_c 15.087317
_cell_angle_alpha 109.592321
_cell_angle_beta 78.230319
_cell_angle_gamma 97.537807
_cell_volume 645.713603
_symmetry_space_group_name_H-M "P -1"
_symmetry_group_IT_number 2
_symmetry_cell_setting 'triclinic'
loop_
_space_group_symop_operation_xyz
x,y,z
-x,-y,-z
loop_
_atom_site_type_symbol
_atom_site_label
_atom_site_fract_x
_atom_site_fract_y
_atom_site_fract_z
Si Si1 0.755633 0.712757 0.768875
Si Si2 0.447809 0.847535 0.241115
Si Si3 0.623764 0.468527 0.058675
Si Si4 0.878870 0.651804 0.941773
Si Si5 0.545147 0.815157 0.554352
Si Si6 0.190556 0.827965 0.873264
Si Si7 0.854561 0.904733 0.452003
Si Si8 0.100280 0.713033 0.674707
O O1 0.651537 0.423519 0.738580
O O2 0.799490 0.725923 0.868543
O O3 0.917713 0.723378 0.701326
O O4 0.663262 0.970157 0.780533
O O5 0.581768 0.728664 0.154069
O O6 0.509399 0.054418 0.334012
O O7 0.653950 0.250482 0.108860
O O8 0.500000 0.500000 0.000000
O O9 0.770978 0.418938 0.975071
O O10 0.050831 0.602693 0.893025
O O11 0.861051 0.895972 0.042569
O O12 0.500000 0.500000 0.500000
O O13 0.724926 0.861340 0.535959
O O14 0.500000 0.000000 0.500000
O O15 0.171185 0.832825 0.770981
O O16 0.867423 0.608384 0.370960
O O17 0.835317 0.127235 0.401880
O O18 0.000000 0.000000 0.500000
#
# Coordination Sequence:
#
# PCOD9040831 Si02
#       8
#     2   2   2   2   2   2   2   2
#     4  11  23  46  70 111 147 192 246 310 377 438
#     4  12  27  45  75 103 152 196 246 305 385 450
#     4  12  25  43  71 105 146 194 250 299 367 454
#     4  10  23  43  69 101 147 192 246 304 371 434
#     4  12  28  50  73 108 154 196 244 311 387 447
#     4  10  25  43  68 104 148 194 245 309 373 439
#     4  12  26  49  79 110 144 192 260 312 375 450
#     4  11  25  44  79 108 145 191 252 313 370 448
#
# _framework density 24.778789
#
# number of rings (size 3 to 8) (size 9 to 14) (size 15 to 20)
#    0.000    0.750    1.250    5.250    5.250    2.000 
#    0.000    0.000    0.000    0.000    0.000    0.000 
#    0.000    0.000    0.000    0.000    0.000    0.000 
#
# Total GULP energy -89473.948029 kJ/mol
# GULP energy per Si atom -5592.121752 kJ/mol
# Density = 2.472239 g / cm^3
# Si number density = 24.778789 Si / 1000 Ang^3
#
#
#
# Elastic Constant Matrix: (Units=GPa)
#
#
# Indices 1 2 3 4 5 6 
#
# 1 83.6218 13.5741 17.7277 -12.7606 1.1757 7.8269
# 2 13.5741 125.5761 15.2780 3.0408 9.9055 -3.5701
# 3 17.7277 15.2780 134.7562 9.9304 18.7501 9.5588
# 4 -12.7606 3.0408 9.9304 42.0988 3.2873 5.8971
# 5 1.1757 9.9055 18.7501 3.2873 59.8881 -12.6943
# 6 7.8269 -3.5701 9.5588 5.8971 -12.6943 41.5184
#
#
#
# Elastic Compliance Matrix: (Units=1/GPa)
#
#
# Indices 1 2 3 4 5 6 
#
# 1 0.013642 -0.001444 -0.001723 0.005123 -0.000441 -0.003162
# 2 -0.001444 0.008318 -0.000630 -0.000961 -0.000886 0.000998
# 3 -0.001723 -0.000630 0.008422 -0.001920 -0.002876 -0.002275
# 4 0.005123 -0.000961 -0.001920 0.026669 -0.001856 -0.004962
# 5 -0.000441 -0.000886 -0.002876 -0.001856 0.019304 0.006835
# 6 -0.003162 0.000998 -0.002275 -0.004962 0.006835 0.028086
#
#
# Mechanical properties :
#
#
# Convention : Reuss Voigt Hill
#
# Bulk Modulus (GPa) = 43.88277 48.56818 46.22548
# Shear Modulus (GPa) = 41.79563 48.52600 45.16081
#
# Velocity S-wave (km/s) = 4.11146 4.43015 4.27378
# Velocity P-wave (km/s) = 6.34721 6.76842 6.56120
#
# Compressibility (1/GPa) = 0.02278798
#
# Stress axis : x y z
#
# Youngs Moduli (GPa) = 73.30191 120.22777 118.73918
#
# Poissons Ratio (x) = 0.17363 0.20457
# Poissons Ratio (y) = 0.10586 0.07478
# Poissons Ratio (z) = 0.12629 0.07571
#
# Static dielectric constant tensor:
#      x y z
#    x 2.158130 0.148440 -0.053870 
#    y 0.148440 2.091970 -0.050620 
#    z -0.053870 -0.050620 1.952270 
# 
# From -- ./inp_files/488638.got.cif
#   From: 2010.05.17/outbox.cif.g08.bks.cpg/sg2_245_cif.got.tgz:488638.got - 2010.06.03 11:33:40.
