data_PCOD9040178
_publ_section_title
;
Structure prediction by ZEFSAII (Michael W. Deem and Ramdas Pophale) SiO2 
 PCOD9040178
Probable space group: P -1
;
_chemical_formula_sum "Si O2"
_cell_formula_units_Z 16
_cell_length_a 15.295720
_cell_length_b 14.367519
_cell_length_c 8.168956
_cell_angle_alpha 29.956126
_cell_angle_beta 123.692242
_cell_angle_gamma 125.944833
_cell_volume 720.982782
_symmetry_space_group_name_H-M "P -1"
_symmetry_group_IT_number 2
_symmetry_cell_setting 'triclinic'
loop_
_space_group_symop_operation_xyz
x,y,z
-x,-y,-z
loop_
_atom_site_type_symbol
_atom_site_label
_atom_site_fract_x
_atom_site_fract_y
_atom_site_fract_z
Si Si1 0.748834 0.769215 0.943767
Si Si2 0.402311 0.570234 0.873744
Si Si3 0.400877 0.960603 0.082862
Si Si4 0.026788 0.214425 0.773888
Si Si5 0.545680 0.818208 0.879216
Si Si6 0.987829 0.780793 0.863118
Si Si7 0.204820 0.849655 0.800993
Si Si8 0.107042 0.556954 0.911019
O O1 0.650950 0.804348 0.901981
O O2 0.801029 0.967596 0.596888
O O3 0.700453 0.603280 0.013252
O O4 0.843158 0.710367 0.236913
O O5 0.391358 0.762869 0.475321
O O6 0.446918 0.635560 0.002709
O O7 0.500000 0.500000 0.000000
O O8 0.419686 0.133593 0.970789
O O9 0.299048 0.928441 0.906680
O O10 0.500000 0.000000 0.000000
O O11 0.934956 0.308434 0.465529
O O12 0.020256 0.240536 0.920802
O O13 0.000000 0.000000 0.000000
O O14 0.500000 0.000000 0.500000
O O15 0.100559 0.755327 0.947288
O O16 0.000000 0.000000 0.500000
O O17 0.890220 0.636918 0.883917
O O18 0.207395 0.681024 0.929882
O O19 0.000000 0.500000 0.000000
#
# Coordination Sequence:
#
# PCOD9040178 Si02
#       8
#     2   2   2   2   2   2   2   2
#     4  11  22  41  66  97 129 172 217 267 335 388
#     4   9  20  41  66  91 126 163 217 270 324 400
#     4  11  23  42  66  96 128 167 215 277 335 387
#     4  12  23  42  68  95 135 180 219 271 332 391
#     4   9  20  42  66  90 124 165 212 265 320 397
#     4  11  23  45  63  97 133 174 222 276 325 389
#     4  11  23  42  65  94 135 172 214 274 329 391
#     4  10  23  43  64  91 135 174 225 273 322 393
#
# _framework density 22.191929999999999
#
# number of rings (size 3 to 8) (size 9 to 14) (size 15 to 20)
#    0.000    1.500    2.500    3.375    5.250    0.000 
#    6.750    5.625    0.000    0.000    0.000    0.000 
#    0.000    0.000    0.000    0.000    0.000    0.000 
#
# Total GULP energy -89216.609493 kJ/mol
# GULP energy per Si atom -5576.038093 kJ/mol
# Density = 2.214142 g / cm^3
# Si number density = 22.191930 Si / 1000 Ang^3
#
#
#
# Elastic Constant Matrix: (Units=GPa)
#
#
# Indices 1 2 3 4 5 6 
#
# 1 87.2712 35.8005 -10.2535 1.2700 -0.2191 -14.6107
# 2 35.8005 237.0173 19.8563 -9.1030 6.9371 -29.0690
# 3 -10.2535 19.8563 37.8410 -5.0673 4.4701 -15.8539
# 4 1.2700 -9.1030 -5.0673 40.1925 0.9210 5.2423
# 5 -0.2191 6.9371 4.4701 0.9210 24.3678 5.7139
# 6 -14.6107 -29.0690 -15.8539 5.2423 5.7139 37.5854
#
#
#
# Elastic Compliance Matrix: (Units=1/GPa)
#
#
# Indices 1 2 3 4 5 6 
#
# 1 0.014678 -0.001851 0.008754 -0.000825 -0.002915 0.008525
# 2 -0.001851 0.005044 -0.001752 0.000679 -0.001771 0.002617
# 3 0.008754 -0.001752 0.039878 0.001965 -0.011585 0.020356
# 4 -0.000825 0.000679 0.001965 0.025643 -0.000969 -0.002396
# 5 -0.002915 -0.001771 -0.011585 -0.000969 0.047056 -0.014408
# 6 0.008525 0.002617 0.020356 -0.002396 -0.014408 0.043055
#
#
# Mechanical properties :
#
#
# Convention : Reuss Voigt Hill
#
# Bulk Modulus (GPa) = 14.30559 50.32623 32.31591
# Shear Modulus (GPa) = 26.54585 41.54421 34.04503
#
# Velocity S-wave (km/s) = 3.46236 4.33140 3.92103
# Velocity P-wave (km/s) = 4.73753 6.90954 5.92393
#
# Compressibility (1/GPa) = 0.06990274
#
# Stress axis : x y z
#
# Youngs Moduli (GPa) = 68.12712 198.23929 25.07653
#
# Poissons Ratio (x) = 0.36701 -0.21953
# Poissons Ratio (y) = 0.12613 0.04393
# Poissons Ratio (z) = -0.59640 0.34731
#
# Static dielectric constant tensor:
#      x y z
#    x 1.858370 0.014100 0.067450 
#    y 0.014100 1.918470 0.000940 
#    z 0.067450 0.000940 1.860300 
# 
# From -- ./inp_files/207275.got.cif
#   From: 2010.05.17/outbox.cif.g08.bks.cpg/sg2_104_cif.got.tgz:207275.got - 2010.06.03 11:33:40.
