data_PCOD9040581
_publ_section_title
;
Structure prediction by ZEFSAII (Michael W. Deem and Ramdas Pophale) SiO2 
 PCOD9040581
Probable space group: P -1
;
_chemical_formula_sum "Si O2"
_cell_formula_units_Z 14
_cell_length_a 10.073416
_cell_length_b 7.457228
_cell_length_c 19.844164
_cell_angle_alpha 62.857041
_cell_angle_beta 147.662715
_cell_angle_gamma 97.452297
_cell_volume 598.428410
_symmetry_space_group_name_H-M "P -1"
_symmetry_group_IT_number 2
_symmetry_cell_setting 'triclinic'
loop_
_space_group_symop_operation_xyz
x,y,z
-x,-y,-z
loop_
_atom_site_type_symbol
_atom_site_label
_atom_site_fract_x
_atom_site_fract_y
_atom_site_fract_z
Si Si1 0.669419 0.115246 0.586562
Si Si2 0.219438 0.526224 0.245230
Si Si3 0.683607 0.435288 0.871291
Si Si4 0.847675 0.332555 0.183640
Si Si5 0.744933 0.055181 0.782115
Si Si6 0.796011 0.141054 0.323702
Si Si7 0.695664 0.750490 0.316470
O O1 0.524456 0.368021 0.444545
O O2 0.619440 0.134252 0.640600
O O3 0.500000 0.000000 0.500000
O O4 0.008646 0.916676 0.752656
O O5 0.303143 0.465793 0.213416
O O6 0.098493 0.803306 0.154527
O O7 0.995465 0.465377 0.191663
O O8 0.513433 0.645614 0.815812
O O9 0.494346 0.311757 0.802319
O O10 0.013624 0.225088 0.065499
O O11 0.919717 0.256609 0.306134
O O12 0.500000 0.500000 0.000000
O O13 0.490270 0.147207 0.711807
O O14 0.760241 0.956037 0.294767
O O15 0.000000 0.000000 0.500000
O O16 0.000000 0.500000 0.500000
#
# Coordination Sequence:
#
# PCOD9040581 Si02
#       7
#     2   2   2   2   2   2   2
#     4  10  23  43  67  97 137 180 234 279 343 426
#     4  10  23  45  70  97 142 181 236 288 347 425
#     4  11  25  48  74 107 138 186 244 290 349 417
#     4  11  26  43  65 104 142 178 229 292 358 405
#     4  11  25  45  73 104 137 188 237 294 348 416
#     4  12  26  45  74 101 144 187 234 291 351 418
#     4  11  25  43  74 106 141 179 241 292 348 413
#
# _framework density 23.394611999999999
#
# number of rings (size 3 to 8) (size 9 to 14) (size 15 to 20)
#    0.000    1.143    1.429    3.857   14.000    0.571 
#    2.571    1.429    0.000    0.000    0.000    0.000 
#    0.000    0.000    0.000    0.000    0.000    0.000 
#
# Total GULP energy -78331.204488 kJ/mol
# GULP energy per Si atom -5595.086035 kJ/mol
# Density = 2.334137 g / cm^3
# Si number density = 23.394612 Si / 1000 Ang^3
#
#
#
# Elastic Constant Matrix: (Units=GPa)
#
#
# Indices 1 2 3 4 5 6 
#
# 1 92.8626 17.1849 10.9848 -9.1912 -1.7216 16.1142
# 2 17.1849 82.9289 14.7930 -2.7417 17.7016 1.2730
# 3 10.9848 14.7930 117.6321 -28.4639 22.4345 -0.1979
# 4 -9.1912 -2.7417 -28.4639 34.3146 -10.5938 6.1325
# 5 -1.7216 17.7016 22.4345 -10.5938 45.9041 -1.6900
# 6 16.1142 1.2730 -0.1979 6.1325 -1.6900 36.6809
#
#
#
# Elastic Compliance Matrix: (Units=1/GPa)
#
#
# Indices 1 2 3 4 5 6 
#
# 1 0.012982 -0.002964 -0.000122 0.005082 0.002629 -0.006329
# 2 -0.002964 0.013934 -0.000999 -0.002382 -0.005510 0.000958
# 3 -0.000122 -0.000999 0.011317 0.008531 -0.003234 -0.001426
# 4 0.005082 -0.002382 0.008531 0.040799 0.006037 -0.008647
# 5 0.002629 -0.005510 -0.003234 0.006037 0.026954 -0.000749
# 6 -0.006329 0.000958 -0.001426 -0.008647 -0.000749 0.031413
#
#
# Mechanical properties :
#
#
# Convention : Reuss Voigt Hill
#
# Bulk Modulus (GPa) = 33.26556 42.14992 37.70774
# Shear Modulus (GPa) = 32.13578 40.07730 36.10654
#
# Velocity S-wave (km/s) = 3.71029 4.14345 3.93284
# Velocity P-wave (km/s) = 5.71009 6.39898 6.06433
#
# Compressibility (1/GPa) = 0.03006112
#
# Stress axis : x y z
#
# Youngs Moduli (GPa) = 77.03173 71.76754 88.36422
#
# Poissons Ratio (x) = 0.21275 0.01077
# Poissons Ratio (y) = 0.22836 0.08830
# Poissons Ratio (z) = 0.00939 0.07172
#
# Static dielectric constant tensor:
#      x y z
#    x 1.881070 0.057900 -0.006460 
#    y 0.057900 1.960170 -0.004000 
#    z -0.006460 -0.004000 1.940890 
# 
# From -- ./inp_files/402806.got.cif
#   From: 2010.05.17/outbox.cif.g08.bks.cpg/sg2_202_cif.got.tgz:402806.got - 2010.06.03 11:33:40.
