data_PCOD9040955
_publ_section_title
;
Structure prediction by ZEFSAII (Michael W. Deem and Ramdas Pophale) SiO2 
 PCOD9040955
Probable space group: P -1
;
_chemical_formula_sum "Si O2"
_cell_formula_units_Z 16
_cell_length_a 21.713477
_cell_length_b 5.321085
_cell_length_c 15.801779
_cell_angle_alpha 111.437737
_cell_angle_beta 153.276159
_cell_angle_gamma 77.363972
_cell_volume 738.484245
_symmetry_space_group_name_H-M "P -1"
_symmetry_group_IT_number 2
_symmetry_cell_setting 'triclinic'
loop_
_space_group_symop_operation_xyz
x,y,z
-x,-y,-z
loop_
_atom_site_type_symbol
_atom_site_label
_atom_site_fract_x
_atom_site_fract_y
_atom_site_fract_z
Si Si1 0.284174 0.291775 0.078163
Si Si2 0.658711 0.989629 0.054860
Si Si3 0.000385 0.326745 0.750019
Si Si4 0.650599 0.044853 0.735138
Si Si5 0.922246 0.435689 0.487309
Si Si6 0.810665 0.846658 0.514184
Si Si7 0.501400 0.458678 0.896568
Si Si8 0.953982 0.113778 0.044921
O O1 0.307445 0.624784 0.150589
O O2 0.369363 0.163312 0.235485
O O3 0.315319 0.193937 0.013394
O O4 0.118586 0.155859 0.879124
O O5 0.806529 0.141566 0.298884
O O6 0.555997 0.764349 0.960917
O O7 0.597964 0.242301 0.975949
O O8 0.017619 0.428181 0.686267
O O9 0.033493 0.555237 0.892488
O O10 0.839719 0.151878 0.545744
O O11 0.500000 0.000000 0.500000
O O12 0.786535 0.987643 0.844521
O O13 0.841654 0.659753 0.450945
O O14 0.000000 0.500000 0.500000
O O15 0.657842 0.701885 0.344758
O O16 0.929004 0.897441 0.740146
O O17 0.500000 0.500000 0.000000
O O18 0.000000 0.000000 0.000000
#
# Coordination Sequence:
#
# PCOD9040955 Si02
#       8
#     2   2   2   2   2   2   2   2
#     4  11  24  45  72 101 139 176 232 290 356 417
#     4  12  27  43  67 103 142 187 240 283 346 433
#     4  10  23  43  69  99 141 179 235 297 344 417
#     4  11  24  48  73 102 140 180 227 303 363 419
#     4  11  25  39  70 102 136 189 236 286 351 416
#     4  11  23  44  67  96 139 185 232 289 352 418
#     4  12  26  44  67  97 145 192 234 285 350 418
#     4  10  24  43  69 102 137 182 238 292 358 430
#
# _framework density 21.665998999999999
#
# number of rings (size 3 to 8) (size 9 to 14) (size 15 to 20)
#    0.000    1.000    2.500    3.000    8.750    3.500 
#    0.000    0.000    0.000    0.000    0.000    0.000 
#    0.000    0.000    0.000    0.000    0.000    0.000 
#
# Total GULP energy -89247.671981 kJ/mol
# GULP energy per Si atom -5577.979499 kJ/mol
# Density = 2.161669 g / cm^3
# Si number density = 21.665999 Si / 1000 Ang^3
#
#
#
# Elastic Constant Matrix: (Units=GPa)
#
#
# Indices 1 2 3 4 5 6 
#
# 1 123.6225 19.5166 43.4817 11.7149 -13.6268 -22.9224
# 2 19.5166 50.6151 8.3646 -3.7429 -3.8821 -3.8069
# 3 43.4817 8.3646 123.6332 2.2992 1.3309 1.3792
# 4 11.7149 -3.7429 2.2992 27.4688 5.6779 3.6920
# 5 -13.6268 -3.8821 1.3309 5.6779 22.0477 6.6624
# 6 -22.9224 -3.8069 1.3792 3.6920 6.6624 33.1892
#
#
#
# Elastic Compliance Matrix: (Units=1/GPa)
#
#
# Indices 1 2 3 4 5 6 
#
# 1 0.013523 -0.003884 -0.004510 -0.008634 0.007596 0.008517
# 2 -0.003884 0.021601 -0.000177 0.004627 0.000465 -0.000806
# 3 -0.004510 -0.000177 0.009714 0.002132 -0.002994 -0.003175
# 4 -0.008634 0.004627 0.002132 0.044419 -0.013763 -0.007700
# 5 0.007596 0.000465 -0.002994 -0.013763 0.055099 -0.004105
# 6 0.008517 -0.000806 -0.003175 -0.007700 -0.004105 0.037733
#
#
# Mechanical properties :
#
#
# Convention : Reuss Voigt Hill
#
# Bulk Modulus (GPa) = 36.10588 48.95520 42.53054
# Shear Modulus (GPa) = 23.98487 31.64167 27.81327
#
# Velocity S-wave (km/s) = 3.33081 3.82570 3.58680
# Velocity P-wave (km/s) = 5.61189 6.49301 6.06846
#
# Compressibility (1/GPa) = 0.02769632
#
# Stress axis : x y z
#
# Youngs Moduli (GPa) = 73.94586 46.29351 102.93922
#
# Poissons Ratio (x) = 0.17983 0.46421
# Poissons Ratio (y) = 0.28724 0.01826
# Poissons Ratio (z) = 0.33347 0.00821
#
# Static dielectric constant tensor:
#      x y z
#    x 1.764080 0.056140 0.048970 
#    y 0.056140 1.916450 0.001060 
#    z 0.048970 0.001060 1.914890 
# 
# From -- ./inp_files/97623.got.cif
#   From: 2010.05.17/outbox.cif.g08.bks.cpg/sg2_49_cif.got.tgz:97623.got - 2010.06.03 11:33:40.
