data_PCOD9040277
_publ_section_title
;
Structure prediction by ZEFSAII (Michael W. Deem and Ramdas Pophale) SiO2 
 PCOD9040277
Probable space group: P -1
;
_chemical_formula_sum "Si O2"
_cell_formula_units_Z 14
_cell_length_a 9.078027
_cell_length_b 13.922500
_cell_length_c 9.305101
_cell_angle_alpha 40.232334
_cell_angle_beta 54.126896
_cell_angle_gamma 73.616208
_cell_volume 584.016227
_symmetry_space_group_name_H-M "P -1"
_symmetry_group_IT_number 2
_symmetry_cell_setting 'triclinic'
loop_
_space_group_symop_operation_xyz
x,y,z
-x,-y,-z
loop_
_atom_site_type_symbol
_atom_site_label
_atom_site_fract_x
_atom_site_fract_y
_atom_site_fract_z
Si Si1 0.833462 0.887491 0.320722
Si Si2 0.339040 0.219245 0.737584
Si Si3 0.305126 0.902124 0.643848
Si Si4 0.857433 0.684400 0.791031
Si Si5 0.029406 0.406706 0.732386
Si Si6 0.775101 0.379811 0.350355
Si Si7 0.777818 0.933545 0.739013
O O1 0.659653 0.828849 0.374500
O O2 0.845712 0.737881 0.573397
O O3 0.824685 0.003058 0.320257
O O4 0.000000 0.000000 0.000000
O O5 0.188929 0.318872 0.712234
O O6 0.550775 0.297879 0.588681
O O7 0.256005 0.080709 0.056918
O O8 0.500000 0.000000 0.500000
O O9 0.331531 0.963376 0.396326
O O10 0.175964 0.722944 0.955857
O O11 0.740406 0.763387 0.875693
O O12 0.084298 0.721226 0.650700
O O13 0.783663 0.501710 0.077637
O O14 0.125770 0.523025 0.675514
O O15 0.000000 0.500000 0.500000
O O16 0.000000 0.000000 0.500000
#
# Coordination Sequence:
#
# PCOD9040277 Si02
#       7
#     2   2   2   2   2   2   2
#     4  11  23  44  68  96 136 175 228 281 339 393
#     4  12  24  42  72 103 130 183 229 282 333 410
#     4  11  26  44  72  99 133 179 231 277 343 400
#     4  10  23  43  65  93 139 178 218 282 336 402
#     4  12  25  43  68  98 142 175 222 283 338 403
#     4  11  25  42  69  99 139 179 230 270 348 409
#     4  11  21  44  69  92 137 176 225 282 337 392
#
# _framework density 23.971937
#
# number of rings (size 3 to 8) (size 9 to 14) (size 15 to 20)
#    0.000    0.857    4.286    2.143    2.000    5.143 
#    0.000    2.143    0.000    0.000    0.000    0.000 
#    0.000    0.000    0.000    0.000    0.000    0.000 
#
# Total GULP energy -78097.852806 kJ/mol
# GULP energy per Si atom -5578.418058 kJ/mol
# Density = 2.391738 g / cm^3
# Si number density = 23.971937 Si / 1000 Ang^3
#
#
#
# Elastic Constant Matrix: (Units=GPa)
#
#
# Indices 1 2 3 4 5 6 
#
# 1 141.0698 11.6764 78.1319 -12.7409 9.7751 18.8861
# 2 11.6764 61.7895 1.0891 -8.4677 10.9820 16.5633
# 3 78.1319 1.0891 136.7262 -6.8718 29.7682 8.5218
# 4 -12.7409 -8.4677 -6.8718 19.6851 9.0906 -1.6918
# 5 9.7751 10.9820 29.7682 9.0906 62.7423 2.8070
# 6 18.8861 16.5633 8.5218 -1.6918 2.8070 38.9452
#
#
#
# Elastic Compliance Matrix: (Units=1/GPa)
#
#
# Indices 1 2 3 4 5 6 
#
# 1 0.011444 -0.000605 -0.006271 0.004236 0.000855 -0.003797
# 2 -0.000605 0.021210 0.002642 0.011804 -0.006209 -0.008345
# 3 -0.006271 0.002642 0.012393 0.004139 -0.005957 -0.000185
# 4 0.004236 0.011804 0.004139 0.066225 -0.014102 -0.004087
# 5 0.000855 -0.006209 -0.005957 -0.014102 0.021701 0.001353
# 6 -0.003797 -0.008345 -0.000185 -0.004087 0.001353 0.030833
#
#
# Mechanical properties :
#
#
# Convention : Reuss Voigt Hill
#
# Bulk Modulus (GPa) = 27.33909 57.93115 42.63512
# Shear Modulus (GPa) = 27.10507 40.85373 33.97940
#
# Velocity S-wave (km/s) = 3.36624 4.13271 3.76901
# Velocity P-wave (km/s) = 5.15152 6.85501 6.06338
#
# Compressibility (1/GPa) = 0.03657766
#
# Stress axis : x y z
#
# Youngs Moduli (GPa) = 87.38248 47.14802 80.69098
#
# Poissons Ratio (x) = 0.02854 0.50603
# Poissons Ratio (y) = 0.05290 -0.21319
# Poissons Ratio (z) = 0.54800 -0.12457
#
# Static dielectric constant tensor:
#      x y z
#    x 2.034310 -0.029110 -0.036450 
#    y -0.029110 2.080360 0.004620 
#    z -0.036450 0.004620 1.984030 
# 
# From -- ./inp_files/159647.got.cif
#   From: 2010.05.17/outbox.cif.g08.bks.cpg/sg2_80_cif.got.tgz:159647.got - 2010.06.03 11:33:40.
