data_PCOD9040759
_publ_section_title
;
Structure prediction by ZEFSAII (Michael W. Deem and Ramdas Pophale) SiO2 
 PCOD9040759
Probable space group: P -1
;
_chemical_formula_sum "Si O2"
_cell_formula_units_Z 16
_cell_length_a 17.649655
_cell_length_b 21.300403
_cell_length_c 5.626652
_cell_angle_alpha 77.844161
_cell_angle_beta 75.358414
_cell_angle_gamma 19.370532
_cell_volume 676.245056
_symmetry_space_group_name_H-M "P -1"
_symmetry_group_IT_number 2
_symmetry_cell_setting 'triclinic'
loop_
_space_group_symop_operation_xyz
x,y,z
-x,-y,-z
loop_
_atom_site_type_symbol
_atom_site_label
_atom_site_fract_x
_atom_site_fract_y
_atom_site_fract_z
Si Si1 0.004491 0.428768 0.313165
Si Si2 0.747456 0.553538 0.823304
Si Si3 0.497391 0.426090 0.054270
Si Si4 0.739455 0.395036 0.399785
Si Si5 0.978500 0.940015 0.582638
Si Si6 0.750591 0.117190 0.125950
Si Si7 0.628429 0.769085 0.008555
Si Si8 0.898475 0.780838 0.867637
O O1 0.066964 0.314817 0.211238
O O2 0.887050 0.492101 0.588336
O O3 0.808951 0.627305 0.198038
O O4 0.241230 0.286231 0.241238
O O5 0.518370 0.696768 0.792418
O O6 0.637249 0.687497 0.995958
O O7 0.944704 0.352528 0.916530
O O8 0.372739 0.505216 0.337485
O O9 0.741750 0.201731 0.058340
O O10 0.500000 0.500000 0.000000
O O11 0.400638 0.479770 0.829043
O O12 0.971543 0.259264 0.322545
O O13 0.788843 0.281101 0.426799
O O14 0.862500 0.008630 0.369606
O O15 0.854138 0.016957 0.868758
O O16 0.000000 0.000000 0.500000
O O17 0.370391 0.993985 0.071326
#
# Coordination Sequence:
#
# PCOD9040759 Si02
#       8
#     2   2   2   2   2   2   2   2
#     4  10  23  43  68  98 135 177 226 285 340 419
#     4  11  24  41  66  98 137 177 229 282 345 413
#     4  12  24  44  69  96 135 180 224 281 345 410
#     4  12  25  43  66 102 135 175 234 281 342 417
#     4  12  26  46  70 101 137 181 233 289 348 414
#     4  12  25  43  70  99 138 181 227 287 349 409
#     4  10  23  43  68  99 134 178 227 279 351 406
#     4  11  24  41  65  98 137 178 227 287 341 416
#
# _framework density 23.660059
#
# number of rings (size 3 to 8) (size 9 to 14) (size 15 to 20)
#    0.000    0.750    1.250    6.000    5.250    1.500 
#    0.000    0.000    0.000    0.000    0.000    0.000 
#    0.000    0.000    0.000    0.000    0.000    0.000 
#
# Total GULP energy -89357.672243 kJ/mol
# GULP energy per Si atom -5584.854515 kJ/mol
# Density = 2.360621 g / cm^3
# Si number density = 23.660059 Si / 1000 Ang^3
#
#
#
# Elastic Constant Matrix: (Units=GPa)
#
#
# Indices 1 2 3 4 5 6 
#
# 1 70.2367 30.6132 30.0954 7.7807 -5.2053 -7.8962
# 2 30.6132 171.0758 63.2215 4.6475 7.0890 -0.1183
# 3 30.0954 63.2215 150.6952 13.8679 9.1120 -10.2967
# 4 7.7807 4.6475 13.8679 41.2340 0.3843 -4.5628
# 5 -5.2053 7.0890 9.1120 0.3843 26.5409 -0.9740
# 6 -7.8962 -0.1183 -10.2967 -4.5628 -0.9740 35.2918
#
#
#
# Elastic Compliance Matrix: (Units=1/GPa)
#
#
# Indices 1 2 3 4 5 6 
#
# 1 0.017196 -0.002355 -0.002363 -0.001894 0.004952 0.003042
# 2 -0.002355 0.007286 -0.002613 0.000377 -0.001563 -0.001259
# 3 -0.002363 -0.002613 0.008658 -0.001963 -0.002649 0.001662
# 4 -0.001894 0.000377 -0.001963 0.025482 -0.000083 0.002297
# 5 0.004952 -0.001563 -0.002649 -0.000083 0.040029 0.001424
# 6 0.003042 -0.001259 0.001662 0.002297 0.001424 0.029833
#
#
# Mechanical properties :
#
#
# Convention : Reuss Voigt Hill
#
# Bulk Modulus (GPa) = 54.12005 71.09641 62.60823
# Shear Modulus (GPa) = 33.48852 38.48519 35.98686
#
# Velocity S-wave (km/s) = 3.76627 4.03747 3.90423
# Velocity P-wave (km/s) = 6.46813 7.20065 6.84419
#
# Compressibility (1/GPa) = 0.01847744
#
# Stress axis : x y z
#
# Youngs Moduli (GPa) = 58.15455 137.25027 115.49626
#
# Poissons Ratio (x) = 0.32327 0.27295
# Poissons Ratio (y) = 0.13697 0.30174
# Poissons Ratio (z) = 0.13744 0.35857
#
# Static dielectric constant tensor:
#      x y z
#    x 2.020600 -0.018120 0.029900 
#    y -0.018120 1.863920 -0.001100 
#    z 0.029900 -0.001100 1.969460 
# 
# From -- ./inp_files/48031.got.cif
#   From: 2010.05.17/outbox.cif.g08.bks.cpg/sg2_25_cif.got.tgz:48031.got - 2010.06.03 11:33:40.
