data_PCOD9040685
_publ_section_title
;
Structure prediction by ZEFSAII (Michael W. Deem and Ramdas Pophale) SiO2 
 PCOD9040685
Probable space group: P -1
;
_chemical_formula_sum "Si O2"
_cell_formula_units_Z 16
_cell_length_a 12.132078
_cell_length_b 7.585702
_cell_length_c 8.143869
_cell_angle_alpha 57.320946
_cell_angle_beta 82.829692
_cell_angle_gamma 95.793381
_cell_volume 613.065183
_symmetry_space_group_name_H-M "P -1"
_symmetry_group_IT_number 2
_symmetry_cell_setting 'triclinic'
loop_
_space_group_symop_operation_xyz
x,y,z
-x,-y,-z
loop_
_atom_site_type_symbol
_atom_site_label
_atom_site_fract_x
_atom_site_fract_y
_atom_site_fract_z
Si Si1 0.703314 0.516462 0.119153
Si Si2 0.482437 0.579359 0.277208
Si Si3 0.855377 0.579608 0.352442
Si Si4 0.151898 0.027933 0.621604
Si Si5 0.895568 0.245197 0.785173
Si Si6 0.344750 0.835291 0.970949
Si Si7 0.920078 0.828310 0.780977
Si Si8 0.400399 0.101928 0.539644
O O1 0.599746 0.628963 0.129038
O O2 0.754741 0.469633 0.309143
O O3 0.654661 0.333498 0.091408
O O4 0.816111 0.653809 0.949425
O O5 0.500000 0.500000 0.500000
O O6 0.407954 0.751818 0.154189
O O7 0.414271 0.342953 0.350437
O O8 0.830116 0.798403 0.323354
O O9 0.867915 0.421551 0.576630
O O10 0.981186 0.652884 0.213293
O O11 0.105004 0.142459 0.419909
O O12 0.273615 0.987265 0.572076
O O13 0.053017 0.821824 0.774634
O O14 0.786142 0.175760 0.953559
O O15 0.912558 0.042215 0.777170
O O16 0.400480 0.058102 0.759538
O O17 0.500000 0.000000 0.500000
#
# Coordination Sequence:
#
# PCOD9040685 Si02
#       8
#     2   2   2   2   2   2   2   2
#     4  12  25  44  69 103 139 190 231 295 359 423
#     4  12  28  51  72 101 147 190 240 301 358 415
#     4  10  23  44  70 100 146 182 232 296 361 415
#     4  10  23  46  70 100 145 186 227 298 361 417
#     4  10  23  43  68 106 139 186 237 291 349 433
#     4  12  28  47  72 105 145 192 238 294 356 426
#     4  10  24  41  74 102 138 186 234 291 362 423
#     4  12  27  46  74 104 141 190 240 292 351 430
#
# _framework density 26.098368000000001
#
# number of rings (size 3 to 8) (size 9 to 14) (size 15 to 20)
#    0.000    1.000    1.250    4.125    8.750    4.000 
#    0.000    0.000    0.000    0.000    0.000    0.000 
#    0.000    0.000    0.000    0.000    0.000    0.000 
#
# Total GULP energy -89584.578689 kJ/mol
# GULP energy per Si atom -5599.036168 kJ/mol
# Density = 2.603897 g / cm^3
# Si number density = 26.098368 Si / 1000 Ang^3
#
#
#
# Elastic Constant Matrix: (Units=GPa)
#
#
# Indices 1 2 3 4 5 6 
#
# 1 175.6063 9.1156 38.9752 8.7754 -15.5085 -7.4919
# 2 9.1156 57.1479 -9.1344 11.5719 3.9015 8.6680
# 3 38.9752 -9.1344 112.4702 -8.3235 -13.9778 -2.6191
# 4 8.7754 11.5719 -8.3235 41.1073 -3.0187 -2.0053
# 5 -15.5085 3.9015 -13.9778 -3.0187 54.9468 10.0374
# 6 -7.4919 8.6680 -2.6191 -2.0053 10.0374 31.5963
#
#
#
# Elastic Compliance Matrix: (Units=1/GPa)
#
#
# Indices 1 2 3 4 5 6 
#
# 1 0.006492 -0.001408 -0.002302 -0.001315 0.001033 0.001323
# 2 -0.001408 0.019974 0.001496 -0.005352 -0.000667 -0.005817
# 3 -0.002302 0.001496 0.010222 0.002263 0.002083 -0.000627
# 4 -0.001315 -0.005352 0.002263 0.026813 0.001594 0.002539
# 5 0.001033 -0.000667 0.002083 0.001594 0.020200 -0.005715
# 6 0.001323 -0.005817 -0.000627 0.002539 -0.005715 0.035484
#
#
# Mechanical properties :
#
#
# Convention : Reuss Voigt Hill
#
# Bulk Modulus (GPa) = 30.99964 47.01527 39.00746
# Shear Modulus (GPa) = 37.21146 45.94795 41.57971
#
# Velocity S-wave (km/s) = 3.78009 4.20046 3.99581
# Velocity P-wave (km/s) = 5.56381 6.44817 6.02225
#
# Compressibility (1/GPa) = 0.03225844
#
# Stress axis : x y z
#
# Youngs Moduli (GPa) = 154.03483 50.06556 97.82515
#
# Poissons Ratio (x) = 0.07051 0.22522
# Poissons Ratio (y) = 0.21695 -0.14634
# Poissons Ratio (z) = 0.35463 -0.07489
#
# Static dielectric constant tensor:
#      x y z
#    x 2.039710 0.047350 -0.001330 
#    y 0.047350 2.107010 0.015320 
#    z -0.001330 0.015320 2.088810 
# 
# From -- ./inp_files/242039.got.cif
#   From: 2010.05.17/outbox.cif.g08.bks.cpg/sg2_122_cif.got.tgz:242039.got - 2010.06.03 11:33:40.
