data_PCOD9040111
_publ_section_title
;
Structure prediction by ZEFSAII (Michael W. Deem and Ramdas Pophale) SiO2 
 PCOD9040111
Probable space group: P -1
;
_chemical_formula_sum "Si O2"
_cell_formula_units_Z 14
_cell_length_a 13.240514
_cell_length_b 15.596393
_cell_length_c 11.188042
_cell_angle_alpha 37.624860
_cell_angle_beta 137.652310
_cell_angle_gamma 156.116215
_cell_volume 570.037083
_symmetry_space_group_name_H-M "P -1"
_symmetry_group_IT_number 2
_symmetry_cell_setting 'triclinic'
loop_
_space_group_symop_operation_xyz
x,y,z
-x,-y,-z
loop_
_atom_site_type_symbol
_atom_site_label
_atom_site_fract_x
_atom_site_fract_y
_atom_site_fract_z
Si Si1 0.082162 0.903160 0.169503
Si Si2 0.187373 0.625182 0.717684
Si Si3 0.741468 0.593266 0.650157
Si Si4 0.478299 0.140701 0.045191
Si Si5 0.714827 0.378656 0.453086
Si Si6 0.968983 0.789443 0.881652
Si Si7 0.837372 0.002534 0.599467
O O1 0.849676 0.624153 0.260201
O O2 0.293250 0.046898 0.096089
O O3 0.182098 0.950196 0.337200
O O4 0.000000 0.000000 0.000000
O O5 0.322403 0.792368 0.768713
O O6 0.289185 0.715697 0.569747
O O7 0.899979 0.450540 0.633174
O O8 0.194326 0.463604 0.934478
O O9 0.500000 0.500000 0.500000
O O10 0.881647 0.759664 0.704935
O O11 0.644802 0.372235 0.858158
O O12 0.946830 0.754006 0.549684
O O13 0.252985 0.944867 0.969407
O O14 0.445475 0.203584 0.466663
O O15 0.922429 0.901832 0.784514
#
# Coordination Sequence:
#
# PCOD9040111 Si02
#       7
#     2   2   2   2   2   2   2
#     4  12  23  39  64 104 131 164 215 285 330 378
#     4  10  23  43  62  99 132 182 214 263 331 401
#     4  11  24  42  64 100 134 174 218 265 336 397
#     4  11  22  40  66  95 131 172 217 265 329 388
#     4  11  25  40  66  96 141 171 218 270 330 388
#     4  11  23  41  70  93 133 173 217 273 327 387
#     4  12  25  39  68 103 131 167 222 279 325 388
#
# _framework density 24.559805999999998
#
# number of rings (size 3 to 8) (size 9 to 14) (size 15 to 20)
#    0.000    0.857    5.714    0.429    6.000    2.857 
#    0.000    2.857    0.000    5.143    0.000    0.000 
#    0.000    0.000    0.000    0.000    0.000    0.000 
#
# Total GULP energy -78100.759841 kJ/mol
# GULP energy per Si atom -5578.625703 kJ/mol
# Density = 2.450391 g / cm^3
# Si number density = 24.559806 Si / 1000 Ang^3
#
#
#
# Elastic Constant Matrix: (Units=GPa)
#
#
# Indices 1 2 3 4 5 6 
#
# 1 36.5424 28.4054 21.4528 2.4841 -0.9970 16.0104
# 2 28.4054 154.2916 63.3066 21.2714 0.6793 34.4636
# 3 21.4528 63.3066 143.8158 19.3857 -0.4610 19.3033
# 4 2.4841 21.2714 19.3857 80.0879 -11.8297 -8.4202
# 5 -0.9970 0.6793 -0.4610 -11.8297 24.1490 1.5773
# 6 16.0104 34.4636 19.3033 -8.4202 1.5773 51.2519
#
#
#
# Elastic Compliance Matrix: (Units=1/GPa)
#
#
# Indices 1 2 3 4 5 6 
#
# 1 0.035148 -0.003738 -0.002582 0.000031 0.002016 -0.007551
# 2 -0.003738 0.009693 -0.002749 -0.002491 -0.001394 -0.004681
# 3 -0.002582 -0.002749 0.008875 -0.001514 -0.000542 -0.000919
# 4 0.000031 -0.002491 -0.001514 0.015036 0.007115 0.004487
# 5 0.002016 -0.001394 -0.000542 0.007115 0.044988 0.000296
# 6 -0.007551 -0.004681 -0.000919 0.004487 0.000296 0.026092
#
#
# Mechanical properties :
#
#
# Convention : Reuss Voigt Hill
#
# Bulk Modulus (GPa) = 28.10862 62.33104 45.21983
# Shear Modulus (GPa) = 29.44150 45.86343 37.65246
#
# Velocity S-wave (km/s) = 3.46608 4.32605 3.91972
# Velocity P-wave (km/s) = 5.24291 7.09840 6.24001
#
# Compressibility (1/GPa) = 0.03557627
#
# Stress axis : x y z
#
# Youngs Moduli (GPa) = 28.45123 103.17143 112.68191
#
# Poissons Ratio (x) = 0.38567 0.29092
# Poissons Ratio (y) = 0.10635 0.30981
# Poissons Ratio (z) = 0.07345 0.28367
#
# Static dielectric constant tensor:
#      x y z
#    x 1.976700 -0.119450 0.040190 
#    y -0.119450 2.046620 0.026900 
#    z 0.040190 0.026900 2.040200 
# 
# From -- ./inp_files/456677.got.cif
#   From: 2010.05.17/outbox.cif.g08.bks.cpg/sg2_229_cif.got.tgz:456677.got - 2010.06.03 11:33:40.
