data_PCOD9040444
_publ_section_title
;
Structure prediction by ZEFSAII (Michael W. Deem and Ramdas Pophale) SiO2 
 PCOD9040444
Probable space group: P -1
;
_chemical_formula_sum "Si O2"
_cell_formula_units_Z 16
_cell_length_a 13.785442
_cell_length_b 7.492188
_cell_length_c 23.694720
_cell_angle_alpha 44.498042
_cell_angle_beta 23.448264
_cell_angle_gamma 52.617015
_cell_volume 672.675096
_symmetry_space_group_name_H-M "P -1"
_symmetry_group_IT_number 2
_symmetry_cell_setting 'triclinic'
loop_
_space_group_symop_operation_xyz
x,y,z
-x,-y,-z
loop_
_atom_site_type_symbol
_atom_site_label
_atom_site_fract_x
_atom_site_fract_y
_atom_site_fract_z
Si Si1 0.293184 0.272110 0.141936
Si Si2 0.903499 0.649823 0.070073
Si Si3 0.556834 0.104132 0.769279
Si Si4 0.107279 0.398561 0.572058
Si Si5 0.528134 0.300977 0.902217
Si Si6 0.770118 0.093008 0.454773
Si Si7 0.542001 0.298285 0.428639
Si Si8 0.435312 0.780109 0.797326
O O1 0.016994 0.244587 0.316959
O O2 0.385090 0.016522 0.174809
O O3 0.500000 0.500000 0.000000
O O4 0.301179 0.339471 0.056355
O O5 0.714733 0.822633 0.106684
O O6 0.737911 0.459741 0.245232
O O7 0.000000 0.500000 0.000000
O O8 0.147243 0.788903 0.940764
O O9 0.765084 0.350211 0.587743
O O10 0.549229 0.892898 0.770654
O O11 0.282800 0.392552 0.534328
O O12 0.819646 0.395513 0.737957
O O13 0.137599 0.138496 0.579027
O O14 0.478204 0.483147 0.836208
O O15 0.500000 0.000000 0.000000
O O16 0.648165 0.284390 0.437285
O O17 0.579097 0.952532 0.633088
O O18 0.500000 0.000000 0.500000
#
# Coordination Sequence:
#
# PCOD9040444 Si02
#       8
#     2   2   2   2   2   2   2   2
#     4  12  26  44  67 100 138 181 223 284 349 400
#     4  11  24  43  73 100 134 176 228 282 338 405
#     4  11  26  45  66  98 140 178 224 278 344 414
#     4  10  23  43  67 100 133 177 227 277 338 403
#     4  12  26  42  71 102 134 178 231 285 332 403
#     4  11  24  43  70  97 137 180 229 281 334 409
#     4   9  20  40  67  98 134 167 220 283 332 393
#     4  12  26  44  67  98 140 183 222 279 346 403
#
# _framework density 23.785629
#
# number of rings (size 3 to 8) (size 9 to 14) (size 15 to 20)
#    0.000    1.000    2.500    4.125    7.000    3.000 
#    0.000    2.500    0.000    0.000    0.000    0.000 
#    0.000    0.000    0.000    0.000    0.000    0.000 
#
# Total GULP energy -89371.483999 kJ/mol
# GULP energy per Si atom -5585.717750 kJ/mol
# Density = 2.373149 g / cm^3
# Si number density = 23.785629 Si / 1000 Ang^3
#
#
#
# Elastic Constant Matrix: (Units=GPa)
#
#
# Indices 1 2 3 4 5 6 
#
# 1 88.9193 24.3538 52.8488 4.6228 6.1624 -36.2884
# 2 24.3538 85.5851 52.5229 7.6359 2.6648 -26.9080
# 3 52.8488 52.5229 189.4726 7.2130 -18.7989 -40.4207
# 4 4.6228 7.6359 7.2130 30.2752 -3.5595 -1.5920
# 5 6.1624 2.6648 -18.7989 -3.5595 36.2152 -4.6576
# 6 -36.2884 -26.9080 -40.4207 -1.5920 -4.6576 48.9104
#
#
#
# Elastic Compliance Matrix: (Units=1/GPa)
#
#
# Indices 1 2 3 4 5 6 
#
# 1 0.017492 0.000418 -0.003074 -0.001912 -0.003470 0.010274
# 2 0.000418 0.015866 -0.003389 -0.003249 -0.002560 0.005889
# 3 -0.003074 -0.003389 0.008310 0.000164 0.005521 0.003254
# 4 -0.001912 -0.003249 0.000164 0.034470 0.003834 -0.001583
# 5 -0.003470 -0.002560 0.005521 0.003834 0.032118 0.003764
# 6 0.010274 0.005889 0.003254 -0.001583 0.003764 0.034304
#
#
# Mechanical properties :
#
#
# Convention : Reuss Voigt Hill
#
# Bulk Modulus (GPa) = 33.80871 69.26979 51.53925
# Shear Modulus (GPa) = 30.39332 38.69693 34.54512
#
# Velocity S-wave (km/s) = 3.57851 4.03787 3.81511
# Velocity P-wave (km/s) = 5.59635 7.13617 6.41264
#
# Compressibility (1/GPa) = 0.02957818
#
# Stress axis : x y z
#
# Youngs Moduli (GPa) = 57.16969 63.02781 120.33198
#
# Poissons Ratio (x) = -0.02636 0.36995
# Poissons Ratio (y) = -0.02391 0.40778
# Poissons Ratio (z) = 0.17576 0.21359
#
# Static dielectric constant tensor:
#      x y z
#    x 1.989370 0.145630 -0.031620 
#    y 0.145630 2.028910 -0.037250 
#    z -0.031620 -0.037250 1.793880 
# 
# From -- ./inp_files/619242.got.cif
#   From: 2010.05.17/outbox.cif.g08.bks.cpg/sg2_310_cif.got.tgz:619242.got - 2010.06.03 11:33:40.
