data_PCOD9040083
_publ_section_title
;
Structure prediction by ZEFSAII (Michael W. Deem and Ramdas Pophale) SiO2 
 PCOD9040083
Probable space group: P -1
;
_chemical_formula_sum "Si O2"
_cell_formula_units_Z 16
_cell_length_a 5.196782
_cell_length_b 17.635162
_cell_length_c 11.276731
_cell_angle_alpha 39.150073
_cell_angle_beta 100.709553
_cell_angle_gamma 90.195877
_cell_volume 624.413576
_symmetry_space_group_name_H-M "P -1"
_symmetry_group_IT_number 2
_symmetry_cell_setting 'triclinic'
loop_
_space_group_symop_operation_xyz
x,y,z
-x,-y,-z
loop_
_atom_site_type_symbol
_atom_site_label
_atom_site_fract_x
_atom_site_fract_y
_atom_site_fract_z
Si Si1 0.958646 0.066776 0.122517
Si Si2 0.573881 0.394209 0.373432
Si Si3 0.898433 0.416623 0.925636
Si Si4 0.523981 0.757753 0.235846
Si Si5 0.049284 0.178988 0.663910
Si Si6 0.835513 0.675596 0.712428
Si Si7 0.302305 0.257315 0.990929
Si Si8 0.696961 0.057118 0.360432
O O1 0.755282 0.045026 0.236748
O O2 0.079587 0.936766 0.228495
O O3 0.776096 0.161033 0.901294
O O4 0.170980 0.137836 0.107068
O O5 0.437203 0.349471 0.533013
O O6 0.472186 0.337749 0.311797
O O7 0.865604 0.312302 0.519588
O O8 0.423532 0.536912 0.174314
O O9 0.060587 0.363395 0.889204
O O10 0.977284 0.543768 0.822701
O O11 0.024065 0.321989 0.154058
O O12 0.708061 0.846668 0.192165
O O13 0.607066 0.709394 0.170828
O O14 0.149449 0.210653 0.504772
O O15 0.548997 0.203490 0.167101
O O16 0.500000 0.000000 0.500000
O O17 0.000000 0.000000 0.500000
#
# Coordination Sequence:
#
# PCOD9040083 Si02
#       8
#     2   2   2   2   2   2   2   2
#     4  11  25  41  65 105 135 185 225 290 353 419
#     4   9  20  40  65  96 126 174 232 286 345 399
#     4   9  20  45  65  95 134 171 231 287 346 424
#     4  10  23  43  61  96 132 182 239 279 355 407
#     4  11  22  40  69  93 133 179 233 293 345 418
#     4   8  20  41  62  95 126 167 226 277 346 406
#     4  11  24  42  69  98 145 180 225 286 355 415
#     4  11  24  46  67 101 145 189 231 275 351 426
#
# _framework density 25.624041999999999
#
# number of rings (size 3 to 8) (size 9 to 14) (size 15 to 20)
#    0.750    1.250    1.250    1.125    1.750    8.000 
#    4.500    1.250    0.000    0.000    0.000    0.000 
#    0.000    0.000    0.000    0.000    0.000    0.000 
#
# Total GULP energy -89163.833476 kJ/mol
# GULP energy per Si atom -5572.739592 kJ/mol
# Density = 2.556572 g / cm^3
# Si number density = 25.624042 Si / 1000 Ang^3
#
#
#
# Elastic Constant Matrix: (Units=GPa)
#
#
# Indices 1 2 3 4 5 6 
#
# 1 81.6563 8.5473 19.7174 4.0678 21.4238 -2.5375
# 2 8.5473 49.8336 12.8680 -4.6775 -0.0679 -2.6936
# 3 19.7174 12.8680 121.4431 20.1536 24.7601 5.5788
# 4 4.0678 -4.6775 20.1536 35.2181 -6.8218 0.6442
# 5 21.4238 -0.0679 24.7601 -6.8218 42.6713 0.6523
# 6 -2.5375 -2.6936 5.5788 0.6442 0.6523 28.0826
#
#
#
# Elastic Compliance Matrix: (Units=1/GPa)
#
#
# Indices 1 2 3 4 5 6 
#
# 1 0.014893 -0.002880 0.000121 -0.003780 -0.008177 0.001322
# 2 -0.002880 0.022370 -0.004092 0.006543 0.004865 0.002435
# 3 0.000121 -0.004092 0.011963 -0.008989 -0.008410 -0.002357
# 4 -0.003780 0.006543 -0.008989 0.037362 0.013083 0.000911
# 5 -0.008177 0.004865 -0.008410 0.013083 0.034515 0.000297
# 6 0.001322 0.002435 -0.002357 0.000911 0.000297 0.036403
#
#
# Mechanical properties :
#
#
# Convention : Reuss Voigt Hill
#
# Bulk Modulus (GPa) = 28.15098 37.24428 32.69763
# Shear Modulus (GPa) = 27.31501 35.31443 31.31472
#
# Velocity S-wave (km/s) = 3.26849 3.71641 3.49962
# Velocity P-wave (km/s) = 5.02534 5.74300 5.39611
#
# Compressibility (1/GPa) = 0.03552275
#
# Stress axis : x y z
#
# Youngs Moduli (GPa) = 67.14389 44.70289 83.59161
#
# Poissons Ratio (x) = 0.12875 -0.01009
# Poissons Ratio (y) = 0.19338 0.34208
# Poissons Ratio (z) = -0.00810 0.18294
#
# Static dielectric constant tensor:
#      x y z
#    x 2.166130 0.017680 -0.068830 
#    y 0.017680 2.041630 0.012240 
#    z -0.068830 0.012240 1.984110 
# 
# From -- ./inp_files/370352.got.cif
#   From: 2010.05.17/outbox.cif.g08.bks.cpg/sg2_186_cif.got.tgz:370352.got - 2010.06.03 11:33:40.
