data_PCOD9040011
_publ_section_title
;
Structure prediction by ZEFSAII (Michael W. Deem and Ramdas Pophale) SiO2 
 PCOD9040011
Probable space group: P -1
;
_chemical_formula_sum "Si O2"
_cell_formula_units_Z 16
_cell_length_a 9.193934
_cell_length_b 12.058968
_cell_length_c 21.601608
_cell_angle_alpha 142.417543
_cell_angle_beta 29.852334
_cell_angle_gamma 133.414323
_cell_volume 727.082346
_symmetry_space_group_name_H-M "P -1"
_symmetry_group_IT_number 2
_symmetry_cell_setting 'triclinic'
loop_
_space_group_symop_operation_xyz
x,y,z
-x,-y,-z
loop_
_atom_site_type_symbol
_atom_site_label
_atom_site_fract_x
_atom_site_fract_y
_atom_site_fract_z
Si Si1 0.323677 0.023327 0.137622
Si Si2 0.250469 0.460876 0.717561
Si Si3 0.103413 0.884418 0.968459
Si Si4 0.258661 0.345136 0.527439
Si Si5 0.803222 0.233879 0.433758
Si Si6 0.741390 0.233216 0.597204
Si Si7 0.915751 0.670612 0.148113
Si Si8 0.435819 0.995763 0.695572
O O1 0.110036 0.850515 0.146854
O O2 0.581177 0.031934 0.095308
O O3 0.145932 0.213827 0.285025
O O4 0.500000 0.000000 0.000000
O O5 0.169653 0.672416 0.838754
O O6 0.157523 0.369605 0.646721
O O7 0.594968 0.410049 0.581306
O O8 0.086042 0.375727 0.799215
O O9 0.000000 0.000000 0.000000
O O10 0.845172 0.908815 0.126585
O O11 0.500000 0.500000 0.500000
O O12 0.425207 0.152958 0.375826
O O13 0.006835 0.362007 0.576595
O O14 0.794644 0.159827 0.475269
O O15 0.671391 0.106344 0.372400
O O16 0.416972 0.304590 0.739320
O O17 0.699449 0.113050 0.621411
O O18 0.000000 0.500000 0.000000
#
# Coordination Sequence:
#
# PCOD9040011 Si02
#       8
#     2   2   2   2   2   2   2   2
#     4  12  24  44  73 106 144 185 232 290 356 415
#     4  10  25  47  68 102 142 184 238 287 353 414
#     4  12  27  46  70 103 145 191 234 288 353 422
#     4  11  26  44  64 100 142 179 231 290 347 413
#     4  10  23  42  74 102 138 176 237 291 346 414
#     4  11  23  43  72  99 131 183 235 280 347 416
#     4  11  24  45  71 106 142 182 236 293 347 421
#     4  11  22  45  69  98 138 180 233 281 350 419
#
# _framework density 22.005759999999999
#
# number of rings (size 3 to 8) (size 9 to 14) (size 15 to 20)
#    0.000    1.000    2.500    3.000    7.000    3.500 
#    6.750    1.875    0.000    0.000    0.000    0.000 
#    0.000    0.000    0.000    0.000    0.000    0.000 
#
# Total GULP energy -89242.959832 kJ/mol
# GULP energy per Si atom -5577.684989 kJ/mol
# Density = 2.195567 g / cm^3
# Si number density = 22.005760 Si / 1000 Ang^3
#
#
#
# Elastic Constant Matrix: (Units=GPa)
#
#
# Indices 1 2 3 4 5 6 
#
# 1 125.5602 32.1974 39.2532 -4.3686 -6.9276 8.9842
# 2 32.1974 66.1635 35.9763 4.1001 -8.2131 -3.1734
# 3 39.2532 35.9763 163.0935 10.1279 1.5808 -0.2558
# 4 -4.3686 4.1001 10.1279 31.6157 -3.8924 -1.5528
# 5 -6.9276 -8.2131 1.5808 -3.8924 36.1454 -7.2325
# 6 8.9842 -3.1734 -0.2558 -1.5528 -7.2325 39.1986
#
#
#
# Elastic Compliance Matrix: (Units=1/GPa)
#
#
# Indices 1 2 3 4 5 6 
#
# 1 0.009806 -0.004045 -0.001628 0.002387 0.000820 -0.002340
# 2 -0.004045 0.019665 -0.003317 -0.001353 0.004342 0.003245
# 3 -0.001628 -0.003317 0.007420 -0.002393 -0.001699 -0.000255
# 4 0.002387 -0.001353 -0.002393 0.033482 0.004144 0.001419
# 5 0.000820 0.004342 -0.001699 0.004144 0.030521 0.005948
# 6 -0.002340 0.003245 -0.000255 0.001419 0.005948 0.027462
#
#
# Mechanical properties :
#
#
# Convention : Reuss Voigt Hill
#
# Bulk Modulus (GPa) = 52.88123 63.29680 58.08901
# Shear Modulus (GPa) = 32.75710 37.88462 35.32086
#
# Velocity S-wave (km/s) = 3.86238 4.15369 4.01068
# Velocity P-wave (km/s) = 6.63125 7.19933 6.92112
#
# Compressibility (1/GPa) = 0.01891030
#
# Stress axis : x y z
#
# Youngs Moduli (GPa) = 101.97598 50.85234 134.77796
#
# Poissons Ratio (x) = 0.20571 0.21937
# Poissons Ratio (y) = 0.41253 0.44708
# Poissons Ratio (z) = 0.16598 0.16869
#
# Static dielectric constant tensor:
#      x y z
#    x 1.829080 -0.006810 0.029860 
#    y -0.006810 1.760910 -0.100650 
#    z 0.029860 -0.100650 1.804660 
# 
# From -- ./inp_files/273578.got.cif
#   From: 2010.05.17/outbox.cif.g08.bks.cpg/sg2_137_cif.got.tgz:273578.got - 2010.06.03 11:33:40.
