data_PCOD9040666
_publ_section_title
;
Structure prediction by ZEFSAII (Michael W. Deem and Ramdas Pophale) SiO2 
 PCOD9040666
Probable space group: P -1
;
_chemical_formula_sum "Si O2"
_cell_formula_units_Z 16
_cell_length_a 12.130493
_cell_length_b 14.565280
_cell_length_c 11.550731
_cell_angle_alpha 62.154381
_cell_angle_beta 101.569246
_cell_angle_gamma 153.259264
_cell_volume 681.095478
_symmetry_space_group_name_H-M "P -1"
_symmetry_group_IT_number 2
_symmetry_cell_setting 'triclinic'
loop_
_space_group_symop_operation_xyz
x,y,z
-x,-y,-z
loop_
_atom_site_type_symbol
_atom_site_label
_atom_site_fract_x
_atom_site_fract_y
_atom_site_fract_z
Si Si1 0.293006 0.072238 0.965899
Si Si2 0.141605 0.662033 0.554026
Si Si3 0.989017 0.071034 0.565345
Si Si4 0.849066 0.795050 0.897471
Si Si5 0.125608 0.404061 0.098544
Si Si6 0.841801 0.264761 0.910716
Si Si7 0.357889 0.062375 0.552129
Si Si8 0.299725 0.541970 0.395480
O O1 0.531154 0.290199 0.987342
O O2 0.502637 0.247672 0.792642
O O3 0.047515 0.949649 0.962602
O O4 0.138879 0.830530 0.091313
O O5 0.463139 0.886769 0.478341
O O6 0.000000 0.500000 0.500000
O O7 0.000916 0.484476 0.738416
O O8 0.016838 0.672230 0.530826
O O9 0.249990 0.377234 0.457554
O O10 0.955687 0.977397 0.729801
O O11 0.715853 0.913891 0.572898
O O12 0.000000 0.000000 0.500000
O O13 0.913640 0.740674 0.882188
O O14 0.500000 0.500000 0.000000
O O15 0.936538 0.230768 0.276633
O O16 0.985792 0.370387 0.004369
O O17 0.500000 0.000000 0.000000
O O18 0.530445 0.275215 0.561910
#
# Coordination Sequence:
#
# PCOD9040666 Si02
#       8
#     2   2   2   2   2   2   2   2
#     4  11  22  43  69  98 136 180 233 283 349 420
#     4  10  23  43  68 103 143 181 230 287 340 415
#     4  12  24  43  72 100 130 185 236 286 352 408
#     4  11  26  46  67  95 139 176 230 300 350 411
#     4  11  23  45  68 101 136 183 233 282 350 418
#     4  11  21  42  70  97 141 184 224 281 347 408
#     4  11  22  42  69  99 145 180 231 290 340 417
#     4  11  21  44  70 101 138 183 229 284 348 416
#
# _framework density 23.491568000000001
#
# number of rings (size 3 to 8) (size 9 to 14) (size 15 to 20)
#    0.000    1.000    6.250    0.750    3.500    4.500 
#    4.500    0.000    0.000    0.000    0.000    0.000 
#    0.000    0.000    0.000    0.000    0.000    0.000 
#
# Total GULP energy -89389.433640 kJ/mol
# GULP energy per Si atom -5586.839602 kJ/mol
# Density = 2.343810 g / cm^3
# Si number density = 23.491568 Si / 1000 Ang^3
#
#
#
# Elastic Constant Matrix: (Units=GPa)
#
#
# Indices 1 2 3 4 5 6 
#
# 1 138.3388 45.6228 28.2216 -0.8730 3.1964 -0.5293
# 2 45.6228 139.8817 7.5039 -3.8369 11.7163 27.7880
# 3 28.2216 7.5039 47.7529 -6.6731 17.7005 9.3025
# 4 -0.8730 -3.8369 -6.6731 33.9605 10.5834 3.0047
# 5 3.1964 11.7163 17.7005 10.5834 44.7915 -4.4388
# 6 -0.5293 27.7880 9.3025 3.0047 -4.4388 62.6246
#
#
#
# Elastic Compliance Matrix: (Units=1/GPa)
#
#
# Indices 1 2 3 4 5 6 
#
# 1 0.010186 -0.004119 -0.008442 -0.003727 0.004934 0.003696
# 2 -0.004119 0.009987 0.004722 0.004258 -0.005763 -0.005781
# 3 -0.008442 0.004722 0.036191 0.014279 -0.019259 -0.009593
# 4 -0.003727 0.004258 0.014279 0.038321 -0.016242 -0.007032
# 5 0.004934 -0.005763 -0.019259 -0.016242 0.035799 0.008777
# 6 0.003696 -0.005781 -0.009593 -0.007032 0.008777 0.020949
#
#
# Mechanical properties :
#
#
# Convention : Reuss Voigt Hill
#
# Bulk Modulus (GPa) = 24.57833 54.29668 39.43750
# Shear Modulus (GPa) = 27.67446 44.58366 36.12906
#
# Velocity S-wave (km/s) = 3.43601 4.36117 3.92594
# Velocity P-wave (km/s) = 5.12122 6.96586 6.11351
#
# Compressibility (1/GPa) = 0.04068625
#
# Stress axis : x y z
#
# Youngs Moduli (GPa) = 98.17488 100.13163 27.63117
#
# Poissons Ratio (x) = 0.41245 0.23327
# Poissons Ratio (y) = 0.40439 -0.13049
# Poissons Ratio (z) = 0.82880 -0.47286
#
# Static dielectric constant tensor:
#      x y z
#    x 1.925340 -0.003190 -0.019200 
#    y -0.003190 2.078850 0.015160 
#    z -0.019200 0.015160 1.841210 
# 
# From -- ./inp_files/433847.got.cif
#   From: 2010.05.17/outbox.cif.g08.bks.cpg/sg2_217_cif.got.tgz:433847.got - 2010.06.03 11:33:40.
