data_PCOD9040729
_publ_section_title
;
Structure prediction by ZEFSAII (Michael W. Deem and Ramdas Pophale) SiO2 
 PCOD9040729
Probable space group: P -1
;
_chemical_formula_sum "Si O2"
_cell_formula_units_Z 16
_cell_length_a 20.885264
_cell_length_b 8.840938
_cell_length_c 21.586429
_cell_angle_alpha 128.082992
_cell_angle_beta 160.334258
_cell_angle_gamma 40.878484
_cell_volume 791.628182
_symmetry_space_group_name_H-M "P -1"
_symmetry_group_IT_number 2
_symmetry_cell_setting 'triclinic'
loop_
_space_group_symop_operation_xyz
x,y,z
-x,-y,-z
loop_
_atom_site_type_symbol
_atom_site_label
_atom_site_fract_x
_atom_site_fract_y
_atom_site_fract_z
Si Si1 0.140511 0.934154 0.046642
Si Si2 0.258950 0.796368 0.354300
Si Si3 0.956160 0.059510 0.668507
Si Si4 0.621260 0.966793 0.012023
Si Si5 0.071508 0.589045 0.408262
Si Si6 0.099474 0.525299 0.660803
Si Si7 0.581000 0.905512 0.478476
Si Si8 0.562440 0.336445 0.267882
O O1 0.339130 0.970959 0.243832
O O2 0.303427 0.632398 0.106795
O O3 0.000000 0.000000 0.000000
O O4 0.946275 0.116344 0.862437
O O5 0.500000 0.500000 0.500000
O O6 0.135220 0.870940 0.327303
O O7 0.347911 0.946746 0.452672
O O8 0.164217 0.084107 0.850331
O O9 0.075258 0.769351 0.694373
O O10 0.713859 0.235640 0.445910
O O11 0.385601 0.268689 0.871210
O O12 0.785656 0.838490 0.192338
O O13 0.509124 0.832069 0.858479
O O14 0.194307 0.394062 0.411555
O O15 0.240730 0.666298 0.594216
O O16 0.063969 0.452683 0.425479
O O17 0.000000 0.500000 0.500000
O O18 0.500000 0.000000 0.500000
#
# Coordination Sequence:
#
# PCOD9040729 Si02
#       8
#     2   2   2   2   2   2   2   2
#     4  11  23  40  67  96 128 178 223 269 335 402
#     4  12  26  42  68 102 136 174 223 282 338 399
#     4  11  25  45  65 100 140 173 224 284 339 400
#     4  11  24  43  69  94 131 181 223 274 333 405
#     4  10  24  45  68  98 133 176 228 275 330 408
#     4  12  24  46  67  98 140 177 222 284 340 389
#     4  11  23  43  71  97 136 178 221 277 335 406
#     4  10  23  43  68  96 129 175 226 272 334 403
#
# _framework density 20.211507999999998
#
# number of rings (size 3 to 8) (size 9 to 14) (size 15 to 20)
#    0.000    1.000    3.750    2.250    3.500    4.000 
#    2.250    0.000    0.000    0.000    0.000    0.000 
#    0.000    0.000    0.000    0.000    0.000    0.000 
#
# Total GULP energy -89381.503689 kJ/mol
# GULP energy per Si atom -5586.343981 kJ/mol
# Density = 2.016551 g / cm^3
# Si number density = 20.211508 Si / 1000 Ang^3
#
#
#
# Elastic Constant Matrix: (Units=GPa)
#
#
# Indices 1 2 3 4 5 6 
#
# 1 110.9552 26.1654 31.0328 5.1446 5.0079 8.7217
# 2 26.1654 110.8827 60.2188 -2.7193 -3.5427 6.6371
# 3 31.0328 60.2188 119.2121 -12.3537 -2.1243 4.4139
# 4 5.1446 -2.7193 -12.3537 43.7460 12.8349 7.3435
# 5 5.0079 -3.5427 -2.1243 12.8349 28.1709 1.5128
# 6 8.7217 6.6371 4.4139 7.3435 1.5128 32.8159
#
#
#
# Elastic Compliance Matrix: (Units=1/GPa)
#
#
# Indices 1 2 3 4 5 6 
#
# 1 0.010153 -0.001220 -0.002100 -0.001108 -0.001512 -0.001851
# 2 -0.001220 0.012767 -0.006171 -0.001169 0.001957 -0.001256
# 3 -0.002100 -0.006171 0.012454 0.003839 -0.001176 -0.000674
# 4 -0.001108 -0.001169 0.003839 0.028611 -0.012383 -0.005817
# 5 -0.001512 0.001957 -0.001176 -0.012383 0.041511 0.001022
# 6 -0.001851 -0.001256 -0.000674 -0.005817 0.001022 0.032564
#
#
# Mechanical properties :
#
#
# Convention : Reuss Voigt Hill
#
# Bulk Modulus (GPa) = 61.00691 63.98712 62.49702
# Shear Modulus (GPa) = 30.76801 35.85542 33.31172
#
# Velocity S-wave (km/s) = 3.90590 4.21647 4.06415
# Velocity P-wave (km/s) = 7.11275 7.44529 7.28092
#
# Compressibility (1/GPa) = 0.01639159
#
# Stress axis : x y z
#
# Youngs Moduli (GPa) = 98.49449 78.32660 80.29431
#
# Poissons Ratio (x) = 0.09556 0.16861
# Poissons Ratio (y) = 0.12017 0.49552
# Poissons Ratio (z) = 0.20683 0.48338
#
# Static dielectric constant tensor:
#      x y z
#    x 1.769380 -0.091200 0.075730 
#    y -0.091200 1.827510 -0.093780 
#    z 0.075730 -0.093780 1.756890 
# 
# From -- ./inp_files/227240.got.cif
#   From: 2010.05.17/outbox.cif.g08.bks.cpg/sg2_114_cif.got.tgz:227240.got - 2010.06.03 11:33:40.
