data_PCOD9040600
_publ_section_title
;
Structure prediction by ZEFSAII (Michael W. Deem and Ramdas Pophale) SiO2 
 PCOD9040600
Probable space group: P -1
;
_chemical_formula_sum "Si O2"
_cell_formula_units_Z 16
_cell_length_a 22.697732
_cell_length_b 5.205764
_cell_length_c 8.349114
_cell_angle_alpha 118.599014
_cell_angle_beta 134.565239
_cell_angle_gamma 77.960572
_cell_volume 604.179969
_symmetry_space_group_name_H-M "P -1"
_symmetry_group_IT_number 2
_symmetry_cell_setting 'triclinic'
loop_
_space_group_symop_operation_xyz
x,y,z
-x,-y,-z
loop_
_atom_site_type_symbol
_atom_site_label
_atom_site_fract_x
_atom_site_fract_y
_atom_site_fract_z
Si Si1 0.012078 0.563605 0.732659
Si Si2 0.825059 0.450457 0.466709
Si Si3 0.658864 0.159758 0.466032
Si Si4 0.760340 0.228165 0.977611
Si Si5 0.491755 0.774972 0.178692
Si Si6 0.882213 0.833564 0.984226
Si Si7 0.386961 0.295664 0.379257
Si Si8 0.328884 0.063053 0.902351
O O1 0.074260 0.379074 0.884247
O O2 0.000000 0.500000 0.500000
O O3 0.923635 0.467550 0.627350
O O4 0.050174 0.917608 0.908544
O O5 0.762871 0.136364 0.293807
O O6 0.823749 0.651736 0.680352
O O7 0.790049 0.503445 0.236852
O O8 0.740905 0.253524 0.761549
O O9 0.644968 0.487361 0.489914
O O10 0.668907 0.921190 0.280384
O O11 0.569386 0.033974 0.344352
O O12 0.673232 0.024697 0.808438
O O13 0.830620 0.023652 0.052347
O O14 0.518312 0.703120 0.388212
O O15 0.500000 0.500000 0.000000
O O16 0.404287 0.878419 0.022831
O O17 0.361003 0.347985 0.162893
#
# Coordination Sequence:
#
# PCOD9040600 Si02
#       8
#     2   2   2   2   2   2   2   2
#     4  12  27  52  80 110 150 200 243 306 375 443
#     4  11  26  47  73 109 146 188 247 304 366 444
#     4  11  24  45  68 100 140 189 239 298 367 432
#     4  10  25  45  70 106 143 190 235 306 362 439
#     4  11  23  44  68  96 145 187 237 299 366 441
#     4  12  27  50  79 108 152 196 246 303 376 441
#     4  10  23  43  67  98 144 182 242 296 362 437
#     4  11  24  44  71 104 138 188 244 301 367 433
#
# _framework density 26.482175999999999
#
# number of rings (size 3 to 8) (size 9 to 14) (size 15 to 20)
#    0.000    1.000    2.500    2.625    5.250    1.500 
#    9.000    0.000    0.000    0.000    0.000    0.000 
#    0.000    0.000    0.000    0.000    0.000    0.000 
#
# Total GULP energy -89411.165704 kJ/mol
# GULP energy per Si atom -5588.197857 kJ/mol
# Density = 2.642190 g / cm^3
# Si number density = 26.482176 Si / 1000 Ang^3
#
#
#
# Elastic Constant Matrix: (Units=GPa)
#
#
# Indices 1 2 3 4 5 6 
#
# 1 136.2903 14.9862 37.5543 8.5532 8.4938 8.6237
# 2 14.9862 92.2532 55.6422 -11.6372 5.3620 3.9810
# 3 37.5543 55.6422 184.0995 -3.6453 -25.4249 2.6291
# 4 8.5532 -11.6372 -3.6453 46.7292 2.1416 -0.7883
# 5 8.4938 5.3620 -25.4249 2.1416 59.8554 12.0601
# 6 8.6237 3.9810 2.6291 -0.7883 12.0601 22.6919
#
#
#
# Elastic Compliance Matrix: (Units=1/GPa)
#
#
# Indices 1 2 3 4 5 6 
#
# 1 0.008189 -0.000298 -0.001775 -0.001684 -0.001391 -0.002173
# 2 -0.000298 0.014325 -0.004665 0.003412 -0.003353 0.000041
# 3 -0.001775 -0.004665 0.007822 -0.000456 0.004361 -0.001747
# 4 -0.001684 0.003412 -0.000456 0.022614 -0.001396 0.001622
# 5 -0.001391 -0.003353 0.004361 -0.001396 0.021271 -0.010742
# 6 -0.002173 0.000041 -0.001747 0.001622 -0.010742 0.050855
#
#
# Mechanical properties :
#
#
# Convention : Reuss Voigt Hill
#
# Bulk Modulus (GPa) = 59.30767 69.88983 64.59875
# Shear Modulus (GPa) = 34.68076 46.15265 40.41671
#
# Velocity S-wave (km/s) = 3.62275 4.17919 3.91088
# Velocity P-wave (km/s) = 6.32005 7.05238 6.69623
#
# Compressibility (1/GPa) = 0.01686122
#
# Stress axis : x y z
#
# Youngs Moduli (GPa) = 122.11488 69.80620 127.84401
#
# Poissons Ratio (x) = 0.02077 0.22692
# Poissons Ratio (y) = 0.03633 0.59640
# Poissons Ratio (z) = 0.21675 0.32565
#
# Static dielectric constant tensor:
#      x y z
#    x 2.172820 0.098900 -0.130990 
#    y 0.098900 2.221450 -0.102230 
#    z -0.130990 -0.102230 2.137120 
# 
# From -- ./inp_files/356066.got.cif
#   From: 2010.05.17/outbox.cif.g08.bks.cpg/sg2_179_cif.got.tgz:356066.got - 2010.06.03 11:33:40.
