data_PCOD9040462
_publ_section_title
;
Structure prediction by ZEFSAII (Michael W. Deem and Ramdas Pophale) SiO2 
 PCOD9040462
Probable space group: P -1
;
_chemical_formula_sum "Si O2"
_cell_formula_units_Z 14
_cell_length_a 11.199751
_cell_length_b 5.645798
_cell_length_c 15.833283
_cell_angle_alpha 109.059116
_cell_angle_beta 134.483941
_cell_angle_gamma 55.115485
_cell_volume 581.196164
_symmetry_space_group_name_H-M "P -1"
_symmetry_group_IT_number 2
_symmetry_cell_setting 'triclinic'
loop_
_space_group_symop_operation_xyz
x,y,z
-x,-y,-z
loop_
_atom_site_type_symbol
_atom_site_label
_atom_site_fract_x
_atom_site_fract_y
_atom_site_fract_z
Si Si1 0.171399 0.591700 0.044594
Si Si2 0.809282 0.188259 0.625536
Si Si3 0.585430 0.051322 0.962354
Si Si4 0.030488 0.966516 0.867801
Si Si5 0.440618 0.173229 0.401836
Si Si6 0.490748 0.262105 0.764930
Si Si7 0.073497 0.737410 0.572862
O O1 0.320893 0.709539 0.133577
O O2 0.035617 0.745652 0.074427
O O3 0.305695 0.253204 0.067834
O O4 0.056643 0.715979 0.914923
O O5 0.621681 0.227590 0.488633
O O6 0.758752 0.520290 0.648059
O O7 0.854551 0.062235 0.727711
O O8 0.991938 0.931145 0.638682
O O9 0.442115 0.246439 0.838449
O O10 0.500000 0.000000 0.000000
O O11 0.756510 0.123994 0.074064
O O12 0.500000 0.000000 0.500000
O O13 0.454266 0.999293 0.303811
O O14 0.305031 0.540153 0.665450
O O15 0.000000 0.500000 0.500000
O O16 0.000000 0.000000 0.500000
#
# Coordination Sequence:
#
# PCOD9040462 Si02
#       7
#     2   2   2   2   2   2   2
#     4  10  23  44  70  97 139 183 242 306 375 435
#     4  11  25  41  70  99 143 182 247 297 372 442
#     4  11  26  42  69 102 142 193 242 304 378 454
#     4  10  23  43  67 101 131 185 244 303 364 443
#     4  11  23  44  68 103 136 189 245 306 372 447
#     4  11  25  44  73 102 150 188 247 310 382 442
#     4  12  28  48  71 110 153 201 248 306 379 459
#
# _framework density 24.088253000000002
#
# number of rings (size 3 to 8) (size 9 to 14) (size 15 to 20)
#    0.000    1.143    1.429    3.000    6.000    6.857 
#    0.000    0.000    0.000    0.000    0.000    0.000 
#    0.000    0.000    0.000    0.000    0.000    0.000 
#
# Total GULP energy -78168.671856 kJ/mol
# GULP energy per Si atom -5583.476561 kJ/mol
# Density = 2.403343 g / cm^3
# Si number density = 24.088253 Si / 1000 Ang^3
#
#
#
# Elastic Constant Matrix: (Units=GPa)
#
#
# Indices 1 2 3 4 5 6 
#
# 1 89.6095 10.7072 29.0746 5.6152 -16.6039 -10.8325
# 2 10.7072 131.2582 44.3257 -8.7370 -6.8478 -12.4865
# 3 29.0746 44.3257 130.8047 -5.6972 -11.4078 10.9090
# 4 5.6152 -8.7370 -5.6972 37.7557 0.6250 -4.2967
# 5 -16.6039 -6.8478 -11.4078 0.6250 32.1549 -2.1069
# 6 -10.8325 -12.4865 10.9090 -4.2967 -2.1069 29.7034
#
#
#
# Elastic Compliance Matrix: (Units=1/GPa)
#
#
# Indices 1 2 3 4 5 6 
#
# 1 0.014491 0.000979 -0.003633 -0.001764 0.006913 0.007266
# 2 0.000979 0.009631 -0.003766 0.002196 0.001585 0.006219
# 3 -0.003633 -0.003766 0.010348 0.000470 0.000552 -0.006601
# 4 -0.001764 0.002196 0.000470 0.027802 -0.000549 0.004090
# 5 0.006913 0.001585 0.000552 -0.000549 0.035569 0.005428
# 6 0.007266 0.006219 -0.006601 0.004090 0.005428 0.042331
#
#
# Mechanical properties :
#
#
# Convention : Reuss Voigt Hill
#
# Bulk Modulus (GPa) = 46.23120 57.76527 51.99823
# Shear Modulus (GPa) = 31.20689 37.76045 34.48367
#
# Velocity S-wave (km/s) = 3.60324 3.96357 3.78769
# Velocity P-wave (km/s) = 6.04527 6.70666 6.38453
#
# Compressibility (1/GPa) = 0.02163041
#
# Stress axis : x y z
#
# Youngs Moduli (GPa) = 69.00867 103.83156 96.63961
#
# Poissons Ratio (x) = -0.10165 0.35106
# Poissons Ratio (y) = -0.06756 0.36394
# Poissons Ratio (z) = 0.25068 0.39103
#
# Static dielectric constant tensor:
#      x y z
#    x 1.981940 -0.017220 0.197070 
#    y -0.017220 1.804650 0.410560 
#    z 0.197070 0.410560 1.026950 
# 
# From -- ./inp_files/77481.got.cif
#   From: 2010.05.17/outbox.cif.g08.bks.cpg/sg2_39_cif.got.tgz:77481.got - 2010.06.03 11:33:40.
