data_PCOD9040161
_publ_section_title
;
Structure prediction by ZEFSAII (Michael W. Deem and Ramdas Pophale) SiO2 
 PCOD9040161
Probable space group: P -1
;
_chemical_formula_sum "Si O2"
_cell_formula_units_Z 12
_cell_length_a 14.320674
_cell_length_b 7.044036
_cell_length_c 14.097422
_cell_angle_alpha 58.384356
_cell_angle_beta 28.378557
_cell_angle_gamma 60.745251
_cell_volume 574.265418
_symmetry_space_group_name_H-M "P -1"
_symmetry_group_IT_number 2
_symmetry_cell_setting 'triclinic'
loop_
_space_group_symop_operation_xyz
x,y,z
-x,-y,-z
loop_
_atom_site_type_symbol
_atom_site_label
_atom_site_fract_x
_atom_site_fract_y
_atom_site_fract_z
Si Si1 0.270113 0.540544 0.681934
Si Si2 0.055741 0.712383 0.262655
Si Si3 0.618728 0.649691 0.006556
Si Si4 0.741635 0.405632 0.542674
Si Si5 0.776157 0.114800 0.754106
Si Si6 0.018001 0.123000 0.051373
O O1 0.500000 0.500000 0.500000
O O2 0.221784 0.596577 0.600500
O O3 0.182711 0.742394 0.772010
O O4 0.170084 0.314300 0.857319
O O5 0.072005 0.777218 0.340841
O O6 0.858795 0.598787 0.436838
O O7 0.074865 0.936776 0.127151
O O8 0.237216 0.538883 0.118188
O O9 0.490820 0.565504 0.231140
O O10 0.441816 0.755440 0.069775
O O11 0.744965 0.857301 0.866736
O O12 0.812555 0.178369 0.595305
O O13 0.000000 0.000000 0.000000
#
# Coordination Sequence:
#
# PCOD9040161 Si02
#       6
#     2   2   2   2   2   2
#     4  11  27  47  71  93 133 178 221 277 332 395
#     4  12  23  41  69  94 138 172 211 280 325 384
#     4   9  23  42  63  96 138 168 221 261 328 383
#     4  10  23  43  64 102 125 170 230 257 327 399
#     4   9  22  44  63  98 135 175 213 269 323 392
#     4  11  27  46  66 101 132 170 226 275 336 387
#
# _framework density 20.896260000000002
#
# number of rings (size 3 to 8) (size 9 to 14) (size 15 to 20)
#    1.000    0.667    1.667    1.000    7.000    2.667 
#    3.000    0.000    0.000    0.000    0.000    0.000 
#    0.000    0.000    0.000    0.000    0.000    0.000 
#
# Total GULP energy -67024.075921 kJ/mol
# GULP energy per Si atom -5585.339660 kJ/mol
# Density = 2.084870 g / cm^3
# Si number density = 20.896260 Si / 1000 Ang^3
#
#
#
# Elastic Constant Matrix: (Units=GPa)
#
#
# Indices 1 2 3 4 5 6 
#
# 1 79.0031 40.5747 32.5160 -5.6537 -1.7869 5.8764
# 2 40.5747 139.8286 51.7588 -0.3389 -4.1392 -0.2077
# 3 32.5160 51.7588 107.4384 0.4835 3.1795 1.7123
# 4 -5.6537 -0.3389 0.4835 23.1660 -9.4656 -1.2940
# 5 -1.7869 -4.1392 3.1795 -9.4656 25.8240 -7.1757
# 6 5.8764 -0.2077 1.7123 -1.2940 -7.1757 25.2817
#
#
#
# Elastic Compliance Matrix: (Units=1/GPa)
#
#
# Indices 1 2 3 4 5 6 
#
# 1 0.016390 -0.003462 -0.003324 0.004637 0.001900 -0.002836
# 2 -0.003462 0.009594 -0.003678 0.000471 0.002437 0.001849
# 3 -0.003324 -0.003678 0.012226 -0.002686 -0.003660 -0.001262
# 4 0.004637 0.000471 -0.002686 0.054196 0.022923 0.008388
# 5 0.001900 0.002437 -0.003660 0.022923 0.052519 0.015906
# 6 -0.002836 0.001849 -0.001262 0.008388 0.015906 0.045258
#
#
# Mechanical properties :
#
#
# Convention : Reuss Voigt Hill
#
# Bulk Modulus (GPa) = 57.86645 63.99658 60.93151
# Shear Modulus (GPa) = 23.05516 28.28238 25.66877
#
# Velocity S-wave (km/s) = 3.32522 3.68294 3.50864
# Velocity P-wave (km/s) = 6.51883 6.98411 6.75548
#
# Compressibility (1/GPa) = 0.01728117
#
# Stress axis : x y z
#
# Youngs Moduli (GPa) = 61.01362 104.23632 81.79287
#
# Poissons Ratio (x) = 0.36088 0.27191
# Poissons Ratio (y) = 0.21124 0.30081
# Poissons Ratio (z) = 0.20283 0.38335
#
# Static dielectric constant tensor:
#      x y z
#    x 1.749650 -0.014240 0.002380 
#    y -0.014240 1.720280 0.012310 
#    z 0.002380 0.012310 1.749950 
# 
# From -- ./inp_files/525191.got.cif
#   From: 2010.05.17/outbox.cif.g08.bks.cpg/sg2_263_cif.got.tgz:525191.got - 2010.06.03 11:33:40.
