data_PCOD9040644
_publ_section_title
;
Structure prediction by ZEFSAII (Michael W. Deem and Ramdas Pophale) SiO2 
 PCOD9040644
Probable space group: P -1
;
_chemical_formula_sum "Si O2"
_cell_formula_units_Z 12
_cell_length_a 11.537720
_cell_length_b 23.298897
_cell_length_c 11.322725
_cell_angle_alpha 160.583779
_cell_angle_beta 37.411831
_cell_angle_gamma 149.631430
_cell_volume 508.105820
_symmetry_space_group_name_H-M "P -1"
_symmetry_group_IT_number 2
_symmetry_cell_setting 'triclinic'
loop_
_space_group_symop_operation_xyz
x,y,z
-x,-y,-z
loop_
_atom_site_type_symbol
_atom_site_label
_atom_site_fract_x
_atom_site_fract_y
_atom_site_fract_z
Si Si1 0.091268 0.901474 0.590239
Si Si2 0.908551 0.319081 0.626805
Si Si3 0.589833 0.685944 0.479563
Si Si4 0.149179 0.283901 0.153591
Si Si5 0.427258 0.970453 0.272528
Si Si6 0.290995 0.022884 0.245557
O O1 0.098633 0.865261 0.651921
O O2 0.273207 0.867989 0.313785
O O3 0.830327 0.743302 0.449727
O O4 0.172413 0.126811 0.911666
O O5 0.064856 0.383716 0.510090
O O6 0.646117 0.203914 0.573713
O O7 0.000000 0.500000 0.000000
O O8 0.378629 0.456166 0.235583
O O9 0.634146 0.756949 0.444409
O O10 0.524990 0.838600 0.888610
O O11 0.940656 0.148825 0.968199
O O12 0.271523 0.985813 0.328807
O O13 0.500000 0.000000 0.000000
#
# Coordination Sequence:
#
# PCOD9040644 Si02
#       6
#     2   2   2   2   2   2
#     4  11  25  44  67  97 138 174 217 275 324 394
#     4  12  25  44  68  99 133 178 225 266 332 394
#     4  10  23  43  68 102 130 173 218 269 336 385
#     4  11  23  43  71 100 131 176 218 273 333 388
#     4  11  23  46  68  96 138 173 218 279 324 390
#     4   9  19  43  69  97 135 167 221 272 329 387
#
# _framework density 23.617128000000001
#
# number of rings (size 3 to 8) (size 9 to 14) (size 15 to 20)
#    0.000    1.333    5.000    2.000    2.333    6.000 
#    3.000    1.667    0.000    0.000    0.000    0.000 
#    0.000    0.000    0.000    0.000    0.000    0.000 
#
# Total GULP energy -67128.075312 kJ/mol
# GULP energy per Si atom -5594.006276 kJ/mol
# Density = 2.356337 g / cm^3
# Si number density = 23.617128 Si / 1000 Ang^3
#
#
#
# Elastic Constant Matrix: (Units=GPa)
#
#
# Indices 1 2 3 4 5 6 
#
# 1 68.6178 -16.2380 8.5580 7.7716 1.1489 -12.1629
# 2 -16.2380 99.1439 16.2475 15.4543 5.4564 -1.6138
# 3 8.5580 16.2475 89.3426 20.1532 13.5010 7.2976
# 4 7.7716 15.4543 20.1532 47.2715 -3.0160 -4.2057
# 5 1.1489 5.4564 13.5010 -3.0160 16.5131 -6.0773
# 6 -12.1629 -1.6138 7.2976 -4.2057 -6.0773 37.0300
#
#
#
# Elastic Compliance Matrix: (Units=1/GPa)
#
#
# Indices 1 2 3 4 5 6 
#
# 1 0.017074 0.003574 -0.002537 -0.002233 0.001606 0.006274
# 2 0.003574 0.011705 -0.001042 -0.004136 -0.003723 0.000809
# 3 -0.002537 -0.001042 0.016818 -0.008256 -0.017694 -0.008035
# 4 -0.002233 -0.004136 -0.008256 0.027976 0.015766 0.006478
# 5 0.001606 -0.003723 -0.017694 0.015766 0.086312 0.019808
# 6 0.006274 0.000809 -0.008035 0.006478 0.019808 0.034671
#
#
# Mechanical properties :
#
#
# Convention : Reuss Voigt Hill
#
# Bulk Modulus (GPa) = 21.93581 30.47104 26.20342
# Shear Modulus (GPa) = 23.83668 36.73204 30.28436
#
# Velocity S-wave (km/s) = 3.18039 3.94802 3.58481
# Velocity P-wave (km/s) = 4.77439 5.80626 5.31542
#
# Compressibility (1/GPa) = 0.04558757
#
# Stress axis : x y z
#
# Youngs Moduli (GPa) = 58.56957 85.43289 59.46098
#
# Poissons Ratio (x) = -0.30533 0.15084
# Poissons Ratio (y) = -0.20932 0.06193
# Poissons Ratio (z) = 0.14858 0.08899
#
# Static dielectric constant tensor:
#      x y z
#    x 1.882580 -0.021130 -0.042920 
#    y -0.021130 1.858780 -0.052330 
#    z -0.042920 -0.052330 1.988310 
# 
# From -- ./inp_files/164500.got.cif
#   From: 2010.05.17/outbox.cif.g08.bks.cpg/sg2_83_cif.got.tgz:164500.got - 2010.06.03 11:33:40.
