data_PCOD9040944
_publ_section_title
;
Structure prediction by ZEFSAII (Michael W. Deem and Ramdas Pophale) SiO2 
 PCOD9040944
Probable space group: P -1
;
_chemical_formula_sum "Si O2"
_cell_formula_units_Z 14
_cell_length_a 8.287973
_cell_length_b 16.582459
_cell_length_c 5.225546
_cell_angle_alpha 79.191331
_cell_angle_beta 123.208421
_cell_angle_gamma 84.567703
_cell_volume 572.948629
_symmetry_space_group_name_H-M "P -1"
_symmetry_group_IT_number 2
_symmetry_cell_setting 'triclinic'
loop_
_space_group_symop_operation_xyz
x,y,z
-x,-y,-z
loop_
_atom_site_type_symbol
_atom_site_label
_atom_site_fract_x
_atom_site_fract_y
_atom_site_fract_z
Si Si1 0.597064 0.031578 0.817007
Si Si2 0.536986 0.422114 0.782978
Si Si3 0.954462 0.896028 0.306154
Si Si4 0.809224 0.507985 0.160976
Si Si5 0.063655 0.197626 0.142182
Si Si6 0.334626 0.805260 0.425140
Si Si7 0.675744 0.675110 0.677426
O O1 0.573464 0.131299 0.703922
O O2 0.500000 0.000000 0.500000
O O3 0.500000 0.000000 0.000000
O O4 0.834307 0.990653 0.082420
O O5 0.500000 0.500000 0.500000
O O6 0.379902 0.450790 0.853978
O O7 0.475254 0.342894 0.655489
O O8 0.758507 0.421727 0.070080
O O9 0.914118 0.870297 0.571979
O O10 0.190726 0.865297 0.471734
O O11 0.860511 0.843719 0.042125
O O12 0.000000 0.500000 0.500000
O O13 0.803916 0.581262 0.907406
O O14 0.171254 0.268712 0.277285
O O15 0.830583 0.228856 0.855678
O O16 0.517114 0.729385 0.711047
#
# Coordination Sequence:
#
# PCOD9040944 Si02
#       7
#     2   2   2   2   2   2   2
#     4  12  25  42  74  98 138 187 236 288 341 409
#     4   9  22  41  66  93 135 168 228 273 349 408
#     4  10  23  46  65 101 140 182 238 279 344 409
#     4  10  23  43  69  99 131 180 229 281 343 420
#     4  10  25  42  69 100 141 180 234 282 352 403
#     4  10  26  42  67 100 140 181 233 287 350 407
#     4  11  23  44  65 100 137 182 225 291 348 416
#
# _framework density 24.434999999999999
#
# number of rings (size 3 to 8) (size 9 to 14) (size 15 to 20)
#    0.857    0.857    0.000    3.000    4.000    8.571 
#    0.000    0.000    0.000    0.000    0.000    0.000 
#    0.000    0.000    0.000    0.000    0.000    0.000 
#
# Total GULP energy -78109.901225 kJ/mol
# GULP energy per Si atom -5579.278659 kJ/mol
# Density = 2.437938 g / cm^3
# Si number density = 24.435000 Si / 1000 Ang^3
#
#
#
# Elastic Constant Matrix: (Units=GPa)
#
#
# Indices 1 2 3 4 5 6 
#
# 1 58.7219 23.8271 26.4609 11.2315 8.4764 13.6485
# 2 23.8271 89.9627 30.3741 23.5786 22.8934 24.6548
# 3 26.4609 30.3741 100.6788 12.2591 17.6846 13.3041
# 4 11.2315 23.5786 12.2591 32.6937 -1.8091 13.6441
# 5 8.4764 22.8934 17.6846 -1.8091 46.0849 3.7698
# 6 13.6485 24.6548 13.3041 13.6441 3.7698 36.1139
#
#
#
# Elastic Compliance Matrix: (Units=1/GPa)
#
#
# Indices 1 2 3 4 5 6 
#
# 1 0.021276 -0.002285 -0.003873 -0.002618 -0.001071 -0.003953
# 2 -0.002285 0.018732 -0.001535 -0.009748 -0.008120 -0.006828
# 3 -0.003873 -0.001535 0.012354 -0.001979 -0.003266 -0.000951
# 4 -0.002618 -0.009748 -0.001979 0.043459 0.008520 -0.008935
# 5 -0.001071 -0.008120 -0.003266 0.008520 0.027430 0.001069
# 6 -0.003953 -0.006828 -0.000951 -0.008935 0.001069 0.037460
#
#
# Mechanical properties :
#
#
# Convention : Reuss Voigt Hill
#
# Bulk Modulus (GPa) = 27.04514 45.63197 36.33855
# Shear Modulus (GPa) = 26.53600 34.22526 30.38063
#
# Velocity S-wave (km/s) = 3.29900 3.74661 3.52991
# Velocity P-wave (km/s) = 5.05998 6.11813 5.61404
#
# Compressibility (1/GPa) = 0.03697522
#
# Stress axis : x y z
#
# Youngs Moduli (GPa) = 47.00097 53.38458 80.94664
#
# Poissons Ratio (x) = 0.12200 0.31351
# Poissons Ratio (y) = 0.10741 0.12425
# Poissons Ratio (z) = 0.18204 0.08195
#
# Static dielectric constant tensor:
#      x y z
#    x 1.963880 -0.066550 0.023280 
#    y -0.066550 2.035300 -0.008770 
#    z 0.023280 -0.008770 1.954320 
# 
# From -- ./inp_files/47637.got.cif
#   From: 2010.05.17/outbox.cif.g08.bks.cpg/sg2_24_cif.got.tgz:47637.got - 2010.06.03 11:33:40.
