data_PCOD9041840
_publ_section_title
;
Structure prediction by ZEFSAII (Michael W. Deem and Ramdas Pophale) SiO2 
 PCOD9041840
Probable space group: P -1
;
_chemical_formula_sum "Si O2"
_cell_formula_units_Z 12
_cell_length_a 6.102433
_cell_length_b 12.123294
_cell_length_c 8.566923
_cell_angle_alpha 59.983352
_cell_angle_beta 108.686039
_cell_angle_gamma 113.956579
_cell_volume 495.976748
_symmetry_space_group_name_H-M "P -1"
_symmetry_group_IT_number 2
_symmetry_cell_setting 'triclinic'
loop_
_space_group_symop_operation_xyz
x,y,z
-x,-y,-z
loop_
_atom_site_type_symbol
_atom_site_label
_atom_site_fract_x
_atom_site_fract_y
_atom_site_fract_z
Si Si1 0.310512 0.213110 0.592255
Si Si2 0.338253 0.535080 0.107699
Si Si3 0.610660 0.723270 0.778972
Si Si4 0.161162 0.401756 0.633229
Si Si5 0.001225 0.957749 0.849126
Si Si6 0.774885 0.249159 0.877396
O O1 0.424459 0.228199 0.436143
O O2 0.236249 0.344155 0.531835
O O3 0.515015 0.206414 0.766869
O O4 0.084000 0.083986 0.663834
O O5 0.234235 0.381389 0.143479
O O6 0.594870 0.544326 0.246840
O O7 0.202438 0.609880 0.135610
O O8 0.397106 0.629766 0.901062
O O9 0.747825 0.852254 0.818195
O O10 0.000000 0.500000 0.500000
O O11 0.986644 0.279747 0.776016
O O12 0.189888 0.871808 0.929763
O O13 0.000000 0.000000 0.000000
#
# Coordination Sequence:
#
# PCOD9041840 Si02
#       6
#     2   2   2   2   2   2
#     4  11  24  42  66 102 132 167 223 269 320 390
#     4  10  23  44  67  97 136 169 218 268 331 385
#     4  11  23  44  66  98 138 165 215 281 321 381
#     4  11  21  41  70  97 130 174 218 269 323 391
#     4  12  23  46  69  91 134 180 218 261 330 395
#     4  11  22  44  70  94 127 181 215 262 328 391
#
# _framework density 24.194683000000001
#
# number of rings (size 3 to 8) (size 9 to 14) (size 15 to 20)
#    0.000    1.000    3.333    4.000    0.000    3.333 
#    9.000    1.667    0.000    0.000    0.000    0.000 
#    0.000    0.000    0.000    0.000    0.000    0.000 
#
# Total GULP energy -67119.963727 kJ/mol
# GULP energy per Si atom -5593.330311 kJ/mol
# Density = 2.413961 g / cm^3
# Si number density = 24.194683 Si / 1000 Ang^3
#
#
#
# Elastic Constant Matrix: (Units=GPa)
#
#
# Indices 1 2 3 4 5 6 
#
# 1 53.1650 2.2386 6.0504 3.6891 7.0849 -7.8348
# 2 2.2386 102.8211 3.7916 -9.0517 -7.9223 -2.2908
# 3 6.0504 3.7916 69.7096 -14.8539 -12.6866 -8.2375
# 4 3.6891 -9.0517 -14.8539 36.5485 -5.4729 -9.0278
# 5 7.0849 -7.9223 -12.6866 -5.4729 49.3404 -3.1319
# 6 -7.8348 -2.2908 -8.2375 -9.0278 -3.1319 33.0159
#
#
#
# Elastic Compliance Matrix: (Units=1/GPa)
#
#
# Indices 1 2 3 4 5 6 
#
# 1 0.020338 -0.000877 -0.002823 -0.003328 -0.003980 0.002773
# 2 -0.000877 0.010309 0.001104 0.004012 0.002645 0.002131
# 3 -0.002823 0.001104 0.019255 0.011465 0.007315 0.008040
# 4 -0.003328 0.004012 0.011465 0.038089 0.009160 0.013633
# 5 -0.003980 0.002645 0.007315 0.009160 0.024535 0.005896
# 6 0.002773 0.002131 0.008040 0.013633 0.005896 0.037387
#
#
# Mechanical properties :
#
#
# Convention : Reuss Voigt Hill
#
# Bulk Modulus (GPa) = 22.36742 27.76188 25.06465
# Shear Modulus (GPa) = 29.41039 38.02196 33.71618
#
# Velocity S-wave (km/s) = 3.49029 3.96852 3.73706
# Velocity P-wave (km/s) = 5.05051 5.70071 5.38543
#
# Compressibility (1/GPa) = 0.04470789
#
# Stress axis : x y z
#
# Youngs Moduli (GPa) = 49.16992 97.00711 51.93561
#
# Poissons Ratio (x) = 0.08503 0.14663
# Poissons Ratio (y) = 0.04310 -0.05731
# Poissons Ratio (z) = 0.13883 -0.10705
#
# Static dielectric constant tensor:
#      x y z
#    x 1.905600 0.004200 -0.002940 
#    y 0.004200 1.966100 0.007240 
#    z -0.002940 0.007240 1.975100 
# 
# From -- ./inp_files/21751.got.cif
#   From: 2010.05.17/outbox.cif.g08.bks.cpg/sg2_11_cif.got.tgz:21751.got - 2010.06.03 11:33:40.
