data_PCOD9041011
_publ_section_title
;
Structure prediction by ZEFSAII (Michael W. Deem and Ramdas Pophale) SiO2 
 PCOD9041011
Probable space group: P -1
;
_chemical_formula_sum "Si O2"
_cell_formula_units_Z 14
_cell_length_a 15.768425
_cell_length_b 9.596100
_cell_length_c 11.720035
_cell_angle_alpha 126.496159
_cell_angle_beta 29.968875
_cell_angle_gamma 135.188583
_cell_volume 623.354989
_symmetry_space_group_name_H-M "P -1"
_symmetry_group_IT_number 2
_symmetry_cell_setting 'triclinic'
loop_
_space_group_symop_operation_xyz
x,y,z
-x,-y,-z
loop_
_atom_site_type_symbol
_atom_site_label
_atom_site_fract_x
_atom_site_fract_y
_atom_site_fract_z
Si Si1 0.302050 0.848463 0.720124
Si Si2 0.566177 0.538874 0.810579
Si Si3 0.632398 0.904570 0.774992
Si Si4 0.975434 0.712899 0.498641
Si Si5 0.574953 0.343780 0.310223
Si Si6 0.046298 0.399633 0.158501
Si Si7 0.189338 0.178240 0.032127
O O1 0.362308 0.746876 0.701403
O O2 0.147301 0.692932 0.736604
O O3 0.500000 0.000000 0.500000
O O4 0.194853 0.975217 0.946280
O O5 0.548116 0.715971 0.862559
O O6 0.794463 0.621691 0.579266
O O7 0.500000 0.500000 0.000000
O O8 0.415890 0.339221 0.827126
O O9 0.595325 0.828448 0.650886
O O10 0.848041 0.073950 0.634646
O O11 0.500000 0.000000 0.000000
O O12 0.038920 0.542446 0.336632
O O13 0.891749 0.756758 0.732621
O O14 0.500000 0.500000 0.500000
O O15 0.767598 0.458371 0.064558
O O16 0.075312 0.218470 0.083323
#
# Coordination Sequence:
#
# PCOD9041011 Si02
#       7
#     2   2   2   2   2   2   2
#     4  12  29  48  73 105 143 192 242 291 353 429
#     4  10  23  43  70 104 148 176 231 290 360 416
#     4  12  25  46  73 104 142 184 243 292 354 421
#     4  11  25  41  77 110 143 181 236 293 362 412
#     4  12  29  49  73 100 147 192 239 294 355 420
#     4  12  25  49  73 103 148 186 238 292 362 421
#     4  11  24  47  74 109 141 186 237 297 355 424
#
# _framework density 22.459112999999999
#
# number of rings (size 3 to 8) (size 9 to 14) (size 15 to 20)
#    0.000    0.571    2.857    3.429   10.000    2.286 
#    0.000    0.000    0.000    0.000    0.000    0.000 
#    0.000    0.000    0.000    0.000    0.000    0.000 
#
# Total GULP energy -78197.392230 kJ/mol
# GULP energy per Si atom -5585.528016 kJ/mol
# Density = 2.240800 g / cm^3
# Si number density = 22.459113 Si / 1000 Ang^3
#
#
#
# Elastic Constant Matrix: (Units=GPa)
#
#
# Indices 1 2 3 4 5 6 
#
# 1 129.7399 69.9996 40.1653 19.8077 -13.6293 -23.9906
# 2 69.9996 145.5288 50.8219 28.9288 -0.6838 -1.2415
# 3 40.1653 50.8219 102.2363 12.3130 2.3625 7.1045
# 4 19.8077 28.9288 12.3130 50.6549 7.9116 -9.4978
# 5 -13.6293 -0.6838 2.3625 7.9116 24.9288 -4.1834
# 6 -23.9906 -1.2415 7.1045 -9.4978 -4.1834 45.9821
#
#
#
# Elastic Compliance Matrix: (Units=1/GPa)
#
#
# Indices 1 2 3 4 5 6 
#
# 1 0.014661 -0.005258 -0.003769 -0.001793 0.010250 0.008652
# 2 -0.005258 0.011106 -0.002739 -0.003935 -0.001561 -0.002975
# 3 -0.003769 -0.002739 0.013071 -0.000356 -0.004016 -0.004499
# 4 -0.001793 -0.003935 -0.000356 0.024708 -0.008332 0.003359
# 5 0.010250 -0.001561 -0.004016 -0.008332 0.050172 0.008770
# 6 0.008652 -0.002975 -0.004499 0.003359 0.008770 0.028368
#
#
# Mechanical properties :
#
#
# Convention : Reuss Voigt Hill
#
# Bulk Modulus (GPa) = 65.31894 77.71988 71.51941
# Shear Modulus (GPa) = 29.28773 38.74771 34.01772
#
# Velocity S-wave (km/s) = 3.61508 4.15813 3.89607
# Velocity P-wave (km/s) = 6.82434 7.59826 7.22168
#
# Compressibility (1/GPa) = 0.01530950
#
# Stress axis : x y z
#
# Youngs Moduli (GPa) = 68.20593 90.03788 76.50239
#
# Poissons Ratio (x) = 0.47340 0.28830
# Poissons Ratio (y) = 0.35861 0.20952
# Poissons Ratio (z) = 0.25703 0.24659
#
# Static dielectric constant tensor:
#      x y z
#    x 1.821120 0.114700 0.031560 
#    y 0.114700 1.627350 -0.078520 
#    z 0.031560 -0.078520 1.789790 
# 
# From -- ./inp_files/240848.got.cif
#   From: 2010.05.17/outbox.cif.g08.bks.cpg/sg2_121_cif.got.tgz:240848.got - 2010.06.03 11:33:40.
