data_PCOD9041047
_publ_section_title
;
Structure prediction by ZEFSAII (Michael W. Deem and Ramdas Pophale) SiO2 
 PCOD9041047
Probable space group: P -1
;
_chemical_formula_sum "Si O2"
_cell_formula_units_Z 14
_cell_length_a 9.504774
_cell_length_b 5.553465
_cell_length_c 11.401957
_cell_angle_alpha 88.852054
_cell_angle_beta 79.320190
_cell_angle_gamma 71.676623
_cell_volume 560.962501
_symmetry_space_group_name_H-M "P -1"
_symmetry_group_IT_number 2
_symmetry_cell_setting 'triclinic'
loop_
_space_group_symop_operation_xyz
x,y,z
-x,-y,-z
loop_
_atom_site_type_symbol
_atom_site_label
_atom_site_fract_x
_atom_site_fract_y
_atom_site_fract_z
Si Si1 0.641417 0.164557 0.903231
Si Si2 0.361303 0.616346 0.856413
Si Si3 0.496190 0.040215 0.241967
Si Si4 0.421915 0.795520 0.471813
Si Si5 0.080222 0.820389 0.294454
Si Si6 0.126723 0.708841 0.551353
Si Si7 0.184045 0.354417 0.748118
O O1 0.476566 0.365879 0.899147
O O2 0.606184 0.917893 0.860144
O O3 0.775689 0.210881 0.807952
O O4 0.677221 0.182182 0.033596
O O5 0.213536 0.576005 0.822278
O O6 0.471373 0.694978 0.745836
O O7 0.416053 0.881960 0.336395
O O8 0.669805 0.868559 0.233781
O O9 0.500000 0.500000 0.500000
O O10 0.251092 0.853283 0.538276
O O11 0.500000 0.000000 0.500000
O O12 0.105769 0.668813 0.416933
O O13 0.962307 0.733897 0.233477
O O14 0.012823 0.108097 0.355017
O O15 0.193131 0.449844 0.613640
#
# Coordination Sequence:
#
# PCOD9041047 Si02
#       7
#     2   2   2   2   2   2   2
#     4  10  23  44  67  97 128 172 230 287 349 406
#     4  10  23  43  70  96 125 171 234 290 343 408
#     4  11  22  41  68  93 133 173 227 285 341 405
#     4  12  24  40  70 106 140 183 235 289 352 422
#     4  11  24  42  63  93 137 175 219 278 351 419
#     4  11  24  42  61  98 134 178 224 271 349 423
#     4  11  22  41  64  93 133 172 217 284 338 420
#
# _framework density 24.957108000000002
#
# number of rings (size 3 to 8) (size 9 to 14) (size 15 to 20)
#    0.000    1.143    2.857    3.429    2.000    1.714 
#    0.000    2.857    0.000    0.000    0.000    0.000 
#    0.000    0.000    0.000    0.000    0.000    0.000 
#
# Total GULP energy -78028.612760 kJ/mol
# GULP energy per Si atom -5573.472340 kJ/mol
# Density = 2.490030 g / cm^3
# Si number density = 24.957108 Si / 1000 Ang^3
#
#
#
# Elastic Constant Matrix: (Units=GPa)
#
#
# Indices 1 2 3 4 5 6 
#
# 1 134.7493 7.0304 37.6925 13.4847 1.7837 24.6664
# 2 7.0304 56.7014 25.5118 -15.4803 1.1731 9.3739
# 3 37.6925 25.5118 114.3760 0.1057 1.3635 -5.2863
# 4 13.4847 -15.4803 0.1057 38.1809 8.4080 9.9982
# 5 1.7837 1.1731 1.3635 8.4080 33.7512 -0.0855
# 6 24.6664 9.3739 -5.2863 9.9982 -0.0855 35.0831
#
#
#
# Elastic Compliance Matrix: (Units=1/GPa)
#
#
# Indices 1 2 3 4 5 6 
#
# 1 0.009973 0.001686 -0.004022 -0.000709 -0.000266 -0.007867
# 2 0.001686 0.027164 -0.007214 0.015058 -0.004528 -0.013833
# 3 -0.004022 -0.007214 0.012023 -0.003742 0.000929 0.007636
# 4 -0.000709 0.015058 -0.003742 0.038731 -0.010022 -0.015151
# 5 -0.000266 -0.004528 0.000929 -0.010022 0.032270 0.004472
# 6 -0.007867 -0.013833 0.007636 -0.015151 0.004472 0.043210
#
#
# Mechanical properties :
#
#
# Convention : Reuss Voigt Hill
#
# Bulk Modulus (GPa) = 33.26733 49.58846 41.42790
# Shear Modulus (GPa) = 25.97497 37.10918 31.54207
#
# Velocity S-wave (km/s) = 3.22962 3.86024 3.55893
# Velocity P-wave (km/s) = 5.22168 6.30724 5.78996
#
# Compressibility (1/GPa) = 0.03005952
#
# Stress axis : x y z
#
# Youngs Moduli (GPa) = 100.27143 36.81282 83.17367
#
# Poissons Ratio (x) = -0.06206 0.33456
# Poissons Ratio (y) = -0.16904 0.60001
# Poissons Ratio (z) = 0.40333 0.26556
#
# Static dielectric constant tensor:
#      x y z
#    x 1.984820 0.072590 0.090180 
#    y 0.072590 2.179590 0.152100 
#    z 0.090180 0.152100 2.358720 
# 
# From -- ./inp_files/372918.got.cif
#   From: 2010.05.17/outbox.cif.g08.bks.cpg/sg2_187_cif.got.tgz:372918.got - 2010.06.03 11:33:40.
