data_PCOD9041931
_publ_section_title
;
Structure prediction by ZEFSAII (Michael W. Deem and Ramdas Pophale) SiO2 
 PCOD9041931
Probable space group: P -1
;
_chemical_formula_sum "Si O2"
_cell_formula_units_Z 14
_cell_length_a 8.791203
_cell_length_b 10.877182
_cell_length_c 15.733518
_cell_angle_alpha 132.734975
_cell_angle_beta 48.419223
_cell_angle_gamma 149.010724
_cell_volume 555.454151
_symmetry_space_group_name_H-M "P -1"
_symmetry_group_IT_number 2
_symmetry_cell_setting 'triclinic'
loop_
_space_group_symop_operation_xyz
x,y,z
-x,-y,-z
loop_
_atom_site_type_symbol
_atom_site_label
_atom_site_fract_x
_atom_site_fract_y
_atom_site_fract_z
Si Si1 0.785324 0.095167 0.568892
Si Si2 0.261674 0.792912 0.064783
Si Si3 0.207686 0.521590 0.271084
Si Si4 0.138860 0.904999 0.929119
Si Si5 0.639375 0.640196 0.424937
Si Si6 0.894984 0.723079 0.649235
Si Si7 0.143468 0.210565 0.846374
O O1 0.688438 0.228143 0.673274
O O2 0.931277 0.178130 0.458587
O O3 0.016115 0.198787 0.609908
O O4 0.414403 0.193668 0.489170
O O5 0.047054 0.822029 0.174601
O O6 0.499944 0.874344 0.084928
O O7 0.000000 0.500000 0.000000
O O8 0.500000 0.000000 0.000000
O O9 0.097433 0.433955 0.367390
O O10 0.497864 0.576466 0.186805
O O11 0.955952 0.297129 0.195866
O O12 0.966508 0.767404 0.017201
O O13 0.000000 0.000000 0.000000
O O14 0.500000 0.500000 0.500000
O O15 0.448771 0.442226 0.327819
O O16 0.032319 0.952726 0.763256
#
# Coordination Sequence:
#
# PCOD9041931 Si02
#       7
#     2   2   2   2   2   2   2
#     4  10  23  44  68 107 139 194 246 302 377 435
#     4  10  24  46  74 102 144 196 246 311 376 448
#     4  12  25  42  73 107 150 192 245 309 371 451
#     4  11  23  48  71 106 147 186 248 308 374 441
#     4   9  21  44  69  96 143 184 246 310 362 448
#     4  11  23  42  69 100 149 190 241 306 367 452
#     4  11  25  43  69 105 143 194 246 304 378 441
#
# _framework density 25.204601
#
# number of rings (size 3 to 8) (size 9 to 14) (size 15 to 20)
#    0.000    1.429    1.429    2.571    4.000    5.714 
#    0.000    7.143    0.000    0.000    0.000    0.000 
#    0.000    0.000    0.000    0.000    0.000    0.000 
#
# Total GULP energy -78201.019542 kJ/mol
# GULP energy per Si atom -5585.787110 kJ/mol
# Density = 2.514723 g / cm^3
# Si number density = 25.204601 Si / 1000 Ang^3
#
#
#
# Elastic Constant Matrix: (Units=GPa)
#
#
# Indices 1 2 3 4 5 6 
#
# 1 155.6427 63.8781 44.1851 4.9260 -7.6878 2.8375
# 2 63.8781 133.6205 28.6231 12.8582 2.7133 10.1942
# 3 44.1851 28.6231 63.8598 -4.4811 14.0626 4.1821
# 4 4.9260 12.8582 -4.4811 27.5718 0.2994 0.2890
# 5 -7.6878 2.7133 14.0626 0.2994 52.0554 3.1040
# 6 2.8375 10.1942 4.1821 0.2890 3.1040 54.8086
#
#
#
# Elastic Compliance Matrix: (Units=1/GPa)
#
#
# Indices 1 2 3 4 5 6 
#
# 1 0.009691 -0.003320 -0.006037 -0.001203 0.003218 0.000400
# 2 -0.003320 0.010140 -0.002411 -0.004509 -0.000253 -0.001492
# 3 -0.006037 -0.002411 0.022910 0.006008 -0.006952 -0.000625
# 4 -0.001203 -0.004509 0.006008 0.039580 -0.001814 0.000337
# 5 0.003218 -0.000253 -0.006952 -0.001814 0.021635 -0.000805
# 6 0.000400 -0.001492 -0.000625 0.000337 -0.000805 0.018594
#
#
# Mechanical properties :
#
#
# Convention : Reuss Voigt Hill
#
# Bulk Modulus (GPa) = 52.06572 69.61063 60.83817
# Shear Modulus (GPa) = 32.78965 41.31629 37.05297
#
# Velocity S-wave (km/s) = 3.61077 4.05314 3.83833
# Velocity P-wave (km/s) = 6.17135 7.04146 6.62071
#
# Compressibility (1/GPa) = 0.01920649
#
# Stress axis : x y z
#
# Youngs Moduli (GPa) = 103.18946 98.61618 43.64851
#
# Poissons Ratio (x) = 0.32739 0.26349
# Poissons Ratio (y) = 0.34257 0.10524
# Poissons Ratio (z) = 0.62291 0.23778
#
# Static dielectric constant tensor:
#      x y z
#    x 2.102090 -0.014140 -0.005970 
#    y -0.014140 2.054240 -0.029170 
#    z -0.005970 -0.029170 1.992120 
# 
# From -- ./inp_files/559910.got.cif
#   From: 2010.05.17/outbox.cif.g08.bks.cpg/sg2_280_cif.got.tgz:559910.got - 2010.06.03 11:33:40.
