data_PCOD9041913
_publ_section_title
;
Structure prediction by ZEFSAII (Michael W. Deem and Ramdas Pophale) SiO2 
 PCOD9041913
Probable space group: P -1
;
_chemical_formula_sum "Si O2"
_cell_formula_units_Z 14
_cell_length_a 14.153530
_cell_length_b 11.760693
_cell_length_c 5.109578
_cell_angle_alpha 85.454877
_cell_angle_beta 109.785015
_cell_angle_gamma 47.908895
_cell_volume 533.773460
_symmetry_space_group_name_H-M "P -1"
_symmetry_group_IT_number 2
_symmetry_cell_setting 'triclinic'
loop_
_space_group_symop_operation_xyz
x,y,z
-x,-y,-z
loop_
_atom_site_type_symbol
_atom_site_label
_atom_site_fract_x
_atom_site_fract_y
_atom_site_fract_z
Si Si1 0.068811 0.315856 0.512924
Si Si2 0.610753 0.893639 0.369478
Si Si3 0.908100 0.930436 0.156402
Si Si4 0.365501 0.382124 0.654534
Si Si5 0.389978 0.702523 0.395645
Si Si6 0.186763 0.825570 0.574326
Si Si7 0.209138 0.587507 0.978777
O O1 0.229661 0.179075 0.534766
O O2 0.000000 0.500000 0.500000
O O3 0.938079 0.363294 0.217441
O O4 0.088861 0.209215 0.795169
O O5 0.667028 0.717614 0.442677
O O6 0.500000 0.000000 0.500000
O O7 0.500000 0.000000 0.000000
O O8 0.875773 0.003904 0.406228
O O9 0.779047 0.099924 0.838388
O O10 0.066937 0.858790 0.278008
O O11 0.526150 0.276788 0.709386
O O12 0.331650 0.430725 0.917766
O O13 0.258302 0.542018 0.330841
O O14 0.500000 0.500000 0.500000
O O15 0.355450 0.706767 0.666222
O O16 0.201478 0.723518 0.848955
#
# Coordination Sequence:
#
# PCOD9041913 Si02
#       7
#     2   2   2   2   2   2   2
#     4  11  25  51  79 105 149 207 258 313 378 458
#     4  12  28  49  74 110 150 194 251 322 380 441
#     4  10  24  45  69 105 144 192 255 307 375 449
#     4  12  26  44  72 108 149 191 252 310 373 455
#     4  12  24  40  72 103 147 195 237 308 380 452
#     4  10  23  44  68 103 147 190 244 309 372 452
#     4  11  25  47  72 111 144 196 254 305 370 454
#
# _framework density 26.228354
#
# number of rings (size 3 to 8) (size 9 to 14) (size 15 to 20)
#    0.000    0.857    2.857    3.000    4.000    2.857 
#    7.714    0.000    0.000    0.000    0.000    0.000 
#    0.000    0.000    0.000    0.000    0.000    0.000 
#
# Total GULP energy -77970.140767 kJ/mol
# GULP energy per Si atom -5569.295769 kJ/mol
# Density = 2.616866 g / cm^3
# Si number density = 26.228354 Si / 1000 Ang^3
#
#
#
# Elastic Constant Matrix: (Units=GPa)
#
#
# Indices 1 2 3 4 5 6 
#
# 1 182.7779 57.7841 12.8980 4.3212 3.8819 -35.8327
# 2 57.7841 127.4908 10.3938 -2.6416 2.1936 -14.3838
# 3 12.8980 10.3938 86.4440 -19.9593 3.1227 -13.0374
# 4 4.3212 -2.6416 -19.9593 33.8187 -1.9343 -14.0929
# 5 3.8819 2.1936 3.1227 -1.9343 20.7986 -14.7107
# 6 -35.8327 -14.3838 -13.0374 -14.0929 -14.7107 64.1086
#
#
#
# Elastic Compliance Matrix: (Units=1/GPa)
#
#
# Indices 1 2 3 4 5 6 
#
# 1 0.007054 -0.002779 -0.000086 0.000520 0.001736 0.003815
# 2 -0.002779 0.009238 -0.000298 0.001247 0.000267 0.000794
# 3 -0.000086 -0.000298 0.015165 0.011763 0.003335 0.006320
# 4 0.000520 0.001247 0.011763 0.043792 0.013110 0.015597
# 5 0.001736 0.000267 0.003335 0.013110 0.061708 0.018750
# 6 0.003815 0.000794 0.006320 0.015597 0.018750 0.026925
#
#
# Mechanical properties :
#
#
# Convention : Reuss Voigt Hill
#
# Bulk Modulus (GPa) = 39.78928 62.09607 50.94268
# Shear Modulus (GPa) = 27.99745 44.78764 36.39254
#
# Velocity S-wave (km/s) = 3.27073 4.13680 3.72899
# Velocity P-wave (km/s) = 5.42834 6.82232 6.16485
#
# Compressibility (1/GPa) = 0.02513240
#
# Stress axis : x y z
#
# Youngs Moduli (GPa) = 141.75466 108.24318 65.93925
#
# Poissons Ratio (x) = 0.30082 0.00566
# Poissons Ratio (y) = 0.39395 0.01966
# Poissons Ratio (z) = 0.01216 0.03227
#
# Static dielectric constant tensor:
#      x y z
#    x 2.180860 -0.092310 -0.045820 
#    y -0.092310 1.903900 0.105130 
#    z -0.045820 0.105130 2.381200 
# 
# From -- ./inp_files/92389.got.cif
#   From: 2010.05.17/outbox.cif.g08.bks.cpg/sg2_47_cif.got.tgz:92389.got - 2010.06.03 11:33:40.
