data_PCOD9041726
_publ_section_title
;
Structure prediction by ZEFSAII (Michael W. Deem and Ramdas Pophale) SiO2 
 PCOD9041726
Probable space group: P -1
;
_chemical_formula_sum "Si O2"
_cell_formula_units_Z 16
_cell_length_a 4.828154
_cell_length_b 9.649558
_cell_length_c 19.513205
_cell_angle_alpha 44.620001
_cell_angle_beta 92.755494
_cell_angle_gamma 79.447106
_cell_volume 606.440613
_symmetry_space_group_name_H-M "P -1"
_symmetry_group_IT_number 2
_symmetry_cell_setting 'triclinic'
loop_
_space_group_symop_operation_xyz
x,y,z
-x,-y,-z
loop_
_atom_site_type_symbol
_atom_site_label
_atom_site_fract_x
_atom_site_fract_y
_atom_site_fract_z
Si Si1 0.732663 0.347457 0.126004
Si Si2 0.015396 0.458932 0.210878
Si Si3 0.109228 0.755280 0.364030
Si Si4 0.099527 0.206263 0.428592
Si Si5 0.559307 0.346189 0.454268
Si Si6 0.193182 0.703362 0.003076
Si Si7 0.510111 0.023577 0.770038
Si Si8 0.681246 0.906812 0.102628
O O1 0.859304 0.325597 0.211190
O O2 0.540367 0.591176 0.036773
O O3 0.540620 0.192637 0.172287
O O4 0.915257 0.313409 0.069244
O O5 0.185403 0.298797 0.326738
O O6 0.830697 0.665683 0.175578
O O7 0.139174 0.566175 0.112708
O O8 0.302651 0.555947 0.394696
O O9 0.229304 0.723648 0.453331
O O10 0.201116 0.944630 0.267646
O O11 0.766387 0.805202 0.330651
O O12 0.788677 0.366813 0.392809
O O13 0.374028 0.192950 0.485515
O O14 0.000000 0.000000 0.500000
O O15 0.118469 0.942150 0.938767
O O16 0.480103 0.064042 0.836465
O O17 0.500000 0.000000 0.000000
#
# Coordination Sequence:
#
# PCOD9041726 Si02
#       8
#     2   2   2   2   2   2   2   2
#     4  10  24  42  65 102 140 187 234 298 348 435
#     4  12  25  41  74  96 142 194 236 290 370 431
#     4  11  24  46  77 100 137 189 248 308 351 426
#     4  12  29  47  73 108 152 188 240 302 370 441
#     4  11  25  48  72 103 141 184 245 311 364 414
#     4  10  23  44  66  98 142 184 243 289 356 425
#     4  11  26  43  72 106 142 187 247 290 363 434
#     4  11  23  44  67 107 144 188 237 298 359 439
#
# _framework density 26.383455999999999
#
# number of rings (size 3 to 8) (size 9 to 14) (size 15 to 20)
#    0.000    1.000    1.250    4.125    7.000    6.000 
#    0.000    0.000    0.000    0.000    0.000    0.000 
#    0.000    0.000    0.000    0.000    0.000    0.000 
#
# Total GULP energy -89534.534650 kJ/mol
# GULP energy per Si atom -5595.908416 kJ/mol
# Density = 2.632341 g / cm^3
# Si number density = 26.383456 Si / 1000 Ang^3
#
#
#
# Elastic Constant Matrix: (Units=GPa)
#
#
# Indices 1 2 3 4 5 6 
#
# 1 91.6866 23.8606 11.8781 4.6658 1.8867 10.0260
# 2 23.8606 159.4000 37.2303 -2.3066 0.8148 11.6759
# 3 11.8781 37.2303 124.8191 -11.1012 -0.4587 -1.8506
# 4 4.6658 -2.3066 -11.1012 22.0368 4.5588 -3.0705
# 5 1.8867 0.8148 -0.4587 4.5588 51.2990 -0.2422
# 6 10.0260 11.6759 -1.8506 -3.0705 -0.2422 29.8720
#
#
#
# Elastic Compliance Matrix: (Units=1/GPa)
#
#
# Indices 1 2 3 4 5 6 
#
# 1 0.012025 -0.001292 -0.001156 -0.003797 -0.000114 -0.003994
# 2 -0.001292 0.007131 -0.002074 -0.000363 -0.000064 -0.002520
# 3 -0.001156 -0.002074 0.009222 0.005050 -0.000280 0.002287
# 4 -0.003797 -0.000363 0.005050 0.050531 -0.004267 0.006888
# 5 -0.000114 -0.000064 -0.000280 -0.004267 0.019874 -0.000232
# 6 -0.003994 -0.002520 0.002287 0.006888 -0.000232 0.036649
#
#
# Mechanical properties :
#
#
# Convention : Reuss Voigt Hill
#
# Bulk Modulus (GPa) = 51.72191 57.98265 54.85228
# Shear Modulus (GPa) = 33.12970 40.83734 36.98352
#
# Velocity S-wave (km/s) = 3.54743 3.93853 3.74808
# Velocity P-wave (km/s) = 6.03535 6.53508 6.29018
#
# Compressibility (1/GPa) = 0.01933417
#
# Stress axis : x y z
#
# Youngs Moduli (GPa) = 83.16029 140.23386 108.43335
#
# Poissons Ratio (x) = 0.18115 0.12539
# Poissons Ratio (y) = 0.10742 0.22488
# Poissons Ratio (z) = 0.09616 0.29083
#
# Static dielectric constant tensor:
#      x y z
#    x 2.140860 -0.025280 0.034870 
#    y -0.025280 2.105620 -0.033030 
#    z 0.034870 -0.033030 2.061770 
# 
# From -- ./inp_files/476051.got.cif
#   From: 2010.05.17/outbox.cif.g08.bks.cpg/sg2_239_cif.got.tgz:476051.got - 2010.06.03 11:33:40.
