data_PCOD9041676
_publ_section_title
;
Structure prediction by ZEFSAII (Michael W. Deem and Ramdas Pophale) SiO2 
 PCOD9041676
Probable space group: P -1
;
_chemical_formula_sum "Si O2"
_cell_formula_units_Z 12
_cell_length_a 15.423199
_cell_length_b 7.245639
_cell_length_c 8.005722
_cell_angle_alpha 122.963435
_cell_angle_beta 127.622936
_cell_angle_gamma 47.923967
_cell_volume 511.903680
_symmetry_space_group_name_H-M "P -1"
_symmetry_group_IT_number 2
_symmetry_cell_setting 'triclinic'
loop_
_space_group_symop_operation_xyz
x,y,z
-x,-y,-z
loop_
_atom_site_type_symbol
_atom_site_label
_atom_site_fract_x
_atom_site_fract_y
_atom_site_fract_z
Si Si1 0.282080 0.274187 0.742168
Si Si2 0.894059 0.144795 0.176376
Si Si3 0.141507 0.078341 0.295584
Si Si4 0.283783 0.868730 0.801925
Si Si5 0.366105 0.545462 0.429482
Si Si6 0.450949 0.990094 0.252789
O O1 0.218035 0.568056 0.858256
O O2 0.199723 0.258235 0.483100
O O3 0.272789 0.094227 0.782558
O O4 0.427438 0.145007 0.792130
O O5 0.849748 0.086210 0.268892
O O6 0.023822 0.147005 0.312686
O O7 0.901758 0.940601 0.949777
O O8 0.253880 0.795927 0.336298
O O9 0.352157 0.614683 0.644176
O O10 0.367178 0.860681 0.055177
O O11 0.500000 0.500000 0.500000
O O12 0.365021 0.291105 0.261113
O O13 0.500000 0.000000 0.500000
#
# Coordination Sequence:
#
# PCOD9041676 Si02
#       6
#     2   2   2   2   2   2
#     4  11  23  41  65  94 129 168 214 268 314 381
#     4  11  24  43  67  94 129 173 214 261 321 383
#     4  10  23  44  66  92 131 169 215 266 316 380
#     4  11  25  40  66  99 128 173 213 263 324 384
#     4  11  23  42  66  92 130 169 209 269 319 374
#     4  12  24  40  64  98 131 167 217 265 322 383
#
# _framework density 23.441911000000001
#
# number of rings (size 3 to 8) (size 9 to 14) (size 15 to 20)
#    0.000    1.000    3.333    4.000    2.333    4.000 
#    0.000    9.167    0.000    0.000    0.000    0.000 
#    0.000    0.000    0.000    0.000    0.000    0.000 
#
# Total GULP energy -67150.878169 kJ/mol
# GULP energy per Si atom -5595.906514 kJ/mol
# Density = 2.338856 g / cm^3
# Si number density = 23.441911 Si / 1000 Ang^3
#
#
#
# Elastic Constant Matrix: (Units=GPa)
#
#
# Indices 1 2 3 4 5 6 
#
# 1 112.8311 33.8476 -8.1562 10.7489 -0.1907 -30.4430
# 2 33.8476 63.5092 1.7699 15.4242 -6.1569 -13.0508
# 3 -8.1562 1.7699 93.1492 24.5363 12.1005 -11.2647
# 4 10.7489 15.4242 24.5363 30.3603 5.3363 -2.9232
# 5 -0.1907 -6.1569 12.1005 5.3363 28.1591 0.9405
# 6 -30.4430 -13.0508 -11.2647 -2.9232 0.9405 35.8285
#
#
#
# Elastic Compliance Matrix: (Units=1/GPa)
#
#
# Indices 1 2 3 4 5 6 
#
# 1 0.013932 -0.004304 0.004165 -0.004654 -0.002131 0.011256
# 2 -0.004304 0.022370 0.002107 -0.012238 0.006142 0.003993
# 3 0.004165 0.002107 0.016361 -0.014234 -0.004125 0.008398
# 4 -0.004654 -0.012238 -0.014234 0.052598 -0.006277 -0.008431
# 5 -0.002131 0.006142 -0.004125 -0.006277 0.039884 -0.002429
# 6 0.011256 0.003993 0.008398 -0.008431 -0.002429 0.040945
#
#
# Mechanical properties :
#
#
# Convention : Reuss Voigt Hill
#
# Bulk Modulus (GPa) = 17.66856 36.04578 26.85717
# Shear Modulus (GPa) = 24.87315 35.00478 29.93896
#
# Velocity S-wave (km/s) = 3.26092 3.86846 3.57761
# Velocity P-wave (km/s) = 4.66172 5.94671 5.34298
#
# Compressibility (1/GPa) = 0.05659771
#
# Stress axis : x y z
#
# Youngs Moduli (GPa) = 71.77806 44.70365 61.12150
#
# Poissons Ratio (x) = 0.19243 -0.25460
# Poissons Ratio (y) = 0.30897 -0.12877
# Poissons Ratio (z) = -0.29899 -0.09418
#
# Static dielectric constant tensor:
#      x y z
#    x 1.873780 0.042100 -0.077160 
#    y 0.042100 1.859060 -0.046760 
#    z -0.077160 -0.046760 1.966240 
# 
# From -- ./inp_files/157766.got.cif
#   From: 2010.05.17/outbox.cif.g08.bks.cpg/sg2_79_cif.got.tgz:157766.got - 2010.06.03 11:33:40.
