data_PCOD9041158
_publ_section_title
;
Structure prediction by ZEFSAII (Michael W. Deem and Ramdas Pophale) SiO2 
 PCOD9041158
Probable space group: P -1
;
_chemical_formula_sum "Si O2"
_cell_formula_units_Z 12
_cell_length_a 9.608599
_cell_length_b 11.867950
_cell_length_c 4.973967
_cell_angle_alpha 114.667186
_cell_angle_beta 89.978503
_cell_angle_gamma 101.759605
_cell_volume 502.334767
_symmetry_space_group_name_H-M "P -1"
_symmetry_group_IT_number 2
_symmetry_cell_setting 'triclinic'
loop_
_space_group_symop_operation_xyz
x,y,z
-x,-y,-z
loop_
_atom_site_type_symbol
_atom_site_label
_atom_site_fract_x
_atom_site_fract_y
_atom_site_fract_z
Si Si1 0.135574 0.116094 0.924905
Si Si2 0.415565 0.027666 0.275861
Si Si3 0.166752 0.582798 0.125567
Si Si4 0.271017 0.233217 0.544396
Si Si5 0.331780 0.505285 0.562785
Si Si6 0.144596 0.865506 0.365915
O O1 0.254965 0.211009 0.840245
O O2 0.997468 0.145866 0.818663
O O3 0.150730 0.975811 0.700120
O O4 0.149521 0.145105 0.267987
O O5 0.403353 0.173337 0.409025
O O6 0.500000 0.000000 0.500000
O O7 0.267276 0.929266 0.222342
O O8 0.500000 0.000000 0.000000
O O9 0.247355 0.525715 0.310718
O O10 0.155697 0.727762 0.332111
O O11 0.272928 0.591821 0.873687
O O12 0.000000 0.500000 0.000000
O O13 0.275376 0.370612 0.575682
O O14 0.500000 0.500000 0.500000
#
# Coordination Sequence:
#
# PCOD9041158 Si02
#       6
#     2   2   2   2   2   2
#     4  10  23  43  71 104 129 179 215 302 358 402
#     4  11  25  39  64  95 128 172 216 283 332 393
#     4  12  27  47  75 107 144 190 248 297 345 426
#     4  11  23  44  68  93 140 173 231 272 354 414
#     4  12  28  46  71 103 147 201 235 290 360 428
#     4  10  24  43  72 101 140 170 236 283 353 415
#
# _framework density 23.888453999999999
#
# number of rings (size 3 to 8) (size 9 to 14) (size 15 to 20)
#    0.000    1.000    0.000    6.000    4.667   11.333 
#    0.000    0.000    0.000    0.000    0.000    0.000 
#    0.000    0.000    0.000    0.000    0.000    0.000 
#
# Total GULP energy -67016.772459 kJ/mol
# GULP energy per Si atom -5584.731038 kJ/mol
# Density = 2.383408 g / cm^3
# Si number density = 23.888454 Si / 1000 Ang^3
#
#
#
# Elastic Constant Matrix: (Units=GPa)
#
#
# Indices 1 2 3 4 5 6 
#
# 1 115.6060 21.3401 22.2887 -10.3430 -5.0083 -21.3865
# 2 21.3401 134.4694 20.4458 9.8766 4.9436 -38.6005
# 3 22.2887 20.4458 78.0742 -30.7113 0.2170 -9.7654
# 4 -10.3430 9.8766 -30.7113 47.5189 -7.7371 -2.8602
# 5 -5.0083 4.9436 0.2170 -7.7371 34.5751 -14.7573
# 6 -21.3865 -38.6005 -9.7654 -2.8602 -14.7573 43.2700
#
#
#
# Elastic Compliance Matrix: (Units=1/GPa)
#
#
# Indices 1 2 3 4 5 6 
#
# 1 0.010624 0.000100 -0.001058 0.002878 0.005189 0.007061
# 2 0.000100 0.010726 -0.002965 -0.003278 0.001747 0.009328
# 3 -0.001058 -0.002965 0.020051 0.014419 0.005100 0.004050
# 4 0.002878 -0.003278 0.014419 0.034086 0.011859 0.008050
# 5 0.005189 0.001747 0.005100 0.011859 0.040532 0.019882
# 6 0.007061 0.009328 0.004050 0.008050 0.019882 0.043149
#
#
# Mechanical properties :
#
#
# Convention : Reuss Voigt Hill
#
# Bulk Modulus (GPa) = 29.80270 50.69988 40.25129
# Shear Modulus (GPa) = 28.05844 42.67777 35.36810
#
# Velocity S-wave (km/s) = 3.43090 4.23134 3.85197
# Velocity P-wave (km/s) = 5.31015 6.71878 6.05556
#
# Compressibility (1/GPa) = 0.03355401
#
# Stress axis : x y z
#
# Youngs Moduli (GPa) = 94.12424 93.23402 49.87251
#
# Poissons Ratio (x) = -0.00930 0.05279
# Poissons Ratio (y) = -0.00939 0.14786
# Poissons Ratio (z) = 0.09962 0.27642
#
# Static dielectric constant tensor:
#      x y z
#    x 2.003950 0.053740 -0.008130 
#    y 0.053740 1.927860 0.067920 
#    z -0.008130 0.067920 1.922890 
# 
# From -- ./inp_files/20533.got.cif
#   From: 2010.05.17/outbox.cif.g08.bks.cpg/sg2_11_cif.got.tgz:20533.got - 2010.06.03 11:33:40.
