data_PCOD9041538
_publ_section_title
;
Structure prediction by ZEFSAII (Michael W. Deem and Ramdas Pophale) SiO2 
 PCOD9041538
Probable space group: P -1
;
_chemical_formula_sum "Si O2"
_cell_formula_units_Z 16
_cell_length_a 17.923693
_cell_length_b 8.953907
_cell_length_c 9.371646
_cell_angle_alpha 85.651785
_cell_angle_beta 86.115679
_cell_angle_gamma 30.247280
_cell_volume 755.440292
_symmetry_space_group_name_H-M "P -1"
_symmetry_group_IT_number 2
_symmetry_cell_setting 'triclinic'
loop_
_space_group_symop_operation_xyz
x,y,z
-x,-y,-z
loop_
_atom_site_type_symbol
_atom_site_label
_atom_site_fract_x
_atom_site_fract_y
_atom_site_fract_z
Si Si1 0.027463 0.897200 0.342042
Si Si2 0.425936 0.927542 0.217905
Si Si3 0.434888 0.767582 0.929951
Si Si4 0.736644 0.489155 0.172786
Si Si5 0.312710 0.452988 0.166119
Si Si6 0.232660 0.241048 0.717899
Si Si7 0.969802 0.721710 0.525000
Si Si8 0.657363 0.148236 0.528225
O O1 0.169742 0.723443 0.263016
O O2 0.037848 0.703564 0.390554
O O3 0.000000 0.000000 0.500000
O O4 0.889741 0.165637 0.238513
O O5 0.602619 0.620003 0.239284
O O6 0.348924 0.935270 0.320167
O O7 0.375937 0.183898 0.228577
O O8 0.402173 0.929033 0.056751
O O9 0.565317 0.626733 0.835792
O O10 0.283043 0.027431 0.840731
O O11 0.500000 0.500000 0.000000
O O12 0.712568 0.697985 0.223944
O O13 0.728984 0.494183 0.000871
O O14 0.064716 0.573168 0.668915
O O15 0.308763 0.038509 0.582008
O O16 0.000000 0.500000 0.500000
O O17 0.791744 0.035895 0.526658
O O18 0.500000 0.500000 0.500000
#
# Coordination Sequence:
#
# PCOD9041538 Si02
#       8
#     2   2   2   2   2   2   2   2
#     4  12  25  40  67  97 128 172 221 270 322 393
#     4  11  22  42  69  94 129 178 214 269 326 392
#     4  11  23  42  69  99 132 168 224 275 327 391
#     4  11  22  43  65  96 133 170 221 269 327 387
#     4  11  23  43  66  95 130 174 219 269 329 391
#     4  11  21  43  65  93 132 173 218 272 325 397
#     4  10  23  44  64  92 138 171 211 273 336 385
#     4  11  24  41  67  98 134 172 220 271 336 385
#
# _framework density 21.179701999999999
#
# number of rings (size 3 to 8) (size 9 to 14) (size 15 to 20)
#    0.000    1.000    3.750    4.125    0.000    6.500 
#    0.000    1.875    0.000    0.000    0.000    0.000 
#    0.000    0.000    0.000    0.000    0.000    0.000 
#
# Total GULP energy -89246.852233 kJ/mol
# GULP energy per Si atom -5577.928265 kJ/mol
# Density = 2.113150 g / cm^3
# Si number density = 21.179702 Si / 1000 Ang^3
#
#
#
# Elastic Constant Matrix: (Units=GPa)
#
#
# Indices 1 2 3 4 5 6 
#
# 1 59.1886 11.8783 24.3731 -1.8147 -11.4017 -5.4370
# 2 11.8783 111.0607 31.0646 -19.1499 -4.9307 -13.1575
# 3 24.3731 31.0646 71.4323 -4.2621 -4.2908 -19.9914
# 4 -1.8147 -19.1499 -4.2621 44.4040 2.8480 -1.7161
# 5 -11.4017 -4.9307 -4.2908 2.8480 32.9764 -5.1023
# 6 -5.4370 -13.1575 -19.9914 -1.7161 -5.1023 35.2851
#
#
#
# Elastic Compliance Matrix: (Units=1/GPa)
#
#
# Indices 1 2 3 4 5 6 
#
# 1 0.020903 -0.000095 -0.006619 -0.000221 0.006426 0.000354
# 2 -0.000095 0.011189 -0.003838 0.004472 0.001120 0.002362
# 3 -0.006619 -0.003838 0.020670 0.000343 0.001261 0.009459
# 4 -0.000221 0.004472 0.000343 0.024652 -0.001047 0.002876
# 5 0.006426 0.001120 0.001261 -0.001047 0.034051 0.006995
# 6 0.000354 0.002362 0.009459 0.002876 0.006995 0.035787
#
#
# Mechanical properties :
#
#
# Convention : Reuss Voigt Hill
#
# Bulk Modulus (GPa) = 31.58779 41.81264 36.70021
# Shear Modulus (GPa) = 27.94729 34.15748 31.05238
#
# Velocity S-wave (km/s) = 3.63648 4.02026 3.83317
# Velocity P-wave (km/s) = 5.70776 6.42920 6.07919
#
# Compressibility (1/GPa) = 0.03165781
#
# Stress axis : x y z
#
# Youngs Moduli (GPa) = 47.83896 89.37717 48.37854
#
# Poissons Ratio (x) = 0.00850 0.32023
# Poissons Ratio (y) = 0.00455 0.18567
# Poissons Ratio (z) = 0.31666 0.34302
#
# Static dielectric constant tensor:
#      x y z
#    x 2.000310 0.091900 -0.038660 
#    y 0.091900 1.885750 -0.048080 
#    z -0.038660 -0.048080 1.794880 
# 
# From -- ./inp_files/216352.got.cif
#   From: 2010.05.17/outbox.cif.g08.bks.cpg/sg2_109_cif.got.tgz:216352.got - 2010.06.03 11:33:40.
