data_PCOD9041661
_publ_section_title
;
Structure prediction by ZEFSAII (Michael W. Deem and Ramdas Pophale) SiO2 
 PCOD9041661
Probable space group: P -1
;
_chemical_formula_sum "Si O2"
_cell_formula_units_Z 10
_cell_length_a 5.843891
_cell_length_b 16.914746
_cell_length_c 11.641595
_cell_angle_alpha 146.706692
_cell_angle_beta 97.832075
_cell_angle_gamma 58.825845
_cell_volume 419.226271
_symmetry_space_group_name_H-M "P -1"
_symmetry_group_IT_number 2
_symmetry_cell_setting 'triclinic'
loop_
_space_group_symop_operation_xyz
x,y,z
-x,-y,-z
loop_
_atom_site_type_symbol
_atom_site_label
_atom_site_fract_x
_atom_site_fract_y
_atom_site_fract_z
Si Si1 0.718943 0.215220 0.662968
Si Si2 0.717383 0.642405 0.396697
Si Si3 0.292539 0.040539 0.147596
Si Si4 0.815606 0.738152 0.201953
Si Si5 0.546682 0.322811 0.340526
O O1 0.641216 0.226599 0.536279
O O2 0.360492 0.312984 0.804637
O O3 0.863752 0.309495 0.796076
O O4 0.000000 0.000000 0.500000
O O5 0.738237 0.806721 0.587929
O O6 0.697331 0.606181 0.484086
O O7 0.033199 0.406900 0.078167
O O8 0.916802 0.170935 0.239743
O O9 0.500000 0.000000 0.000000
O O10 0.457216 0.809501 0.909225
O O11 0.500000 0.000000 0.500000
O O12 0.500000 0.500000 0.500000
#
# Coordination Sequence:
#
# PCOD9041661 Si02
#       5
#     2   2   2   2   2
#     4  10  23  44  66 105 146 188 246 302 353 438
#     4  11  23  41  74  99 147 199 230 301 377 417
#     4   9  22  45  67 103 140 181 242 301 358 439
#     4  10  23  44  66 105 146 188 249 299 351 439
#     4  10  23  47  70 105 145 180 242 300 361 449
#
# _framework density 23.853469
#
# number of rings (size 3 to 8) (size 9 to 14) (size 15 to 20)
#    0.000    2.000    0.000    1.200    5.600    3.200 
#   28.800    0.000    0.000    0.000    0.000    0.000 
#    0.000    0.000    0.000    0.000    0.000    0.000 
#
# Total GULP energy -55677.327106 kJ/mol
# GULP energy per Si atom -5567.732711 kJ/mol
# Density = 2.379918 g / cm^3
# Si number density = 23.853469 Si / 1000 Ang^3
#
#
#
# Elastic Constant Matrix: (Units=GPa)
#
#
# Indices 1 2 3 4 5 6 
#
# 1 192.1699 32.0665 81.7318 8.4068 36.1332 -4.0526
# 2 32.0665 81.7430 53.3609 13.9238 18.4713 5.3676
# 3 81.7318 53.3609 185.2549 4.4587 49.7816 1.5952
# 4 8.4068 13.9238 4.4587 27.4258 2.7639 13.1841
# 5 36.1332 18.4713 49.7816 2.7639 72.4311 12.4509
# 6 -4.0526 5.3676 1.5952 13.1841 12.4509 48.8009
#
#
#
# Elastic Compliance Matrix: (Units=1/GPa)
#
#
# Indices 1 2 3 4 5 6 
#
# 1 0.006742 -0.000478 -0.002296 -0.002094 -0.001882 0.001733
# 2 -0.000478 0.016633 -0.004136 -0.007830 -0.000970 0.000629
# 3 -0.002296 -0.004136 0.008599 0.001528 -0.003864 0.000556
# 4 -0.002094 -0.007830 0.001528 0.046633 0.002372 -0.012566
# 5 -0.001882 -0.000970 -0.003864 0.002372 0.018464 -0.005275
# 6 0.001733 0.000629 0.000556 -0.012566 -0.005275 0.025289
#
#
# Mechanical properties :
#
#
# Convention : Reuss Voigt Hill
#
# Bulk Modulus (GPa) = 55.08633 88.16515 71.62574
# Shear Modulus (GPa) = 35.15432 49.19879 42.17655
#
# Velocity S-wave (km/s) = 3.84312 4.54645 4.20950
# Velocity P-wave (km/s) = 6.54497 8.03751 7.32933
#
# Compressibility (1/GPa) = 0.01815332
#
# Stress axis : x y z
#
# Youngs Moduli (GPa) = 148.32829 60.12251 116.29334
#
# Poissons Ratio (x) = 0.02874 0.26696
# Poissons Ratio (y) = 0.07091 0.48104
# Poissons Ratio (z) = 0.34050 0.24869
#
# Static dielectric constant tensor:
#      x y z
#    x 1.852160 0.388830 0.205140 
#    y 0.388830 0.991540 -0.570560 
#    z 0.205140 -0.570560 1.705560 
# 
# From -- ./inp_files/57259.got.cif
#   From: 2010.05.17/outbox.cif.g08.bks.cpg/sg2_29_cif.got.tgz:57259.got - 2010.06.03 11:33:40.
