data_PCOD9041759
_publ_section_title
;
Structure prediction by ZEFSAII (Michael W. Deem and Ramdas Pophale) SiO2 
 PCOD9041759
Probable space group: P -1
;
_chemical_formula_sum "Si O2"
_cell_formula_units_Z 14
_cell_length_a 11.731040
_cell_length_b 6.011263
_cell_length_c 16.912415
_cell_angle_alpha 66.750326
_cell_angle_beta 140.158472
_cell_angle_gamma 124.983260
_cell_volume 623.672808
_symmetry_space_group_name_H-M "P -1"
_symmetry_group_IT_number 2
_symmetry_cell_setting 'triclinic'
loop_
_space_group_symop_operation_xyz
x,y,z
-x,-y,-z
loop_
_atom_site_type_symbol
_atom_site_label
_atom_site_fract_x
_atom_site_fract_y
_atom_site_fract_z
Si Si1 0.663344 0.240699 0.363252
Si Si2 0.476875 0.780880 0.444750
Si Si3 0.281710 0.352260 0.133396
Si Si4 0.973775 0.483870 0.753398
Si Si5 0.926093 0.947467 0.092903
Si Si6 0.011257 0.734612 0.573102
Si Si7 0.658825 0.143917 0.995246
O O1 0.460463 0.270260 0.247109
O O2 0.829364 0.486502 0.467516
O O3 0.775436 0.247422 0.340850
O O4 0.619487 0.969005 0.426105
O O5 0.500000 0.500000 0.500000
O O6 0.248959 0.668781 0.311590
O O7 0.500000 0.000000 0.500000
O O8 0.125109 0.231699 0.140267
O O9 0.378626 0.669997 0.115684
O O10 0.139580 0.209852 0.002914
O O11 0.980556 0.668674 0.657934
O O12 0.135061 0.670372 0.875439
O O13 0.024455 0.236669 0.794139
O O14 0.722172 0.946714 0.010195
O O15 0.000000 0.000000 0.500000
O O16 0.500000 0.000000 0.000000
#
# Coordination Sequence:
#
# PCOD9041759 Si02
#       7
#     2   2   2   2   2   2   2
#     4  11  25  43  72  99 140 186 236 300 364 436
#     4  12  26  48  74 110 145 193 250 301 368 440
#     4  10  23  44  67 101 130 181 229 292 360 421
#     4  11  25  44  69 100 141 186 238 300 360 437
#     4  10  23  45  68  96 138 172 241 287 363 428
#     4  11  26  44  65 102 141 187 235 293 367 438
#     4  11  27  42  69 103 136 188 232 298 369 440
#
# _framework density 22.447669000000001
#
# number of rings (size 3 to 8) (size 9 to 14) (size 15 to 20)
#    0.000    1.143    2.857    1.286    8.000    2.286 
#    0.000    0.000    0.000    0.000    0.000    0.000 
#    0.000    0.000    0.000    0.000    0.000    0.000 
#
# Total GULP energy -78085.839600 kJ/mol
# GULP energy per Si atom -5577.559971 kJ/mol
# Density = 2.239658 g / cm^3
# Si number density = 22.447669 Si / 1000 Ang^3
#
#
#
# Elastic Constant Matrix: (Units=GPa)
#
#
# Indices 1 2 3 4 5 6 
#
# 1 47.2921 10.3485 -6.4416 -4.0915 11.8333 16.4245
# 2 10.3485 110.8211 29.2459 -24.6039 3.6716 13.7149
# 3 -6.4416 29.2459 60.7363 -9.6168 14.3969 5.0458
# 4 -4.0915 -24.6039 -9.6168 51.8145 -0.2054 5.9758
# 5 11.8333 3.6716 14.3969 -0.2054 35.3494 -1.2112
# 6 16.4245 13.7149 5.0458 5.9758 -1.2112 29.5685
#
#
#
# Elastic Compliance Matrix: (Units=1/GPa)
#
#
# Indices 1 2 3 4 5 6 
#
# 1 0.036269 -0.001427 0.011771 0.007027 -0.017556 -0.023633
# 2 -0.001427 0.012274 -0.005055 0.005367 0.001119 -0.005077
# 3 0.011771 -0.005055 0.024929 0.004240 -0.013882 -0.009874
# 4 0.007027 0.005367 0.004240 0.024588 -0.004915 -0.012287
# 5 -0.017556 0.001119 -0.013882 -0.004915 0.040163 0.014241
# 6 -0.023633 -0.005077 -0.009874 -0.012287 0.014241 0.054054
#
#
# Mechanical properties :
#
#
# Convention : Reuss Voigt Hill
#
# Bulk Modulus (GPa) = 11.89747 31.68389 21.79068
# Shear Modulus (GPa) = 23.84192 35.72624 29.78408
#
# Velocity S-wave (km/s) = 3.26254 3.99373 3.64651
# Velocity P-wave (km/s) = 4.41631 5.95078 5.24002
#
# Compressibility (1/GPa) = 0.08405150
#
# Stress axis : x y z
#
# Youngs Moduli (GPa) = 27.57146 81.47586 40.11329
#
# Poissons Ratio (x) = 0.11624 -0.47218
# Poissons Ratio (y) = 0.03934 0.20277
# Poissons Ratio (z) = -0.32455 0.41186
#
# Static dielectric constant tensor:
#      x y z
#    x 1.845620 -0.061350 0.005940 
#    y -0.061350 1.913080 -0.033360 
#    z 0.005940 -0.033360 1.810660 
# 
# From -- ./inp_files/26982.got.cif
#   From: 2010.05.17/outbox.cif.g08.bks.cpg/sg2_14_cif.got.tgz:26982.got - 2010.06.03 11:33:40.
