data_PCOD9041572
_publ_section_title
;
Structure prediction by ZEFSAII (Michael W. Deem and Ramdas Pophale) SiO2 
 PCOD9041572
Probable space group: P -1
;
_chemical_formula_sum "Si O2"
_cell_formula_units_Z 16
_cell_length_a 8.458855
_cell_length_b 6.208100
_cell_length_c 23.438420
_cell_angle_alpha 135.643532
_cell_angle_beta 127.587982
_cell_angle_gamma 57.495327
_cell_volume 670.394307
_symmetry_space_group_name_H-M "P -1"
_symmetry_group_IT_number 2
_symmetry_cell_setting 'triclinic'
loop_
_space_group_symop_operation_xyz
x,y,z
-x,-y,-z
loop_
_atom_site_type_symbol
_atom_site_label
_atom_site_fract_x
_atom_site_fract_y
_atom_site_fract_z
Si Si1 0.824881 0.890229 0.905019
Si Si2 0.862357 0.179863 0.740250
Si Si3 0.586891 0.201916 0.006826
Si Si4 0.014840 0.717350 0.383735
Si Si5 0.598328 0.335145 0.608914
Si Si6 0.649079 0.035043 0.780328
Si Si7 0.835002 0.424861 0.492539
Si Si8 0.209964 0.365456 0.788968
O O1 0.860101 0.542288 0.824444
O O2 0.772196 0.093155 0.875162
O O3 0.646394 0.941007 0.921669
O O4 0.000000 0.000000 0.000000
O O5 0.685075 0.148629 0.649592
O O6 0.782608 0.070074 0.761229
O O7 0.087888 0.120731 0.748678
O O8 0.749941 0.359430 0.108237
O O9 0.500000 0.500000 0.000000
O O10 0.500000 0.000000 0.000000
O O11 0.229769 0.787055 0.422763
O O12 0.079509 0.511527 0.414424
O O13 0.930064 0.542551 0.279772
O O14 0.859120 0.041701 0.423859
O O15 0.380980 0.386162 0.540023
O O16 0.608708 0.684882 0.697935
O O17 0.427151 0.230413 0.782954
O O18 0.000000 0.500000 0.500000
#
# Coordination Sequence:
#
# PCOD9041572 Si02
#       8
#     2   2   2   2   2   2   2   2
#     4  11  23  42  61  98 143 178 243 295 360 429
#     4  10  24  41  68 101 135 188 237 294 363 430
#     4  12  26  46  70 105 143 196 249 306 372 437
#     4  10  24  44  65  99 140 174 229 296 352 432
#     4  10  23  44  65 100 138 173 234 288 353 440
#     4  11  23  43  69  96 140 188 228 301 363 423
#     4  11  24  42  70 101 131 181 228 284 365 440
#     4  11  22  46  67 101 141 182 245 296 358 447
#
# _framework density 23.86655
#
# number of rings (size 3 to 8) (size 9 to 14) (size 15 to 20)
#    0.000    1.250    3.750    1.125    1.750    4.000 
#    2.250    0.000    0.000    0.000    0.000    0.000 
#    0.000    0.000    0.000    0.000    0.000    0.000 
#
# Total GULP energy -89109.503680 kJ/mol
# GULP energy per Si atom -5569.343980 kJ/mol
# Density = 2.381223 g / cm^3
# Si number density = 23.866550 Si / 1000 Ang^3
#
#
#
# Elastic Constant Matrix: (Units=GPa)
#
#
# Indices 1 2 3 4 5 6 
#
# 1 133.0890 62.6723 39.6250 -38.6277 -12.7867 20.3897
# 2 62.6723 97.9155 50.7264 -33.4052 12.9239 9.0683
# 3 39.6250 50.7264 159.6702 -42.6604 10.1132 16.4210
# 4 -38.6277 -33.4052 -42.6604 52.9522 1.9288 -16.6349
# 5 -12.7867 12.9239 10.1132 1.9288 35.1930 -12.2120
# 6 20.3897 9.0683 16.4210 -16.6349 -12.2120 47.6489
#
#
#
# Elastic Compliance Matrix: (Units=1/GPa)
#
#
# Indices 1 2 3 4 5 6 
#
# 1 0.013297 -0.007964 -0.000042 0.004104 0.007241 -0.000871
# 2 -0.007964 0.019472 -0.002242 0.004927 -0.009778 -0.000311
# 3 -0.000042 -0.002242 0.008669 0.005203 -0.002437 -0.001351
# 4 0.004104 0.004927 0.005203 0.031119 -0.001433 0.006010
# 5 0.007241 -0.009778 -0.002437 -0.001433 0.038530 0.008977
# 6 -0.000871 -0.000311 -0.001351 0.006010 0.008977 0.026283
#
#
# Mechanical properties :
#
#
# Convention : Reuss Voigt Hill
#
# Bulk Modulus (GPa) = 47.75141 77.41357 62.58249
# Shear Modulus (GPa) = 30.33112 43.00222 36.66667
#
# Velocity S-wave (km/s) = 3.56878 4.24934 3.92384
# Velocity P-wave (km/s) = 6.08545 7.52212 6.84160
#
# Compressibility (1/GPa) = 0.02094179
#
# Stress axis : x y z
#
# Youngs Moduli (GPa) = 75.20570 51.35595 115.35035
#
# Poissons Ratio (x) = 0.40898 0.00487
# Poissons Ratio (y) = 0.59892 0.25864
# Poissons Ratio (z) = 0.00317 0.11515
#
# Static dielectric constant tensor:
#      x y z
#    x 2.029770 -0.009790 -0.026300 
#    y -0.009790 2.067970 -0.005300 
#    z -0.026300 -0.005300 1.932150 
# 
# From -- ./inp_files/140779.got.cif
#   From: 2010.05.17/outbox.cif.g08.bks.cpg/sg2_71_cif.got.tgz:140779.got - 2010.06.03 11:33:40.
