data_PCOD9041526
_publ_section_title
;
Structure prediction by ZEFSAII (Michael W. Deem and Ramdas Pophale) SiO2 
 PCOD9041526
Probable space group: P -1
;
_chemical_formula_sum "Si O2"
_cell_formula_units_Z 12
_cell_length_a 11.799731
_cell_length_b 4.995624
_cell_length_c 14.789467
_cell_angle_alpha 59.366586
_cell_angle_beta 137.086941
_cell_angle_gamma 118.292935
_cell_volume 503.139531
_symmetry_space_group_name_H-M "P -1"
_symmetry_group_IT_number 2
_symmetry_cell_setting 'triclinic'
loop_
_space_group_symop_operation_xyz
x,y,z
-x,-y,-z
loop_
_atom_site_type_symbol
_atom_site_label
_atom_site_fract_x
_atom_site_fract_y
_atom_site_fract_z
Si Si1 0.072744 0.639318 0.666960
Si Si2 0.167501 0.210237 0.149889
Si Si3 0.213333 0.355900 0.628159
Si Si4 0.447006 0.812504 0.214168
Si Si5 0.436538 0.830242 0.400170
Si Si6 0.165520 0.141763 0.946778
O O1 0.182154 0.585300 0.651175
O O2 0.127620 0.415867 0.813330
O O3 0.880115 0.555192 0.532813
O O4 0.112308 0.005095 0.654871
O O5 0.303361 0.510004 0.206896
O O6 0.244407 0.892594 0.270773
O O7 0.155997 0.230535 0.031437
O O8 0.985847 0.158480 0.099372
O O9 0.401886 0.306418 0.727643
O O10 0.506304 0.963174 0.320070
O O11 0.347786 0.039716 0.059782
O O12 0.500000 0.500000 0.500000
O O13 0.500000 0.000000 0.500000
#
# Coordination Sequence:
#
# PCOD9041526 Si02
#       6
#     2   2   2   2   2   2
#     4  10  24  48  68  99 131 184 222 287 339 394
#     4  10  23  44  64 105 139 180 225 277 340 415
#     4  10  25  46  71  98 135 171 240 279 334 400
#     4  11  24  43  70 100 142 175 229 285 331 409
#     4  11  23  41  64 101 133 178 223 273 342 396
#     4  10  24  42  69  98 142 183 223 278 343 404
#
# _framework density 23.850244
#
# number of rings (size 3 to 8) (size 9 to 14) (size 15 to 20)
#    0.000    1.667    1.667    0.500    9.333    1.333 
#    6.000    0.000    0.000    0.000    0.000    0.000 
#    0.000    0.000    0.000    0.000    0.000    0.000 
#
# Total GULP energy -67096.957055 kJ/mol
# GULP energy per Si atom -5591.413088 kJ/mol
# Density = 2.379596 g / cm^3
# Si number density = 23.850244 Si / 1000 Ang^3
#
#
#
# Elastic Constant Matrix: (Units=GPa)
#
#
# Indices 1 2 3 4 5 6 
#
# 1 63.6755 15.1391 42.1046 0.7974 28.3192 -12.4181
# 2 15.1391 72.7807 34.2811 -11.5573 -9.4560 -17.3519
# 3 42.1046 34.2811 195.4950 -44.2413 8.1878 4.7029
# 4 0.7974 -11.5573 -44.2413 40.0774 -7.5597 2.1328
# 5 28.3192 -9.4560 8.1878 -7.5597 37.5108 -7.3022
# 6 -12.4181 -17.3519 4.7029 2.1328 -7.3022 31.2517
#
#
#
# Elastic Compliance Matrix: (Units=1/GPa)
#
#
# Indices 1 2 3 4 5 6 
#
# 1 0.043955 -0.010836 -0.011631 -0.024155 -0.037040 0.006193
# 2 -0.010836 0.023081 -0.000784 0.008811 0.018343 0.012312
# 3 -0.011631 -0.000784 0.010627 0.013527 0.007872 -0.005740
# 4 -0.024155 0.008811 0.013527 0.048099 0.026450 -0.003844
# 5 -0.037040 0.018343 0.007872 0.026450 0.064320 0.007506
# 6 0.006193 0.012312 -0.005740 -0.003844 0.007506 0.044175
#
#
# Mechanical properties :
#
#
# Convention : Reuss Voigt Hill
#
# Bulk Modulus (GPa) = 32.09098 57.22228 44.65663
# Shear Modulus (GPa) = 17.17351 37.79641 27.48496
#
# Velocity S-wave (km/s) = 2.68630 3.98520 3.39838
# Velocity P-wave (km/s) = 4.80687 6.72459 5.84492
#
# Compressibility (1/GPa) = 0.03116141
#
# Stress axis : x y z
#
# Youngs Moduli (GPa) = 22.75060 43.32576 94.09816
#
# Poissons Ratio (x) = 0.46949 1.09441
# Poissons Ratio (y) = 0.24653 0.07377
# Poissons Ratio (z) = 0.26460 0.03397
#
# Static dielectric constant tensor:
#      x y z
#    x 1.885170 0.013710 0.036350 
#    y 0.013710 1.983520 0.035460 
#    z 0.036350 0.035460 1.937790 
# 
# From -- ./inp_files/510220.got.cif
#   From: 2010.05.17/outbox.cif.g08.bks.cpg/sg2_256_cif.got.tgz:510220.got - 2010.06.03 11:33:40.
