data_PCOD9041393
_publ_section_title
;
Structure prediction by ZEFSAII (Michael W. Deem and Ramdas Pophale) SiO2 
 PCOD9041393
Probable space group: P -1
;
_chemical_formula_sum "Si O2"
_cell_formula_units_Z 12
_cell_length_a 7.310090
_cell_length_b 13.008396
_cell_length_c 7.621582
_cell_angle_alpha 99.710049
_cell_angle_beta 85.701585
_cell_angle_gamma 141.767909
_cell_volume 440.117502
_symmetry_space_group_name_H-M "P -1"
_symmetry_group_IT_number 2
_symmetry_cell_setting 'triclinic'
loop_
_space_group_symop_operation_xyz
x,y,z
-x,-y,-z
loop_
_atom_site_type_symbol
_atom_site_label
_atom_site_fract_x
_atom_site_fract_y
_atom_site_fract_z
Si Si1 0.706757 0.801520 0.417217
Si Si2 0.728609 0.225533 0.021004
Si Si3 0.980638 0.727438 0.471005
Si Si4 0.729520 0.696606 0.013305
Si Si5 0.645161 0.372572 0.285161
Si Si6 0.494928 0.987237 0.730156
O O1 0.717755 0.690788 0.471764
O O2 0.705831 0.766308 0.201529
O O3 0.446315 0.723630 0.548769
O O4 0.000000 0.000000 0.500000
O O5 0.826165 0.376672 0.141045
O O6 0.468486 0.075348 0.130705
O O7 0.977874 0.247275 0.990698
O O8 0.547328 0.131068 0.824970
O O9 0.862475 0.566242 0.364722
O O10 0.156595 0.806946 0.660515
O O11 0.245101 0.904688 0.396200
O O12 0.500000 0.500000 0.000000
O O13 0.628411 0.711847 0.847183
#
# Coordination Sequence:
#
# PCOD9041393 Si02
#       6
#     2   2   2   2   2   2
#     4  12  27  48  74 114 153 196 253 309 377 447
#     4  11  25  49  73 111 147 198 250 306 377 444
#     4  11  23  47  70 109 150 196 249 309 370 446
#     4  12  27  51  78 110 156 194 248 319 371 446
#     4  12  28  49  80 112 149 201 252 306 381 445
#     4  10  23  43  74 103 152 192 247 310 364 443
#
# _framework density 27.265447000000002
#
# number of rings (size 3 to 8) (size 9 to 14) (size 15 to 20)
#    0.000    0.667    3.333    2.500    7.000    4.000 
#    3.000    0.000    0.000    0.000    0.000    0.000 
#    0.000    0.000    0.000    0.000    0.000    0.000 
#
# Total GULP energy -66810.568805 kJ/mol
# GULP energy per Si atom -5567.547400 kJ/mol
# Density = 2.720339 g / cm^3
# Si number density = 27.265447 Si / 1000 Ang^3
#
#
#
# Elastic Constant Matrix: (Units=GPa)
#
#
# Indices 1 2 3 4 5 6 
#
# 1 99.9367 11.0750 47.4582 12.4826 -27.9461 8.9425
# 2 11.0750 91.7831 34.5953 27.2427 -6.9477 -4.8779
# 3 47.4582 34.5953 200.5132 34.3997 -23.1530 2.8156
# 4 12.4826 27.2427 34.3997 49.4539 -5.3008 1.6209
# 5 -27.9461 -6.9477 -23.1530 -5.3008 37.2964 4.9991
# 6 8.9425 -4.8779 2.8156 1.6209 4.9991 24.0681
#
#
#
# Elastic Compliance Matrix: (Units=1/GPa)
#
#
# Indices 1 2 3 4 5 6 
#
# 1 0.014715 -0.000412 -0.001951 -0.000745 0.010635 -0.007481
# 2 -0.000412 0.013543 -0.001132 -0.006672 0.000100 0.003459
# 3 -0.001951 -0.001132 0.006408 -0.003121 0.001921 -0.000443
# 4 -0.000745 -0.006672 -0.003121 0.026377 0.000353 -0.002560
# 5 0.010635 0.000100 0.001921 0.000353 0.037651 -0.012000
# 6 -0.007481 0.003459 -0.000443 -0.002560 -0.012000 0.047746
#
#
# Mechanical properties :
#
#
# Convention : Reuss Voigt Hill
#
# Bulk Modulus (GPa) = 36.13023 64.27668 50.20345
# Shear Modulus (GPa) = 30.74019 42.10399 36.42209
#
# Velocity S-wave (km/s) = 3.36138 3.93393 3.65887
# Velocity P-wave (km/s) = 5.32402 6.65282 6.02516
#
# Compressibility (1/GPa) = 0.02767766
#
# Stress axis : x y z
#
# Youngs Moduli (GPa) = 67.95872 73.83760 156.06425
#
# Poissons Ratio (x) = 0.03039 0.30446
# Poissons Ratio (y) = 0.02797 0.17660
# Poissons Ratio (z) = 0.13258 0.08355
#
# Static dielectric constant tensor:
#      x y z
#    x 2.450710 0.048660 0.206910 
#    y 0.048660 2.181810 0.102940 
#    z 0.206910 0.102940 2.640190 
# 
# From -- ./inp_files/197888.got.cif
#   From: 2010.05.17/outbox.cif.g08.bks.cpg/sg2_99_cif.got.tgz:197888.got - 2010.06.03 11:33:40.
