data_PCOD9041082
_publ_section_title
;
Structure prediction by ZEFSAII (Michael W. Deem and Ramdas Pophale) SiO2 
 PCOD9041082
Probable space group: P -1
;
_chemical_formula_sum "Si O2"
_cell_formula_units_Z 16
_cell_length_a 11.092834
_cell_length_b 11.090397
_cell_length_c 25.631867
_cell_angle_alpha 32.175120
_cell_angle_beta 151.087196
_cell_angle_gamma 130.486385
_cell_volume 758.656462
_symmetry_space_group_name_H-M "P -1"
_symmetry_group_IT_number 2
_symmetry_cell_setting 'triclinic'
loop_
_space_group_symop_operation_xyz
x,y,z
-x,-y,-z
loop_
_atom_site_type_symbol
_atom_site_label
_atom_site_fract_x
_atom_site_fract_y
_atom_site_fract_z
Si Si1 0.248062 0.950728 0.574205
Si Si2 0.666377 0.858620 0.208767
Si Si3 0.058142 0.022170 0.953443
Si Si4 0.075749 0.811149 0.866356
Si Si5 0.874999 0.327821 0.466562
Si Si6 0.312095 0.460189 0.396792
Si Si7 0.432616 0.793416 0.516332
Si Si8 0.147056 0.306094 0.070174
O O1 0.270217 0.211873 0.483281
O O2 0.170798 0.841680 0.532736
O O3 0.545149 0.770990 0.767494
O O4 0.000000 0.000000 0.500000
O O5 0.807440 0.606702 0.322389
O O6 0.843881 0.802382 0.349910
O O7 0.702705 0.082991 0.108327
O O8 0.363150 0.910787 0.090613
O O9 0.945772 0.299043 0.790494
O O10 0.880548 0.885274 0.910274
O O11 0.000000 0.000000 0.000000
O O12 0.051432 0.716119 0.950266
O O13 0.069335 0.576029 0.918761
O O14 0.808326 0.037212 0.672633
O O15 0.663472 0.347181 0.424795
O O16 0.500000 0.500000 0.500000
O O17 0.401873 0.406759 0.389403
O O18 0.500000 0.000000 0.500000
#
# Coordination Sequence:
#
# PCOD9041082 Si02
#       8
#     2   2   2   2   2   2   2   2
#     4  12  27  44  71  99 141 190 232 291 356 434
#     4  10  25  44  72 104 136 183 232 301 349 417
#     4  12  28  43  69 103 147 184 229 291 360 423
#     4  10  23  43  70  98 133 173 236 296 339 409
#     4  10  23  45  71 102 136 182 241 291 352 421
#     4  12  25  47  70 105 144 189 234 286 360 426
#     4  11  20  40  74  97 130 183 235 282 347 418
#     4  11  25  46  66 101 135 183 233 290 354 418
#
# _framework density 21.089915000000001
#
# number of rings (size 3 to 8) (size 9 to 14) (size 15 to 20)
#    0.000    1.000    3.750    0.750   10.500    4.500 
#    0.000    1.250    0.000    0.000    0.000    0.000 
#    0.000    0.000    0.000    0.000    0.000    0.000 
#
# Total GULP energy -89189.063339 kJ/mol
# GULP energy per Si atom -5574.316459 kJ/mol
# Density = 2.104191 g / cm^3
# Si number density = 21.089915 Si / 1000 Ang^3
#
#
#
# Elastic Constant Matrix: (Units=GPa)
#
#
# Indices 1 2 3 4 5 6 
#
# 1 92.6032 33.7928 17.0856 4.3083 0.8038 2.0053
# 2 33.7928 136.6851 35.2983 -7.2324 -0.8715 -17.8158
# 3 17.0856 35.2983 96.1494 -15.7457 17.1647 3.6563
# 4 4.3083 -7.2324 -15.7457 43.7613 6.9467 -5.2041
# 5 0.8038 -0.8715 17.1647 6.9467 23.3469 -5.0977
# 6 2.0053 -17.8158 3.6563 -5.2041 -5.0977 38.7967
#
#
#
# Elastic Compliance Matrix: (Units=1/GPa)
#
#
# Indices 1 2 3 4 5 6 
#
# 1 0.012376 -0.003056 -0.001619 -0.002717 0.000995 -0.002124
# 2 -0.003056 0.009926 -0.004070 0.000432 0.004597 0.005762
# 3 -0.001619 -0.004070 0.016227 0.007210 -0.015117 -0.004334
# 4 -0.002717 0.000432 0.007210 0.028077 -0.013175 0.001695
# 5 0.000995 0.004597 -0.015117 -0.013175 0.060103 0.009614
# 6 -0.002124 0.005762 -0.004334 0.001695 0.009614 0.030430
#
#
# Mechanical properties :
#
#
# Convention : Reuss Voigt Hill
#
# Bulk Modulus (GPa) = 47.53095 55.31012 51.42054
# Shear Modulus (GPa) = 27.52664 37.13171 32.32918
#
# Velocity S-wave (km/s) = 3.61668 4.20055 3.91950
# Velocity P-wave (km/s) = 6.32667 7.05754 6.70208
#
# Compressibility (1/GPa) = 0.02103892
#
# Stress axis : x y z
#
# Youngs Moduli (GPa) = 80.79878 100.74723 61.62726
#
# Poissons Ratio (x) = 0.30788 0.09978
# Poissons Ratio (y) = 0.24692 0.25082
# Poissons Ratio (z) = 0.13081 0.41004
#
# Static dielectric constant tensor:
#      x y z
#    x 1.421290 -0.041530 0.051850 
#    y -0.041530 1.813100 -0.012650 
#    z 0.051850 -0.012650 1.757090 
# 
# From -- ./inp_files/618412.got.cif
#   From: 2010.05.17/outbox.cif.g08.bks.cpg/sg2_310_cif.got.tgz:618412.got - 2010.06.03 11:33:40.
