data_PCOD9041736
_publ_section_title
;
Structure prediction by ZEFSAII (Michael W. Deem and Ramdas Pophale) SiO2 
 PCOD9041736
Probable space group: P -1
;
_chemical_formula_sum "Si O2"
_cell_formula_units_Z 14
_cell_length_a 10.719646
_cell_length_b 11.286380
_cell_length_c 13.120916
_cell_angle_alpha 69.305025
_cell_angle_beta 157.308147
_cell_angle_gamma 109.863595
_cell_volume 572.466649
_symmetry_space_group_name_H-M "P -1"
_symmetry_group_IT_number 2
_symmetry_cell_setting 'triclinic'
loop_
_space_group_symop_operation_xyz
x,y,z
-x,-y,-z
loop_
_atom_site_type_symbol
_atom_site_label
_atom_site_fract_x
_atom_site_fract_y
_atom_site_fract_z
Si Si1 0.643296 0.861282 0.662493
Si Si2 0.474883 0.381027 0.093240
Si Si3 0.323358 0.836381 0.110175
Si Si4 0.788941 0.917470 0.283410
Si Si5 0.653146 0.436044 0.731204
Si Si6 0.242627 0.609096 0.478460
Si Si7 0.537083 0.115398 0.260404
O O1 0.425314 0.733072 0.531461
O O2 0.693564 0.860093 0.824065
O O3 0.500000 0.000000 0.500000
O O4 0.936815 0.849392 0.807995
O O5 0.723476 0.382587 0.375189
O O6 0.498784 0.234178 0.118150
O O7 0.500000 0.500000 0.000000
O O8 0.100220 0.392658 0.834856
O O9 0.570666 0.812228 0.211030
O O10 0.342944 0.713649 0.231972
O O11 0.434637 0.973988 0.193310
O O12 0.071095 0.883707 0.427163
O O13 0.000000 0.000000 0.500000
O O14 0.500000 0.000000 0.000000
O O15 0.500000 0.500000 0.500000
O O16 0.417817 0.479836 0.629073
O O17 0.000000 0.500000 0.000000
#
# Coordination Sequence:
#
# PCOD9041736 Si02
#       7
#     2   2   2   2   2   2   2
#     4  11  22  39  73 104 141 180 234 296 351 418
#     4  11  25  47  74 102 145 187 237 295 355 426
#     4  11  24  44  70 104 138 187 235 290 354 418
#     4  10  23  44  66  99 140 176 228 284 348 415
#     4  12  27  46  71 101 147 188 236 292 355 430
#     4  11  25  46  68 106 141 186 242 289 357 424
#     4  10  24  43  71 107 138 184 236 292 354 420
#
# _framework density 24.455572
#
# number of rings (size 3 to 8) (size 9 to 14) (size 15 to 20)
#    0.000    1.143    1.429    3.429    6.000    5.714 
#    5.143    0.000    0.000    0.000    0.000    0.000 
#    0.000    0.000    0.000    0.000    0.000    0.000 
#
# Total GULP energy -78018.308450 kJ/mol
# GULP energy per Si atom -5572.736318 kJ/mol
# Density = 2.439991 g / cm^3
# Si number density = 24.455572 Si / 1000 Ang^3
#
#
#
# Elastic Constant Matrix: (Units=GPa)
#
#
# Indices 1 2 3 4 5 6 
#
# 1 46.2811 23.8080 8.7769 8.7920 -1.2176 14.7834
# 2 23.8080 182.7120 22.6563 -33.7114 -8.8630 24.6393
# 3 8.7769 22.6563 97.9628 -16.3183 1.6238 17.0422
# 4 8.7920 -33.7114 -16.3183 39.4905 6.7680 4.5362
# 5 -1.2176 -8.8630 1.6238 6.7680 43.5030 -0.3853
# 6 14.7834 24.6393 17.0422 4.5362 -0.3853 44.2914
#
#
#
# Elastic Compliance Matrix: (Units=1/GPa)
#
#
# Indices 1 2 3 4 5 6 
#
# 1 0.028116 -0.004679 -0.002484 -0.011016 0.001599 -0.004684
# 2 -0.004679 0.008181 0.000712 0.008779 0.000106 -0.004161
# 3 -0.002484 0.000712 0.012357 0.007112 -0.001537 -0.005063
# 4 -0.011016 0.008779 0.007112 0.040008 -0.005081 -0.008085
# 5 0.001599 0.000106 -0.001537 -0.005081 0.023908 0.000727
# 6 -0.004684 -0.004161 -0.005063 -0.008085 0.000727 0.029238
#
#
# Mechanical properties :
#
#
# Convention : Reuss Voigt Hill
#
# Bulk Modulus (GPa) = 27.97072 48.60426 38.28749
# Shear Modulus (GPa) = 30.00729 43.57130 36.78929
#
# Velocity S-wave (km/s) = 3.50667 4.22554 3.88278
# Velocity P-wave (km/s) = 5.27806 6.61246 5.98258
#
# Compressibility (1/GPa) = 0.03575167
#
# Stress axis : x y z
#
# Youngs Moduli (GPa) = 35.56686 122.23992 80.92716
#
# Poissons Ratio (x) = 0.57197 0.20099
# Poissons Ratio (y) = 0.16642 -0.05760
# Poissons Ratio (z) = 0.08833 -0.08700
#
# Static dielectric constant tensor:
#      x y z
#    x 2.034880 -0.033090 0.006190 
#    y -0.033090 2.022230 -0.006040 
#    z 0.006190 -0.006040 1.988500 
# 
# From -- ./inp_files/409785.got.cif
#   From: 2010.05.17/outbox.cif.g08.bks.cpg/sg2_205_cif.got.tgz:409785.got - 2010.06.03 11:33:40.
