data_PCOD9041489
_publ_section_title
;
Structure prediction by ZEFSAII (Michael W. Deem and Ramdas Pophale) SiO2 
 PCOD9041489
Probable space group: P -1
;
_chemical_formula_sum "Si O2"
_cell_formula_units_Z 14
_cell_length_a 7.684600
_cell_length_b 11.833550
_cell_length_c 14.400497
_cell_angle_alpha 150.695802
_cell_angle_beta 55.187707
_cell_angle_gamma 126.431122
_cell_volume 510.986997
_symmetry_space_group_name_H-M "P -1"
_symmetry_group_IT_number 2
_symmetry_cell_setting 'triclinic'
loop_
_space_group_symop_operation_xyz
x,y,z
-x,-y,-z
loop_
_atom_site_type_symbol
_atom_site_label
_atom_site_fract_x
_atom_site_fract_y
_atom_site_fract_z
Si Si1 0.250965 0.464955 0.081996
Si Si2 0.715972 0.400635 0.338760
Si Si3 0.299300 0.974849 0.386228
Si Si4 0.168884 0.257886 0.302793
Si Si5 0.129002 0.833128 0.144287
Si Si6 0.616711 0.494485 0.237300
Si Si7 0.266356 0.026735 0.862986
O O1 0.090804 0.322086 0.947718
O O2 0.230894 0.292322 0.053516
O O3 0.500000 0.500000 0.000000
O O4 0.230250 0.734648 0.294186
O O5 0.500000 0.500000 0.500000
O O6 0.880827 0.555947 0.473211
O O7 0.756870 0.462781 0.264087
O O8 0.692305 0.122538 0.166508
O O9 0.134609 0.939581 0.322340
O O10 0.667759 0.769434 0.393656
O O11 0.537509 0.991600 0.279263
O O12 0.371992 0.387867 0.271104
O O13 0.959550 0.130684 0.219151
O O14 0.219994 0.047976 0.200277
O O15 0.299985 0.665887 0.977358
#
# Coordination Sequence:
#
# PCOD9041489 Si02
#       7
#     2   2   2   2   2   2   2
#     4   9  22  40  63  85 116 163 201 246 298 348
#     4  10  17  33  57  88 115 153 195 234 296 357
#     4  11  20  40  63  85 118 161 204 243 293 349
#     4  10  19  35  58  88 125 160 191 241 304 353
#     4  11  22  39  62  91 119 156 205 243 296 354
#     4  11  22  36  61  95 122 153 199 249 291 358
#     4  10  19  35  64  85 119 161 201 239 296 358
#
# _framework density 27.397957999999999
#
# number of rings (size 3 to 8) (size 9 to 14) (size 15 to 20)
#    0.000    1.714    4.286    2.143    0.000    0.571 
#    0.000    7.857    0.000    5.143    0.000    0.000 
#    0.000    0.000    0.000    0.000    0.000    0.000 
#
# Total GULP energy -78446.432786 kJ/mol
# GULP energy per Si atom -5603.316628 kJ/mol
# Density = 2.733560 g / cm^3
# Si number density = 27.397958 Si / 1000 Ang^3
#
#
#
# Elastic Constant Matrix: (Units=GPa)
#
#
# Indices 1 2 3 4 5 6 
#
# 1 109.8088 56.8315 28.9251 20.5861 -7.9695 11.6248
# 2 56.8315 137.5995 55.6591 44.4677 -4.3773 18.1964
# 3 28.9251 55.6591 142.3339 52.7703 -3.5218 -7.9780
# 4 20.5861 44.4677 52.7703 65.5493 -11.7370 -11.4385
# 5 -7.9695 -4.3773 -3.5218 -11.7370 33.8578 12.0875
# 6 11.6248 18.1964 -7.9780 -11.4385 12.0875 57.6497
#
#
#
# Elastic Compliance Matrix: (Units=1/GPa)
#
#
# Indices 1 2 3 4 5 6 
#
# 1 0.011918 -0.004285 -0.000766 -0.000025 0.002786 -0.001746
# 2 -0.004285 0.012477 -0.001884 -0.006433 -0.000190 -0.004572
# 3 -0.000766 -0.001884 0.010603 -0.007204 -0.002269 0.001263
# 4 -0.000025 -0.006433 -0.007204 0.027421 0.006059 0.005209
# 5 0.002786 -0.000190 -0.002269 0.006059 0.034474 -0.006842
# 6 -0.001746 -0.004572 0.001263 0.005209 -0.006842 0.021784
#
#
# Mechanical properties :
#
#
# Convention : Reuss Voigt Hill
#
# Bulk Modulus (GPa) = 47.32894 74.73040 61.02967
# Shear Modulus (GPa) = 35.81929 47.96647 41.89288
#
# Velocity S-wave (km/s) = 3.61968 4.18871 3.91455
# Velocity P-wave (km/s) = 5.89759 7.12242 6.53875
#
# Compressibility (1/GPa) = 0.02112872
#
# Stress axis : x y z
#
# Youngs Moduli (GPa) = 83.90746 80.14810 94.30851
#
# Poissons Ratio (x) = 0.34342 0.07224
# Poissons Ratio (y) = 0.35953 0.17768
# Poissons Ratio (z) = 0.06427 0.15100
#
# Static dielectric constant tensor:
#      x y z
#    x 2.223710 0.038630 -0.009050 
#    y 0.038630 2.111270 -0.014000 
#    z -0.009050 -0.014000 2.168630 
# 
# From -- ./inp_files/558663.got.cif
#   From: 2010.05.17/outbox.cif.g08.bks.cpg/sg2_280_cif.got.tgz:558663.got - 2010.06.03 11:33:40.
