data_PCOD9041960
_publ_section_title
;
Structure prediction by ZEFSAII (Michael W. Deem and Ramdas Pophale) SiO2 
 PCOD9041960
Probable space group: P -1
;
_chemical_formula_sum "Si O2"
_cell_formula_units_Z 16
_cell_length_a 16.940335
_cell_length_b 12.374007
_cell_length_c 8.856036
_cell_angle_alpha 115.934762
_cell_angle_beta 47.149373
_cell_angle_gamma 146.442315
_cell_volume 712.941712
_symmetry_space_group_name_H-M "P -1"
_symmetry_group_IT_number 2
_symmetry_cell_setting 'triclinic'
loop_
_space_group_symop_operation_xyz
x,y,z
-x,-y,-z
loop_
_atom_site_type_symbol
_atom_site_label
_atom_site_fract_x
_atom_site_fract_y
_atom_site_fract_z
Si Si1 0.042858 0.262631 0.443050
Si Si2 0.326137 0.925236 0.722523
Si Si3 0.477895 0.067832 0.926680
Si Si4 0.354216 0.163473 0.328351
Si Si5 0.865723 0.864298 0.950295
Si Si6 0.472493 0.298017 0.600129
Si Si7 0.152564 0.230492 0.572294
Si Si8 0.863467 0.387691 0.463774
O O1 0.133118 0.272018 0.192757
O O2 0.067561 0.189718 0.499433
O O3 0.112954 0.453839 0.522085
O O4 0.829148 0.084577 0.571716
O O5 0.151149 0.717968 0.723873
O O6 0.500000 0.000000 0.500000
O O7 0.317514 0.913407 0.910835
O O8 0.395150 0.116498 0.687386
O O9 0.662070 0.202910 0.682786
O O10 0.476568 0.202564 0.074045
O O11 0.500000 0.000000 0.000000
O O12 0.434212 0.245350 0.440805
O O13 0.276070 0.221561 0.416037
O O14 0.660428 0.716582 0.173217
O O15 0.977471 0.051428 0.801200
O O16 0.000000 0.000000 0.000000
O O17 0.689252 0.524728 0.461584
O O18 0.000000 0.500000 0.500000
#
# Coordination Sequence:
#
# PCOD9041960 Si02
#       8
#     2   2   2   2   2   2   2   2
#     4  11  24  44  66  98 139 175 222 285 332 412
#     4  10  23  44  68  95 133 177 228 283 338 407
#     4  11  24  42  68  96 130 182 229 280 342 403
#     4  11  23  43  66  96 140 175 220 283 343 402
#     4  11  24  42  68 102 138 179 221 273 348 398
#     4  12  24  44  72  97 139 179 227 281 340 412
#     4  11  25  42  66 102 140 176 225 278 340 413
#     4  11  24  46  70  97 136 178 231 283 340 406
#
# _framework density 22.442229000000001
#
# number of rings (size 3 to 8) (size 9 to 14) (size 15 to 20)
#    0.000    1.000    2.500    6.375    5.250    0.500 
#    0.000    2.500    0.000    0.000    0.000    0.000 
#    0.000    0.000    0.000    0.000    0.000    0.000 
#
# Total GULP energy -89203.935466 kJ/mol
# GULP energy per Si atom -5575.245967 kJ/mol
# Density = 2.239115 g / cm^3
# Si number density = 22.442229 Si / 1000 Ang^3
#
#
#
# Elastic Constant Matrix: (Units=GPa)
#
#
# Indices 1 2 3 4 5 6 
#
# 1 90.7300 24.4628 23.2453 20.3684 24.2313 18.5360
# 2 24.4628 117.1142 18.6855 7.4892 22.8617 18.2764
# 3 23.2453 18.6855 74.4243 13.3212 18.5210 15.1686
# 4 20.3684 7.4892 13.3212 21.5700 10.3622 -2.4152
# 5 24.2313 22.8617 18.5210 10.3622 25.3400 5.3671
# 6 18.5360 18.2764 15.1686 -2.4152 5.3671 43.3952
#
#
#
# Elastic Compliance Matrix: (Units=1/GPa)
#
#
# Indices 1 2 3 4 5 6 
#
# 1 0.018289 0.000289 0.000996 -0.013361 -0.011401 -0.007616
# 2 0.000289 0.010854 0.000299 -0.000075 -0.009488 -0.003630
# 3 0.000996 0.000299 0.018242 -0.008258 -0.009872 -0.006166
# 4 -0.013361 -0.000075 -0.008258 0.072304 -0.013726 0.014347
# 5 -0.011401 -0.009488 -0.009872 -0.013726 0.071171 0.002750
# 6 -0.007616 -0.003630 -0.006166 0.014347 0.002750 0.030440
#
#
# Mechanical properties :
#
#
# Convention : Reuss Voigt Hill
#
# Bulk Modulus (GPa) = 19.78110 46.11730 32.94920
# Shear Modulus (GPa) = 21.27825 32.45273 26.86549
#
# Velocity S-wave (km/s) = 3.08252 3.80683 3.46366
# Velocity P-wave (km/s) = 4.63709 6.31796 5.54162
#
# Compressibility (1/GPa) = 0.05055331
#
# Stress axis : x y z
#
# Youngs Moduli (GPa) = 54.67856 92.13202 54.81865
#
# Poissons Ratio (x) = -0.02666 -0.05460
# Poissons Ratio (y) = -0.01582 -0.01639
# Poissons Ratio (z) = -0.05446 -0.02755
#
# Static dielectric constant tensor:
#      x y z
#    x 1.874070 -0.010970 0.015570 
#    y -0.010970 1.935720 0.162010 
#    z 0.015570 0.162010 2.063820 
# 
# From -- ./inp_files/333020.got.cif
#   From: 2010.05.17/outbox.cif.g08.bks.cpg/sg2_167_cif.got.tgz:333020.got - 2010.06.03 11:33:40.
