data_PCOD9041444
_publ_section_title
;
Structure prediction by ZEFSAII (Michael W. Deem and Ramdas Pophale) SiO2 
 PCOD9041444
Probable space group: P -1
;
_chemical_formula_sum "Si O2"
_cell_formula_units_Z 14
_cell_length_a 9.590205
_cell_length_b 9.439951
_cell_length_c 9.268417
_cell_angle_alpha 137.461436
_cell_angle_beta 99.700079
_cell_angle_gamma 90.406814
_cell_volume 548.228089
_symmetry_space_group_name_H-M "P -1"
_symmetry_group_IT_number 2
_symmetry_cell_setting 'triclinic'
loop_
_space_group_symop_operation_xyz
x,y,z
-x,-y,-z
loop_
_atom_site_type_symbol
_atom_site_label
_atom_site_fract_x
_atom_site_fract_y
_atom_site_fract_z
Si Si1 0.553354 0.577480 0.226952
Si Si2 0.305670 0.789735 0.378778
Si Si3 0.411811 0.191152 0.117510
Si Si4 0.844449 0.970904 0.261407
Si Si5 0.900140 0.201081 0.901694
Si Si6 0.232885 0.270330 0.404424
Si Si7 0.906901 0.452990 0.622636
O O1 0.469365 0.770345 0.388382
O O2 0.498365 0.375714 0.170251
O O3 0.714948 0.663224 0.375054
O O4 0.500000 0.500000 0.000000
O O5 0.261485 0.995156 0.600974
O O6 0.224871 0.595667 0.320664
O O7 0.230215 0.757819 0.187243
O O8 0.373163 0.271965 0.327736
O O9 0.500000 0.000000 0.000000
O O10 0.258305 0.108611 0.949918
O O11 0.927957 0.212420 0.424624
O O12 0.964412 0.829561 0.199492
O O13 0.849271 0.974709 0.800166
O O14 0.036410 0.613627 0.838938
O O15 0.149352 0.438054 0.442716
#
# Coordination Sequence:
#
# PCOD9041444 Si02
#       7
#     2   2   2   2   2   2   2
#     4  12  28  47  73 105 143 187 244 299 356 418
#     4  10  24  46  69 101 148 185 239 291 352 419
#     4  12  24  46  74 101 142 189 241 291 363 414
#     4  10  23  43  76 102 142 190 235 284 359 422
#     4  12  24  43  72 108 148 185 238 287 358 420
#     4  12  26  46  71 103 148 184 235 302 350 428
#     4  10  23  45  71 101 143 187 232 287 349 429
#
# _framework density 25.536818
#
# number of rings (size 3 to 8) (size 9 to 14) (size 15 to 20)
#    0.857    0.000    2.857    3.429    4.000    2.286 
#    0.000    0.000    0.000    0.000    0.000    0.000 
#    0.000    0.000    0.000    0.000    0.000    0.000 
#
# Total GULP energy -78420.584613 kJ/mol
# GULP energy per Si atom -5601.470330 kJ/mol
# Density = 2.547869 g / cm^3
# Si number density = 25.536818 Si / 1000 Ang^3
#
#
#
# Elastic Constant Matrix: (Units=GPa)
#
#
# Indices 1 2 3 4 5 6 
#
# 1 71.9098 13.4796 10.7186 -2.1587 -8.5173 -29.4383
# 2 13.4796 103.3236 31.2929 -2.7592 -2.1543 -8.3171
# 3 10.7186 31.2929 142.7390 -6.8817 18.9352 -10.7760
# 4 -2.1587 -2.7592 -6.8817 41.9492 -1.0711 8.4624
# 5 -8.5173 -2.1543 18.9352 -1.0711 39.0707 -7.8755
# 6 -29.4383 -8.3171 -10.7760 8.4624 -7.8755 47.4135
#
#
#
# Elastic Compliance Matrix: (Units=1/GPa)
#
#
# Indices 1 2 3 4 5 6 
#
# 1 0.021034 -0.001048 -0.001433 -0.001885 0.008037 0.014221
# 2 -0.001048 0.010659 -0.002410 0.000106 0.001719 0.000938
# 3 -0.001433 -0.002410 0.008262 0.001084 -0.004495 -0.000375
# 4 -0.001885 0.000106 0.001084 0.025021 -0.001373 -0.005599
# 5 0.008037 0.001719 -0.004495 -0.001373 0.031549 0.009755
# 6 0.014221 0.000938 -0.000375 -0.005599 0.009755 0.032620
#
#
# Mechanical properties :
#
#
# Convention : Reuss Voigt Hill
#
# Bulk Modulus (GPa) = 33.14326 47.66163 40.40244
# Shear Modulus (GPa) = 33.56057 43.18545 38.37301
#
# Velocity S-wave (km/s) = 3.62913 4.11677 3.88061
# Velocity P-wave (km/s) = 5.52879 6.42662 5.99454
#
# Compressibility (1/GPa) = 0.03017205
#
# Stress axis : x y z
#
# Youngs Moduli (GPa) = 47.54301 93.81545 121.03465
#
# Poissons Ratio (x) = 0.09832 0.17346
# Poissons Ratio (y) = 0.04983 0.29173
# Poissons Ratio (z) = 0.06813 0.22612
#
# Static dielectric constant tensor:
#      x y z
#    x 2.067560 0.080610 -0.040830 
#    y 0.080610 1.960130 0.001880 
#    z -0.040830 0.001880 1.982460 
# 
# From -- ./inp_files/236296.got.cif
#   From: 2010.05.17/outbox.cif.g08.bks.cpg/sg2_119_cif.got.tgz:236296.got - 2010.06.03 11:33:40.
