data_PCOD9041033
_publ_section_title
;
Structure prediction by ZEFSAII (Michael W. Deem and Ramdas Pophale) SiO2 
 PCOD9041033
Probable space group: P -1
;
_chemical_formula_sum "Si O2"
_cell_formula_units_Z 14
_cell_length_a 11.139595
_cell_length_b 10.535482
_cell_length_c 10.422126
_cell_angle_alpha 136.856573
_cell_angle_beta 103.891218
_cell_angle_gamma 52.247035
_cell_volume 611.113947
_symmetry_space_group_name_H-M "P -1"
_symmetry_group_IT_number 2
_symmetry_cell_setting 'triclinic'
loop_
_space_group_symop_operation_xyz
x,y,z
-x,-y,-z
loop_
_atom_site_type_symbol
_atom_site_label
_atom_site_fract_x
_atom_site_fract_y
_atom_site_fract_z
Si Si1 0.256762 0.390301 0.992285
Si Si2 0.954497 0.680612 0.977250
Si Si3 0.875480 0.756564 0.489569
Si Si4 0.571392 0.225355 0.838222
Si Si5 0.428135 0.278931 0.209534
Si Si6 0.263438 0.857598 0.911869
Si Si7 0.820802 0.449968 0.422518
O O1 0.189799 0.255661 0.921958
O O2 0.313491 0.431363 0.168811
O O3 0.416346 0.242955 0.833756
O O4 0.100402 0.631728 0.057793
O O5 0.036780 0.418136 0.739771
O O6 0.878956 0.877225 0.990299
O O7 0.830310 0.623763 0.467951
O O8 0.011796 0.734441 0.588433
O O9 0.705908 0.031478 0.625993
O O10 0.500000 0.500000 0.000000
O O11 0.675094 0.130169 0.926956
O O12 0.580214 0.267749 0.233571
O O13 0.323924 0.386490 0.390406
O O14 0.500000 0.000000 0.000000
O O15 0.210314 0.698297 0.781189
#
# Coordination Sequence:
#
# PCOD9041033 Si02
#       7
#     2   2   2   2   2   2   2
#     4  10  23  43  70  93 139 173 229 269 336 399
#     4  11  23  45  71 104 125 187 225 278 336 399
#     4  11  24  42  70  96 139 175 226 280 341 398
#     4  11  27  47  65 101 138 181 216 286 343 402
#     4  11  19  43  67  97 137 178 221 278 336 401
#     4  11  24  41  73  98 138 176 232 278 333 406
#     4  11  23  40  68 106 129 179 232 277 332 403
#
# _framework density 22.908982999999999
#
# number of rings (size 3 to 8) (size 9 to 14) (size 15 to 20)
#    0.000    1.143    2.857    3.857    4.000    1.714 
#    2.571    5.714    0.000    0.000    0.000    0.000 
#    0.000    0.000    0.000    0.000    0.000    0.000 
#
# Total GULP energy -78328.597590 kJ/mol
# GULP energy per Si atom -5594.899828 kJ/mol
# Density = 2.285684 g / cm^3
# Si number density = 22.908983 Si / 1000 Ang^3
#
#
#
# Elastic Constant Matrix: (Units=GPa)
#
#
# Indices 1 2 3 4 5 6 
#
# 1 112.6344 12.2706 35.9671 8.3660 -5.7651 -25.8553
# 2 12.2706 119.7465 12.7742 9.4417 4.3386 -17.3268
# 3 35.9671 12.7742 51.5498 19.1669 -4.9490 -15.6814
# 4 8.3660 9.4417 19.1669 28.9821 -4.0444 -1.8367
# 5 -5.7651 4.3386 -4.9490 -4.0444 32.2465 -1.7648
# 6 -25.8553 -17.3268 -15.6814 -1.8367 -1.7648 27.3800
#
#
#
# Elastic Compliance Matrix: (Units=1/GPa)
#
#
# Indices 1 2 3 4 5 6 
#
# 1 0.013058 0.000506 -0.006874 0.001440 0.001881 0.008932
# 2 0.000506 0.009483 0.000310 -0.003203 -0.001191 0.006364
# 3 -0.006874 0.000310 0.036077 -0.020812 0.002374 0.013124
# 4 0.001440 -0.003203 -0.020812 0.048752 0.003110 -0.009116
# 5 0.001881 -0.001191 0.002374 0.003110 0.032519 0.004687
# 6 0.008932 0.006364 0.013124 -0.009116 0.004687 0.056192
#
#
# Mechanical properties :
#
#
# Convention : Reuss Voigt Hill
#
# Bulk Modulus (GPa) = 21.50512 45.10607 33.30560
# Shear Modulus (GPa) = 22.35171 32.58296 27.46733
#
# Velocity S-wave (km/s) = 3.12697 3.77540 3.46638
# Velocity P-wave (km/s) = 4.73760 6.22390 5.53090
#
# Compressibility (1/GPa) = 0.04650056
#
# Stress axis : x y z
#
# Youngs Moduli (GPa) = 76.58272 105.45523 27.71877
#
# Poissons Ratio (x) = -0.05335 0.19054
# Poissons Ratio (y) = -0.03874 -0.00859
# Poissons Ratio (z) = 0.52643 -0.03267
#
# Static dielectric constant tensor:
#      x y z
#    x 1.872940 -0.016310 -0.030840 
#    y -0.016310 1.873160 0.002290 
#    z -0.030840 0.002290 1.853600 
# 
# From -- ./inp_files/424546.got.cif
#   From: 2010.05.17/outbox.cif.g08.bks.cpg/sg2_213_cif.got.tgz:424546.got - 2010.06.03 11:33:40.
