data_PCOD9041723
_publ_section_title
;
Structure prediction by ZEFSAII (Michael W. Deem and Ramdas Pophale) SiO2 
 PCOD9041723
Probable space group: P -1
;
_chemical_formula_sum "Si O2"
_cell_formula_units_Z 10
_cell_length_a 14.998538
_cell_length_b 15.967807
_cell_length_c 8.399947
_cell_angle_alpha 59.244134
_cell_angle_beta 47.561003
_cell_angle_gamma 17.847431
_cell_volume 371.006969
_symmetry_space_group_name_H-M "P -1"
_symmetry_group_IT_number 2
_symmetry_cell_setting 'triclinic'
loop_
_space_group_symop_operation_xyz
x,y,z
-x,-y,-z
loop_
_atom_site_type_symbol
_atom_site_label
_atom_site_fract_x
_atom_site_fract_y
_atom_site_fract_z
Si Si1 0.975873 0.405140 0.084765
Si Si2 0.152548 0.579800 0.454521
Si Si3 0.184737 0.528569 0.114556
Si Si4 0.870309 0.001356 0.351616
Si Si5 0.901088 0.199730 0.193298
O O1 0.113947 0.243753 0.239535
O O2 0.092914 0.297488 0.865124
O O3 0.500171 0.732092 0.335558
O O4 0.000000 0.500000 0.000000
O O5 0.189460 0.668615 0.318008
O O6 0.601498 0.189273 0.333781
O O7 0.014703 0.649071 0.382288
O O8 0.219675 0.617129 0.951027
O O9 0.650169 0.123318 0.954959
O O10 0.974743 0.033101 0.203143
O O11 0.500000 0.500000 0.500000
#
# Coordination Sequence:
#
# PCOD9041723 Si02
#       5
#     2   2   2   2   2
#     4  10  26  47  69  95 134 178 229 280 327 389
#     4  10  24  45  63 106 132 172 228 265 338 399
#     4  12  26  42  72 100 136 180 216 277 337 391
#     4  10  23  44  66  98 140 170 220 273 330 396
#     4  12  24  41  71 105 138 175 221 268 336 414
#
# _framework density 26.953673999999999
#
# number of rings (size 3 to 8) (size 9 to 14) (size 15 to 20)
#    1.200    0.000    2.000    3.000    5.600    6.400 
#    0.000    1.000    0.000    0.000    0.000    0.000 
#    0.000    0.000    0.000    0.000    0.000    0.000 
#
# Total GULP energy -55818.243010 kJ/mol
# GULP energy per Si atom -5581.824301 kJ/mol
# Density = 2.689233 g / cm^3
# Si number density = 26.953674 Si / 1000 Ang^3
#
#
#
# Elastic Constant Matrix: (Units=GPa)
#
#
# Indices 1 2 3 4 5 6 
#
# 1 174.6556 21.8235 73.7546 -36.5186 42.2266 -8.4958
# 2 21.8235 163.8901 42.2356 -16.6266 13.5654 -8.2071
# 3 73.7546 42.2356 9.0223 -11.0190 11.4405 -46.1805
# 4 -36.5186 -16.6266 -11.0190 52.9890 -7.2406 6.7364
# 5 42.2266 13.5654 11.4405 -7.2406 48.8133 -18.0423
# 6 -8.4958 -8.2071 -46.1805 6.7364 -18.0423 28.9704
#
#
#
# Elastic Compliance Matrix: (Units=1/GPa)
#
#
# Indices 1 2 3 4 5 6 
#
# 1 0.005306 -0.001141 0.005055 0.003125 -0.002376 0.007084
# 2 -0.001141 0.006113 0.001546 0.001024 0.000542 0.003960
# 3 0.005055 0.001546 -0.007772 0.003284 -0.008632 -0.016608
# 4 0.003125 0.001024 0.003284 0.021856 -0.000017 0.001349
# 5 -0.002376 0.000542 -0.008632 -0.000017 0.024845 0.001174
# 6 0.007084 0.003960 -0.016608 0.001349 0.001174 0.011660
#
#
# Mechanical properties :
#
#
# Convention : Reuss Voigt Hill
#
# Bulk Modulus (GPa) = 68.65355 69.24393 68.94874
# Shear Modulus (GPa) = 89.37556 40.13815 64.75685
#
# Velocity S-wave (km/s) = 5.76463 3.86314 4.90687
# Velocity P-wave (km/s) = 8.35668 6.75605 7.59863
#
# Compressibility (1/GPa) = 0.01456589
#
# Stress axis : x y z
#
# Youngs Moduli (GPa) = 188.47027 163.59769 -128.66964
#
# Poissons Ratio (x) = 0.18663 0.65038
# Poissons Ratio (y) = 0.21500 0.19889
# Poissons Ratio (z) = -0.95265 -0.25289
#
# Static dielectric constant tensor:
#      x y z
#    x 2.176560 -0.024370 0.118510 
#    y -0.024370 2.031720 0.062130 
#    z 0.118510 0.062130 2.159390 
# 
# From -- ./inp_files/107678.got.cif
#   From: 2010.05.17/outbox.cif.g08.bks.cpg/sg2_54_cif.got.tgz:107678.got - 2010.06.03 11:33:40.
