data_PCOD9041326
_publ_section_title
;
Structure prediction by ZEFSAII (Michael W. Deem and Ramdas Pophale) SiO2 
 PCOD9041326
Probable space group: P -1
;
_chemical_formula_sum "Si O2"
_cell_formula_units_Z 16
_cell_length_a 5.754055
_cell_length_b 23.565469
_cell_length_c 14.506900
_cell_angle_alpha 21.056774
_cell_angle_beta 80.588137
_cell_angle_gamma 81.136186
_cell_volume 697.241915
_symmetry_space_group_name_H-M "P -1"
_symmetry_group_IT_number 2
_symmetry_cell_setting 'triclinic'
loop_
_space_group_symop_operation_xyz
x,y,z
-x,-y,-z
loop_
_atom_site_type_symbol
_atom_site_label
_atom_site_fract_x
_atom_site_fract_y
_atom_site_fract_z
Si Si1 0.108905 0.736608 0.739004
Si Si2 0.442998 0.722977 0.571983
Si Si3 0.220994 0.059947 0.656945
Si Si4 0.775537 0.542438 0.514073
Si Si5 0.532368 0.754131 0.068671
Si Si6 0.157758 0.438621 0.301713
Si Si7 0.093009 0.885803 0.244836
Si Si8 0.730029 0.991601 0.564662
O O1 0.229505 0.679230 0.721744
O O2 0.879944 0.840672 0.571984
O O3 0.285219 0.856153 0.597954
O O4 0.052064 0.593954 0.026441
O O5 0.614504 0.826560 0.466263
O O6 0.582082 0.580123 0.732380
O O7 0.360384 0.838440 0.319528
O O8 0.994448 0.036456 0.772224
O O9 0.343178 0.894155 0.881897
O O10 0.653368 0.695973 0.243265
O O11 0.593061 0.398251 0.734538
O O12 0.837923 0.559161 0.591704
O O13 0.000000 0.500000 0.500000
O O14 0.713192 0.832489 0.867265
O O15 0.020456 0.284118 0.511798
O O16 0.000000 0.000000 0.000000
O O17 0.500000 0.000000 0.500000
O O18 0.000000 0.000000 0.500000
#
# Coordination Sequence:
#
# PCOD9041326 Si02
#       8
#     2   2   2   2   2   2   2   2
#     4  11  24  44  71 107 146 192 241 316 386 448
#     4  10  23  44  70 103 138 191 241 309 382 448
#     4  10  23  43  73 103 139 191 243 306 377 449
#     4  11  29  47  74 103 151 204 248 316 384 454
#     4  11  26  49  73 107 145 199 256 311 381 462
#     4  11  26  44  68 104 146 186 251 308 376 463
#     4  10  25  40  69 103 139 190 245 307 371 450
#     4  12  27  46  78 115 151 203 259 321 385 467
#
# _framework density 22.947558999999998
#
# number of rings (size 3 to 8) (size 9 to 14) (size 15 to 20)
#    0.000    1.250    1.250    1.875   10.500    7.500 
#    0.000    0.000    0.000    0.000    0.000    0.000 
#    0.000    0.000    0.000    0.000    0.000    0.000 
#
# Total GULP energy -89438.463028 kJ/mol
# GULP energy per Si atom -5589.903939 kJ/mol
# Density = 2.289533 g / cm^3
# Si number density = 22.947559 Si / 1000 Ang^3
#
#
#
# Elastic Constant Matrix: (Units=GPa)
#
#
# Indices 1 2 3 4 5 6 
#
# 1 93.4512 46.6875 60.9442 5.3768 27.9421 17.8592
# 2 46.6875 123.6640 50.1368 7.2344 18.0834 9.9850
# 3 60.9442 50.1368 181.1399 22.6386 27.5803 19.6373
# 4 5.3768 7.2344 22.6386 26.0290 5.3814 9.0307
# 5 27.9421 18.0834 27.5803 5.3814 52.8819 4.7196
# 6 17.8592 9.9850 19.6373 9.0307 4.7196 43.7417
#
#
#
# Elastic Compliance Matrix: (Units=1/GPa)
#
#
# Indices 1 2 3 4 5 6 
#
# 1 0.017727 -0.004092 -0.003888 0.003702 -0.005898 -0.004686
# 2 -0.004092 0.010280 -0.001289 -0.000812 -0.000610 0.000136
# 3 -0.003888 -0.001289 0.008095 -0.005473 -0.001125 -0.000501
# 4 0.003702 -0.000812 -0.005473 0.046015 -0.002787 -0.008069
# 5 -0.005898 -0.000610 -0.001125 -0.002787 0.023003 0.001146
# 6 -0.004686 0.000136 -0.000501 -0.008069 0.001146 0.026511
#
#
# Mechanical properties :
#
#
# Convention : Reuss Voigt Hill
#
# Bulk Modulus (GPa) = 56.93631 79.31026 68.12329
# Shear Modulus (GPa) = 32.04654 40.56297 36.30475
#
# Velocity S-wave (km/s) = 3.74105 4.20889 3.98185
# Velocity P-wave (km/s) = 6.59742 7.63258 7.13380
#
# Compressibility (1/GPa) = 0.01756348
#
# Stress axis : x y z
#
# Youngs Moduli (GPa) = 56.41183 97.28049 123.53052
#
# Poissons Ratio (x) = 0.39806 0.48032
# Poissons Ratio (y) = 0.23083 0.15922
# Poissons Ratio (z) = 0.21934 0.12538
#
# Static dielectric constant tensor:
#      x y z
#    x 1.943050 -0.043390 -0.002850 
#    y -0.043390 1.899800 0.029360 
#    z -0.002850 0.029360 1.839580 
# 
# From -- ./inp_files/482624.got.cif
#   From: 2010.05.17/outbox.cif.g08.bks.cpg/sg2_242_cif.got.tgz:482624.got - 2010.06.03 11:33:40.
