data_PCOD9041202
_publ_section_title
;
Structure prediction by ZEFSAII (Michael W. Deem and Ramdas Pophale) SiO2 
 PCOD9041202
Probable space group: P -1
;
_chemical_formula_sum "Si O2"
_cell_formula_units_Z 15
_cell_length_a 11.397107
_cell_length_b 8.908323
_cell_length_c 9.056961
_cell_angle_alpha 116.628387
_cell_angle_beta 89.972288
_cell_angle_gamma 62.963390
_cell_volume 707.687305
_symmetry_space_group_name_H-M "P -1"
_symmetry_group_IT_number 2
_symmetry_cell_setting 'triclinic'
loop_
_space_group_symop_operation_xyz
x,y,z
-x,-y,-z
loop_
_atom_site_type_symbol
_atom_site_label
_atom_site_fract_x
_atom_site_fract_y
_atom_site_fract_z
Si Si1 0.263297 0.951145 0.326199
Si Si2 0.138221 0.358876 0.347692
Si Si3 0.522584 0.618560 0.321990
Si Si4 0.354190 0.490617 0.419799
Si Si5 0.784963 0.275043 0.034622
Si Si6 0.172245 0.907905 0.727332
Si Si7 0.000000 0.000000 0.500000
Si Si8 0.050277 0.302818 0.999963
O O1 0.223862 0.160507 0.353046
O O2 0.412402 0.821680 0.340332
O O3 0.149879 0.977641 0.458060
O O4 0.257328 0.821340 0.135696
O O5 0.229949 0.458845 0.366003
O O6 0.000000 0.500000 0.500000
O O7 0.097531 0.315109 0.169297
O O8 0.450852 0.485790 0.286881
O O9 0.569683 0.639571 0.495269
O O10 0.658294 0.487749 0.169606
O O11 0.295596 0.710066 0.576557
O O12 0.829053 0.145705 0.125422
O O13 0.916939 0.283784 0.994699
O O14 0.043893 0.938187 0.645637
O O15 0.164769 0.114373 0.828579
O O16 0.000000 0.500000 0.000000
#
# Coordination Sequence:
#
# PCOD9041202 Si02
#       8
#     2   2   2   2   2   2   1   2
#     4  12  24  42  70 101 137 180 228 279 344 402
#     4  12  27  43  68 108 137 171 225 298 342 389
#     4  10  23  43  71  95 131 193 226 270 333 426
#     4  10  23  45  70  99 134 178 237 274 336 409
#     4  11  23  46  68  99 140 184 225 272 346 418
#     4  11  22  44  68  94 139 180 220 281 339 402
#     4  12  22  36  72 100 124 184 228 266 332 412
#     4  12  27  42  69 104 139 172 227 291 346 392
#
# _framework density 21.195799999999998
#
# number of rings (size 3 to 8) (size 9 to 14) (size 15 to 20)
#    0.000    0.800    4.000    4.000    5.600    0.533 
#    0.000    4.667    0.000    0.000    0.000    0.000 
#    0.000    0.000    0.000    0.000    0.000    0.000 
#
# Total GULP energy -83547.077500 kJ/mol
# GULP energy per Si atom -5569.805167 kJ/mol
# Density = 2.114756 g / cm^3
# Si number density = 21.195800 Si / 1000 Ang^3
#
#
#
# Elastic Constant Matrix: (Units=GPa)
#
#
# Indices 1 2 3 4 5 6 
#
# 1 68.1817 6.0024 15.6258 10.5009 2.0211 -15.5793
# 2 6.0024 144.6495 36.2593 -0.0492 7.7994 -26.1845
# 3 15.6258 36.2593 73.7881 2.5248 7.8152 -21.1643
# 4 10.5009 -0.0492 2.5248 30.2377 -4.2338 5.1850
# 5 2.0211 7.7994 7.8152 -4.2338 25.7494 -5.5654
# 6 -15.5793 -26.1845 -21.1643 5.1850 -5.5654 35.2200
#
#
#
# Elastic Compliance Matrix: (Units=1/GPa)
#
#
# Indices 1 2 3 4 5 6 
#
# 1 0.018231 0.001324 -0.001539 -0.007869 -0.000676 0.009176
# 2 0.001324 0.008577 -0.002838 -0.001243 -0.000900 0.005298
# 3 -0.001539 -0.002838 0.017979 -0.002780 -0.003223 0.007913
# 4 -0.007869 -0.001243 -0.002780 0.038715 0.005859 -0.010849
# 5 -0.000676 -0.000900 -0.003223 0.005859 0.041713 0.002824
# 6 0.009176 0.005298 0.007913 -0.010849 0.002824 0.043189
#
#
# Mechanical properties :
#
#
# Convention : Reuss Voigt Hill
#
# Bulk Modulus (GPa) = 25.85169 44.71047 35.28108
# Shear Modulus (GPa) = 26.68047 33.49021 30.08534
#
# Velocity S-wave (km/s) = 3.55175 3.97928 3.77158
# Velocity P-wave (km/s) = 5.38916 6.50021 5.97058
#
# Compressibility (1/GPa) = 0.03868219
#
# Stress axis : x y z
#
# Youngs Moduli (GPa) = 54.85061 116.59482 55.62101
#
# Poissons Ratio (x) = -0.15436 0.08558
# Poissons Ratio (y) = -0.07262 0.15783
# Poissons Ratio (z) = 0.08440 0.33085
#
# Static dielectric constant tensor:
#      x y z
#    x 1.748590 0.011740 0.007220 
#    y 0.011740 1.781820 -0.014770 
#    z 0.007220 -0.014770 1.830340 
# 
# From -- ./inp_files/245566.got.cif
#   From: 2010.05.17/outbox.cif.g08.bks.cpg/sg2_123_cif.got.tgz:245566.got - 2010.06.03 11:33:40.
