data_PCOD9041134
_publ_section_title
;
Structure prediction by ZEFSAII (Michael W. Deem and Ramdas Pophale) SiO2 
 PCOD9041134
Probable space group: P -1
;
_chemical_formula_sum "Si O2"
_cell_formula_units_Z 10
_cell_length_a 12.036484
_cell_length_b 11.077620
_cell_length_c 12.063249
_cell_angle_alpha 34.800195
_cell_angle_beta 22.776541
_cell_angle_gamma 36.232281
_cell_volume 346.345059
_symmetry_space_group_name_H-M "P -1"
_symmetry_group_IT_number 2
_symmetry_cell_setting 'triclinic'
loop_
_space_group_symop_operation_xyz
x,y,z
-x,-y,-z
loop_
_atom_site_type_symbol
_atom_site_label
_atom_site_fract_x
_atom_site_fract_y
_atom_site_fract_z
Si Si1 0.488202 0.980206 0.265625
Si Si2 0.428755 0.352376 0.863119
Si Si3 0.591915 0.708664 0.703287
Si Si4 0.902426 0.233860 0.354727
Si Si5 0.035468 0.726219 0.090112
O O1 0.523957 0.134524 0.013404
O O2 0.324890 0.146207 0.384384
O O3 0.292558 0.814475 0.530949
O O4 0.796880 0.862456 0.123583
O O5 0.199307 0.315319 0.007346
O O6 0.253050 0.532090 0.971085
O O7 0.709082 0.381666 0.515234
O O8 0.842922 0.651625 0.422218
O O9 0.500000 0.500000 0.000000
O O10 0.282903 0.835991 0.836039
O O11 0.000000 0.000000 0.500000
#
# Coordination Sequence:
#
# PCOD9041134 Si02
#       5
#     2   2   2   2   2
#     4  11  25  44  73  99 141 179 231 283 336 404
#     4  11  24  44  70 101 141 178 226 279 343 403
#     4  12  26  47  72  98 140 183 227 285 346 404
#     4  10  23  43  71 102 136 184 225 274 344 407
#     4  12  27  45  70 106 134 181 233 280 342 408
#
# _framework density 28.872938000000001
#
# number of rings (size 3 to 8) (size 9 to 14) (size 15 to 20)
#    0.000    0.800    2.000    5.400    0.000    9.600 
#    0.000    0.000    0.000    0.000    0.000    0.000 
#    0.000    0.000    0.000    0.000    0.000    0.000 
#
# Total GULP energy -56206.973597 kJ/mol
# GULP energy per Si atom -5620.697360 kJ/mol
# Density = 2.880722 g / cm^3
# Si number density = 28.872938 Si / 1000 Ang^3
#
#
#
# Elastic Constant Matrix: (Units=GPa)
#
#
# Indices 1 2 3 4 5 6 
#
# 1 179.9629 51.3408 55.3342 8.2131 -7.1299 4.4263
# 2 51.3408 121.6011 24.1940 31.4669 25.9391 4.2921
# 3 55.3342 24.1940 181.1076 26.5399 27.3303 13.7298
# 4 8.2131 31.4669 26.5399 46.8716 1.4082 9.7031
# 5 -7.1299 25.9391 27.3303 1.4082 65.5025 -3.5867
# 6 4.4263 4.2921 13.7298 9.7031 -3.5867 71.0242
#
#
#
# Elastic Compliance Matrix: (Units=1/GPa)
#
#
# Indices 1 2 3 4 5 6 
#
# 1 0.007594 -0.004174 -0.002731 0.002892 0.003562 0.000092
# 2 -0.004174 0.013303 0.001762 -0.009016 -0.006262 0.000031
# 3 -0.002731 0.001762 0.007485 -0.004622 -0.004071 -0.000957
# 4 0.002892 -0.009016 -0.004622 0.029879 0.005030 -0.002570
# 5 0.003562 -0.006262 -0.004071 0.005030 0.019793 0.001256
# 6 0.000092 0.000031 -0.000957 -0.002570 0.001256 0.014672
#
#
# Mechanical properties :
#
#
# Convention : Reuss Voigt Hill
#
# Bulk Modulus (GPa) = 55.26192 82.71217 68.98705
# Shear Modulus (GPa) = 45.85303 60.13315 52.99309
#
# Velocity S-wave (km/s) = 3.98942 4.56859 4.28879
# Velocity P-wave (km/s) = 6.35624 7.51921 6.96205
#
# Compressibility (1/GPa) = 0.01809564
#
# Stress axis : x y z
#
# Youngs Moduli (GPa) = 131.68025 75.17021 133.60404
#
# Poissons Ratio (x) = 0.31379 0.36486
# Poissons Ratio (y) = 0.54968 -0.23542
# Poissons Ratio (z) = 0.35960 -0.13245
#
# Static dielectric constant tensor:
#      x y z
#    x 2.288890 -0.005550 0.005260 
#    y -0.005550 2.278230 -0.033140 
#    z 0.005260 -0.033140 2.126960 
# 
# From -- ./inp_files/230047.got.cif
#   From: 2010.05.17/outbox.cif.g08.bks.cpg/sg2_116_cif.got.tgz:230047.got - 2010.06.03 11:33:40.
