data_PCOD9041636
_publ_section_title
;
Structure prediction by ZEFSAII (Michael W. Deem and Ramdas Pophale) SiO2 
 PCOD9041636
Probable space group: P -1
;
_chemical_formula_sum "Si O2"
_cell_formula_units_Z 16
_cell_length_a 5.360257
_cell_length_b 9.696313
_cell_length_c 14.106772
_cell_angle_alpha 117.557896
_cell_angle_beta 73.003664
_cell_angle_gamma 101.026846
_cell_volume 620.260779
_symmetry_space_group_name_H-M "P -1"
_symmetry_group_IT_number 2
_symmetry_cell_setting 'triclinic'
loop_
_space_group_symop_operation_xyz
x,y,z
-x,-y,-z
loop_
_atom_site_type_symbol
_atom_site_label
_atom_site_fract_x
_atom_site_fract_y
_atom_site_fract_z
Si Si1 0.038883 0.143462 0.661508
Si Si2 0.792530 0.599331 0.774396
Si Si3 0.470059 0.860956 0.087609
Si Si4 0.126731 0.581678 0.105175
Si Si5 0.861214 0.913731 0.900871
Si Si6 0.120240 0.368637 0.559920
Si Si7 0.540624 0.649631 0.641429
Si Si8 0.552948 0.015777 0.312919
O O1 0.120745 0.211621 0.571210
O O2 0.248481 0.030788 0.643183
O O3 0.046137 0.295425 0.779809
O O4 0.741342 0.066304 0.666841
O O5 0.787621 0.535453 0.860729
O O6 0.984163 0.756363 0.804769
O O7 0.561524 0.660857 0.755730
O O8 0.877622 0.454417 0.656040
O O9 0.370496 0.692173 0.079034
O O10 0.638644 0.942662 0.179029
O O11 0.230410 0.971845 0.132953
O O12 0.601167 0.850494 0.968120
O O13 0.000000 0.500000 0.000000
O O14 0.000000 0.000000 0.000000
O O15 0.364101 0.491255 0.595475
O O16 0.165155 0.349344 0.437210
O O17 0.449724 0.800426 0.644885
#
# Coordination Sequence:
#
# PCOD9041636 Si02
#       8
#     2   2   2   2   2   2   2   2
#     4  10  26  47  71 107 143 193 236 304 352 437
#     4  11  24  43  68  99 139 184 236 295 356 429
#     4  10  24  40  60 100 133 186 229 288 339 429
#     4  10  23  44  66 100 140 190 233 289 352 424
#     4  11  24  39  65  96 138 183 236 283 351 418
#     4  10  26  46  70 102 142 183 243 303 364 436
#     4  11  25  45  73 103 136 191 239 302 370 423
#     4  11  25  46  75 103 147 184 243 292 366 423
#
# _framework density 25.795601000000001
#
# number of rings (size 3 to 8) (size 9 to 14) (size 15 to 20)
#    0.000    1.500    1.250    1.125   14.000    3.500 
#    0.000    0.000    0.000    0.000    0.000    0.000 
#    0.000    0.000    0.000    0.000    0.000    0.000 
#
# Total GULP energy -89448.279066 kJ/mol
# GULP energy per Si atom -5590.517442 kJ/mol
# Density = 2.573689 g / cm^3
# Si number density = 25.795601 Si / 1000 Ang^3
#
#
#
# Elastic Constant Matrix: (Units=GPa)
#
#
# Indices 1 2 3 4 5 6 
#
# 1 89.1533 56.2396 7.2662 -17.9836 7.1804 -20.8940
# 2 56.2396 164.1917 27.9991 -24.2537 3.5745 -30.7090
# 3 7.2662 27.9991 84.6296 -18.2906 6.5125 -3.9987
# 4 -17.9836 -24.2537 -18.2906 48.9965 -8.0764 4.1072
# 5 7.1804 3.5745 6.5125 -8.0764 27.6883 -5.7986
# 6 -20.8940 -30.7090 -3.9987 4.1072 -5.7986 46.4389
#
#
#
# Elastic Compliance Matrix: (Units=1/GPa)
#
#
# Indices 1 2 3 4 5 6 
#
# 1 0.015533 -0.004279 0.001138 0.003370 -0.001983 0.003711
# 2 -0.004279 0.008888 -0.002096 0.002031 0.001848 0.003823
# 3 0.001138 -0.002096 0.013438 0.004085 -0.002064 -0.000336
# 4 0.003370 0.002031 0.004085 0.024947 0.005535 0.001696
# 5 -0.001983 0.001848 -0.002064 0.005535 0.039453 0.004589
# 6 0.003711 0.003823 -0.000336 0.001696 0.004589 0.026126
#
#
# Mechanical properties :
#
#
# Convention : Reuss Voigt Hill
#
# Bulk Modulus (GPa) = 36.51649 57.88716 47.20182
# Shear Modulus (GPa) = 33.78693 41.05604 37.42149
#
# Velocity S-wave (km/s) = 3.62303 3.99380 3.81293
# Velocity P-wave (km/s) = 5.62927 6.61489 6.14188
#
# Compressibility (1/GPa) = 0.02738489
#
# Stress axis : x y z
#
# Youngs Moduli (GPa) = 64.38094 112.50571 74.41783
#
# Poissons Ratio (x) = 0.48146 -0.08472
# Poissons Ratio (y) = 0.27551 0.15597
# Poissons Ratio (z) = -0.07330 0.23580
#
# Static dielectric constant tensor:
#      x y z
#    x 2.173560 0.025730 -0.188960 
#    y 0.025730 2.006290 0.097890 
#    z -0.188960 0.097890 2.224710 
# 
# From -- ./inp_files/135035.got.cif
#   From: 2010.05.17/outbox.cif.g08.bks.cpg/sg2_68_cif.got.tgz:135035.got - 2010.06.03 11:33:40.
