data_PCOD9041814
_publ_section_title
;
Structure prediction by ZEFSAII (Michael W. Deem and Ramdas Pophale) SiO2 
 PCOD9041814
Probable space group: P -1
;
_chemical_formula_sum "Si O2"
_cell_formula_units_Z 16
_cell_length_a 13.092304
_cell_length_b 14.359888
_cell_length_c 5.173036
_cell_angle_alpha 111.758241
_cell_angle_beta 112.075677
_cell_angle_gamma 48.099697
_cell_volume 660.630915
_symmetry_space_group_name_H-M "P -1"
_symmetry_group_IT_number 2
_symmetry_cell_setting 'triclinic'
loop_
_space_group_symop_operation_xyz
x,y,z
-x,-y,-z
loop_
_atom_site_type_symbol
_atom_site_label
_atom_site_fract_x
_atom_site_fract_y
_atom_site_fract_z
Si Si1 0.812406 0.513017 0.095938
Si Si2 0.833512 0.215297 0.537181
Si Si3 0.404188 0.544168 0.202241
Si Si4 0.380860 0.209447 0.614507
Si Si5 0.226668 0.099232 0.496089
Si Si6 0.903603 0.990071 0.092985
Si Si7 0.938620 0.357168 0.562708
Si Si8 0.538715 0.096300 0.144599
O O1 0.750577 0.651415 0.279001
O O2 0.912500 0.412905 0.309859
O O3 0.679692 0.513016 0.948052
O O4 0.888738 0.463125 0.842037
O O5 0.715763 0.304537 0.726867
O O6 0.846696 0.307196 0.467199
O O7 0.985681 0.116841 0.708764
O O8 0.805896 0.128782 0.270238
O O9 0.500000 0.500000 0.500000
O O10 0.500000 0.500000 0.000000
O O11 0.332035 0.121032 0.493623
O O12 0.439207 0.200076 0.376838
O O13 0.500337 0.159355 0.893107
O O14 0.097245 0.234339 0.622110
O O15 0.306343 0.992785 0.684002
O O16 0.169698 0.055587 0.183454
O O17 0.000000 0.000000 0.000000
O O18 0.500000 0.000000 0.000000
#
# Coordination Sequence:
#
# PCOD9041814 Si02
#       8
#     2   2   2   2   2   2   2   2
#     4  11  25  45  66  96 139 174 226 279 334 386
#     4  10  24  43  66  98 142 171 222 289 344 396
#     4  11  24  42  67  93 128 178 225 271 334 399
#     4  11  25  46  67  99 141 180 224 284 322 406
#     4  11  23  42  73  99 136 180 227 269 357 401
#     4  11  23  43  67 102 136 175 223 286 346 402
#     4  11  23  42  71  96 132 178 216 282 332 403
#     4  10  23  44  67  94 137 177 225 277 332 392
#
# _framework density 24.219273999999999
#
# number of rings (size 3 to 8) (size 9 to 14) (size 15 to 20)
#    0.000    1.250    1.250    5.250    1.750    8.000 
#    2.250    0.000    0.000    0.000    0.000    0.000 
#    0.000    0.000    0.000    0.000    0.000    0.000 
#
# Total GULP energy -89680.037673 kJ/mol
# GULP energy per Si atom -5605.002355 kJ/mol
# Density = 2.416415 g / cm^3
# Si number density = 24.219274 Si / 1000 Ang^3
#
#
#
# Elastic Constant Matrix: (Units=GPa)
#
#
# Indices 1 2 3 4 5 6 
#
# 1 64.6240 9.4459 30.0707 10.2135 6.4095 -14.0910
# 2 9.4459 91.0581 29.5568 26.8670 12.8633 -10.7093
# 3 30.0707 29.5568 131.5776 16.2784 2.0711 -3.1276
# 4 10.2135 26.8670 16.2784 50.5695 -3.9954 -8.6281
# 5 6.4095 12.8633 2.0711 -3.9954 30.0822 5.2007
# 6 -14.0910 -10.7093 -3.1276 -8.6281 5.2007 37.5512
#
#
#
# Elastic Compliance Matrix: (Units=1/GPa)
#
#
# Indices 1 2 3 4 5 6 
#
# 1 0.020084 0.002083 -0.004404 -0.002902 -0.006638 0.008016
# 2 0.002083 0.015750 -0.002802 -0.007820 -0.008796 0.004461
# 3 -0.004404 -0.002802 0.009260 -0.000825 0.001755 -0.002113
# 4 -0.002902 -0.007820 -0.000825 0.025603 0.007160 0.001503
# 5 -0.006638 -0.008796 0.001755 0.007160 0.040779 -0.008856
# 6 0.008016 0.004461 -0.002113 0.001503 -0.008856 0.032307
#
#
# Mechanical properties :
#
#
# Convention : Reuss Voigt Hill
#
# Bulk Modulus (GPa) = 28.69613 47.26738 37.98175
# Shear Modulus (GPa) = 30.18519 38.18635 34.18577
#
# Velocity S-wave (km/s) = 3.53417 3.97507 3.76108
# Velocity P-wave (km/s) = 5.34116 6.37393 5.88026
#
# Compressibility (1/GPa) = 0.03484791
#
# Stress axis : x y z
#
# Youngs Moduli (GPa) = 49.79160 63.49203 107.99017
#
# Poissons Ratio (x) = -0.13224 0.47556
# Poissons Ratio (y) = -0.10370 0.30259
# Poissons Ratio (z) = 0.21927 0.17790
#
# Static dielectric constant tensor:
#      x y z
#    x 1.972070 -0.003430 0.000240 
#    y -0.003430 1.937510 0.004490 
#    z 0.000240 0.004490 1.896990 
# 
# From -- ./inp_files/99952.got.cif
#   From: 2010.05.17/outbox.cif.g08.bks.cpg/sg2_50_cif.got.tgz:99952.got - 2010.06.03 11:33:40.
