data_PCOD9041313
_publ_section_title
;
Structure prediction by ZEFSAII (Michael W. Deem and Ramdas Pophale) SiO2 
 PCOD9041313
Probable space group: P -1
;
_chemical_formula_sum "Si O2"
_cell_formula_units_Z 14
_cell_length_a 17.164411
_cell_length_b 8.775866
_cell_length_c 11.768368
_cell_angle_alpha 50.309895
_cell_angle_beta 32.801974
_cell_angle_gamma 35.674228
_cell_volume 554.542209
_symmetry_space_group_name_H-M "P -1"
_symmetry_group_IT_number 2
_symmetry_cell_setting 'triclinic'
loop_
_space_group_symop_operation_xyz
x,y,z
-x,-y,-z
loop_
_atom_site_type_symbol
_atom_site_label
_atom_site_fract_x
_atom_site_fract_y
_atom_site_fract_z
Si Si1 0.345980 0.716027 0.848212
Si Si2 0.478587 0.874283 0.422158
Si Si3 0.169695 0.166042 0.014445
Si Si4 0.856838 0.528756 0.384169
Si Si5 0.700858 0.249902 0.748314
Si Si6 0.757177 0.949593 0.596089
Si Si7 0.134094 0.529707 0.202274
O O1 0.197680 0.010664 0.940611
O O2 0.479525 0.518103 0.881659
O O3 0.473387 0.706878 0.601509
O O4 0.239965 0.619808 0.977041
O O5 0.679747 0.791952 0.190183
O O6 0.378898 0.892721 0.419602
O O7 0.340201 0.172371 0.502050
O O8 0.240427 0.957514 0.129400
O O9 0.954954 0.418098 0.193841
O O10 0.012390 0.510270 0.273527
O O11 0.820928 0.342669 0.564874
O O12 0.732652 0.117696 0.650216
O O13 0.726866 0.750753 0.771117
O O14 0.976319 0.754651 0.376780
#
# Coordination Sequence:
#
# PCOD9041313 Si02
#       7
#     2   2   2   2   2   2   2
#     4  12  27  45  70 101 147 184 230 279 351 412
#     4  11  27  49  66 106 144 185 228 286 340 424
#     4  12  25  45  75 101 139 184 232 292 340 406
#     4  11  25  45  76 104 139 177 238 285 351 403
#     4  12  25  44  73 109 134 180 235 292 342 411
#     4  10  23  43  73 100 142 173 238 285 349 401
#     4  10  23  44  71 104 136 182 231 294 337 408
#
# _framework density 25.246051000000001
#
# number of rings (size 3 to 8) (size 9 to 14) (size 15 to 20)
#    0.000    0.857    2.857    3.000    8.000    4.571 
#    2.571    0.000    0.000    0.000    0.000    0.000 
#    0.000    0.000    0.000    0.000    0.000    0.000 
#
# Total GULP energy -78548.472160 kJ/mol
# GULP energy per Si atom -5610.605154 kJ/mol
# Density = 2.518859 g / cm^3
# Si number density = 25.246051 Si / 1000 Ang^3
#
#
#
# Elastic Constant Matrix: (Units=GPa)
#
#
# Indices 1 2 3 4 5 6 
#
# 1 110.7333 31.7859 35.0184 -16.1151 -6.0695 2.7717
# 2 31.7859 82.7905 38.2441 5.4679 2.2741 5.3889
# 3 35.0184 38.2441 139.6675 -25.4794 -15.7614 13.2195
# 4 -16.1151 5.4679 -25.4794 53.0380 8.3822 2.2921
# 5 -6.0695 2.2741 -15.7614 8.3822 37.9088 -3.7856
# 6 2.7717 5.3889 13.2195 2.2921 -3.7856 42.3399
#
#
#
# Elastic Compliance Matrix: (Units=1/GPa)
#
#
# Indices 1 2 3 4 5 6 
#
# 1 0.010996 -0.003997 -0.000990 0.003135 0.000896 0.000008
# 2 -0.003997 0.016085 -0.004493 -0.004623 -0.002486 -0.000355
# 3 -0.000990 -0.004493 0.010058 0.004624 0.003022 -0.002484
# 4 0.003135 -0.004623 0.004624 0.023033 -0.002645 -0.002544
# 5 0.000896 -0.002486 0.003022 -0.002645 0.028715 0.002025
# 6 0.000008 -0.000355 -0.002484 -0.002544 0.002025 0.024757
#
#
# Mechanical properties :
#
#
# Convention : Reuss Voigt Hill
#
# Bulk Modulus (GPa) = 55.00491 60.36535 57.68513
# Shear Modulus (GPa) = 36.05829 41.86688 38.96258
#
# Velocity S-wave (km/s) = 3.78335 4.07671 3.93277
# Velocity P-wave (km/s) = 6.39686 6.79133 6.59704
#
# Compressibility (1/GPa) = 0.01818019
#
# Stress axis : x y z
#
# Youngs Moduli (GPa) = 90.93943 62.16926 99.42286
#
# Poissons Ratio (x) = 0.24846 0.09847
# Poissons Ratio (y) = 0.36345 0.44667
# Poissons Ratio (z) = 0.09007 0.27931
#
# Static dielectric constant tensor:
#      x y z
#    x 1.958920 -0.020180 0.031350 
#    y -0.020180 2.029780 0.033430 
#    z 0.031350 0.033430 1.974750 
# 
# From -- ./inp_files/206012.got.cif
#   From: 2010.05.17/outbox.cif.g08.bks.cpg/sg2_104_cif.got.tgz:206012.got - 2010.06.03 11:33:40.
