data_PCOD9041657
_publ_section_title
;
Structure prediction by ZEFSAII (Michael W. Deem and Ramdas Pophale) SiO2 
 PCOD9041657
Probable space group: P -1
;
_chemical_formula_sum "Si O2"
_cell_formula_units_Z 12
_cell_length_a 7.527887
_cell_length_b 12.773905
_cell_length_c 12.739010
_cell_angle_alpha 156.821977
_cell_angle_beta 90.463914
_cell_angle_gamma 78.539921
_cell_volume 421.383898
_symmetry_space_group_name_H-M "P -1"
_symmetry_group_IT_number 2
_symmetry_cell_setting 'triclinic'
loop_
_space_group_symop_operation_xyz
x,y,z
-x,-y,-z
loop_
_atom_site_type_symbol
_atom_site_label
_atom_site_fract_x
_atom_site_fract_y
_atom_site_fract_z
Si Si1 0.784105 0.722597 0.763082
Si Si2 0.264917 0.631793 0.369247
Si Si3 0.155360 0.398985 0.813317
Si Si4 0.996582 0.192607 0.988853
Si Si5 0.604333 0.220949 0.853414
Si Si6 0.391547 0.258398 0.434113
O O1 0.724787 0.575880 0.723998
O O2 0.622076 0.797822 0.739895
O O3 0.000000 0.500000 0.500000
O O4 0.850507 0.930451 0.024709
O O5 0.413932 0.768181 0.530897
O O6 0.050410 0.933181 0.664253
O O7 0.368380 0.455121 0.099205
O O8 0.009745 0.539983 0.839163
O O9 0.304301 0.036175 0.473853
O O10 0.000000 0.500000 0.000000
O O11 0.293577 0.564626 0.962183
O O12 0.776794 0.389671 0.221714
O O13 0.654677 0.987469 0.736341
#
# Coordination Sequence:
#
# PCOD9041657 Si02
#       6
#     2   2   2   2   2   2
#     4  10  24  39  66 106 147 194 242 280 348 413
#     4  12  23  41  71 101 154 186 238 290 348 416
#     4  11  25  49  79 103 138 186 235 298 368 427
#     4  10  24  42  67 103 141 185 239 296 349 412
#     4  11  23  46  73 106 140 184 234 291 356 420
#     4  10  23  44  66 103 148 196 236 284 346 424
#
# _framework density 28.477595000000001
#
# number of rings (size 3 to 8) (size 9 to 14) (size 15 to 20)
#    0.000    1.333    3.333    2.000    7.000    6.667 
#    0.000    1.667    0.000    0.000    0.000    0.000 
#    0.000    0.000    0.000    0.000    0.000    0.000 
#
# Total GULP energy -66991.443957 kJ/mol
# GULP energy per Si atom -5582.620330 kJ/mol
# Density = 2.841278 g / cm^3
# Si number density = 28.477595 Si / 1000 Ang^3
#
#
#
# Elastic Constant Matrix: (Units=GPa)
#
#
# Indices 1 2 3 4 5 6 
#
# 1 95.6959 29.1046 32.9650 -1.6462 4.6550 24.5308
# 2 29.1046 114.9301 25.5502 -18.2671 -0.6046 13.1560
# 3 32.9650 25.5502 248.0420 -24.3709 -22.4766 28.7206
# 4 -1.6462 -18.2671 -24.3709 56.1404 18.8761 -8.0082
# 5 4.6550 -0.6046 -22.4766 18.8761 42.9243 -0.8803
# 6 24.5308 13.1560 28.7206 -8.0082 -0.8803 57.3602
#
#
#
# Elastic Compliance Matrix: (Units=1/GPa)
#
#
# Indices 1 2 3 4 5 6 
#
# 1 0.012877 -0.002667 -0.001175 -0.001079 -0.001666 -0.004484
# 2 -0.002667 0.010055 -0.000406 0.003373 -0.001276 -0.000511
# 3 -0.001175 -0.000406 0.004699 0.000925 0.002143 -0.001595
# 4 -0.001079 0.003373 0.000925 0.022729 -0.009300 0.002255
# 5 -0.001666 -0.001276 0.002143 -0.009300 0.028652 -0.000926
# 6 -0.004484 -0.000511 -0.001595 0.002255 -0.000926 0.020568
#
#
# Mechanical properties :
#
#
# Convention : Reuss Voigt Hill
#
# Bulk Modulus (GPa) = 52.25901 70.43419 61.34660
# Shear Modulus (GPa) = 43.68573 56.02153 49.85363
#
# Velocity S-wave (km/s) = 3.92093 4.44014 4.18859
# Velocity P-wave (km/s) = 6.23611 7.14656 6.70680
#
# Compressibility (1/GPa) = 0.01913546
#
# Stress axis : x y z
#
# Youngs Moduli (GPa) = 77.65579 99.45778 212.79561
#
# Poissons Ratio (x) = 0.26525 0.24995
# Poissons Ratio (y) = 0.20711 0.08646
# Poissons Ratio (z) = 0.09121 0.04041
#
# Static dielectric constant tensor:
#      x y z
#    x 2.478280 -0.068890 0.003410 
#    y -0.068890 2.162830 -0.012270 
#    z 0.003410 -0.012270 2.256190 
# 
# From -- ./inp_files/139648.got.cif
#   From: 2010.05.17/outbox.cif.g08.bks.cpg/sg2_70_cif.got.tgz:139648.got - 2010.06.03 11:33:40.
