data_PCOD9041523
_publ_section_title
;
Structure prediction by ZEFSAII (Michael W. Deem and Ramdas Pophale) SiO2 
 PCOD9041523
Probable space group: P -1
;
_chemical_formula_sum "Si O2"
_cell_formula_units_Z 14
_cell_length_a 7.534047
_cell_length_b 5.436625
_cell_length_c 18.372881
_cell_angle_alpha 86.193763
_cell_angle_beta 130.229208
_cell_angle_gamma 109.549486
_cell_volume 529.570340
_symmetry_space_group_name_H-M "P -1"
_symmetry_group_IT_number 2
_symmetry_cell_setting 'triclinic'
loop_
_space_group_symop_operation_xyz
x,y,z
-x,-y,-z
loop_
_atom_site_type_symbol
_atom_site_label
_atom_site_fract_x
_atom_site_fract_y
_atom_site_fract_z
Si Si1 0.737599 0.755126 0.331210
Si Si2 0.762182 0.205908 0.502165
Si Si3 0.876672 0.741064 0.607437
Si Si4 0.285764 0.706767 0.965069
Si Si5 0.327577 0.248425 0.294898
Si Si6 0.378353 0.498043 0.844666
Si Si7 0.152447 0.143804 0.107355
O O1 0.471896 0.541844 0.290516
O O2 0.779327 0.676557 0.260349
O O3 0.941585 0.715259 0.441091
O O4 0.838072 0.074754 0.344857
O O5 0.777097 0.450990 0.552745
O O6 0.545201 0.166946 0.388109
O O7 0.726462 0.924253 0.536323
O O8 0.844254 0.727363 0.685524
O O9 0.256439 0.551557 0.884149
O O10 0.013132 0.683902 0.918313
O O11 0.414635 0.606254 0.065757
O O12 0.500000 0.000000 0.000000
O O13 0.173367 0.041759 0.196087
O O14 0.563301 0.761498 0.847915
O O15 0.000000 0.000000 0.000000
#
# Coordination Sequence:
#
# PCOD9041523 Si02
#       7
#     2   2   2   2   2   2   2
#     4   9  24  42  69 102 142 183 234 294 356 436
#     4  10  23  47  70 105 146 183 237 295 353 436
#     4  10  24  44  70 101 148 179 237 291 352 429
#     4  11  23  39  71  91 135 184 231 291 350 412
#     4  11  23  44  69 103 138 190 235 291 366 420
#     4  10  23  44  64 103 135 181 237 287 360 423
#     4  11  24  44  67 101 140 182 238 292 353 429
#
# _framework density 26.436526000000001
#
# number of rings (size 3 to 8) (size 9 to 14) (size 15 to 20)
#    0.857    0.857    1.429    1.714    4.000    0.571 
#    2.571    4.286    0.000    0.000    0.000    0.000 
#    0.000    0.000    0.000    0.000    0.000    0.000 
#
# Total GULP energy -78151.754400 kJ/mol
# GULP energy per Si atom -5582.268171 kJ/mol
# Density = 2.637636 g / cm^3
# Si number density = 26.436526 Si / 1000 Ang^3
#
#
#
# Elastic Constant Matrix: (Units=GPa)
#
#
# Indices 1 2 3 4 5 6 
#
# 1 100.1831 34.9174 34.4880 1.6043 -10.1529 9.5109
# 2 34.9174 95.4575 33.2569 9.2110 2.7176 8.3539
# 3 34.4880 33.2569 191.3786 -1.9190 -11.0242 -27.4397
# 4 1.6043 9.2110 -1.9190 40.9210 -4.2375 3.5119
# 5 -10.1529 2.7176 -11.0242 -4.2375 43.9482 -1.9451
# 6 9.5109 8.3539 -27.4397 3.5119 -1.9451 27.4641
#
#
#
# Elastic Compliance Matrix: (Units=1/GPa)
#
#
# Indices 1 2 3 4 5 6 
#
# 1 0.012786 -0.003519 -0.002355 0.000916 0.002419 -0.005657
# 2 -0.003519 0.013530 -0.002686 -0.002863 -0.002839 -0.005415
# 3 -0.002355 -0.002686 0.007564 0.000460 0.001974 0.009271
# 4 0.000916 -0.002863 0.000460 0.025541 0.002876 -0.002049
# 5 0.002419 -0.002839 0.001974 0.002876 0.024410 0.003359
# 6 -0.005657 -0.005415 0.009271 -0.002049 0.003359 0.049780
#
#
# Mechanical properties :
#
#
# Convention : Reuss Voigt Hill
#
# Bulk Modulus (GPa) = 59.66397 65.81597 62.73997
# Shear Modulus (GPa) = 31.98641 41.42379 36.70510
#
# Velocity S-wave (km/s) = 3.48218 3.96272 3.73020
# Velocity P-wave (km/s) = 6.22778 6.77403 6.50664
#
# Compressibility (1/GPa) = 0.01676053
#
# Stress axis : x y z
#
# Youngs Moduli (GPa) = 78.20795 73.91199 132.20633
#
# Poissons Ratio (x) = 0.26008 0.31138
# Poissons Ratio (y) = 0.27520 0.35506
# Poissons Ratio (z) = 0.18420 0.19850
#
# Static dielectric constant tensor:
#      x y z
#    x 2.134660 0.054120 0.002410 
#    y 0.054120 2.187730 0.005590 
#    z 0.002410 0.005590 2.134270 
# 
# From -- ./inp_files/552733.got.cif
#   From: 2010.05.17/outbox.cif.g08.bks.cpg/sg2_277_cif.got.tgz:552733.got - 2010.06.03 11:33:40.
