data_PCOD9041417
_publ_section_title
;
Structure prediction by ZEFSAII (Michael W. Deem and Ramdas Pophale) SiO2 
 PCOD9041417
Probable space group: P -1
;
_chemical_formula_sum "Si O2"
_cell_formula_units_Z 14
_cell_length_a 7.599392
_cell_length_b 13.793361
_cell_length_c 9.053032
_cell_angle_alpha 137.782073
_cell_angle_beta 89.589735
_cell_angle_gamma 102.399212
_cell_volume 605.873106
_symmetry_space_group_name_H-M "P -1"
_symmetry_group_IT_number 2
_symmetry_cell_setting 'triclinic'
loop_
_space_group_symop_operation_xyz
x,y,z
-x,-y,-z
loop_
_atom_site_type_symbol
_atom_site_label
_atom_site_fract_x
_atom_site_fract_y
_atom_site_fract_z
Si Si1 0.780580 0.386169 0.991475
Si Si2 0.309252 0.926190 0.829530
Si Si3 0.544793 0.080903 0.747666
Si Si4 0.654955 0.364302 0.629088
Si Si5 0.852261 0.696365 0.015445
Si Si6 0.096244 0.970754 0.152137
Si Si7 0.232364 0.280811 0.626071
O O1 0.611585 0.262495 0.934351
O O2 0.740291 0.365718 0.793958
O O3 0.964375 0.346217 0.985052
O O4 0.801929 0.559386 0.223560
O O5 0.280711 0.748712 0.603140
O O6 0.365025 0.010122 0.768399
O O7 0.154750 0.956432 0.967310
O O8 0.500000 0.000000 0.000000
O O9 0.723210 0.044417 0.774423
O O10 0.500000 0.000000 0.500000
O O11 0.435055 0.299152 0.581057
O O12 0.714335 0.539343 0.777314
O O13 0.773622 0.739099 0.218382
O O14 0.925048 0.832252 0.053449
O O15 0.089307 0.134901 0.388063
#
# Coordination Sequence:
#
# PCOD9041417 Si02
#       7
#     2   2   2   2   2   2   2
#     4  10  20  34  56  89 114 145 186 239 289 322
#     4  10  19  35  57  84 117 145 193 231 282 338
#     4  10  17  33  57  86 107 149 193 231 273 335
#     4  11  19  34  61  87 109 148 193 239 274 333
#     4  10  22  35  57  86 116 147 189 235 286 332
#     4  10  21  36  56  84 115 154 184 232 286 335
#     4  11  19  35  58  86 115 146 192 236 277 333
#
# _framework density 23.107151000000002
#
# number of rings (size 3 to 8) (size 9 to 14) (size 15 to 20)
#    0.000    1.714    4.286    3.857    0.000    0.571 
#    0.000    0.714    0.000    3.429    0.000    0.000 
#    0.000    0.000    0.000    0.000    0.000    0.000 
#
# Total GULP energy -78361.542335 kJ/mol
# GULP energy per Si atom -5597.253024 kJ/mol
# Density = 2.305456 g / cm^3
# Si number density = 23.107151 Si / 1000 Ang^3
#
#
#
# Elastic Constant Matrix: (Units=GPa)
#
#
# Indices 1 2 3 4 5 6 
#
# 1 70.3275 17.8159 15.9549 1.3966 -12.7093 8.9913
# 2 17.8159 139.3797 79.7911 26.3437 0.2868 41.6312
# 3 15.9549 79.7911 171.4869 28.9641 -16.6430 20.6072
# 4 1.3966 26.3437 28.9641 44.5774 4.7619 9.7694
# 5 -12.7093 0.2868 -16.6430 4.7619 32.2497 4.2191
# 6 8.9913 41.6312 20.6072 9.7694 4.2191 37.1682
#
#
#
# Elastic Compliance Matrix: (Units=1/GPa)
#
#
# Indices 1 2 3 4 5 6 
#
# 1 0.016170 -0.001088 0.000071 0.000134 0.006863 -0.003547
# 2 -0.001088 0.014094 -0.004673 -0.002485 -0.001007 -0.012165
# 3 0.000071 -0.004673 0.009084 -0.003834 0.005246 0.000592
# 4 0.000134 -0.002485 -0.003834 0.027365 -0.005726 -0.001666
# 5 0.006863 -0.001007 0.005246 -0.005726 0.038094 -0.006260
# 6 -0.003547 -0.012165 0.000592 -0.001666 -0.006260 0.042209
#
#
# Mechanical properties :
#
#
# Convention : Reuss Voigt Hill
#
# Bulk Modulus (GPa) = 35.75255 67.59089 51.67172
# Shear Modulus (GPa) = 29.81207 40.64120 35.22664
#
# Velocity S-wave (km/s) = 3.59579 4.19837 3.90871
# Velocity P-wave (km/s) = 5.72238 7.26749 6.54072
#
# Compressibility (1/GPa) = 0.02797003
#
# Stress axis : x y z
#
# Youngs Moduli (GPa) = 61.84434 70.95175 110.07859
#
# Poissons Ratio (x) = 0.07717 -0.00785
# Poissons Ratio (y) = 0.06726 0.51437
# Poissons Ratio (z) = -0.00441 0.33154
#
# Static dielectric constant tensor:
#      x y z
#    x 1.987070 -0.011430 -0.012440 
#    y -0.011430 1.896930 0.017530 
#    z -0.012440 0.017530 1.829770 
# 
# From -- ./inp_files/171640.got.cif
#   From: 2010.05.17/outbox.cif.g08.bks.cpg/sg2_86_cif.got.tgz:171640.got - 2010.06.03 11:33:40.
