data_PCOD9041415
_publ_section_title
;
Structure prediction by ZEFSAII (Michael W. Deem and Ramdas Pophale) SiO2 
 PCOD9041415
Probable space group: P -1
;
_chemical_formula_sum "Si O2"
_cell_formula_units_Z 10
_cell_length_a 11.904568
_cell_length_b 9.166072
_cell_length_c 12.288435
_cell_angle_alpha 130.884204
_cell_angle_beta 24.010234
_cell_angle_gamma 139.733709
_cell_volume 348.015723
_symmetry_space_group_name_H-M "P -1"
_symmetry_group_IT_number 2
_symmetry_cell_setting 'triclinic'
loop_
_space_group_symop_operation_xyz
x,y,z
-x,-y,-z
loop_
_atom_site_type_symbol
_atom_site_label
_atom_site_fract_x
_atom_site_fract_y
_atom_site_fract_z
Si Si1 0.264750 0.111105 0.206773
Si Si2 0.219269 0.511274 0.493844
Si Si3 0.137873 0.649397 0.059663
Si Si4 0.528923 0.841917 0.185181
Si Si5 0.299766 0.072953 0.632007
O O1 0.105994 0.256841 0.439616
O O2 0.045036 0.844096 0.239201
O O3 0.485214 0.176713 0.152424
O O4 0.487999 0.224560 0.957093
O O5 0.287506 0.640338 0.382136
O O6 0.569823 0.668416 0.322871
O O7 0.005656 0.505631 0.780831
O O8 0.000000 0.500000 0.000000
O O9 0.434194 0.030360 0.380718
O O10 0.908990 0.930635 0.919484
O O11 0.500000 0.000000 0.500000
#
# Coordination Sequence:
#
# PCOD9041415 Si02
#       5
#     2   2   2   2   2
#     4  11  27  46  74 113 146 197 256 309 377 446
#     4  11  24  43  77 105 149 195 247 314 375 443
#     4  11  27  50  73 102 154 202 255 305 376 450
#     4  11  25  46  78 115 155 190 250 316 377 445
#     4  10  23  43  74 115 155 195 242 304 383 450
#
# _framework density 28.734334
#
# number of rings (size 3 to 8) (size 9 to 14) (size 15 to 20)
#    0.000    1.200    0.000    4.800   14.000    1.600 
#    0.000    0.000    0.000    0.000    0.000    0.000 
#    0.000    0.000    0.000    0.000    0.000    0.000 
#
# Total GULP energy -55849.717834 kJ/mol
# GULP energy per Si atom -5584.971783 kJ/mol
# Density = 2.866893 g / cm^3
# Si number density = 28.734334 Si / 1000 Ang^3
#
#
#
# Elastic Constant Matrix: (Units=GPa)
#
#
# Indices 1 2 3 4 5 6 
#
# 1 169.9731 76.6101 72.4070 -10.8820 27.9687 54.9843
# 2 76.6101 203.9668 76.7800 5.7747 4.8755 55.4671
# 3 72.4070 76.7800 162.7901 20.7289 17.0916 15.1471
# 4 -10.8820 5.7747 20.7289 49.6438 3.8377 10.5975
# 5 27.9687 4.8755 17.0916 3.8377 67.2757 -1.3538
# 6 54.9843 55.4671 15.1471 10.5975 -1.3538 62.7502
#
#
#
# Elastic Compliance Matrix: (Units=1/GPa)
#
#
# Indices 1 2 3 4 5 6 
#
# 1 0.013297 0.000186 -0.005405 0.008084 -0.004870 -0.011981
# 2 0.000186 0.007869 -0.003427 0.001972 -0.000023 -0.006625
# 3 -0.005405 -0.003427 0.010360 -0.006500 0.000362 0.006370
# 4 0.008084 0.001972 -0.006500 0.027230 -0.003646 -0.011936
# 5 -0.004870 -0.000023 0.000362 -0.003646 0.017111 0.005185
# 6 -0.011981 -0.006625 0.006370 -0.011936 0.005185 0.032881
#
#
# Mechanical properties :
#
#
# Convention : Reuss Voigt Hill
#
# Bulk Modulus (GPa) = 70.25033 109.81381 90.03207
# Shear Modulus (GPa) = 38.23085 56.66280 47.44682
#
# Velocity S-wave (km/s) = 3.65155 4.44549 4.06793
# Velocity P-wave (km/s) = 6.50229 8.04050 7.31196
#
# Compressibility (1/GPa) = 0.01423481
#
# Stress axis : x y z
#
# Youngs Moduli (GPa) = 75.20609 127.07879 96.52366
#
# Poissons Ratio (x) = -0.02367 0.52174
# Poissons Ratio (y) = -0.01401 0.33075
# Poissons Ratio (z) = 0.40651 0.43544
#
# Static dielectric constant tensor:
#      x y z
#    x 2.418220 -0.098150 -0.091680 
#    y -0.098150 2.394950 -0.014030 
#    z -0.091680 -0.014030 2.315140 
# 
# From -- ./inp_files/532001.got.cif
#   From: 2010.05.17/outbox.cif.g08.bks.cpg/sg2_267_cif.got.tgz:532001.got - 2010.06.03 11:33:40.
