data_PCOD9041995
_publ_section_title
;
Structure prediction by ZEFSAII (Michael W. Deem and Ramdas Pophale) SiO2 
 PCOD9041995
Probable space group: P -1
;
_chemical_formula_sum "Si O2"
_cell_formula_units_Z 16
_cell_length_a 8.655403
_cell_length_b 17.752548
_cell_length_c 20.196740
_cell_angle_alpha 20.938201
_cell_angle_beta 139.121301
_cell_angle_gamma 139.560800
_cell_volume 705.504524
_symmetry_space_group_name_H-M "P -1"
_symmetry_group_IT_number 2
_symmetry_cell_setting 'triclinic'
loop_
_space_group_symop_operation_xyz
x,y,z
-x,-y,-z
loop_
_atom_site_type_symbol
_atom_site_label
_atom_site_fract_x
_atom_site_fract_y
_atom_site_fract_z
Si Si1 0.128275 0.936620 0.808028
Si Si2 0.653250 0.775927 0.599446
Si Si3 0.098926 0.203483 0.941761
Si Si4 0.246133 0.408028 0.957057
Si Si5 0.414170 0.690611 0.015950
Si Si6 0.962819 0.178682 0.433416
Si Si7 0.352119 0.868427 0.321426
Si Si8 0.578081 0.285724 0.675725
O O1 0.900873 0.818539 0.873865
O O2 0.365231 0.085834 0.796314
O O3 0.224472 0.744883 0.961492
O O4 0.055495 0.091760 0.601957
O O5 0.668664 0.561343 0.820782
O O6 0.396342 0.757357 0.494851
O O7 0.841056 0.795944 0.582666
O O8 0.731640 0.990609 0.491462
O O9 0.307638 0.260005 0.906107
O O10 0.841669 0.257219 0.807061
O O11 0.244485 0.353408 0.924100
O O12 0.106170 0.953946 0.164613
O O13 0.500000 0.500000 0.000000
O O14 0.101137 0.593858 0.764505
O O15 0.447389 0.895977 0.808060
O O16 0.402022 0.741655 0.375836
O O17 0.500000 0.500000 0.500000
#
# Coordination Sequence:
#
# PCOD9041995 Si02
#       8
#     2   2   2   2   2   2   2   2
#     4  11  24  44  71  95 134 182 225 273 342 396
#     4  11  20  38  69  96 133 173 224 272 327 400
#     4  10  23  44  68  97 140 172 221 283 327 396
#     4  12  27  45  65  99 139 177 226 280 337 400
#     4   9  21  40  67  96 129 177 223 265 337 397
#     4  11  23  38  65 100 131 175 226 279 322 397
#     4   9  21  42  65  96 131 175 217 275 329 395
#     4  11  22  43  73  99 136 174 227 281 332 399
#
# _framework density 22.678806000000002
#
# number of rings (size 3 to 8) (size 9 to 14) (size 15 to 20)
#    0.750    0.750    3.750    1.875    1.750    1.500 
#    6.750    1.875    0.000    0.000    0.000    0.000 
#    0.000    0.000    0.000    0.000    0.000    0.000 
#
# Total GULP energy -89175.480338 kJ/mol
# GULP energy per Si atom -5573.467521 kJ/mol
# Density = 2.262719 g / cm^3
# Si number density = 22.678806 Si / 1000 Ang^3
#
#
#
# Elastic Constant Matrix: (Units=GPa)
#
#
# Indices 1 2 3 4 5 6 
#
# 1 39.6288 7.3122 24.0591 11.3605 6.8100 9.2686
# 2 7.3122 71.6875 17.3459 15.6260 3.8033 2.9136
# 3 24.0591 17.3459 103.7787 1.9637 16.2766 -0.4574
# 4 11.3605 15.6260 1.9637 26.2365 6.5842 8.8500
# 5 6.8100 3.8033 16.2766 6.5842 41.0418 -8.3028
# 6 9.2686 2.9136 -0.4574 8.8500 -8.3028 29.0639
#
#
#
# Elastic Compliance Matrix: (Units=1/GPa)
#
#
# Indices 1 2 3 4 5 6 
#
# 1 0.035764 0.001398 -0.007900 -0.012068 -0.002772 -0.008787
# 2 0.001398 0.016915 -0.003187 -0.011455 0.001660 0.001771
# 3 -0.007900 -0.003187 0.012557 0.005362 -0.004192 0.000206
# 4 -0.012068 -0.011455 0.005362 0.058033 -0.011589 -0.015901
# 5 -0.002772 0.001660 -0.004192 -0.011589 0.030820 0.012985
# 6 -0.008787 0.001771 0.000206 -0.015901 0.012985 0.045586
#
#
# Mechanical properties :
#
#
# Convention : Reuss Voigt Hill
#
# Bulk Modulus (GPa) = 21.80693 34.72549 28.26621
# Shear Modulus (GPa) = 21.33653 30.36028 25.84840
#
# Velocity S-wave (km/s) = 3.07060 3.66280 3.37970
# Velocity P-wave (km/s) = 4.71252 5.76483 5.26503
#
# Compressibility (1/GPa) = 0.04585697
#
# Stress axis : x y z
#
# Youngs Moduli (GPa) = 27.96135 59.11960 79.63612
#
# Poissons Ratio (x) = -0.08267 0.62916
# Poissons Ratio (y) = -0.03910 0.25382
# Poissons Ratio (z) = 0.22091 0.18843
#
# Static dielectric constant tensor:
#      x y z
#    x 2.019000 0.037550 0.003720 
#    y 0.037550 1.895280 0.030680 
#    z 0.003720 0.030680 1.854720 
# 
# From -- ./inp_files/591200.got.cif
#   From: 2010.05.17/outbox.cif.g08.bks.cpg/sg2_296_cif.got.tgz:591200.got - 2010.06.03 11:33:40.
