data_PCOD9041619
_publ_section_title
;
Structure prediction by ZEFSAII (Michael W. Deem and Ramdas Pophale) SiO2 
 PCOD9041619
Probable space group: P -1
;
_chemical_formula_sum "Si O2"
_cell_formula_units_Z 14
_cell_length_a 5.169339
_cell_length_b 9.255101
_cell_length_c 17.250714
_cell_angle_alpha 123.169006
_cell_angle_beta 118.936682
_cell_angle_gamma 73.958583
_cell_volume 604.519593
_symmetry_space_group_name_H-M "P -1"
_symmetry_group_IT_number 2
_symmetry_cell_setting 'triclinic'
loop_
_space_group_symop_operation_xyz
x,y,z
-x,-y,-z
loop_
_atom_site_type_symbol
_atom_site_label
_atom_site_fract_x
_atom_site_fract_y
_atom_site_fract_z
Si Si1 0.174717 0.077031 0.976290
Si Si2 0.718338 0.523138 0.892989
Si Si3 0.742020 0.667667 0.139797
Si Si4 0.286509 0.709681 0.605078
Si Si5 0.610727 0.691993 0.485664
Si Si6 0.645656 0.032765 0.785317
Si Si7 0.325727 0.759807 0.308040
O O1 0.984278 0.027687 0.858778
O O2 0.202742 0.281817 0.049544
O O3 0.500000 0.000000 0.000000
O O4 0.000000 0.000000 0.000000
O O5 0.458419 0.487693 0.905499
O O6 0.589554 0.429485 0.769857
O O7 0.979131 0.595424 0.090817
O O8 0.514331 0.824357 0.140488
O O9 0.970154 0.742167 0.259275
O O10 0.384146 0.712913 0.529864
O O11 0.351149 0.514163 0.584515
O O12 0.938429 0.751010 0.574145
O O13 0.484554 0.852604 0.716192
O O14 0.491235 0.785908 0.419325
O O15 0.622241 0.106802 0.715673
#
# Coordination Sequence:
#
# PCOD9041619 Si02
#       7
#     2   2   2   2   2   2   2
#     4  12  29  45  67 103 136 183 225 279 343 410
#     4   9  21  42  65  96 132 176 223 269 332 398
#     4   9  21  40  67  97 130 176 216 275 336 387
#     4  10  25  42  66  97 138 180 219 283 324 416
#     4  10  23  44  65  98 132 184 230 256 349 400
#     4  11  26  45  68 103 138 172 231 287 341 387
#     4   9  23  41  71 100 132 179 223 280 327 404
#
# _framework density 23.158887
#
# number of rings (size 3 to 8) (size 9 to 14) (size 15 to 20)
#    0.857    1.143    0.000    0.857   10.000    4.000 
#    2.571    0.000    0.000    0.000    0.000    0.000 
#    0.000    0.000    0.000    0.000    0.000    0.000 
#
# Total GULP energy -78235.182419 kJ/mol
# GULP energy per Si atom -5588.227316 kJ/mol
# Density = 2.310618 g / cm^3
# Si number density = 23.158887 Si / 1000 Ang^3
#
#
#
# Elastic Constant Matrix: (Units=GPa)
#
#
# Indices 1 2 3 4 5 6 
#
# 1 132.6684 35.4836 11.3899 -7.2217 12.8874 2.2277
# 2 35.4836 98.5919 46.4878 11.6929 11.8781 4.4987
# 3 11.3899 46.4878 62.0334 3.3125 15.4154 1.9842
# 4 -7.2217 11.6929 3.3125 49.0807 13.1485 7.2698
# 5 12.8874 11.8781 15.4154 13.1485 36.1824 2.5743
# 6 2.2277 4.4987 1.9842 7.2698 2.5743 33.6643
#
#
#
# Elastic Compliance Matrix: (Units=1/GPa)
#
#
# Indices 1 2 3 4 5 6 
#
# 1 0.009056 -0.004264 0.002369 0.003350 -0.004011 -0.000586
# 2 -0.004264 0.018190 -0.013321 -0.004783 0.003000 -0.000560
# 3 0.002369 -0.013321 0.027908 0.004325 -0.009919 -0.000197
# 4 0.003350 -0.004783 0.004325 0.025132 -0.010280 -0.004479
# 5 -0.004011 0.003000 -0.009919 -0.010280 0.036049 -0.000088
# 6 -0.000586 -0.000560 -0.000197 -0.004479 -0.000088 0.030804
#
#
# Mechanical properties :
#
#
# Convention : Reuss Voigt Hill
#
# Bulk Modulus (GPa) = 40.44803 53.33514 46.89159
# Shear Modulus (GPa) = 26.90896 37.11430 32.01163
#
# Velocity S-wave (km/s) = 3.41240 4.00758 3.72191
# Velocity P-wave (km/s) = 5.74712 6.67041 6.22590
#
# Compressibility (1/GPa) = 0.02472308
#
# Stress axis : x y z
#
# Youngs Moduli (GPa) = 110.41922 54.97636 35.83191
#
# Poissons Ratio (x) = 0.23441 -0.08489
# Poissons Ratio (y) = 0.47080 0.47731
# Poissons Ratio (z) = -0.26159 0.73233
#
# Static dielectric constant tensor:
#      x y z
#    x 1.864760 -0.008800 -0.038970 
#    y -0.008800 1.845880 0.001700 
#    z -0.038970 0.001700 1.964080 
# 
# From -- ./inp_files/548365.got.cif
#   From: 2010.05.17/outbox.cif.g08.bks.cpg/sg2_275_cif.got.tgz:548365.got - 2010.06.03 11:33:40.
