data_PCOD9041125
_publ_section_title
;
Structure prediction by ZEFSAII (Michael W. Deem and Ramdas Pophale) SiO2 
 PCOD9041125
Probable space group: P -1
;
_chemical_formula_sum "Si O2"
_cell_formula_units_Z 12
_cell_length_a 10.649976
_cell_length_b 8.480618
_cell_length_c 9.249774
_cell_angle_alpha 86.645119
_cell_angle_beta 70.761689
_cell_angle_gamma 137.345067
_cell_volume 471.671510
_symmetry_space_group_name_H-M "P -1"
_symmetry_group_IT_number 2
_symmetry_cell_setting 'triclinic'
loop_
_space_group_symop_operation_xyz
x,y,z
-x,-y,-z
loop_
_atom_site_type_symbol
_atom_site_label
_atom_site_fract_x
_atom_site_fract_y
_atom_site_fract_z
Si Si1 0.090714 0.272028 0.810859
Si Si2 0.697001 0.764025 0.818486
Si Si3 0.519784 0.576164 0.326114
Si Si4 0.550315 0.984323 0.821454
Si Si5 0.198707 0.846147 0.824604
Si Si6 0.248940 0.721936 0.552873
O O1 0.285366 0.356002 0.803686
O O2 0.174795 0.479685 0.649297
O O3 0.925604 0.995133 0.805661
O O4 0.960533 0.236926 0.988943
O O5 0.693533 0.661980 0.677050
O O6 0.624956 0.875655 0.809795
O O7 0.500000 0.500000 0.000000
O O8 0.500000 0.500000 0.500000
O O9 0.609665 0.838153 0.272944
O O10 0.315917 0.800341 0.844552
O O11 0.732956 0.234269 0.628409
O O12 0.500000 0.000000 0.000000
O O13 0.112858 0.719019 0.704281
O O14 0.500000 0.000000 0.500000
#
# Coordination Sequence:
#
# PCOD9041125 Si02
#       6
#     2   2   2   2   2   2
#     4  12  25  46  75 107 145 194 246 292 370 428
#     4  12  26  46  72 107 148 188 241 299 361 434
#     4  12  25  47  73 103 151 192 240 301 361 434
#     4  11  21  44  69 100 145 187 232 302 352 415
#     4  11  22  44  70 108 139 193 241 295 357 430
#     4  10  23  43  71 101 141 186 243 294 352 425
#
# _framework density 25.441434999999998
#
# number of rings (size 3 to 8) (size 9 to 14) (size 15 to 20)
#    0.000    0.667    3.333    6.000    0.000    1.333 
#    0.000    0.000    0.000    0.000    0.000    0.000 
#    0.000    0.000    0.000    0.000    0.000    0.000 
#
# Total GULP energy -67156.750326 kJ/mol
# GULP energy per Si atom -5596.395860 kJ/mol
# Density = 2.538353 g / cm^3
# Si number density = 25.441435 Si / 1000 Ang^3
#
#
#
# Elastic Constant Matrix: (Units=GPa)
#
#
# Indices 1 2 3 4 5 6 
#
# 1 57.9142 -9.2964 5.6944 -2.7617 7.5604 -9.7610
# 2 -9.2964 138.5676 60.1053 -0.3710 27.1360 5.8830
# 3 5.6944 60.1053 175.9660 10.7512 33.1100 -0.6804
# 4 -2.7617 -0.3710 10.7512 51.7965 -5.9200 11.6849
# 5 7.5604 27.1360 33.1100 -5.9200 39.6708 -7.1983
# 6 -9.7610 5.8830 -0.6804 11.6849 -7.1983 36.8171
#
#
#
# Elastic Compliance Matrix: (Units=1/GPa)
#
#
# Indices 1 2 3 4 5 6 
#
# 1 0.018820 0.002098 -0.000573 -0.000195 -0.003855 0.003952
# 2 0.002098 0.009508 -0.002374 0.000573 -0.005239 -0.002213
# 3 -0.000573 -0.002374 0.007568 -0.002202 -0.004892 0.000110
# 4 -0.000195 0.000573 -0.002202 0.021594 0.003555 -0.006342
# 5 -0.003855 -0.005239 -0.004892 0.003555 0.035131 0.005465
# 6 0.003952 -0.002213 0.000110 -0.006342 0.005465 0.031646
#
#
# Mechanical properties :
#
#
# Convention : Reuss Voigt Hill
#
# Bulk Modulus (GPa) = 29.24063 53.93937 41.59000
# Shear Modulus (GPa) = 36.39952 46.71985 41.55968
#
# Velocity S-wave (km/s) = 3.78659 4.28994 4.04610
# Velocity P-wave (km/s) = 5.53497 6.76650 6.18148
#
# Compressibility (1/GPa) = 0.03419900
#
# Stress axis : x y z
#
# Youngs Moduli (GPa) = 53.13468 105.16965 132.14106
#
# Poissons Ratio (x) = -0.22064 0.07571
# Poissons Ratio (y) = -0.11147 0.31364
# Poissons Ratio (z) = 0.03045 0.24962
#
# Static dielectric constant tensor:
#      x y z
#    x 2.045820 0.086860 -0.107040 
#    y 0.086860 2.098400 -0.013450 
#    z -0.107040 -0.013450 2.203530 
# 
# From -- ./inp_files/189332.got.cif
#   From: 2010.05.17/outbox.cif.g08.bks.cpg/sg2_95_cif.got.tgz:189332.got - 2010.06.03 11:33:40.
