data_PCOD9041452
_publ_section_title
;
Structure prediction by ZEFSAII (Michael W. Deem and Ramdas Pophale) SiO2 
 PCOD9041452
Probable space group: P -1
;
_chemical_formula_sum "Si O2"
_cell_formula_units_Z 14
_cell_length_a 10.678287
_cell_length_b 22.782088
_cell_length_c 7.346588
_cell_angle_alpha 38.202804
_cell_angle_beta 49.575828
_cell_angle_gamma 30.849948
_cell_volume 564.854591
_symmetry_space_group_name_H-M "P -1"
_symmetry_group_IT_number 2
_symmetry_cell_setting 'triclinic'
loop_
_space_group_symop_operation_xyz
x,y,z
-x,-y,-z
loop_
_atom_site_type_symbol
_atom_site_label
_atom_site_fract_x
_atom_site_fract_y
_atom_site_fract_z
Si Si1 0.528082 0.114290 0.345430
Si Si2 0.821881 0.294164 0.832746
Si Si3 0.490382 0.220881 0.722877
Si Si4 0.288083 0.123247 0.038288
Si Si5 0.017826 0.603952 0.779790
Si Si6 0.381665 0.463702 0.087813
Si Si7 0.030431 0.955210 0.871031
O O1 0.253485 0.237399 0.376499
O O2 0.639226 0.961789 0.636667
O O3 0.506761 0.172316 0.028295
O O4 0.733242 0.089787 0.314234
O O5 0.914852 0.179288 0.875163
O O6 0.815777 0.402600 0.493692
O O7 0.568856 0.369229 0.973791
O O8 0.024009 0.206631 0.014580
O O9 0.395039 0.367281 0.439902
O O10 0.311053 0.225704 0.779622
O O11 0.768470 0.093390 0.695976
O O12 0.500000 0.000000 0.000000
O O13 0.000000 0.500000 0.000000
O O14 0.121593 0.578847 0.947717
O O15 0.500000 0.500000 0.000000
O O16 0.000000 0.000000 0.000000
#
# Coordination Sequence:
#
# PCOD9041452 Si02
#       7
#     2   2   2   2   2   2   2
#     4  11  25  43  75 102 149 183 240 299 372 427
#     4  12  26  47  77 104 152 186 246 308 366 436
#     4  11  25  47  70 105 149 188 241 296 368 439
#     4  12  23  43  73 112 142 178 237 305 381 430
#     4  12  27  47  73 104 147 201 251 297 360 432
#     4  12  31  48  74 106 148 204 254 293 356 439
#     4  10  23  43  76 108 142 183 238 300 381 425
#
# _framework density 24.785140999999999
#
# number of rings (size 3 to 8) (size 9 to 14) (size 15 to 20)
#    0.000    0.571    2.857    3.429   10.000    2.857 
#    0.000    0.000    0.000    0.000    0.000    0.000 
#    0.000    0.000    0.000    0.000    0.000    0.000 
#
# Total GULP energy -78362.320226 kJ/mol
# GULP energy per Si atom -5597.308588 kJ/mol
# Density = 2.472873 g / cm^3
# Si number density = 24.785141 Si / 1000 Ang^3
#
#
#
# Elastic Constant Matrix: (Units=GPa)
#
#
# Indices 1 2 3 4 5 6 
#
# 1 128.7382 18.3608 55.4921 -13.7904 -1.6480 0.8746
# 2 18.3608 52.7370 -5.4465 -3.1358 7.2117 -18.5655
# 3 55.4921 -5.4465 156.8690 -22.0059 -5.6509 4.9716
# 4 -13.7904 -3.1358 -22.0059 34.2718 3.4886 -4.9783
# 5 -1.6480 7.2117 -5.6509 3.4886 52.7937 -5.0737
# 6 0.8746 -18.5655 4.9716 -4.9783 -5.0737 41.0640
#
#
#
# Elastic Compliance Matrix: (Units=1/GPa)
#
#
# Indices 1 2 3 4 5 6 
#
# 1 0.010030 -0.004390 -0.003479 0.001136 0.000311 -0.001601
# 2 -0.004390 0.025370 0.002558 0.004114 -0.002501 0.011444
# 3 -0.003479 0.002558 0.008272 0.004235 0.000222 0.000770
# 4 0.001136 0.004114 0.004235 0.033667 -0.001800 0.005182
# 5 0.000311 -0.002501 0.000222 -0.001800 0.019535 0.001031
# 6 -0.001601 0.011444 0.000770 0.005182 0.001031 0.030223
#
#
# Mechanical properties :
#
#
# Convention : Reuss Voigt Hill
#
# Bulk Modulus (GPa) = 30.25741 52.79524 41.52632
# Shear Modulus (GPa) = 33.61684 43.62177 38.61930
#
# Velocity S-wave (km/s) = 3.68683 4.19978 3.95164
# Velocity P-wave (km/s) = 5.50981 6.69813 6.13282
#
# Compressibility (1/GPa) = 0.03304976
#
# Stress axis : x y z
#
# Youngs Moduli (GPa) = 99.70026 39.41695 120.88998
#
# Poissons Ratio (x) = 0.17304 0.42060
# Poissons Ratio (y) = 0.43768 -0.30926
# Poissons Ratio (z) = 0.34688 -0.10084
#
# Static dielectric constant tensor:
#      x y z
#    x 2.069860 0.106850 0.120130 
#    y 0.106850 2.084450 0.161420 
#    z 0.120130 0.161420 2.116630 
# 
# From -- ./inp_files/285746.got.cif
#   From: 2010.05.17/outbox.cif.g08.bks.cpg/sg2_143_cif.got.tgz:285746.got - 2010.06.03 11:33:40.
