data_PCOD9041017
_publ_section_title
;
Structure prediction by ZEFSAII (Michael W. Deem and Ramdas Pophale) SiO2 
 PCOD9041017
Probable space group: P -1
;
_chemical_formula_sum "Si O2"
_cell_formula_units_Z 16
_cell_length_a 17.499899
_cell_length_b 20.824710
_cell_length_c 13.434672
_cell_angle_alpha 154.202804
_cell_angle_beta 28.054418
_cell_angle_gamma 160.776767
_cell_volume 683.397704
_symmetry_space_group_name_H-M "P -1"
_symmetry_group_IT_number 2
_symmetry_cell_setting 'triclinic'
loop_
_space_group_symop_operation_xyz
x,y,z
-x,-y,-z
loop_
_atom_site_type_symbol
_atom_site_label
_atom_site_fract_x
_atom_site_fract_y
_atom_site_fract_z
Si Si1 0.510463 0.631115 0.021100
Si Si2 0.151614 0.542106 0.544753
Si Si3 0.583466 0.888043 0.018425
Si Si4 0.742854 0.226977 0.451963
Si Si5 0.315092 0.228333 0.771975
Si Si6 0.823905 0.774157 0.667513
Si Si7 0.733769 0.148973 0.007091
Si Si8 0.130125 0.451708 0.838895
O O1 0.307310 0.373148 0.918356
O O2 0.661165 0.689015 0.832663
O O3 0.397797 0.719807 0.277460
O O4 0.685438 0.735078 0.059815
O O5 0.133249 0.646829 0.620471
O O6 0.417592 0.654754 0.389512
O O7 0.925796 0.295836 0.424226
O O8 0.154681 0.623396 0.760740
O O9 0.765877 0.877784 0.813106
O O10 0.328847 0.647299 0.955610
O O11 0.657071 0.015532 0.008985
O O12 0.580427 0.990078 0.261936
O O13 0.107365 0.973288 0.637653
O O14 0.759493 0.581609 0.417316
O O15 0.942309 0.230846 0.810292
O O16 0.500000 0.000000 0.000000
O O17 0.000000 0.500000 0.000000
#
# Coordination Sequence:
#
# PCOD9041017 Si02
#       8
#     2   2   2   2   2   2   2   2
#     4  10  24  43  69 105 150 184 236 290 365 432
#     4   9  20  39  71 103 137 180 238 290 348 435
#     4  11  27  48  72 105 145 189 240 305 363 428
#     4   9  21  43  70 106 142 180 239 291 364 433
#     4  10  23  43  70 106 145 192 231 293 366 433
#     4  12  28  45  70 107 148 188 245 298 361 431
#     4  11  23  45  75 103 136 190 242 294 360 424
#     4  12  28  48  71 102 141 191 253 299 351 434
#
# _framework density 23.412427999999998
#
# number of rings (size 3 to 8) (size 9 to 14) (size 15 to 20)
#    0.000    1.500    1.250    1.500   15.750    2.000 
#    0.000    0.000    0.000    0.000    0.000    0.000 
#    0.000    0.000    0.000    0.000    0.000    0.000 
#
# Total GULP energy -89352.815329 kJ/mol
# GULP energy per Si atom -5584.550958 kJ/mol
# Density = 2.335914 g / cm^3
# Si number density = 23.412428 Si / 1000 Ang^3
#
#
#
# Elastic Constant Matrix: (Units=GPa)
#
#
# Indices 1 2 3 4 5 6 
#
# 1 91.4496 38.2351 44.3609 -5.8656 12.2670 7.1836
# 2 38.2351 106.0294 40.1997 -0.2125 15.4755 19.1878
# 3 44.3609 40.1997 151.5481 -4.4504 15.2397 18.2533
# 4 -5.8656 -0.2125 -4.4504 35.1061 4.9991 12.2261
# 5 12.2670 15.4755 15.2397 4.9991 34.3644 0.7689
# 6 7.1836 19.1878 18.2533 12.2261 0.7689 42.5473
#
#
#
# Elastic Compliance Matrix: (Units=1/GPa)
#
#
# Indices 1 2 3 4 5 6 
#
# 1 0.014388 -0.003684 -0.002884 0.002444 -0.002549 -0.000187
# 2 -0.003684 0.012716 -0.001250 0.001598 -0.003978 -0.004964
# 3 -0.002884 -0.001250 0.008446 0.002001 -0.002375 -0.003105
# 4 0.002444 0.001598 0.002001 0.034259 -0.007201 -0.011706
# 5 -0.002549 -0.003978 -0.002375 -0.007201 0.033797 0.004702
# 6 -0.000187 -0.004964 -0.003105 -0.011706 0.004702 0.030384
#
#
# Mechanical properties :
#
#
# Convention : Reuss Voigt Hill
#
# Bulk Modulus (GPa) = 50.21566 66.06873 58.14220
# Shear Modulus (GPa) = 31.99745 37.48565 34.74155
#
# Velocity S-wave (km/s) = 3.70088 4.00572 3.85631
# Velocity P-wave (km/s) = 6.30531 7.04806 6.68700
#
# Compressibility (1/GPa) = 0.01991411
#
# Stress axis : x y z
#
# Youngs Moduli (GPa) = 69.50448 78.64197 118.40356
#
# Poissons Ratio (x) = 0.28973 0.34143
# Poissons Ratio (y) = 0.25607 0.14797
# Poissons Ratio (z) = 0.20042 0.09828
#
# Static dielectric constant tensor:
#      x y z
#    x 1.888820 -0.016070 -0.021870 
#    y -0.016070 2.044500 0.050070 
#    z -0.021870 0.050070 1.923290 
# 
# From -- ./inp_files/467169.got.cif
#   From: 2010.05.17/outbox.cif.g08.bks.cpg/sg2_234_cif.got.tgz:467169.got - 2010.06.03 11:33:40.
