data_PCOD9041408
_publ_section_title
;
Structure prediction by ZEFSAII (Michael W. Deem and Ramdas Pophale) SiO2 
 PCOD9041408
Probable space group: P -1
;
_chemical_formula_sum "Si O2"
_cell_formula_units_Z 14
_cell_length_a 16.612148
_cell_length_b 11.237069
_cell_length_c 16.359565
_cell_angle_alpha 157.999383
_cell_angle_beta 147.056604
_cell_angle_gamma 33.477201
_cell_volume 598.161324
_symmetry_space_group_name_H-M "P -1"
_symmetry_group_IT_number 2
_symmetry_cell_setting 'triclinic'
loop_
_space_group_symop_operation_xyz
x,y,z
-x,-y,-z
loop_
_atom_site_type_symbol
_atom_site_label
_atom_site_fract_x
_atom_site_fract_y
_atom_site_fract_z
Si Si1 0.607035 0.299582 0.342501
Si Si2 0.159278 0.144291 0.515663
Si Si3 0.342302 0.571317 0.862582
Si Si4 0.078375 0.103132 0.931217
Si Si5 0.301868 0.407085 0.229304
Si Si6 0.502536 0.631468 0.295967
Si Si7 0.193510 0.400558 0.887025
O O1 0.448579 0.213417 0.178465
O O2 0.638992 0.525365 0.587430
O O3 0.577091 0.513187 0.371510
O O4 0.740716 0.957752 0.242061
O O5 0.267635 0.279347 0.634303
O O6 0.147911 0.332799 0.712379
O O7 0.240083 0.762282 0.360755
O O8 0.000866 0.153431 0.342111
O O9 0.390225 0.591574 0.823103
O O10 0.210014 0.905637 0.979680
O O11 0.500000 0.500000 0.000000
O O12 0.160774 0.259101 0.030742
O O13 0.948976 0.375559 0.042031
O O14 0.500000 0.000000 0.500000
O O15 0.333434 0.571283 0.111403
#
# Coordination Sequence:
#
# PCOD9041408 Si02
#       7
#     2   2   2   2   2   2   2
#     4  10  23  43  74 110 143 190 245 297 361 425
#     4  11  25  48  73 107 149 188 242 298 370 426
#     4  12  27  49  73 100 145 194 241 296 362 430
#     4  12  27  45  74 110 145 193 237 300 372 430
#     4  10  23  43  77 105 148 189 239 301 360 433
#     4  12  25  43  75 109 142 190 249 297 353 434
#     4  11  25  47  72 105 150 188 239 306 357 439
#
# _framework density 23.405056999999999
#
# number of rings (size 3 to 8) (size 9 to 14) (size 15 to 20)
#    0.000    0.857    1.429    4.714    6.000    6.286 
#    0.000    0.000    0.000    0.000    0.000    0.000 
#    0.000    0.000    0.000    0.000    0.000    0.000 
#
# Total GULP energy -78457.583839 kJ/mol
# GULP energy per Si atom -5604.113131 kJ/mol
# Density = 2.335179 g / cm^3
# Si number density = 23.405057 Si / 1000 Ang^3
#
#
#
# Elastic Constant Matrix: (Units=GPa)
#
#
# Indices 1 2 3 4 5 6 
#
# 1 142.3380 85.8842 46.7408 2.3672 15.5284 1.2281
# 2 85.8842 151.3665 50.6623 5.3339 -2.8568 -1.9116
# 3 46.7408 50.6623 85.0176 -4.9844 19.5328 -0.2278
# 4 2.3672 5.3339 -4.9844 36.5167 2.8994 0.0685
# 5 15.5284 -2.8568 19.5328 2.8994 52.0183 2.3216
# 6 1.2281 -1.9116 -0.2278 0.0685 2.3216 43.4581
#
#
#
# Elastic Compliance Matrix: (Units=1/GPa)
#
#
# Indices 1 2 3 4 5 6 
#
# 1 0.011658 -0.005948 -0.002180 0.000052 -0.002971 -0.000444
# 2 -0.005948 0.011792 -0.004899 -0.002354 0.004375 0.000431
# 3 -0.002180 -0.004899 0.017582 0.003768 -0.006442 0.000277
# 4 0.000052 -0.002354 0.003768 0.028489 -0.003149 0.000038
# 5 -0.002971 0.004375 -0.006442 -0.003149 0.022990 -0.000981
# 6 -0.000444 0.000431 0.000277 0.000038 -0.000981 0.023096
#
#
# Mechanical properties :
#
#
# Convention : Reuss Voigt Hill
#
# Bulk Modulus (GPa) = 66.76644 82.81073 74.78858
# Shear Modulus (GPa) = 34.09425 39.42761 36.76093
#
# Velocity S-wave (km/s) = 3.82082 4.10881 3.96743
# Velocity P-wave (km/s) = 6.93205 7.61368 7.28085
#
# Compressibility (1/GPa) = 0.01497758
#
# Stress axis : x y z
#
# Youngs Moduli (GPa) = 85.78090 84.80324 56.87767
#
# Poissons Ratio (x) = 0.50444 0.12399
# Poissons Ratio (y) = 0.51025 0.27862
# Poissons Ratio (z) = 0.18700 0.41541
#
# Static dielectric constant tensor:
#      x y z
#    x 1.853390 -0.003750 -0.026160 
#    y -0.003750 1.912570 0.012340 
#    z -0.026160 0.012340 1.933600 
# 
# From -- ./inp_files/576030.got.cif
#   From: 2010.05.17/outbox.cif.g08.bks.cpg/sg2_289_cif.got.tgz:576030.got - 2010.06.03 11:33:40.
