data_PCOD9041805
_publ_section_title
;
Structure prediction by ZEFSAII (Michael W. Deem and Ramdas Pophale) SiO2 
 PCOD9041805
Probable space group: P -1
;
_chemical_formula_sum "Si O2"
_cell_formula_units_Z 12
_cell_length_a 7.861065
_cell_length_b 9.874528
_cell_length_c 9.651227
_cell_angle_alpha 134.175357
_cell_angle_beta 54.691287
_cell_angle_gamma 115.026782
_cell_volume 438.210521
_symmetry_space_group_name_H-M "P -1"
_symmetry_group_IT_number 2
_symmetry_cell_setting 'triclinic'
loop_
_space_group_symop_operation_xyz
x,y,z
-x,-y,-z
loop_
_atom_site_type_symbol
_atom_site_label
_atom_site_fract_x
_atom_site_fract_y
_atom_site_fract_z
Si Si1 0.190618 0.108584 0.063517
Si Si2 0.273726 0.765519 0.951097
Si Si3 0.534947 0.614500 0.378716
Si Si4 0.752977 0.012267 0.604103
Si Si5 0.189249 0.376841 0.016228
Si Si6 0.149858 0.722170 0.481601
O O1 0.278447 0.239218 0.993313
O O2 0.076112 0.229038 0.320249
O O3 0.312170 0.944463 0.961350
O O4 0.000000 0.000000 0.000000
O O5 0.309610 0.842718 0.143720
O O6 0.029183 0.702625 0.002712
O O7 0.410234 0.586254 0.724251
O O8 0.293548 0.652179 0.489419
O O9 0.646217 0.805549 0.519480
O O10 0.643417 0.594269 0.161544
O O11 0.736808 0.097133 0.517083
O O12 0.000000 0.000000 0.500000
O O13 0.136061 0.564586 0.257963
#
# Coordination Sequence:
#
# PCOD9041805 Si02
#       6
#     2   2   2   2   2   2
#     4  10  23  44  67  93 134 178 223 262 324 403
#     4  11  23  42  68 100 127 176 226 266 317 402
#     4  12  25  42  70 102 135 165 222 282 327 377
#     4  12  21  39  69 100 129 172 228 268 316 391
#     4  11  22  42  71  95 131 178 220 266 324 403
#     4  12  24  42  68 102 133 173 216 280 334 378
#
# _framework density 27.384097000000001
#
# number of rings (size 3 to 8) (size 9 to 14) (size 15 to 20)
#    0.000    0.667    5.000    4.000    0.000    0.000 
#    0.000    4.167    0.000    0.000    0.000    0.000 
#    0.000    0.000    0.000    0.000    0.000    0.000 
#
# Total GULP energy -67408.004495 kJ/mol
# GULP energy per Si atom -5617.333708 kJ/mol
# Density = 2.732177 g / cm^3
# Si number density = 27.384097 Si / 1000 Ang^3
#
#
#
# Elastic Constant Matrix: (Units=GPa)
#
#
# Indices 1 2 3 4 5 6 
#
# 1 125.1578 46.2632 43.1792 25.1634 -7.7850 -9.0571
# 2 46.2632 133.1016 43.1910 31.0843 -21.0038 -23.7149
# 3 43.1792 43.1910 160.0226 23.4611 7.8846 -2.8655
# 4 25.1634 31.0843 23.4611 47.2845 -3.9806 -6.7885
# 5 -7.7850 -21.0038 7.8846 -3.9806 42.8485 14.3866
# 6 -9.0571 -23.7149 -2.8655 -6.7885 14.3866 47.8049
#
#
#
# Elastic Compliance Matrix: (Units=1/GPa)
#
#
# Indices 1 2 3 4 5 6 
#
# 1 0.010020 -0.002065 -0.001741 -0.003029 0.000816 0.000094
# 2 -0.002065 0.011077 -0.001917 -0.004445 0.003928 0.003175
# 3 -0.001741 -0.001917 0.007642 -0.001874 -0.002749 -0.000262
# 4 -0.003029 -0.004445 -0.001874 0.026733 -0.000228 0.000974
# 5 0.000816 0.003928 -0.002749 -0.000228 0.028095 -0.006549
# 6 0.000094 0.003175 -0.000262 0.000974 -0.006549 0.024605
#
#
# Mechanical properties :
#
#
# Convention : Reuss Voigt Hill
#
# Bulk Modulus (GPa) = 57.82995 75.94988 66.88991
# Shear Modulus (GPa) = 39.87795 46.63084 43.25439
#
# Velocity S-wave (km/s) = 3.82022 4.13103 3.97866
# Velocity P-wave (km/s) = 6.37359 7.10979 6.75173
#
# Compressibility (1/GPa) = 0.01729208
#
# Stress axis : x y z
#
# Youngs Moduli (GPa) = 99.79656 90.27938 130.85877
#
# Poissons Ratio (x) = 0.18644 0.22781
# Poissons Ratio (y) = 0.20609 0.25092
# Poissons Ratio (z) = 0.17373 0.17311
#
# Static dielectric constant tensor:
#      x y z
#    x 2.116060 -0.046900 -0.012180 
#    y -0.046900 2.174690 -0.021670 
#    z -0.012180 -0.021670 2.135410 
# 
# From -- ./inp_files/380554.got.cif
#   From: 2010.05.17/outbox.cif.g08.bks.cpg/sg2_191_cif.got.tgz:380554.got - 2010.06.03 11:33:40.
