data_PCOD9041838
_publ_section_title
;
Structure prediction by ZEFSAII (Michael W. Deem and Ramdas Pophale) SiO2 
 PCOD9041838
Probable space group: P -1
;
_chemical_formula_sum "Si O2"
_cell_formula_units_Z 14
_cell_length_a 24.922127
_cell_length_b 5.103678
_cell_length_c 7.938145
_cell_angle_alpha 72.795342
_cell_angle_beta 45.685200
_cell_angle_gamma 101.142265
_cell_volume 559.682347
_symmetry_space_group_name_H-M "P -1"
_symmetry_group_IT_number 2
_symmetry_cell_setting 'triclinic'
loop_
_space_group_symop_operation_xyz
x,y,z
-x,-y,-z
loop_
_atom_site_type_symbol
_atom_site_label
_atom_site_fract_x
_atom_site_fract_y
_atom_site_fract_z
Si Si1 0.398298 0.588352 0.976444
Si Si2 0.998732 0.614795 0.667660
Si Si3 0.151471 0.702332 0.501878
Si Si4 0.851265 0.718476 0.941842
Si Si5 0.695529 0.644862 0.137289
Si Si6 0.201598 0.204988 0.602687
Si Si7 0.492616 0.746022 0.206074
O O1 0.351832 0.499825 0.911680
O O2 0.454530 0.426015 0.908864
O O3 0.458414 0.989248 0.796878
O O4 0.311990 0.404364 0.329074
O O5 0.045514 0.498059 0.711437
O O6 0.000000 0.500000 0.500000
O O7 0.902487 0.556766 0.923241
O O8 0.077720 0.020966 0.405706
O O9 0.180363 0.462530 0.533204
O O10 0.166206 0.931519 0.585216
O O11 0.223112 0.959742 0.150909
O O12 0.750916 0.502520 0.118329
O O13 0.839772 0.883416 0.101498
O O14 0.612796 0.545074 0.461220
O O15 0.500000 0.000000 0.000000
#
# Coordination Sequence:
#
# PCOD9041838 Si02
#       7
#     2   2   2   2   2   2   2
#     4  11  24  44  67  97 137 173 221 274 326 399
#     4  10  24  44  67  97 136 175 227 270 340 398
#     4  10  25  43  69  96 137 177 222 281 328 402
#     4  10  24  44  67  98 133 179 220 282 326 403
#     4  10  23  44  67  97 132 182 220 269 337 393
#     4  11  24  45  68 102 134 176 228 271 338 386
#     4  12  25  44  68 100 134 173 222 277 328 389
#
# _framework density 25.014188000000001
#
# number of rings (size 3 to 8) (size 9 to 14) (size 15 to 20)
#    0.000    1.429    0.000    3.857   10.000    3.429 
#    2.571    0.000    0.000    0.000    0.000    0.000 
#    0.000    0.000    0.000    0.000    0.000    0.000 
#
# Total GULP energy -78348.788614 kJ/mol
# GULP energy per Si atom -5596.342044 kJ/mol
# Density = 2.495725 g / cm^3
# Si number density = 25.014188 Si / 1000 Ang^3
#
#
#
# Elastic Constant Matrix: (Units=GPa)
#
#
# Indices 1 2 3 4 5 6 
#
# 1 127.8000 35.4060 68.2230 16.8728 -30.5506 -10.7396
# 2 35.4060 121.5011 37.8010 29.1145 -16.2536 -23.7653
# 3 68.2230 37.8010 150.8163 29.0086 -13.7586 -40.1673
# 4 16.8728 29.1145 29.0086 33.6304 -10.7383 -5.6440
# 5 -30.5506 -16.2536 -13.7586 -10.7383 46.1689 11.1603
# 6 -10.7396 -23.7653 -40.1673 -5.6440 11.1603 23.8064
#
#
#
# Elastic Compliance Matrix: (Units=1/GPa)
#
#
# Indices 1 2 3 4 5 6 
#
# 1 0.015843 -0.005397 -0.012156 0.007274 0.012145 -0.022720
# 2 -0.005397 0.014885 0.007304 -0.014140 -0.005205 0.023836
# 3 -0.012156 0.007304 0.024642 -0.018120 -0.013299 0.045323
# 4 0.007274 -0.014140 -0.018120 0.052828 0.015456 -0.036128
# 5 0.012145 -0.005205 -0.013299 0.015456 0.036050 -0.035393
# 6 -0.022720 0.023836 0.045323 -0.036128 -0.035393 0.140048
#
#
# Mechanical properties :
#
#
# Convention : Reuss Voigt Hill
#
# Bulk Modulus (GPa) = 28.67759 75.88638 52.28199
# Shear Modulus (GPa) = 15.80186 37.96699 26.88442
#
# Velocity S-wave (km/s) = 2.51612 3.90015 3.28192
# Velocity P-wave (km/s) = 4.46437 7.11932 5.94202
#
# Compressibility (1/GPa) = 0.03487043
#
# Stress axis : x y z
#
# Youngs Moduli (GPa) = 63.12025 67.18162 40.58157
#
# Poissons Ratio (x) = 0.36259 0.49332
# Poissons Ratio (y) = 0.34067 -0.29640
# Poissons Ratio (z) = 0.76730 -0.49068
#
# Static dielectric constant tensor:
#      x y z
#    x 2.007280 0.010110 0.013310 
#    y 0.010110 1.990120 -0.065360 
#    z 0.013310 -0.065360 2.031410 
# 
# From -- ./inp_files/350680.got.cif
#   From: 2010.05.17/outbox.cif.g08.bks.cpg/sg2_176_cif.got.tgz:350680.got - 2010.06.03 11:33:40.
