data_PCOD9041970
_publ_section_title
;
Structure prediction by ZEFSAII (Michael W. Deem and Ramdas Pophale) SiO2 
 PCOD9041970
Probable space group: P -1
;
_chemical_formula_sum "Si O2"
_cell_formula_units_Z 16
_cell_length_a 6.605499
_cell_length_b 12.108926
_cell_length_c 15.757325
_cell_angle_alpha 50.813327
_cell_angle_beta 89.579189
_cell_angle_gamma 58.436475
_cell_volume 725.749103
_symmetry_space_group_name_H-M "P -1"
_symmetry_group_IT_number 2
_symmetry_cell_setting 'triclinic'
loop_
_space_group_symop_operation_xyz
x,y,z
-x,-y,-z
loop_
_atom_site_type_symbol
_atom_site_label
_atom_site_fract_x
_atom_site_fract_y
_atom_site_fract_z
Si Si1 0.813069 0.752073 0.346080
Si Si2 0.408230 0.470362 0.428968
Si Si3 0.588775 0.225615 0.788331
Si Si4 0.665432 0.602332 0.119182
Si Si5 0.506127 0.860446 0.462382
Si Si6 0.634925 0.336813 0.152578
Si Si7 0.152948 0.933683 0.853346
Si Si8 0.716620 0.730572 0.717568
O O1 0.584317 0.771322 0.286080
O O2 0.737111 0.791243 0.426341
O O3 0.105001 0.557750 0.408137
O O4 0.837503 0.905386 0.246321
O O5 0.500000 0.500000 0.500000
O O6 0.405859 0.604350 0.300978
O O7 0.593779 0.249591 0.510969
O O8 0.439005 0.277413 0.852372
O O9 0.900121 0.027668 0.872095
O O10 0.660576 0.433096 0.184849
O O11 0.985883 0.477827 0.170513
O O12 0.448512 0.763093 0.974581
O O13 0.623894 0.777070 0.596715
O O14 0.306409 0.089939 0.348248
O O15 0.880247 0.149587 0.189304
O O16 0.472929 0.277045 0.218492
O O17 0.500000 0.500000 0.000000
#
# Coordination Sequence:
#
# PCOD9041970 Si02
#       8
#     2   2   2   2   2   2   2   2
#     4  11  23  41  68  96 136 178 226 272 341 396
#     4  11  23  38  65  97 131 178 219 273 325 404
#     4  11  24  42  67 100 136 176 226 279 339 395
#     4  11  25  43  69 100 134 178 225 283 341 394
#     4  11  23  44  64  98 140 173 222 276 332 405
#     4  10  23  44  68  96 132 175 225 278 330 399
#     4  10  24  43  68  98 132 176 232 280 331 403
#     4  11  25  43  68  99 137 178 221 279 340 398
#
# _framework density 22.046187
#
# number of rings (size 3 to 8) (size 9 to 14) (size 15 to 20)
#    0.000    1.250    2.500    2.250    3.500    5.500 
#    0.000    1.875    0.000    0.000    0.000    0.000 
#    0.000    0.000    0.000    0.000    0.000    0.000 
#
# Total GULP energy -89178.585243 kJ/mol
# GULP energy per Si atom -5573.661578 kJ/mol
# Density = 2.199601 g / cm^3
# Si number density = 22.046187 Si / 1000 Ang^3
#
#
#
# Elastic Constant Matrix: (Units=GPa)
#
#
# Indices 1 2 3 4 5 6 
#
# 1 36.7647 18.2891 7.0458 -2.8383 2.9004 7.3193
# 2 18.2891 132.6880 23.8653 -12.3460 -0.3769 15.8490
# 3 7.0458 23.8653 58.2834 -14.2287 8.1602 3.0667
# 4 -2.8383 -12.3460 -14.2287 36.1092 3.4336 -1.9548
# 5 2.9004 -0.3769 8.1602 3.4336 21.5823 -8.3733
# 6 7.3193 15.8490 3.0667 -1.9548 -8.3733 28.1399
#
#
#
# Elastic Compliance Matrix: (Units=1/GPa)
#
#
# Indices 1 2 3 4 5 6 
#
# 1 0.031238 -0.003064 -0.000688 0.001392 -0.007494 -0.008458
# 2 -0.003064 0.009068 -0.002719 0.001592 -0.000192 -0.003961
# 3 -0.000688 -0.002719 0.022181 0.008622 -0.011029 -0.003390
# 4 0.001392 0.001592 0.008622 0.032513 -0.009687 -0.002822
# 5 -0.007494 -0.000192 -0.011029 -0.009687 0.061107 0.020769
# 6 -0.008458 -0.003961 -0.003390 -0.002822 0.020769 0.046321
#
#
# Mechanical properties :
#
#
# Convention : Reuss Voigt Hill
#
# Bulk Modulus (GPa) = 20.18262 36.23737 28.21000
# Shear Modulus (GPa) = 21.56230 29.06867 25.31548
#
# Velocity S-wave (km/s) = 3.13077 3.63510 3.39232
# Velocity P-wave (km/s) = 4.71631 5.83878 5.30730
#
# Compressibility (1/GPa) = 0.04954758
#
# Stress axis : x y z
#
# Youngs Moduli (GPa) = 32.01185 110.27195 45.08292
#
# Poissons Ratio (x) = 0.33782 0.03101
# Poissons Ratio (y) = 0.09807 0.12258
# Poissons Ratio (z) = 0.02202 0.29982
#
# Static dielectric constant tensor:
#      x y z
#    x 1.811950 0.003760 0.027980 
#    y 0.003760 1.833850 0.009800 
#    z 0.027980 0.009800 1.886260 
# 
# From -- ./inp_files/441900.got.cif
#   From: 2010.05.17/outbox.cif.g08.bks.cpg/sg2_221_cif.got.tgz:441900.got - 2010.06.03 11:33:40.
