data_PCOD9041575
_publ_section_title
;
Structure prediction by ZEFSAII (Michael W. Deem and Ramdas Pophale) SiO2 
 PCOD9041575
Probable space group: P -1
;
_chemical_formula_sum "Si O2"
_cell_formula_units_Z 14
_cell_length_a 17.181859
_cell_length_b 7.395293
_cell_length_c 8.308789
_cell_angle_alpha 73.962626
_cell_angle_beta 139.575096
_cell_angle_gamma 109.043947
_cell_volume 646.466651
_symmetry_space_group_name_H-M "P -1"
_symmetry_group_IT_number 2
_symmetry_cell_setting 'triclinic'
loop_
_space_group_symop_operation_xyz
x,y,z
-x,-y,-z
loop_
_atom_site_type_symbol
_atom_site_label
_atom_site_fract_x
_atom_site_fract_y
_atom_site_fract_z
Si Si1 0.553434 0.684778 0.432956
Si Si2 0.750874 0.728460 0.249367
Si Si3 0.542024 0.961476 0.895409
Si Si4 0.990071 0.126075 0.295440
Si Si5 0.886719 0.459875 0.954591
Si Si6 0.815763 0.792908 0.964671
Si Si7 0.640704 0.423518 0.378725
O O1 0.500000 0.500000 0.500000
O O2 0.580247 0.587060 0.331104
O O3 0.466035 0.839721 0.253933
O O4 0.683900 0.794163 0.678715
O O5 0.869403 0.781455 0.537630
O O6 0.788805 0.726838 0.123454
O O7 0.680730 0.521215 0.246515
O O8 0.670569 0.892499 0.104836
O O9 0.448416 0.778820 0.723714
O O10 0.500000 0.000000 0.000000
O O11 0.000000 0.000000 0.500000
O O12 0.912636 0.989976 0.076003
O O13 0.915069 0.294854 0.158147
O O14 0.760278 0.401065 0.673560
O O15 0.874805 0.642736 0.994927
O O16 0.000000 0.500000 0.000000
#
# Coordination Sequence:
#
# PCOD9041575 Si02
#       7
#     2   2   2   2   2   2   2
#     4  11  25  45  69 100 134 176 221 278 335 393
#     4  11  23  44  67  99 139 176 220 282 324 394
#     4  12  26  42  70 100 131 180 223 269 343 391
#     4  10  23  44  65 101 136 169 225 272 326 396
#     4  11  23  44  69  96 129 178 217 270 338 385
#     4  10  25  43  69  97 136 172 224 273 330 388
#     4  11  24  45  67  99 138 170 230 274 328 400
#
# _framework density 21.656184
#
# number of rings (size 3 to 8) (size 9 to 14) (size 15 to 20)
#    0.000    1.143    2.857    2.143    2.000   10.857 
#    0.000    0.000    0.000    0.000    0.000    0.000 
#    0.000    0.000    0.000    0.000    0.000    0.000 
#
# Total GULP energy -78271.660445 kJ/mol
# GULP energy per Si atom -5590.832889 kJ/mol
# Density = 2.160689 g / cm^3
# Si number density = 21.656184 Si / 1000 Ang^3
#
#
#
# Elastic Constant Matrix: (Units=GPa)
#
#
# Indices 1 2 3 4 5 6 
#
# 1 68.1913 -1.6486 7.9875 -2.5334 1.8124 -14.4588
# 2 -1.6486 78.9977 44.9076 -10.3437 14.5119 -2.9663
# 3 7.9875 44.9076 86.1282 -0.9497 30.5604 -7.7453
# 4 -2.5334 -10.3437 -0.9497 54.7616 -1.5324 -2.1518
# 5 1.8124 14.5119 30.5604 -1.5324 31.6722 -5.2694
# 6 -14.4588 -2.9663 -7.7453 -2.1518 -5.2694 33.6680
#
#
#
# Elastic Compliance Matrix: (Units=1/GPa)
#
#
# Indices 1 2 3 4 5 6 
#
# 1 0.016505 0.001887 -0.002529 0.001406 0.001873 0.007056
# 2 0.001887 0.018846 -0.010499 0.003532 0.001648 0.000539
# 3 -0.002529 -0.010499 0.023706 -0.002172 -0.017941 0.000496
# 4 0.001406 0.003532 -0.002172 0.019076 0.001634 0.001890
# 5 0.001873 0.001648 -0.017941 0.001634 0.048863 0.004574
# 6 0.007056 0.000539 0.000496 0.001890 0.004574 0.033730
#
#
# Mechanical properties :
#
#
# Convention : Reuss Voigt Hill
#
# Bulk Modulus (GPa) = 27.19220 37.31226 32.25223
# Shear Modulus (GPa) = 25.60618 36.15841 30.88229
#
# Velocity S-wave (km/s) = 3.44233 4.09058 3.78037
# Velocity P-wave (km/s) = 5.32758 6.29104 5.82925
#
# Compressibility (1/GPa) = 0.03677526
#
# Stress axis : x y z
#
# Youngs Moduli (GPa) = 60.58784 53.06102 42.18377
#
# Poissons Ratio (x) = -0.10013 0.10670
# Poissons Ratio (y) = -0.11434 0.44287
# Poissons Ratio (z) = 0.15325 0.55707
#
# Static dielectric constant tensor:
#      x y z
#    x 1.820590 0.056350 -0.019000 
#    y 0.056350 1.761930 0.004670 
#    z -0.019000 0.004670 1.824990 
# 
# From -- ./inp_files/45355.got.cif
#   From: 2010.05.17/outbox.cif.g08.bks.cpg/sg2_23_cif.got.tgz:45355.got - 2010.06.03 11:33:40.
