data_PCOD9041230
_publ_section_title
;
Structure prediction by ZEFSAII (Michael W. Deem and Ramdas Pophale) SiO2 
 PCOD9041230
Probable space group: P -1
;
_chemical_formula_sum "Si O2"
_cell_formula_units_Z 16
_cell_length_a 12.952703
_cell_length_b 26.028023
_cell_length_c 10.858560
_cell_angle_alpha 146.030965
_cell_angle_beta 148.097321
_cell_angle_gamma 19.406737
_cell_volume 634.227957
_symmetry_space_group_name_H-M "P -1"
_symmetry_group_IT_number 2
_symmetry_cell_setting 'triclinic'
loop_
_space_group_symop_operation_xyz
x,y,z
-x,-y,-z
loop_
_atom_site_type_symbol
_atom_site_label
_atom_site_fract_x
_atom_site_fract_y
_atom_site_fract_z
Si Si1 0.119348 0.912151 0.612044
Si Si2 0.824822 0.899358 0.553570
Si Si3 0.836662 0.363652 0.296286
Si Si4 0.230805 0.231974 0.973485
Si Si5 0.907256 0.830702 0.071797
Si Si6 0.481914 0.386098 0.176940
Si Si7 0.527021 0.172949 0.686778
Si Si8 0.680449 0.607115 0.709959
O O1 0.298161 0.781603 0.640905
O O2 0.392162 0.888555 0.838023
O O3 0.755044 0.086748 0.625147
O O4 0.072482 0.861334 0.350390
O O5 0.787748 0.846813 0.293159
O O6 0.148831 0.752830 0.666833
O O7 0.500000 0.000000 0.500000
O O8 0.772938 0.027968 0.739582
O O9 0.541015 0.439951 0.237626
O O10 0.763690 0.500274 0.477961
O O11 0.913471 0.271132 0.073176
O O12 0.205553 0.232108 0.466557
O O13 0.034465 0.274377 0.979230
O O14 0.141795 0.361318 0.068229
O O15 0.500000 0.000000 0.000000
O O16 0.277760 0.456085 0.239011
O O17 0.431120 0.308918 0.904874
#
# Coordination Sequence:
#
# PCOD9041230 Si02
#       8
#     2   2   2   2   2   2   2   2
#     4  10  23  43  71  99 128 176 230 270 335 392
#     4  12  19  38  71  98 133 172 223 279 331 397
#     4  12  28  44  66 100 141 179 223 276 338 396
#     4  10  23  44  69  95 136 179 217 280 330 393
#     4  12  24  45  70 102 136 172 226 285 332 390
#     4  12  25  43  70  99 140 176 223 282 335 400
#     4  12  23  41  66 105 129 178 226 272 343 387
#     4  10  25  48  66  99 134 183 226 269 336 405
#
# _framework density 25.227520999999999
#
# number of rings (size 3 to 8) (size 9 to 14) (size 15 to 20)
#    0.750    0.000    5.000    2.250    1.750    3.000 
#    4.500    0.000    0.000    0.000    0.000    0.000 
#    0.000    0.000    0.000    0.000    0.000    0.000 
#
# Total GULP energy -89299.436533 kJ/mol
# GULP energy per Si atom -5581.214783 kJ/mol
# Density = 2.517010 g / cm^3
# Si number density = 25.227521 Si / 1000 Ang^3
#
#
#
# Elastic Constant Matrix: (Units=GPa)
#
#
# Indices 1 2 3 4 5 6 
#
# 1 111.2797 18.8215 52.7744 6.1942 11.1861 -2.2224
# 2 18.8215 57.0130 5.4724 10.4646 -1.0273 -14.6436
# 3 52.7744 5.4724 155.5850 2.5264 11.0315 -15.8277
# 4 6.1942 10.4646 2.5264 47.3141 -4.7520 9.5303
# 5 11.1861 -1.0273 11.0315 -4.7520 36.7575 -1.1814
# 6 -2.2224 -14.6436 -15.8277 9.5303 -1.1814 36.6249
#
#
#
# Elastic Compliance Matrix: (Units=1/GPa)
#
#
# Indices 1 2 3 4 5 6 
#
# 1 0.011788 -0.004246 -0.003940 -0.000105 -0.002625 -0.002742
# 2 -0.004246 0.023010 0.001858 -0.006875 0.000861 0.011562
# 3 -0.003940 0.001858 0.008255 -0.001345 -0.001260 0.004381
# 4 -0.000105 -0.006875 -0.001345 0.025022 0.003165 -0.009745
# 5 -0.002625 0.000861 -0.001260 0.003165 0.028807 -0.000254
# 6 -0.002742 0.011562 0.004381 -0.009745 -0.000254 0.036181
#
#
# Mechanical properties :
#
#
# Convention : Reuss Voigt Hill
#
# Bulk Modulus (GPa) = 32.89814 53.11270 43.00542
# Shear Modulus (GPa) = 32.08137 40.59325 36.33731
#
# Velocity S-wave (km/s) = 3.56993 4.01569 3.79936
# Velocity P-wave (km/s) = 5.48283 6.52689 6.02751
#
# Compressibility (1/GPa) = 0.03039685
#
# Stress axis : x y z
#
# Youngs Moduli (GPa) = 84.83082 43.45884 121.13347
#
# Poissons Ratio (x) = 0.18452 0.47731
# Poissons Ratio (y) = 0.36017 -0.22502
# Poissons Ratio (z) = 0.33426 -0.08073
#
# Static dielectric constant tensor:
#      x y z
#    x 1.751750 0.158690 -0.146840 
#    y 0.158690 2.058950 -0.029600 
#    z -0.146840 -0.029600 1.848710 
# 
# From -- ./inp_files/458406.got.cif
#   From: 2010.05.17/outbox.cif.g08.bks.cpg/sg2_230_cif.got.tgz:458406.got - 2010.06.03 11:33:40.
