data_PCOD9041820
_publ_section_title
;
Structure prediction by ZEFSAII (Michael W. Deem and Ramdas Pophale) SiO2 
 PCOD9041820
Probable space group: P -1
;
_chemical_formula_sum "Si O2"
_cell_formula_units_Z 14
_cell_length_a 11.897813
_cell_length_b 12.059540
_cell_length_c 17.120767
_cell_angle_alpha 26.973442
_cell_angle_beta 35.290816
_cell_angle_gamma 53.357219
_cell_volume 558.052765
_symmetry_space_group_name_H-M "P -1"
_symmetry_group_IT_number 2
_symmetry_cell_setting 'triclinic'
loop_
_space_group_symop_operation_xyz
x,y,z
-x,-y,-z
loop_
_atom_site_type_symbol
_atom_site_label
_atom_site_fract_x
_atom_site_fract_y
_atom_site_fract_z
Si Si1 0.529010 0.752427 0.718316
Si Si2 0.011885 0.297944 0.318697
Si Si3 0.263083 0.069311 0.897192
Si Si4 0.778951 0.363678 0.263713
Si Si5 0.467664 0.588061 0.336251
Si Si6 0.858383 0.540049 0.694434
Si Si7 0.181951 0.270326 0.561730
O O1 0.660577 0.613349 0.774410
O O2 0.636623 0.787971 0.548076
O O3 0.611673 0.053437 0.520891
O O4 0.264202 0.547093 0.999396
O O5 0.971027 0.327876 0.414199
O O6 0.843969 0.326450 0.337839
O O7 0.000000 0.000000 0.500000
O O8 0.348026 0.317883 0.631055
O O9 0.428395 0.153392 0.825252
O O10 0.236209 0.790306 0.048199
O O11 0.016531 0.990098 0.117495
O O12 0.676267 0.567979 0.194650
O O13 0.000000 0.500000 0.000000
O O14 0.304415 0.521885 0.397039
O O15 0.929740 0.659367 0.492009
#
# Coordination Sequence:
#
# PCOD9041820 Si02
#       7
#     2   2   2   2   2   2   2
#     4  10  24  43  67 101 135 168 223 275 333 392
#     4  12  24  44  71 101 136 174 222 276 338 398
#     4  11  24  45  64  98 131 175 230 264 335 389
#     4  12  26  44  69 104 137 176 221 271 342 401
#     4  11  26  42  67  96 136 176 216 277 326 407
#     4  10  24  43  70  95 131 173 219 282 322 389
#     4  10  23  44  67  95 131 174 221 274 329 388
#
# _framework density 25.087233999999999
#
# number of rings (size 3 to 8) (size 9 to 14) (size 15 to 20)
#    0.857    0.286    1.429    3.857    2.000    9.714 
#    0.000    0.000    0.000    0.000    0.000    0.000 
#    0.000    0.000    0.000    0.000    0.000    0.000 
#
# Total GULP energy -78420.450983 kJ/mol
# GULP energy per Si atom -5601.460784 kJ/mol
# Density = 2.503013 g / cm^3
# Si number density = 25.087234 Si / 1000 Ang^3
#
#
#
# Elastic Constant Matrix: (Units=GPa)
#
#
# Indices 1 2 3 4 5 6 
#
# 1 156.0204 39.2505 16.1283 -11.4896 -23.7376 29.9207
# 2 39.2505 74.8450 17.6763 -11.9606 -4.8896 27.0807
# 3 16.1283 17.6763 94.3321 -4.6959 -13.2325 9.0930
# 4 -11.4896 -11.9606 -4.6959 62.8158 13.0852 -7.8034
# 5 -23.7376 -4.8896 -13.2325 13.0852 35.3682 -6.8475
# 6 29.9207 27.0807 9.0930 -7.8034 -6.8475 47.0154
#
#
#
# Elastic Compliance Matrix: (Units=1/GPa)
#
#
# Indices 1 2 3 4 5 6 
#
# 1 0.008467 -0.003140 0.000087 -0.000424 0.004865 -0.002958
# 2 -0.003140 0.018820 -0.002474 0.002394 -0.002942 -0.008394
# 3 0.000087 -0.002474 0.011647 -0.000502 0.004191 -0.000356
# 4 -0.000424 0.002394 -0.000502 0.017739 -0.006514 0.000983
# 5 0.004865 -0.002942 0.004191 -0.006514 0.035473 0.001873
# 6 -0.002958 -0.008394 -0.000356 0.000983 0.001873 0.028492
#
#
# Mechanical properties :
#
#
# Convention : Reuss Voigt Hill
#
# Bulk Modulus (GPa) = 35.86913 52.36752 44.11833
# Shear Modulus (GPa) = 35.46485 45.84935 40.65710
#
# Velocity S-wave (km/s) = 3.76395 4.27968 4.03007
# Velocity P-wave (km/s) = 5.76355 6.73352 6.26733
#
# Compressibility (1/GPa) = 0.02787913
#
# Stress axis : x y z
#
# Youngs Moduli (GPa) = 118.11000 53.13573 85.86122
#
# Poissons Ratio (x) = 0.16686 -0.00750
# Poissons Ratio (y) = 0.37091 0.21242
# Poissons Ratio (z) = -0.01032 0.13146
#
# Static dielectric constant tensor:
#      x y z
#    x 2.000430 0.017940 0.001770 
#    y 0.017940 1.982820 0.037700 
#    z 0.001770 0.037700 1.930760 
# 
# From -- ./inp_files/568436.got.cif
#   From: 2010.05.17/outbox.cif.g08.bks.cpg/sg2_285_cif.got.tgz:568436.got - 2010.06.03 11:33:40.
