data_PCOD9041103
_publ_section_title
;
Structure prediction by ZEFSAII (Michael W. Deem and Ramdas Pophale) SiO2 
 PCOD9041103
Probable space group: P -1
;
_chemical_formula_sum "Si O2"
_cell_formula_units_Z 14
_cell_length_a 22.955147
_cell_length_b 11.874655
_cell_length_c 20.851035
_cell_angle_alpha 30.276035
_cell_angle_beta 162.042568
_cell_angle_gamma 158.338597
_cell_volume 636.240991
_symmetry_space_group_name_H-M "P -1"
_symmetry_group_IT_number 2
_symmetry_cell_setting 'triclinic'
loop_
_space_group_symop_operation_xyz
x,y,z
-x,-y,-z
loop_
_atom_site_type_symbol
_atom_site_label
_atom_site_fract_x
_atom_site_fract_y
_atom_site_fract_z
Si Si1 0.868249 0.152116 0.021668
Si Si2 0.767707 0.802249 0.804178
Si Si3 0.108009 0.240203 0.553837
Si Si4 0.475511 0.225976 0.029367
Si Si5 0.057780 0.894665 0.294949
Si Si6 0.544908 0.905394 0.160657
Si Si7 0.421761 0.914656 0.580588
O O1 0.692897 0.040972 0.828587
O O2 0.000000 0.500000 0.000000
O O3 0.661310 0.917327 0.975524
O O4 0.076227 0.116058 0.255347
O O5 0.609621 0.450689 0.824901
O O6 0.574260 0.857664 0.569895
O O7 0.916864 0.943764 0.823393
O O8 0.000000 0.000000 0.000000
O O9 0.305618 0.260465 0.793517
O O10 0.261508 0.598764 0.527885
O O11 0.000000 0.000000 0.500000
O O12 0.849977 0.101499 0.389644
O O13 0.776986 0.554233 0.183158
O O14 0.459640 0.985039 0.091469
O O15 0.262720 0.867395 0.502551
O O16 0.500000 0.000000 0.000000
#
# Coordination Sequence:
#
# PCOD9041103 Si02
#       7
#     2   2   2   2   2   2   2
#     4  12  27  46  68 103 143 184 245 287 341 418
#     4  10  23  43  70  99 140 185 222 287 357 412
#     4  12  25  42  73 106 138 180 238 285 353 424
#     4  12  25  42  73  99 139 189 231 289 348 412
#     4  10  23  46  68  99 141 178 234 284 347 411
#     4  12  23  45  69 101 142 177 232 289 349 425
#     4  10  25  46  69 100 144 184 229 286 360 402
#
# _framework density 22.004241
#
# number of rings (size 3 to 8) (size 9 to 14) (size 15 to 20)
#    0.857    0.000    4.286    3.000    2.000    2.286 
#    0.000    1.429    0.000    0.000    0.000    0.000 
#    0.000    0.000    0.000    0.000    0.000    0.000 
#
# Total GULP energy -78097.295150 kJ/mol
# GULP energy per Si atom -5578.378225 kJ/mol
# Density = 2.195416 g / cm^3
# Si number density = 22.004241 Si / 1000 Ang^3
#
#
#
# Elastic Constant Matrix: (Units=GPa)
#
#
# Indices 1 2 3 4 5 6 
#
# 1 42.7640 -0.1917 2.5544 -16.9203 4.1578 -2.4937
# 2 -0.1917 157.2337 3.0298 -20.4052 -9.9594 -9.4137
# 3 2.5544 3.0298 48.8970 -16.6931 23.3556 -11.3897
# 4 -16.9203 -20.4052 -16.6931 32.0363 -1.5244 3.8767
# 5 4.1578 -9.9594 23.3556 -1.5244 24.9725 -5.4989
# 6 -2.4937 -9.4137 -11.3897 3.8767 -5.4989 38.9255
#
#
#
# Elastic Compliance Matrix: (Units=1/GPa)
#
#
# Indices 1 2 3 4 5 6 
#
# 1 0.035301 0.002284 0.016899 0.027734 -0.018555 0.002375
# 2 0.002284 0.007444 0.000649 0.006186 0.002780 0.001913
# 3 0.016899 0.000649 0.060198 0.037197 -0.054958 0.007385
# 4 0.027734 0.006186 0.037197 0.067302 -0.032191 0.002906
# 5 -0.018555 0.002780 -0.054958 -0.032191 0.093641 -0.000163
# 6 0.002375 0.001913 0.007385 0.002906 -0.000163 0.028153
#
#
# Mechanical properties :
#
#
# Convention : Reuss Voigt Hill
#
# Bulk Modulus (GPa) = 7.01236 28.85328 17.93282
# Shear Modulus (GPa) = 16.67161 35.42034 26.04597
#
# Velocity S-wave (km/s) = 2.75554 4.01647 3.44420
# Velocity P-wave (km/s) = 3.64935 5.88646 4.89735
#
# Compressibility (1/GPa) = 0.14260525
#
# Stress axis : x y z
#
# Youngs Moduli (GPa) = 28.32773 134.34147 16.61191
#
# Poissons Ratio (x) = -0.30677 -0.28072
# Poissons Ratio (y) = -0.06469 -0.01078
# Poissons Ratio (z) = -0.47871 -0.08718
#
# Static dielectric constant tensor:
#      x y z
#    x 1.788290 -0.065960 -0.006110 
#    y -0.065960 1.795970 -0.029900 
#    z -0.006110 -0.029900 1.768670 
# 
# From -- ./inp_files/602067.got.cif
#   From: 2010.05.17/outbox.cif.g08.bks.cpg/sg2_302_cif.got.tgz:602067.got - 2010.06.03 11:33:40.
