data_PCOD9041050
_publ_section_title
;
Structure prediction by ZEFSAII (Michael W. Deem and Ramdas Pophale) SiO2 
 PCOD9041050
Probable space group: P -1
;
_chemical_formula_sum "Si O2"
_cell_formula_units_Z 16
_cell_length_a 14.977759
_cell_length_b 9.066019
_cell_length_c 8.701374
_cell_angle_alpha 66.185280
_cell_angle_beta 126.660538
_cell_angle_gamma 80.885593
_cell_volume 727.390002
_symmetry_space_group_name_H-M "P -1"
_symmetry_group_IT_number 2
_symmetry_cell_setting 'triclinic'
loop_
_space_group_symop_operation_xyz
x,y,z
-x,-y,-z
loop_
_atom_site_type_symbol
_atom_site_label
_atom_site_fract_x
_atom_site_fract_y
_atom_site_fract_z
Si Si1 0.428188 0.916491 0.871856
Si Si2 0.107223 0.784353 0.504011
Si Si3 0.152331 0.123130 0.348875
Si Si4 0.912806 0.433953 0.148096
Si Si5 0.866007 0.817545 0.057422
Si Si6 0.395217 0.450267 0.966930
Si Si7 0.372942 0.816513 0.175883
Si Si8 0.352063 0.462923 0.280844
O O1 0.298590 0.054714 0.582362
O O2 0.541619 0.760151 0.944257
O O3 0.378022 0.835641 0.989495
O O4 0.500000 0.000000 0.000000
O O5 0.085680 0.725761 0.675278
O O6 0.252457 0.602698 0.685065
O O7 0.118248 0.967797 0.432571
O O8 0.989659 0.809796 0.266855
O O9 0.144143 0.129174 0.154398
O O10 0.047092 0.324100 0.236318
O O11 0.891105 0.605099 0.164123
O O12 0.787528 0.518318 0.869536
O O13 0.733688 0.980111 0.942317
O O14 0.500000 0.500000 0.000000
O O15 0.386123 0.449098 0.141008
O O16 0.336541 0.658887 0.242269
O O17 0.523499 0.717609 0.432586
#
# Coordination Sequence:
#
# PCOD9041050 Si02
#       8
#     2   2   2   2   2   2   2   2
#     4  12  27  40  68  97 133 174 217 273 329 394
#     4  11  24  43  73  94 132 180 223 270 323 406
#     4  12  25  47  67  97 136 178 224 271 330 398
#     4  11  25  44  68  95 137 174 221 272 340 382
#     4  12  27  42  68 104 135 172 219 282 332 388
#     4  11  21  44  66  98 129 170 222 269 328 384
#     4  11  24  43  67  98 134 171 228 263 334 396
#     4  10  23  43  70  96 130 178 215 276 319 405
#
# _framework density 21.996452999999999
#
# number of rings (size 3 to 8) (size 9 to 14) (size 15 to 20)
#    0.000    0.750    2.500    4.500    7.000    1.500 
#    0.000    0.000    0.000    0.000    0.000    0.000 
#    0.000    0.000    0.000    0.000    0.000    0.000 
#
# Total GULP energy -89528.938932 kJ/mol
# GULP energy per Si atom -5595.558683 kJ/mol
# Density = 2.194639 g / cm^3
# Si number density = 21.996453 Si / 1000 Ang^3
#
#
#
# Elastic Constant Matrix: (Units=GPa)
#
#
# Indices 1 2 3 4 5 6 
#
# 1 59.1165 14.9070 27.3142 -14.6223 3.2798 -12.1475
# 2 14.9070 84.8817 17.4421 -11.4153 18.1709 -19.8290
# 3 27.3142 17.4421 143.8773 8.2907 21.0697 -13.4907
# 4 -14.6223 -11.4153 8.2907 34.9571 1.4895 12.1926
# 5 3.2798 18.1709 21.0697 1.4895 44.5384 -2.7552
# 6 -12.1475 -19.8290 -13.4907 12.1926 -2.7552 44.3099
#
#
#
# Elastic Compliance Matrix: (Units=1/GPa)
#
#
# Indices 1 2 3 4 5 6 
#
# 1 0.021903 -0.001543 -0.004497 0.009169 0.000929 0.001480
# 2 -0.001543 0.014863 -0.000389 0.002794 -0.005551 0.004996
# 3 -0.004497 -0.000389 0.008848 -0.004798 -0.003387 0.002397
# 4 0.009169 0.002794 -0.004798 0.037357 -0.001293 -0.008057
# 5 0.000929 -0.005551 -0.003387 -0.001293 0.026216 -0.001275
# 6 0.001480 0.004996 0.002397 -0.008057 -0.001275 0.028077
#
#
# Mechanical properties :
#
#
# Convention : Reuss Voigt Hill
#
# Bulk Modulus (GPa) = 30.52640 45.24468 37.88554
# Shear Modulus (GPa) = 31.04816 39.97521 35.51169
#
# Velocity S-wave (km/s) = 3.76108 4.26766 4.02235
# Velocity P-wave (km/s) = 5.72442 6.70057 6.23164
#
# Compressibility (1/GPa) = 0.03275853
#
# Stress axis : x y z
#
# Youngs Moduli (GPa) = 45.65614 67.28083 113.01406
#
# Poissons Ratio (x) = 0.10379 0.50819
# Poissons Ratio (y) = 0.07043 0.04393
# Poissons Ratio (z) = 0.20530 0.02615
#
# Static dielectric constant tensor:
#      x y z
#    x 1.823250 0.035660 -0.015540 
#    y 0.035660 1.737240 -0.038970 
#    z -0.015540 -0.038970 1.782730 
# 
# From -- ./inp_files/297981.got.cif
#   From: 2010.05.17/outbox.cif.g08.bks.cpg/sg2_149_cif.got.tgz:297981.got - 2010.06.03 11:33:40.
