data_PCOD9041635
_publ_section_title
;
Structure prediction by ZEFSAII (Michael W. Deem and Ramdas Pophale) SiO2 
 PCOD9041635
Probable space group: P -1
;
_chemical_formula_sum "Si O2"
_cell_formula_units_Z 15
_cell_length_a 15.953360
_cell_length_b 8.774751
_cell_length_c 5.801311
_cell_angle_alpha 117.431678
_cell_angle_beta 71.534578
_cell_angle_gamma 120.995193
_cell_volume 614.490577
_symmetry_space_group_name_H-M "P -1"
_symmetry_group_IT_number 2
_symmetry_cell_setting 'triclinic'
loop_
_space_group_symop_operation_xyz
x,y,z
-x,-y,-z
loop_
_atom_site_type_symbol
_atom_site_label
_atom_site_fract_x
_atom_site_fract_y
_atom_site_fract_z
Si Si1 0.834745 0.501255 0.193853
Si Si2 0.500000 0.500000 0.500000
Si Si3 0.671567 0.805355 0.851395
Si Si4 0.009766 0.166314 0.430631
Si Si5 0.492737 0.197153 0.681967
Si Si6 0.705610 0.329071 0.585077
Si Si7 0.191960 0.845365 0.340607
Si Si8 0.819841 0.728865 0.976806
O O1 0.929196 0.625566 0.355919
O O2 0.732861 0.366170 0.319653
O O3 0.850087 0.347969 0.913105
O O4 0.820005 0.674023 0.203149
O O5 0.606892 0.619638 0.623994
O O6 0.477090 0.309519 0.557016
O O7 0.739076 0.785821 0.983318
O O8 0.745906 0.976718 0.751204
O O9 0.585642 0.836518 0.075648
O O10 0.075144 0.158250 0.154156
O O11 0.900423 0.139429 0.451148
O O12 0.000000 0.000000 0.500000
O O13 0.604242 0.321565 0.756539
O O14 0.500000 0.000000 0.500000
O O15 0.731444 0.165725 0.548278
O O16 0.786624 0.519507 0.754191
#
# Coordination Sequence:
#
# PCOD9041635 Si02
#       8
#     2   1   2   2   2   2   2   2
#     4  10  24  43  71  99 141 189 234 289 363 431
#     4  12  28  46  80 102 150 196 246 308 372 438
#     4  12  26  48  72 110 144 192 246 300 372 434
#     4  11  23  44  68 107 143 178 239 293 362 433
#     4  12  27  46  70 110 145 192 250 304 367 442
#     4  10  23  44  66 100 139 183 234 293 358 423
#     4  11  24  45  72 101 143 185 235 301 355 439
#     4  10  23  44  70 102 140 183 235 297 351 438
#
# _framework density 24.410464000000001
#
# number of rings (size 3 to 8) (size 9 to 14) (size 15 to 20)
#    0.000    1.067    2.667    2.400    1.867    9.600 
#    4.800    0.000    0.000    0.000    0.000    0.000 
#    0.000    0.000    0.000    0.000    0.000    0.000 
#
# Total GULP energy -83525.554663 kJ/mol
# GULP energy per Si atom -5568.370311 kJ/mol
# Density = 2.435490 g / cm^3
# Si number density = 24.410464 Si / 1000 Ang^3
#
#
#
# Elastic Constant Matrix: (Units=GPa)
#
#
# Indices 1 2 3 4 5 6 
#
# 1 154.1968 31.5341 35.5852 -27.0466 -20.2350 11.4297
# 2 31.5341 123.2247 22.1493 -9.9879 -0.0312 7.6019
# 3 35.5852 22.1493 41.9152 -10.6345 -21.1343 10.2897
# 4 -27.0466 -9.9879 -10.6345 41.7211 9.1017 7.2464
# 5 -20.2350 -0.0312 -21.1343 9.1017 39.8723 -3.4924
# 6 11.4297 7.6019 10.2897 7.2464 -3.4924 44.4746
#
#
#
# Elastic Compliance Matrix: (Units=1/GPa)
#
#
# Indices 1 2 3 4 5 6 
#
# 1 0.008826 -0.000864 -0.005276 0.004319 0.000560 -0.001560
# 2 -0.000864 0.009502 -0.005774 0.001170 -0.003808 -0.000556
# 3 -0.005276 -0.005774 0.043474 0.003305 0.019015 -0.006761
# 4 0.004319 0.001170 0.003305 0.029913 -0.003517 -0.007225
# 5 0.000560 -0.003808 0.019015 -0.003517 0.036201 -0.000477
# 6 -0.001560 -0.000556 -0.006761 -0.007225 -0.000477 0.025684
#
#
# Mechanical properties :
#
#
# Convention : Reuss Voigt Hill
#
# Bulk Modulus (GPa) = 26.33378 55.31931 40.82654
# Shear Modulus (GPa) = 26.30376 40.55147 33.42761
#
# Velocity S-wave (km/s) = 3.28618 4.08024 3.70455
# Velocity P-wave (km/s) = 5.02096 6.70143 5.92111
#
# Compressibility (1/GPa) = 0.03797404
#
# Stress axis : x y z
#
# Youngs Moduli (GPa) = 113.30139 105.23604 23.00234
#
# Poissons Ratio (x) = 0.09091 0.12136
# Poissons Ratio (y) = 0.09788 0.13283
# Poissons Ratio (z) = 0.59776 0.60768
#
# Static dielectric constant tensor:
#      x y z
#    x 1.968450 0.030900 0.112500 
#    y 0.030900 2.148760 -0.016400 
#    z 0.112500 -0.016400 2.104740 
# 
# From -- ./inp_files/51464.got.cif
#   From: 2010.05.17/outbox.cif.g08.bks.cpg/sg2_26_cif.got.tgz:51464.got - 2010.06.03 11:33:40.
