data_PCOD9041357
_publ_section_title
;
Structure prediction by ZEFSAII (Michael W. Deem and Ramdas Pophale) SiO2 
 PCOD9041357
Probable space group: P -1
;
_chemical_formula_sum "Si O2"
_cell_formula_units_Z 16
_cell_length_a 20.333857
_cell_length_b 5.888084
_cell_length_c 8.326054
_cell_angle_alpha 57.997057
_cell_angle_beta 52.341220
_cell_angle_gamma 63.536490
_cell_volume 658.122939
_symmetry_space_group_name_H-M "P -1"
_symmetry_group_IT_number 2
_symmetry_cell_setting 'triclinic'
loop_
_space_group_symop_operation_xyz
x,y,z
-x,-y,-z
loop_
_atom_site_type_symbol
_atom_site_label
_atom_site_fract_x
_atom_site_fract_y
_atom_site_fract_z
Si Si1 0.918422 0.656135 0.477717
Si Si2 0.503563 0.206602 0.766159
Si Si3 0.915255 0.707382 0.101650
Si Si4 0.682813 0.567415 0.117568
Si Si5 0.266911 0.462064 0.593326
Si Si6 0.185322 0.804746 0.121079
Si Si7 0.232130 0.996570 0.303062
Si Si8 0.442900 0.353007 0.263263
O O1 0.931175 0.769598 0.240539
O O2 0.858406 0.432305 0.652742
O O3 0.867235 0.891328 0.574928
O O4 0.000000 0.500000 0.500000
O O5 0.415075 0.398733 0.782458
O O6 0.555045 0.439506 0.664507
O O7 0.524834 0.975840 0.678936
O O8 0.500000 0.000000 0.000000
O O9 0.826980 0.592312 0.277985
O O10 0.000000 0.500000 0.000000
O O11 0.888674 0.962939 0.926301
O O12 0.703052 0.650771 0.235602
O O13 0.748134 0.291599 0.084640
O O14 0.712146 0.774422 0.869295
O O15 0.341699 0.369111 0.388499
O O16 0.257554 0.786947 0.483957
O O17 0.240869 0.873578 0.159701
O O18 0.500000 0.500000 0.000000
#
# Coordination Sequence:
#
# PCOD9041357 Si02
#       8
#     2   2   2   2   2   2   2   2
#     4  11  26  43  71 104 141 197 249 313 387 444
#     4  10  23  43  73 108 149 195 249 313 387 458
#     4  12  27  46  75 108 152 197 255 316 377 457
#     4  11  26  44  74 110 146 194 250 314 382 463
#     4  12  26  46  74 109 146 200 249 317 387 455
#     4  11  25  45  74 103 148 193 251 311 378 457
#     4  11  23  45  69 101 143 192 249 304 376 454
#     4  10  24  44  74 109 150 195 259 311 391 462
#
# _framework density 24.311568999999999
#
# number of rings (size 3 to 8) (size 9 to 14) (size 15 to 20)
#    0.000    1.000    2.500    3.000    8.750    4.500 
#    0.000    0.000    0.000    0.000    0.000    0.000 
#    0.000    0.000    0.000    0.000    0.000    0.000 
#
# Total GULP energy -89222.120666 kJ/mol
# GULP energy per Si atom -5576.382542 kJ/mol
# Density = 2.425624 g / cm^3
# Si number density = 24.311569 Si / 1000 Ang^3
#
#
#
# Elastic Constant Matrix: (Units=GPa)
#
#
# Indices 1 2 3 4 5 6 
#
# 1 91.3915 9.0242 14.4226 3.9071 -5.0582 -5.4820
# 2 9.0242 87.3668 8.8528 -0.2107 -9.9902 1.9932
# 3 14.4226 8.8528 86.8980 -0.5213 0.8026 1.0363
# 4 3.9071 -0.2107 -0.5213 34.7578 -14.1476 0.4636
# 5 -5.0582 -9.9902 0.8026 -14.1476 43.4377 3.3807
# 6 -5.4820 1.9932 1.0363 0.4636 3.3807 40.2807
#
#
#
# Elastic Compliance Matrix: (Units=1/GPa)
#
#
# Indices 1 2 3 4 5 6 
#
# 1 0.011508 -0.000964 -0.001844 -0.001073 0.000677 0.001617
# 2 -0.000964 0.012052 -0.001077 0.001499 0.003245 -0.000989
# 3 -0.001844 -0.001077 0.011935 0.000141 -0.000602 -0.000456
# 4 -0.001073 0.001499 0.000141 0.033502 0.011250 -0.001554
# 5 0.000677 0.003245 -0.000602 0.011250 0.027717 -0.002509
# 6 0.001617 -0.000989 -0.000456 -0.001554 -0.002509 0.025335
#
#
# Mechanical properties :
#
#
# Convention : Reuss Voigt Hill
#
# Bulk Modulus (GPa) = 36.06704 36.69505 36.38104
# Shear Modulus (GPa) = 35.95539 39.25237 37.60388
#
# Velocity S-wave (km/s) = 3.84987 4.02251 3.93714
# Velocity P-wave (km/s) = 5.88469 6.05810 5.97202
#
# Compressibility (1/GPa) = 0.02772615
#
# Stress axis : x y z
#
# Youngs Moduli (GPa) = 86.89273 82.97444 83.78486
#
# Poissons Ratio (x) = 0.07998 0.15449
# Poissons Ratio (y) = 0.08376 0.09023
# Poissons Ratio (z) = 0.16022 0.08936
#
# Static dielectric constant tensor:
#      x y z
#    x 2.066870 -0.002330 -0.145540 
#    y -0.002330 2.026920 0.047800 
#    z -0.145540 0.047800 2.079300 
# 
# From -- ./inp_files/48746.got.cif
#   From: 2010.05.17/outbox.cif.g08.bks.cpg/sg2_25_cif.got.tgz:48746.got - 2010.06.03 11:33:40.
