data_PCOD9041462
_publ_section_title
;
Structure prediction by ZEFSAII (Michael W. Deem and Ramdas Pophale) SiO2 
 PCOD9041462
Probable space group: P -1
;
_chemical_formula_sum "Si O2"
_cell_formula_units_Z 14
_cell_length_a 11.977257
_cell_length_b 8.115126
_cell_length_c 8.165980
_cell_angle_alpha 99.343602
_cell_angle_beta 125.999107
_cell_angle_gamma 61.356098
_cell_volume 555.518311
_symmetry_space_group_name_H-M "P -1"
_symmetry_group_IT_number 2
_symmetry_cell_setting 'triclinic'
loop_
_space_group_symop_operation_xyz
x,y,z
-x,-y,-z
loop_
_atom_site_type_symbol
_atom_site_label
_atom_site_fract_x
_atom_site_fract_y
_atom_site_fract_z
Si Si1 0.643791 0.804358 0.649086
Si Si2 0.740878 0.363532 0.070316
Si Si3 0.832646 0.895423 0.414210
Si Si4 0.513520 0.750796 0.866608
Si Si5 0.992698 0.680931 0.934452
Si Si6 0.047868 0.044072 0.795039
Si Si7 0.306994 0.366348 0.667891
O O1 0.612574 0.769886 0.803574
O O2 0.806274 0.809902 0.769907
O O3 0.651678 0.656558 0.491420
O O4 0.500000 0.000000 0.500000
O O5 0.747273 0.424486 0.273142
O O6 0.876889 0.391238 0.103928
O O7 0.572662 0.522289 0.882316
O O8 0.788615 0.145847 0.053560
O O9 0.815373 0.715977 0.430450
O O10 0.910353 0.852401 0.295409
O O11 0.662737 0.085632 0.286985
O O12 0.939486 0.957111 0.623162
O O13 0.566268 0.763454 0.101612
O O14 0.000000 0.500000 0.000000
O O15 0.034944 0.810264 0.108817
#
# Coordination Sequence:
#
# PCOD9041462 Si02
#       7
#     2   2   2   2   2   2   2
#     4  12  24  40  76 111 127 184 242 282 351 404
#     4  10  24  44  66 103 142 185 226 284 356 399
#     4  11  22  43  69 102 141 184 235 284 344 412
#     4  10  23  45  69 106 140 183 233 291 336 410
#     4  12  24  46  71  99 142 176 235 295 342 417
#     4  11  26  42  68 102 141 189 226 287 358 407
#     4  10  23  43  76  99 142 177 239 285 336 416
#
# _framework density 25.201688000000001
#
# number of rings (size 3 to 8) (size 9 to 14) (size 15 to 20)
#    0.857    0.286    2.857    3.429    2.000    5.143 
#    0.000    2.143    0.000    0.000    0.000    0.000 
#    0.000    0.000    0.000    0.000    0.000    0.000 
#
# Total GULP energy -78229.092384 kJ/mol
# GULP energy per Si atom -5587.792313 kJ/mol
# Density = 2.514433 g / cm^3
# Si number density = 25.201688 Si / 1000 Ang^3
#
#
#
# Elastic Constant Matrix: (Units=GPa)
#
#
# Indices 1 2 3 4 5 6 
#
# 1 119.1318 -6.9756 21.8353 -1.4705 -2.1141 -15.8040
# 2 -6.9756 82.4818 11.4947 5.9311 4.7236 -9.1933
# 3 21.8353 11.4947 60.8278 2.7554 -3.9451 -18.0046
# 4 -1.4705 5.9311 2.7554 36.8011 -11.0231 -5.5346
# 5 -2.1141 4.7236 -3.9451 -11.0231 28.3486 -1.4049
# 6 -15.8040 -9.1933 -18.0046 -5.5346 -1.4049 40.8558
#
#
#
# Elastic Compliance Matrix: (Units=1/GPa)
#
#
# Indices 1 2 3 4 5 6 
#
# 1 0.009391 0.001399 -0.002791 0.000969 0.000598 0.002869
# 2 0.001399 0.013188 -0.002523 -0.002596 -0.003358 0.001929
# 3 -0.002791 -0.002523 0.020371 0.001063 0.003837 0.007606
# 4 0.000969 -0.002596 0.001063 0.032359 0.013488 0.005107
# 5 0.000598 -0.003358 0.003837 0.013488 0.041878 0.004434
# 6 0.002869 0.001929 0.007606 0.005107 0.004434 0.030216
#
#
# Mechanical properties :
#
#
# Convention : Reuss Voigt Hill
#
# Bulk Modulus (GPa) = 28.47541 35.01671 31.74606
# Shear Modulus (GPa) = 29.95095 36.94023 33.44559
#
# Velocity S-wave (km/s) = 3.45113 3.83271 3.64691
# Velocity P-wave (km/s) = 5.21574 5.78887 5.50976
#
# Compressibility (1/GPa) = 0.03511802
#
# Stress axis : x y z
#
# Youngs Moduli (GPa) = 106.48740 75.82679 49.09040
#
# Poissons Ratio (x) = -0.10608 0.13702
# Poissons Ratio (y) = -0.14898 0.12388
# Poissons Ratio (z) = 0.29723 0.19134
#
# Static dielectric constant tensor:
#      x y z
#    x 0.258150 -0.745280 0.092200 
#    y -0.745280 1.626610 0.011620 
#    z 0.092200 0.011620 2.081220 
# 
# From -- ./inp_files/245260.got.cif
#   From: 2010.05.17/outbox.cif.g08.bks.cpg/sg2_123_cif.got.tgz:245260.got - 2010.06.03 11:33:40.
