data_PCOD9041705
_publ_section_title
;
Structure prediction by ZEFSAII (Michael W. Deem and Ramdas Pophale) SiO2 
 PCOD9041705
Probable space group: P -1
;
_chemical_formula_sum "Si O2"
_cell_formula_units_Z 12
_cell_length_a 6.874470
_cell_length_b 17.542089
_cell_length_c 8.309550
_cell_angle_alpha 48.720583
_cell_angle_beta 97.687740
_cell_angle_gamma 128.284770
_cell_volume 522.953268
_symmetry_space_group_name_H-M "P -1"
_symmetry_group_IT_number 2
_symmetry_cell_setting 'triclinic'
loop_
_space_group_symop_operation_xyz
x,y,z
-x,-y,-z
loop_
_atom_site_type_symbol
_atom_site_label
_atom_site_fract_x
_atom_site_fract_y
_atom_site_fract_z
Si Si1 0.687444 0.221796 0.579740
Si Si2 0.819810 0.719247 0.057511
Si Si3 0.719774 0.864355 0.067447
Si Si4 0.464593 0.946908 0.750831
Si Si5 0.471896 0.324204 0.219859
Si Si6 0.302967 0.417315 0.314919
O O1 0.531552 0.209163 0.733967
O O2 0.622609 0.277835 0.351970
O O3 0.015996 0.329442 0.496964
O O4 0.562937 0.069500 0.717086
O O5 0.740555 0.758992 0.836600
O O6 0.138979 0.805222 0.950725
O O7 0.759194 0.767000 0.137224
O O8 0.591796 0.545407 0.261529
O O9 0.651223 0.916915 0.843096
O O10 0.000000 0.000000 0.000000
O O11 0.500000 0.000000 0.500000
O O12 0.313101 0.314532 0.367991
O O13 0.686412 0.490936 0.951147
#
# Coordination Sequence:
#
# PCOD9041705 Si02
#       6
#     2   2   2   2   2   2
#     4  12  24  40  71  95 137 177 219 267 344 390
#     4  10  23  44  66  97 135 169 223 275 319 395
#     4  12  28  44  65  99 143 174 215 276 337 393
#     4  12  27  43  72  99 128 178 231 270 327 396
#     4   9  21  42  70  98 133 173 222 275 328 385
#     4   9  22  41  70  99 133 171 227 275 323 392
#
# _framework density 22.946603
#
# number of rings (size 3 to 8) (size 9 to 14) (size 15 to 20)
#    1.000    0.333    1.667    3.000    4.667    3.333 
#    0.000    1.667    0.000    0.000    0.000    0.000 
#    0.000    0.000    0.000    0.000    0.000    0.000 
#
# Total GULP energy -67121.707025 kJ/mol
# GULP energy per Si atom -5593.475585 kJ/mol
# Density = 2.289438 g / cm^3
# Si number density = 22.946603 Si / 1000 Ang^3
#
#
#
# Elastic Constant Matrix: (Units=GPa)
#
#
# Indices 1 2 3 4 5 6 
#
# 1 111.0731 38.4093 32.8984 -8.9193 -16.5156 18.4422
# 2 38.4093 105.9611 19.7927 -5.7514 -25.9201 3.2118
# 3 32.8984 19.7927 70.2879 6.3425 -21.3816 17.5025
# 4 -8.9193 -5.7514 6.3425 32.4796 6.1308 -9.6166
# 5 -16.5156 -25.9201 -21.3816 6.1308 62.4894 3.7559
# 6 18.4422 3.2118 17.5025 -9.6166 3.7559 43.3697
#
#
#
# Elastic Compliance Matrix: (Units=1/GPa)
#
#
# Indices 1 2 3 4 5 6 
#
# 1 0.012094 -0.003298 -0.004256 0.002752 0.000258 -0.002593
# 2 -0.003298 0.011698 -0.000978 0.000943 0.003503 0.000837
# 3 -0.004256 -0.000978 0.022222 -0.010084 0.007662 -0.009985
# 4 0.002752 0.000943 -0.010084 0.038511 -0.006829 0.011960
# 5 0.000258 0.003503 0.007662 -0.006829 0.021225 -0.006814
# 6 -0.002593 0.000837 -0.009985 0.011960 -0.006814 0.031370
#
#
# Mechanical properties :
#
#
# Convention : Reuss Voigt Hill
#
# Bulk Modulus (GPa) = 34.54246 52.16921 43.35584
# Shear Modulus (GPa) = 30.51842 40.74918 35.63380
#
# Velocity S-wave (km/s) = 3.65084 4.21863 3.94496
# Velocity P-wave (km/s) = 5.73215 6.82008 6.29965
#
# Compressibility (1/GPa) = 0.02894988
#
# Stress axis : x y z
#
# Youngs Moduli (GPa) = 82.68599 85.48190 45.00003
#
# Poissons Ratio (x) = 0.28190 0.19152
# Poissons Ratio (y) = 0.27268 0.04403
# Poissons Ratio (z) = 0.35192 0.08364
#
# Static dielectric constant tensor:
#      x y z
#    x 1.814600 0.013200 0.029490 
#    y 0.013200 1.831900 0.046510 
#    z 0.029490 0.046510 1.934300 
# 
# From -- ./inp_files/137215.got.cif
#   From: 2010.05.17/outbox.cif.g08.bks.cpg/sg2_69_cif.got.tgz:137215.got - 2010.06.03 11:33:40.
