data_PCOD9041670
_publ_section_title
;
Structure prediction by ZEFSAII (Michael W. Deem and Ramdas Pophale) SiO2 
 PCOD9041670
Probable space group: P -1
;
_chemical_formula_sum "Si O2"
_cell_formula_units_Z 12
_cell_length_a 14.550300
_cell_length_b 6.085068
_cell_length_c 14.072289
_cell_angle_alpha 118.455324
_cell_angle_beta 29.832413
_cell_angle_gamma 129.810872
_cell_volume 465.851713
_symmetry_space_group_name_H-M "P -1"
_symmetry_group_IT_number 2
_symmetry_cell_setting 'triclinic'
loop_
_space_group_symop_operation_xyz
x,y,z
-x,-y,-z
loop_
_atom_site_type_symbol
_atom_site_label
_atom_site_fract_x
_atom_site_fract_y
_atom_site_fract_z
Si Si1 0.885957 0.662736 0.085053
Si Si2 0.184688 0.159549 0.449008
Si Si3 0.245175 0.677509 0.266578
Si Si4 0.498045 0.203490 0.762066
Si Si5 0.743538 0.914915 0.420298
Si Si6 0.174162 0.384496 0.071046
O O1 0.735584 0.684582 0.304819
O O2 0.774401 0.480303 0.051519
O O3 0.000000 0.500000 0.000000
O O4 0.000000 0.000000 0.000000
O O5 0.333744 0.503686 0.385072
O O6 0.321188 0.015381 0.267796
O O7 0.137950 0.085866 0.587582
O O8 0.000000 0.000000 0.500000
O O9 0.414102 0.678314 0.186978
O O10 0.248086 0.575368 0.138443
O O11 0.000000 0.500000 0.500000
O O12 0.545619 0.957549 0.632670
O O13 0.265827 0.164886 0.950717
O O14 0.917485 0.218658 0.278267
#
# Coordination Sequence:
#
# PCOD9041670 Si02
#       6
#     2   2   2   2   2   2
#     4  10  25  45  72 102 132 185 231 280 341 410
#     4  11  20  35  66  92 127 179 215 272 343 398
#     4  11  20  39  62  93 132 175 215 276 339 401
#     4  11  23  40  65 102 129 172 229 276 339 402
#     4  10  23  44  66  90 139 173 221 278 339 402
#     4  11  22  44  67  95 134 175 226 282 335 407
#
# _framework density 25.759269
#
# number of rings (size 3 to 8) (size 9 to 14) (size 15 to 20)
#    0.000    1.333    5.000    0.500    7.000    1.333 
#   12.000    0.833    0.000    0.000    0.000    0.000 
#    0.000    0.000    0.000    0.000    0.000    0.000 
#
# Total GULP energy -66827.978401 kJ/mol
# GULP energy per Si atom -5568.998200 kJ/mol
# Density = 2.570064 g / cm^3
# Si number density = 25.759269 Si / 1000 Ang^3
#
#
#
# Elastic Constant Matrix: (Units=GPa)
#
#
# Indices 1 2 3 4 5 6 
#
# 1 178.3874 30.4403 80.9942 35.8559 34.2277 -5.9866
# 2 30.4403 111.3600 62.3874 12.4875 15.2323 -7.3507
# 3 80.9942 62.3874 174.3062 27.8199 24.1963 -3.2415
# 4 35.8559 12.4875 27.8199 41.7337 9.9672 3.7809
# 5 34.2277 15.2323 24.1963 9.9672 55.3237 10.2554
# 6 -5.9866 -7.3507 -3.2415 3.7809 10.2554 28.1945
#
#
#
# Elastic Compliance Matrix: (Units=1/GPa)
#
#
# Indices 1 2 3 4 5 6 
#
# 1 0.008742 0.000580 -0.002796 -0.005185 -0.004131 0.003884
# 2 0.000580 0.011692 -0.003865 -0.001194 -0.002367 0.003748
# 3 -0.002796 -0.003865 0.008862 -0.002182 -0.000681 -0.000042
# 4 -0.005185 -0.001194 -0.002182 0.030747 0.000026 -0.005796
# 5 -0.004131 -0.002367 -0.000681 0.000026 0.023449 -0.010105
# 6 0.003884 0.003748 -0.000042 -0.005796 -0.010105 0.041718
#
#
# Mechanical properties :
#
#
# Convention : Reuss Voigt Hill
#
# Bulk Modulus (GPa) = 58.37096 90.18860 74.27978
# Shear Modulus (GPa) = 34.94477 44.39916 39.67196
#
# Velocity S-wave (km/s) = 3.68719 4.15615 3.92867
# Velocity P-wave (km/s) = 6.39034 7.62362 7.03406
#
# Compressibility (1/GPa) = 0.01713181
#
# Stress axis : x y z
#
# Youngs Moduli (GPa) = 114.39627 85.52893 112.84465
#
# Poissons Ratio (x) = -0.04959 0.31554
# Poissons Ratio (y) = -0.06633 0.43618
# Poissons Ratio (z) = 0.31988 0.33060
#
# Static dielectric constant tensor:
#      x y z
#    x 2.148720 -0.059940 0.008880 
#    y -0.059940 2.522860 -0.087880 
#    z 0.008880 -0.087880 2.011250 
# 
# From -- ./inp_files/107591.got.cif
#   From: 2010.05.17/outbox.cif.g08.bks.cpg/sg2_54_cif.got.tgz:107591.got - 2010.06.03 11:33:40.
