data_PCOD9041877
_publ_section_title
;
Structure prediction by ZEFSAII (Michael W. Deem and Ramdas Pophale) SiO2 
 PCOD9041877
Probable space group: P -1
;
_chemical_formula_sum "Si O2"
_cell_formula_units_Z 12
_cell_length_a 6.103339
_cell_length_b 11.764423
_cell_length_c 11.455514
_cell_angle_alpha 131.473716
_cell_angle_beta 106.542330
_cell_angle_gamma 105.040804
_cell_volume 461.725712
_symmetry_space_group_name_H-M "P -1"
_symmetry_group_IT_number 2
_symmetry_cell_setting 'triclinic'
loop_
_space_group_symop_operation_xyz
x,y,z
-x,-y,-z
loop_
_atom_site_type_symbol
_atom_site_label
_atom_site_fract_x
_atom_site_fract_y
_atom_site_fract_z
Si Si1 0.399750 0.949334 0.642215
Si Si2 0.907773 0.733861 0.613975
Si Si3 0.236840 0.469463 0.319560
Si Si4 0.779903 0.810906 0.258525
Si Si5 0.009263 0.096572 0.910506
Si Si6 0.017607 0.601481 0.193474
O O1 0.312411 0.820793 0.423499
O O2 0.113826 0.801142 0.579553
O O3 0.456525 0.152894 0.769119
O O4 0.670551 0.001876 0.793834
O O5 0.577331 0.649089 0.474787
O O6 0.858462 0.579371 0.593650
O O7 0.051932 0.938935 0.838444
O O8 0.026159 0.482505 0.217078
O O9 0.208679 0.287736 0.144981
O O10 0.908135 0.844182 0.171963
O O11 0.774638 0.635816 0.185672
O O12 0.000000 0.000000 0.500000
O O13 0.000000 0.500000 0.000000
#
# Coordination Sequence:
#
# PCOD9041877 Si02
#       6
#     2   2   2   2   2   2
#     4  10  23  44  68 100 135 181 218 281 339 399
#     4  10  24  47  67  96 139 175 229 274 341 399
#     4  11  23  44  70  98 133 182 220 285 331 399
#     4   9  21  40  65  97 135 180 217 268 336 404
#     4  11  21  44  70  99 136 174 227 279 339 393
#     4  11  21  43  66 101 136 176 220 277 336 400
#
# _framework density 25.989456000000001
#
# number of rings (size 3 to 8) (size 9 to 14) (size 15 to 20)
#    0.000    1.667    3.333    0.500    0.000    4.000 
#    9.000    1.667    0.000    0.000    0.000    0.000 
#    0.000    0.000    0.000    0.000    0.000    0.000 
#
# Total GULP energy -67005.054786 kJ/mol
# GULP energy per Si atom -5583.754566 kJ/mol
# Density = 2.593030 g / cm^3
# Si number density = 25.989456 Si / 1000 Ang^3
#
#
#
# Elastic Constant Matrix: (Units=GPa)
#
#
# Indices 1 2 3 4 5 6 
#
# 1 76.6338 56.3899 33.2346 7.0066 -19.8259 8.8084
# 2 56.3899 123.8967 17.1737 -21.1791 2.4165 2.5642
# 3 33.2346 17.1737 96.6470 12.5557 -13.3073 -6.4876
# 4 7.0066 -21.1791 12.5557 39.4264 -6.0779 0.8477
# 5 -19.8259 2.4165 -13.3073 -6.0779 43.2364 9.2663
# 6 8.8084 2.5642 -6.4876 0.8477 9.2663 42.9729
#
#
#
# Elastic Compliance Matrix: (Units=1/GPa)
#
#
# Indices 1 2 3 4 5 6 
#
# 1 0.033658 -0.016361 -0.005895 -0.010337 0.015200 -0.009886
# 2 -0.016361 0.017407 0.000318 0.010894 -0.007660 0.003800
# 3 -0.005895 0.000318 0.012935 -0.002943 0.000169 0.003164
# 4 -0.010337 0.010894 -0.002943 0.033717 -0.001669 0.000719
# 5 0.015200 -0.007660 0.000169 -0.001669 0.032398 -0.009586
# 6 -0.009886 0.003800 0.003164 0.000719 -0.009586 0.027601
#
#
# Mechanical properties :
#
#
# Convention : Reuss Voigt Hill
#
# Bulk Modulus (GPa) = 49.68949 56.75266 53.22107
# Shear Modulus (GPa) = 24.00377 37.81910 30.91143
#
# Velocity S-wave (km/s) = 3.04237 3.81881 3.45249
# Velocity P-wave (km/s) = 5.61266 6.42873 6.03451
#
# Compressibility (1/GPa) = 0.02012498
#
# Stress axis : x y z
#
# Youngs Moduli (GPa) = 29.71029 57.44939 77.30689
#
# Poissons Ratio (x) = 0.93993 0.45572
# Poissons Ratio (y) = 0.48609 -0.02459
# Poissons Ratio (z) = 0.17514 -0.01828
#
# Static dielectric constant tensor:
#      x y z
#    x 2.070860 -0.051130 0.014070 
#    y -0.051130 2.133070 -0.017570 
#    z 0.014070 -0.017570 2.066940 
# 
# From -- ./inp_files/365491.got.cif
#   From: 2010.05.17/outbox.cif.g08.bks.cpg/sg2_183_cif.got.tgz:365491.got - 2010.06.03 11:33:40.
