data_PCOD9041010
_publ_section_title
;
Structure prediction by ZEFSAII (Michael W. Deem and Ramdas Pophale) SiO2 
 PCOD9041010
Probable space group: P -1
;
_chemical_formula_sum "Si O2"
_cell_formula_units_Z 15
_cell_length_a 14.339852
_cell_length_b 14.465176
_cell_length_c 12.855261
_cell_angle_alpha 20.188207
_cell_angle_beta 138.984479
_cell_angle_gamma 141.380024
_cell_volume 571.572590
_symmetry_space_group_name_H-M "P -1"
_symmetry_group_IT_number 2
_symmetry_cell_setting 'triclinic'
loop_
_space_group_symop_operation_xyz
x,y,z
-x,-y,-z
loop_
_atom_site_type_symbol
_atom_site_label
_atom_site_fract_x
_atom_site_fract_y
_atom_site_fract_z
Si Si1 0.440902 0.187040 0.328879
Si Si2 0.015129 0.732251 0.852615
Si Si3 0.690560 0.182548 0.861246
Si Si4 0.893473 0.188513 0.602517
Si Si5 0.500000 0.500000 0.500000
Si Si6 0.706958 0.699276 0.658329
Si Si7 0.556868 0.112299 0.154992
Si Si8 0.917628 0.178166 0.882268
O O1 0.502414 0.132502 0.550807
O O2 0.500000 0.000000 0.500000
O O3 0.261135 0.019888 0.354944
O O4 0.500000 0.500000 0.000000
O O5 0.862815 0.662229 0.863596
O O6 0.000000 0.000000 0.500000
O O7 0.000000 0.500000 0.000000
O O8 0.170493 0.796242 0.972561
O O9 0.600313 0.380363 0.619593
O O10 0.548509 0.890039 0.033753
O O11 0.775337 0.197154 0.806599
O O12 0.883457 0.140603 0.769954
O O13 0.949584 0.529302 0.289635
O O14 0.023750 0.086410 0.766594
O O15 0.655827 0.623178 0.576434
O O16 0.692424 0.006870 0.340189
O O17 0.594019 0.416038 0.916887
#
# Coordination Sequence:
#
# PCOD9041010 Si02
#       8
#     2   2   2   2   1   2   2   2
#     4  12  25  44  72 103 150 193 245 305 380 455
#     4  12  27  46  72 107 142 191 250 314 377 440
#     4  11  26  46  77 107 152 198 256 312 376 455
#     4  10  23  43  70 104 146 185 244 304 371 444
#     4  10  24  46  74 104 150 194 250 312 380 438
#     4  11  25  46  69 101 144 187 249 304 373 443
#     4  11  27  44  72 105 142 193 244 299 376 450
#     4  10  23  43  70 105 141 192 241 306 374 440
#
# _framework density 26.243385
#
# number of rings (size 3 to 8) (size 9 to 14) (size 15 to 20)
#    0.000    1.067    1.333    3.200    5.600    6.400 
#    0.000    0.000    0.000    0.000    0.000    0.000 
#    0.000    0.000    0.000    0.000    0.000    0.000 
#
# Total GULP energy -83555.184911 kJ/mol
# GULP energy per Si atom -5570.345661 kJ/mol
# Density = 2.618365 g / cm^3
# Si number density = 26.243385 Si / 1000 Ang^3
#
#
#
# Elastic Constant Matrix: (Units=GPa)
#
#
# Indices 1 2 3 4 5 6 
#
# 1 122.9628 38.6736 26.1094 12.2705 35.0951 -8.2816
# 2 38.6736 165.4222 66.4398 21.2133 5.9092 22.4200
# 3 26.1094 66.4398 145.0671 -8.3038 41.4528 1.7136
# 4 12.2705 21.2133 -8.3038 46.9905 3.2692 5.5126
# 5 35.0951 5.9092 41.4528 3.2692 47.3585 7.2014
# 6 -8.2816 22.4200 1.7136 5.5126 7.2014 36.0863
#
#
#
# Elastic Compliance Matrix: (Units=1/GPa)
#
#
# Indices 1 2 3 4 5 6 
#
# 1 0.013849 -0.005569 0.004072 -0.000476 -0.014531 0.009417
# 2 -0.005569 0.012166 -0.008031 -0.005087 0.011506 -0.009974
# 3 0.004072 -0.008031 0.014768 0.005417 -0.016485 0.007685
# 4 -0.000476 -0.005087 0.005417 0.025034 -0.005492 0.000066
# 5 -0.014531 0.011506 -0.016485 -0.005492 0.048062 -0.018453
# 6 0.009417 -0.009974 0.007685 0.000066 -0.018453 0.039377
#
#
# Mechanical properties :
#
#
# Convention : Reuss Voigt Hill
#
# Bulk Modulus (GPa) = 46.02702 77.32196 61.67449
# Shear Modulus (GPa) = 27.84681 46.23569 37.04125
#
# Velocity S-wave (km/s) = 3.26098 4.20194 3.76100
# Velocity P-wave (km/s) = 5.63518 7.28485 6.51246
#
# Compressibility (1/GPa) = 0.02172637
#
# Stress axis : x y z
#
# Youngs Moduli (GPa) = 72.20918 82.19746 67.71255
#
# Poissons Ratio (x) = 0.45778 -0.27571
# Poissons Ratio (y) = 0.40215 0.54379
# Poissons Ratio (z) = -0.29402 0.66011
#
# Static dielectric constant tensor:
#      x y z
#    x 2.797710 0.030750 0.040630 
#    y 0.030750 2.296360 0.041280 
#    z 0.040630 0.041280 1.975820 
# 
# From -- ./inp_files/533571.got.cif
#   From: 2010.05.17/outbox.cif.g08.bks.cpg/sg2_267_cif.got.tgz:533571.got - 2010.06.03 11:33:40.
