data_PCOD9041450
_publ_section_title
;
Structure prediction by ZEFSAII (Michael W. Deem and Ramdas Pophale) SiO2 
 PCOD9041450
Probable space group: P -1
;
_chemical_formula_sum "Si O2"
_cell_formula_units_Z 16
_cell_length_a 9.559394
_cell_length_b 12.035354
_cell_length_c 11.396963
_cell_angle_alpha 50.666489
_cell_angle_beta 88.192256
_cell_angle_gamma 125.133898
_cell_volume 646.448551
_symmetry_space_group_name_H-M "P -1"
_symmetry_group_IT_number 2
_symmetry_cell_setting 'triclinic'
loop_
_space_group_symop_operation_xyz
x,y,z
-x,-y,-z
loop_
_atom_site_type_symbol
_atom_site_label
_atom_site_fract_x
_atom_site_fract_y
_atom_site_fract_z
Si Si1 0.948543 0.142060 0.551876
Si Si2 0.501518 0.902522 0.678624
Si Si3 0.901979 0.300204 0.057682
Si Si4 0.483185 0.588443 0.748868
Si Si5 0.409752 0.275287 0.606666
Si Si6 0.137403 0.235004 0.232996
Si Si7 0.998676 0.199962 0.932172
Si Si8 0.871961 0.549101 0.465522
O O1 0.993346 0.151995 0.407638
O O2 0.132525 0.370880 0.463826
O O3 0.736602 0.071816 0.616044
O O4 0.889717 0.933508 0.725698
O O5 0.348589 0.862544 0.802244
O O6 0.451151 0.703963 0.756223
O O7 0.500000 0.000000 0.500000
O O8 0.028341 0.264384 0.131651
O O9 0.000000 0.500000 0.000000
O O10 0.956991 0.326836 0.903236
O O11 0.620582 0.734815 0.528041
O O12 0.623714 0.590027 0.825425
O O13 0.246686 0.352212 0.862829
O O14 0.500000 0.500000 0.500000
O O15 0.202445 0.053434 0.838132
O O16 0.620312 0.337466 0.573210
O O17 0.009810 0.242363 0.765384
O O18 0.000000 0.500000 0.500000
#
# Coordination Sequence:
#
# PCOD9041450 Si02
#       8
#     2   2   2   2   2   2   2   2
#     4  10  23  44  71 107 140 194 243 303 367 434
#     4  11  21  40  72 101 141 187 235 303 371 439
#     4  12  25  43  69 109 147 186 235 307 376 444
#     4  10  23  46  71 110 142 192 243 303 374 444
#     4  11  26  49  74 103 146 201 249 303 370 441
#     4  10  23  43  76 106 146 186 244 303 375 444
#     4  11  27  48  74 105 154 193 249 304 370 438
#     4  11  28  48  74 107 150 200 256 303 363 445
#
# _framework density 24.750616000000001
#
# number of rings (size 3 to 8) (size 9 to 14) (size 15 to 20)
#    0.000    1.250    2.500    1.500   12.250    3.000 
#    0.000    0.000    0.000    0.000    0.000    0.000 
#    0.000    0.000    0.000    0.000    0.000    0.000 
#
# Total GULP energy -89268.333401 kJ/mol
# GULP energy per Si atom -5579.270838 kJ/mol
# Density = 2.469428 g / cm^3
# Si number density = 24.750616 Si / 1000 Ang^3
#
#
#
# Elastic Constant Matrix: (Units=GPa)
#
#
# Indices 1 2 3 4 5 6 
#
# 1 178.1519 15.9137 23.3714 -9.6765 -8.9337 12.0570
# 2 15.9137 103.1810 2.9337 -4.9415 0.5637 -6.6813
# 3 23.3714 2.9337 93.2831 -16.5564 -17.5952 8.2973
# 4 -9.6765 -4.9415 -16.5564 32.9703 5.1711 -10.6736
# 5 -8.9337 0.5637 -17.5952 5.1711 26.9990 -1.9803
# 6 12.0570 -6.6813 8.2973 -10.6736 -1.9803 37.5880
#
#
#
# Elastic Compliance Matrix: (Units=1/GPa)
#
#
# Indices 1 2 3 4 5 6 
#
# 1 0.006033 -0.001001 -0.001049 0.000359 0.001139 -0.001720
# 2 -0.001001 0.010134 -0.000073 0.002196 -0.000812 0.002719
# 3 -0.001049 -0.000073 0.013319 0.004954 0.007325 -0.000824
# 4 0.000359 0.002196 0.004954 0.036797 -0.003052 0.009470
# 5 0.001139 -0.000812 0.007325 -0.003052 0.042736 -0.000742
# 6 -0.001720 0.002719 -0.000824 0.009470 -0.000742 0.030471
#
#
# Mechanical properties :
#
#
# Convention : Reuss Voigt Hill
#
# Bulk Modulus (GPa) = 39.61838 51.00597 45.31217
# Shear Modulus (GPa) = 32.86233 41.67128 37.26680
#
# Velocity S-wave (km/s) = 3.64777 4.10768 3.88453
# Velocity P-wave (km/s) = 5.81235 6.56887 6.20215
#
# Compressibility (1/GPa) = 0.02524081
#
# Stress axis : x y z
#
# Youngs Moduli (GPa) = 165.75023 98.67895 75.07847
#
# Poissons Ratio (x) = 0.09879 0.07873
# Poissons Ratio (y) = 0.16593 0.00549
# Poissons Ratio (z) = 0.17381 0.00721
#
# Static dielectric constant tensor:
#      x y z
#    x 1.681840 -0.196900 0.246910 
#    y -0.196900 1.950700 0.060980 
#    z 0.246910 0.060980 1.960120 
# 
# From -- ./inp_files/389415.got.cif
#   From: 2010.05.17/outbox.cif.g08.bks.cpg/sg2_195_cif.got.tgz:389415.got - 2010.06.03 11:33:40.
