data_PCOD9041233
_publ_section_title
;
Structure prediction by ZEFSAII (Michael W. Deem and Ramdas Pophale) SiO2 
 PCOD9041233
Probable space group: P -1
;
_chemical_formula_sum "Si O2"
_cell_formula_units_Z 14
_cell_length_a 16.936327
_cell_length_b 9.524217
_cell_length_c 9.432319
_cell_angle_alpha 102.150837
_cell_angle_beta 52.407685
_cell_angle_gamma 58.436596
_cell_volume 636.722092
_symmetry_space_group_name_H-M "P -1"
_symmetry_group_IT_number 2
_symmetry_cell_setting 'triclinic'
loop_
_space_group_symop_operation_xyz
x,y,z
-x,-y,-z
loop_
_atom_site_type_symbol
_atom_site_label
_atom_site_fract_x
_atom_site_fract_y
_atom_site_fract_z
Si Si1 0.131745 0.724704 0.212802
Si Si2 0.448516 0.702874 0.008975
Si Si3 0.881493 0.842206 0.328579
Si Si4 0.348559 0.273253 0.088158
Si Si5 0.951146 0.897012 0.989015
Si Si6 0.755890 0.696972 0.501281
Si Si7 0.652397 0.297750 0.170425
O O1 0.201940 0.511415 0.189947
O O2 0.044998 0.748141 0.178816
O O3 0.301169 0.612868 0.946066
O O4 0.000000 0.000000 0.500000
O O5 0.588615 0.659695 0.881626
O O6 0.420100 0.717357 0.877026
O O7 0.500000 0.500000 0.000000
O O8 0.257255 0.970325 0.349442
O O9 0.826775 0.973888 0.264642
O O10 0.881736 0.669883 0.291336
O O11 0.262651 0.274262 0.300830
O O12 0.540511 0.977368 0.751447
O O13 0.840352 0.027207 0.989782
O O14 0.137852 0.577711 0.709331
O O15 0.000000 0.000000 0.000000
O O16 0.500000 0.500000 0.500000
#
# Coordination Sequence:
#
# PCOD9041233 Si02
#       7
#     2   2   2   2   2   2   2
#     4  12  22  42  71 109 137 181 236 286 339 416
#     4  11  21  40  69  98 136 180 226 285 338 410
#     4  11  24  43  69  98 135 187 230 283 351 407
#     4  10  23  43  71  99 142 180 232 287 348 414
#     4  12  26  45  71  98 141 181 231 292 346 414
#     4  10  25  46  67 100 139 186 231 283 359 412
#     4  12  26  40  66 111 140 173 233 290 350 400
#
# _framework density 21.987617
#
# number of rings (size 3 to 8) (size 9 to 14) (size 15 to 20)
#    0.000    0.857    4.286    2.143    6.000    0.571 
#    5.143    0.714    0.000    0.000    0.000    0.000 
#    0.000    0.000    0.000    0.000    0.000    0.000 
#
# Total GULP energy -78149.799681 kJ/mol
# GULP energy per Si atom -5582.128549 kJ/mol
# Density = 2.193757 g / cm^3
# Si number density = 21.987617 Si / 1000 Ang^3
#
#
#
# Elastic Constant Matrix: (Units=GPa)
#
#
# Indices 1 2 3 4 5 6 
#
# 1 62.0425 19.7464 5.3232 3.8476 10.5317 -5.3204
# 2 19.7464 126.7070 27.0678 9.2984 11.9991 2.3581
# 3 5.3232 27.0678 112.1426 -1.5102 17.9652 9.0154
# 4 3.8476 9.2984 -1.5102 48.2619 5.0184 0.8591
# 5 10.5317 11.9991 17.9652 5.0184 23.4927 -10.4961
# 6 -5.3204 2.3581 9.0154 0.8591 -10.4961 45.1802
#
#
#
# Elastic Compliance Matrix: (Units=1/GPa)
#
#
# Indices 1 2 3 4 5 6 
#
# 1 0.018070 -0.002290 0.000841 -0.000214 -0.007362 0.000373
# 2 -0.002290 0.008938 -0.001593 -0.001315 -0.002472 -0.000968
# 3 0.000841 -0.001593 0.011370 0.001790 -0.010699 -0.004606
# 4 -0.000214 -0.001315 0.001790 0.021731 -0.006213 -0.002170
# 5 -0.007362 -0.002472 -0.010699 -0.006213 0.063953 0.016373
# 6 0.000373 -0.000968 -0.004606 -0.002170 0.016373 0.026992
#
#
# Mechanical properties :
#
#
# Convention : Reuss Voigt Hill
#
# Bulk Modulus (GPa) = 30.96385 45.01856 37.99121
# Shear Modulus (GPa) = 29.77938 39.97060 34.87499
#
# Velocity S-wave (km/s) = 3.68417 4.26827 3.98693
# Velocity P-wave (km/s) = 5.67543 6.69401 6.20565
#
# Compressibility (1/GPa) = 0.03229573
#
# Stress axis : x y z
#
# Youngs Moduli (GPa) = 55.34172 111.88303 87.95049
#
# Poissons Ratio (x) = 0.25619 -0.07401
# Poissons Ratio (y) = 0.12672 0.14006
# Poissons Ratio (z) = -0.04657 0.17817
#
# Static dielectric constant tensor:
#      x y z
#    x 3.210450 1.379630 0.098000 
#    y 1.379630 3.213320 0.154070 
#    z 0.098000 0.154070 1.908120 
# 
# From -- ./inp_files/208759.got.cif
#   From: 2010.05.17/outbox.cif.g08.bks.cpg/sg2_105_cif.got.tgz:208759.got - 2010.06.03 11:33:40.
