data_PCOD9041631
_publ_section_title
;
Structure prediction by ZEFSAII (Michael W. Deem and Ramdas Pophale) SiO2 
 PCOD9041631
Probable space group: P -1
;
_chemical_formula_sum "Si O2"
_cell_formula_units_Z 16
_cell_length_a 12.916984
_cell_length_b 5.096158
_cell_length_c 10.709585
_cell_angle_alpha 100.657748
_cell_angle_beta 103.963978
_cell_angle_gamma 90.800748
_cell_volume 671.073480
_symmetry_space_group_name_H-M "P -1"
_symmetry_group_IT_number 2
_symmetry_cell_setting 'triclinic'
loop_
_space_group_symop_operation_xyz
x,y,z
-x,-y,-z
loop_
_atom_site_type_symbol
_atom_site_label
_atom_site_fract_x
_atom_site_fract_y
_atom_site_fract_z
Si Si1 0.213738 0.191778 0.340258
Si Si2 0.698400 0.946023 0.038675
Si Si3 0.891267 0.300373 0.202794
Si Si4 0.758234 0.377683 0.403574
Si Si5 0.629486 0.839257 0.289476
Si Si6 0.965584 0.191793 0.800542
Si Si7 0.387188 0.919897 0.236576
Si Si8 0.803025 0.514406 0.892286
O O1 0.209922 0.431630 0.455759
O O2 0.175575 0.294627 0.203773
O O3 0.132208 0.938442 0.324134
O O4 0.333700 0.108500 0.338830
O O5 0.641067 0.885665 0.147576
O O6 0.776746 0.212939 0.097669
O O7 0.775983 0.710475 0.011607
O O8 0.623266 0.962151 0.896965
O O9 0.857469 0.315221 0.339509
O O10 0.958089 0.573537 0.215074
O O11 0.963636 0.055039 0.174915
O O12 0.679669 0.564222 0.318604
O O13 0.696874 0.093934 0.391141
O O14 0.506471 0.849683 0.291309
O O15 0.901408 0.323388 0.907463
O O16 0.304360 0.663113 0.185664
#
# Coordination Sequence:
#
# PCOD9041631 Si02
#       8
#     2   2   2   2   2   2   2   2
#     4  10  24  47  66 100 137 175 224 272 332 389
#     4  10  24  43  68  99 140 171 218 280 328 396
#     4  11  24  43  66 101 132 172 223 274 333 388
#     4  11  27  45  69  98 139 171 222 285 321 396
#     4  11  26  45  70 103 130 177 222 270 342 390
#     4  11  23  44  68  98 131 176 226 267 334 395
#     4  10  24  43  71  98 136 176 222 271 333 399
#     4  10  23  44  66 100 133 181 220 275 323 397
#
# _framework density 23.842395
#
# number of rings (size 3 to 8) (size 9 to 14) (size 15 to 20)
#    0.000    1.500    1.250    1.875   12.250    3.500 
#    0.000    0.000    0.000    0.000    0.000    0.000 
#    0.000    0.000    0.000    0.000    0.000    0.000 
#
# Total GULP energy -89529.280142 kJ/mol
# GULP energy per Si atom -5595.580009 kJ/mol
# Density = 2.378813 g / cm^3
# Si number density = 23.842395 Si / 1000 Ang^3
#
#
#
# Elastic Constant Matrix: (Units=GPa)
#
#
# Indices 1 2 3 4 5 6 
#
# 1 119.5333 37.6857 9.6064 5.6344 2.6542 -1.8580
# 2 37.6857 109.4258 14.6030 12.2977 -6.7410 -12.8723
# 3 9.6064 14.6030 33.8080 27.8055 -2.3525 4.4188
# 4 5.6344 12.2977 27.8055 38.4044 -5.5219 1.4371
# 5 2.6542 -6.7410 -2.3525 -5.5219 14.9222 -0.5813
# 6 -1.8580 -12.8723 4.4188 1.4371 -0.5813 31.4072
#
#
#
# Elastic Compliance Matrix: (Units=1/GPa)
#
#
# Indices 1 2 3 4 5 6 
#
# 1 0.009631 -0.003414 -0.001905 0.000601 -0.003359 -0.000651
# 2 -0.003414 0.011920 -0.005654 0.001410 0.005837 0.005522
# 3 -0.001905 -0.005654 0.080388 -0.057297 -0.011186 -0.011325
# 4 0.000601 0.001410 -0.057297 0.069260 0.017354 0.005827
# 5 -0.003359 0.005837 -0.011186 0.017354 0.075077 0.004363
# 6 -0.000651 0.005522 -0.011325 0.005827 0.004363 0.035472
#
#
# Mechanical properties :
#
#
# Convention : Reuss Voigt Hill
#
# Bulk Modulus (GPa) = 12.50095 42.95079 27.72587
# Shear Modulus (GPa) = 15.13512 30.33825 22.73668
#
# Velocity S-wave (km/s) = 2.52225 3.57101 3.09143
# Velocity P-wave (km/s) = 3.70633 5.92084 4.93930
#
# Compressibility (1/GPa) = 0.07999394
#
# Stress axis : x y z
#
# Youngs Moduli (GPa) = 103.82740 83.89565 12.43966
#
# Poissons Ratio (x) = 0.28640 0.02369
# Poissons Ratio (y) = 0.35444 0.07033
# Poissons Ratio (z) = 0.19777 0.47435
#
# Static dielectric constant tensor:
#      x y z
#    x 1.864670 -0.015530 0.025040 
#    y -0.015530 1.932790 -0.058150 
#    z 0.025040 -0.058150 1.954700 
# 
# From -- ./inp_files/408756.got.cif
#   From: 2010.05.17/outbox.cif.g08.bks.cpg/sg2_205_cif.got.tgz:408756.got - 2010.06.03 11:33:40.
