data_PCOD9041451
_publ_section_title
;
Structure prediction by ZEFSAII (Michael W. Deem and Ramdas Pophale) SiO2 
 PCOD9041451
Probable space group: P -1
;
_chemical_formula_sum "Si O2"
_cell_formula_units_Z 14
_cell_length_a 13.827834
_cell_length_b 12.996576
_cell_length_c 9.868862
_cell_angle_alpha 142.651178
_cell_angle_beta 142.904034
_cell_angle_gamma 30.783974
_cell_volume 511.748093
_symmetry_space_group_name_H-M "P -1"
_symmetry_group_IT_number 2
_symmetry_cell_setting 'triclinic'
loop_
_space_group_symop_operation_xyz
x,y,z
-x,-y,-z
loop_
_atom_site_type_symbol
_atom_site_label
_atom_site_fract_x
_atom_site_fract_y
_atom_site_fract_z
Si Si1 0.979791 0.342314 0.227776
Si Si2 0.498918 0.642278 0.969835
Si Si3 0.359676 0.109658 0.229282
Si Si4 0.271126 0.678503 0.512140
Si Si5 0.182424 0.014179 0.555248
Si Si6 0.710891 0.101675 0.741812
Si Si7 0.766588 0.662460 0.953541
O O1 0.000000 0.500000 0.500000
O O2 0.124003 0.267684 0.179585
O O3 0.740400 0.476801 0.080711
O O4 0.100522 0.121056 0.214989
O O5 0.415668 0.566975 0.686741
O O6 0.371537 0.717535 0.046609
O O7 0.433334 0.868856 0.073760
O O8 0.508951 0.118938 0.503657
O O9 0.355121 0.192053 0.161505
O O10 0.285875 0.499678 0.249962
O O11 0.050139 0.834701 0.497920
O O12 0.710072 0.166902 0.397888
O O13 0.212213 0.907990 0.332933
O O14 0.241211 0.175918 0.781232
O O15 0.000000 0.500000 0.000000
#
# Coordination Sequence:
#
# PCOD9041451 Si02
#       7
#     2   2   2   2   2   2   2
#     4  11  21  40  75 114 148 200 259 314 383 467
#     4  11  22  44  76 113 156 195 257 322 384 461
#     4  11  22  43  73 113 149 197 261 314 384 458
#     4  10  23  46  76 109 155 202 257 321 383 458
#     4  10  23  47  76 106 156 204 254 319 385 459
#     4  11  24  42  77 112 149 207 253 315 395 454
#     4  10  23  43  76 107 149 202 258 309 383 465
#
# _framework density 27.357213000000002
#
# number of rings (size 3 to 8) (size 9 to 14) (size 15 to 20)
#    0.000    1.429    4.286    0.857    4.000    1.143 
#    2.571    6.429    6.286    0.000    0.000    0.000 
#    0.000    0.000    0.000    0.000    0.000    0.000 
#
# Total GULP energy -78531.856585 kJ/mol
# GULP energy per Si atom -5609.418328 kJ/mol
# Density = 2.729495 g / cm^3
# Si number density = 27.357213 Si / 1000 Ang^3
#
#
#
# Elastic Constant Matrix: (Units=GPa)
#
#
# Indices 1 2 3 4 5 6 
#
# 1 135.9684 51.9690 41.5303 18.3475 -24.3298 -16.1799
# 2 51.9690 237.5209 58.2536 -8.9570 -5.6656 -25.9645
# 3 41.5303 58.2536 142.0057 9.9351 -10.8096 10.5782
# 4 18.3475 -8.9570 9.9351 52.9472 12.1007 10.4768
# 5 -24.3298 -5.6656 -10.8096 12.1007 35.4186 0.3186
# 6 -16.1799 -25.9645 10.5782 10.4768 0.3186 50.4359
#
#
#
# Elastic Compliance Matrix: (Units=1/GPa)
#
#
# Indices 1 2 3 4 5 6 
#
# 1 0.011838 -0.001639 -0.001905 -0.007185 0.009700 0.004784
# 2 -0.001639 0.005380 -0.002143 0.001772 -0.001546 0.002335
# 3 -0.001905 -0.002143 0.008913 -0.001039 0.001454 -0.003377
# 4 -0.007185 0.001772 -0.001039 0.026349 -0.013913 -0.006561
# 5 0.009700 -0.001546 0.001454 -0.013913 0.039805 0.004649
# 6 0.004784 0.002335 -0.003377 -0.006561 0.004649 0.024606
#
#
# Mechanical properties :
#
#
# Convention : Reuss Voigt Hill
#
# Bulk Modulus (GPa) = 67.76890 91.00011 79.38450
# Shear Modulus (GPa) = 37.54247 52.00983 44.77615
#
# Velocity S-wave (km/s) = 3.70848 4.36493 4.05003
# Velocity P-wave (km/s) = 6.56984 7.66416 7.13800
#
# Compressibility (1/GPa) = 0.01475603
#
# Stress axis : x y z
#
# Youngs Moduli (GPa) = 84.47625 185.88848 112.19522
#
# Poissons Ratio (x) = 0.30476 0.21370
# Poissons Ratio (y) = 0.13850 0.24042
# Poissons Ratio (z) = 0.16091 0.39833
#
# Static dielectric constant tensor:
#      x y z
#    x 2.188400 -0.022780 0.048070 
#    y -0.022780 2.053370 -0.005660 
#    z 0.048070 -0.005660 2.119000 
# 
# From -- ./inp_files/370203.got.cif
#   From: 2010.05.17/outbox.cif.g08.bks.cpg/sg2_186_cif.got.tgz:370203.got - 2010.06.03 11:33:40.
