data_PCOD9041346
_publ_section_title
;
Structure prediction by ZEFSAII (Michael W. Deem and Ramdas Pophale) SiO2 
 PCOD9041346
Probable space group: P -1
;
_chemical_formula_sum "Si O2"
_cell_formula_units_Z 16
_cell_length_a 9.049273
_cell_length_b 11.457967
_cell_length_c 9.599035
_cell_angle_alpha 53.807504
_cell_angle_beta 71.866031
_cell_angle_gamma 57.062342
_cell_volume 674.054165
_symmetry_space_group_name_H-M "P -1"
_symmetry_group_IT_number 2
_symmetry_cell_setting 'triclinic'
loop_
_space_group_symop_operation_xyz
x,y,z
-x,-y,-z
loop_
_atom_site_type_symbol
_atom_site_label
_atom_site_fract_x
_atom_site_fract_y
_atom_site_fract_z
Si Si1 0.045098 0.225912 0.156325
Si Si2 0.219124 0.548968 0.709170
Si Si3 0.574502 0.842268 0.797339
Si Si4 0.516284 0.797181 0.538957
Si Si5 0.029605 0.816302 0.107391
Si Si6 0.210105 0.856555 0.409065
Si Si7 0.161627 0.358688 0.628635
Si Si8 0.601127 0.276989 0.833490
O O1 0.231472 0.215914 0.153893
O O2 0.890158 0.379604 0.169457
O O3 0.070666 0.046024 0.321497
O O4 0.999249 0.227551 0.008233
O O5 0.155002 0.713533 0.518669
O O6 0.173807 0.421464 0.733553
O O7 0.429454 0.449572 0.735368
O O8 0.570374 0.758361 0.710987
O O9 0.504698 0.028106 0.633245
O O10 0.458503 0.814099 0.968816
O O11 0.329503 0.811230 0.544218
O O12 0.665801 0.672579 0.482691
O O13 0.230503 0.708102 0.172238
O O14 0.883437 0.791151 0.252791
O O15 0.000000 0.000000 0.000000
O O16 0.332521 0.826958 0.256521
O O17 0.000000 0.500000 0.500000
#
# Coordination Sequence:
#
# PCOD9041346 Si02
#       8
#     2   2   2   2   2   2   2   2
#     4  11  26  47  75 104 149 197 245 305 361 444
#     4  12  27  47  71 111 151 192 243 305 379 429
#     4  10  24  46  73 106 143 191 248 296 370 437
#     4  10  23  43  73 106 144 192 243 302 360 446
#     4  12  27  47  74 111 145 198 252 299 364 444
#     4  11  24  46  76 105 145 198 248 301 360 445
#     4  12  26  43  74 105 153 191 243 305 371 439
#     4  12  25  45  76 105 147 188 245 306 366 434
#
# _framework density 23.736965000000001
#
# number of rings (size 3 to 8) (size 9 to 14) (size 15 to 20)
#    0.000    0.750    2.500    3.750    3.500    4.500 
#    4.500    0.000    0.000    0.000    0.000    0.000 
#    0.000    0.000    0.000    0.000    0.000    0.000 
#
# Total GULP energy -89512.019052 kJ/mol
# GULP energy per Si atom -5594.501191 kJ/mol
# Density = 2.368294 g / cm^3
# Si number density = 23.736965 Si / 1000 Ang^3
#
#
#
# Elastic Constant Matrix: (Units=GPa)
#
#
# Indices 1 2 3 4 5 6 
#
# 1 132.3053 31.8672 33.6731 7.8950 23.2950 1.5547
# 2 31.8672 106.3579 15.0890 7.9776 11.8152 -1.2745
# 3 33.6731 15.0890 69.4852 16.3661 8.1228 18.5040
# 4 7.8950 7.9776 16.3661 44.3988 10.4025 2.5082
# 5 23.2950 11.8152 8.1228 10.4025 54.1577 -7.2171
# 6 1.5547 -1.2745 18.5040 2.5082 -7.2171 37.5594
#
#
#
# Elastic Compliance Matrix: (Units=1/GPa)
#
#
# Indices 1 2 3 4 5 6 
#
# 1 0.009622 -0.001977 -0.004362 0.000919 -0.003093 0.001028
# 2 -0.001977 0.010348 -0.001212 -0.000894 -0.000932 0.000911
# 3 -0.004362 -0.001212 0.020967 -0.005885 -0.001210 -0.010030
# 4 0.000919 -0.000894 -0.005885 0.025657 -0.004204 0.000310
# 5 -0.003093 -0.000932 -0.001210 -0.004204 0.021672 0.005138
# 6 0.001028 0.000911 -0.010030 0.000310 0.005138 0.032521
#
#
# Mechanical properties :
#
#
# Convention : Reuss Voigt Hill
#
# Bulk Modulus (GPa) = 38.70739 52.15635 45.43187
# Shear Modulus (GPa) = 34.60145 42.39113 38.49629
#
# Velocity S-wave (km/s) = 3.82213 4.23054 4.03151
# Velocity P-wave (km/s) = 5.98502 6.77374 6.39156
#
# Compressibility (1/GPa) = 0.02583486
#
# Stress axis : x y z
#
# Youngs Moduli (GPa) = 103.92396 96.63610 47.69306
#
# Poissons Ratio (x) = 0.19107 0.20806
# Poissons Ratio (y) = 0.20548 0.05780
# Poissons Ratio (z) = 0.45336 0.11711
#
# Static dielectric constant tensor:
#      x y z
#    x 1.508160 -0.154990 0.066360 
#    y -0.154990 1.819190 0.028380 
#    z 0.066360 0.028380 1.905300 
# 
# From -- ./inp_files/185043.got.cif
#   From: 2010.05.17/outbox.cif.g08.bks.cpg/sg2_93_cif.got.tgz:185043.got - 2010.06.03 11:33:40.
