data_PCOD9041023
_publ_section_title
;
Structure prediction by ZEFSAII (Michael W. Deem and Ramdas Pophale) SiO2 
 PCOD9041023
Probable space group: P -1
;
_chemical_formula_sum "Si O2"
_cell_formula_units_Z 13
_cell_length_a 14.263700
_cell_length_b 9.910140
_cell_length_c 5.400693
_cell_angle_alpha 116.295558
_cell_angle_beta 60.591994
_cell_angle_gamma 119.534019
_cell_volume 557.924816
_symmetry_space_group_name_H-M "P -1"
_symmetry_group_IT_number 2
_symmetry_cell_setting 'triclinic'
loop_
_space_group_symop_operation_xyz
x,y,z
-x,-y,-z
loop_
_atom_site_type_symbol
_atom_site_label
_atom_site_fract_x
_atom_site_fract_y
_atom_site_fract_z
Si Si1 0.085640 0.122493 0.300620
Si Si2 0.247882 0.418614 0.633364
Si Si3 0.500000 0.500000 0.500000
Si Si4 0.719257 0.983865 0.236362
Si Si5 0.851592 0.347562 0.304425
Si Si6 0.075013 0.370877 0.178802
Si Si7 0.429455 0.123557 0.163270
O O1 0.181974 0.265610 0.432888
O O2 0.022113 0.218672 0.301838
O O3 0.160781 0.044522 0.980647
O O4 0.000000 0.000000 0.500000
O O5 0.381596 0.467442 0.480660
O O6 0.201733 0.560310 0.739465
O O7 0.196842 0.365062 0.927095
O O8 0.500067 0.314737 0.256523
O O9 0.657977 0.914961 0.518683
O O10 0.757915 0.176322 0.339424
O O11 0.636919 0.914104 0.046973
O O12 0.886765 0.459838 0.592985
O O13 0.978379 0.345346 0.071791
O O14 0.500000 0.000000 0.000000
#
# Coordination Sequence:
#
# PCOD9041023 Si02
#       7
#     2   2   1   2   2   2   2
#     4  11  25  43  73 108 151 194 255 320 397 472
#     4  11  23  46  67 109 143 201 254 313 393 471
#     4  12  26  48  80 106 162 204 262 324 388 474
#     4  12  27  49  74 112 153 197 263 322 395 466
#     4  10  24  41  73 104 148 192 251 326 392 472
#     4  10  23  43  70 108 143 198 252 318 400 468
#     4  12  29  52  77 115 151 209 267 324 391 468
#
# _framework density 23.300630000000002
#
# number of rings (size 3 to 8) (size 9 to 14) (size 15 to 20)
#    0.000    0.923    1.538    3.692    6.462    3.077 
#    2.769    0.000    0.000    0.000    0.000    0.000 
#    0.000    0.000    0.000    0.000    0.000    0.000 
#
# Total GULP energy -72373.060387 kJ/mol
# GULP energy per Si atom -5567.158491 kJ/mol
# Density = 2.324760 g / cm^3
# Si number density = 23.300630 Si / 1000 Ang^3
#
#
#
# Elastic Constant Matrix: (Units=GPa)
#
#
# Indices 1 2 3 4 5 6 
#
# 1 118.6812 35.4328 12.2996 17.2451 2.3605 4.6627
# 2 35.4328 104.2950 19.3103 29.1743 14.0380 -11.1944
# 3 12.2996 19.3103 91.3201 7.4755 2.4529 -2.8189
# 4 17.2451 29.1743 7.4755 36.0378 -1.5996 0.7896
# 5 2.3605 14.0380 2.4529 -1.5996 37.9116 14.0008
# 6 4.6627 -11.1944 -2.8189 0.7896 14.0008 21.3783
#
#
#
# Elastic Compliance Matrix: (Units=1/GPa)
#
#
# Indices 1 2 3 4 5 6 
#
# 1 0.010089 -0.004196 -0.000688 -0.000992 0.003392 -0.006673
# 2 -0.004196 0.020000 -0.001317 -0.015101 -0.015886 0.022176
# 3 -0.000688 -0.001317 0.011479 -0.001057 -0.000832 0.001558
# 4 -0.000992 -0.015101 -0.001057 0.041721 0.014434 -0.018825
# 5 0.003392 -0.015886 -0.000832 0.014434 0.047872 -0.041053
# 6 -0.006673 0.022176 0.001558 -0.018825 -0.041053 0.087631
#
#
# Mechanical properties :
#
#
# Convention : Reuss Voigt Hill
#
# Bulk Modulus (GPa) = 34.28462 49.82017 42.05240
# Shear Modulus (GPa) = 20.75441 35.54911 28.15176
#
# Velocity S-wave (km/s) = 2.98774 3.91022 3.47968
# Velocity P-wave (km/s) = 5.16218 6.46640 5.85074
#
# Compressibility (1/GPa) = 0.02916759
#
# Stress axis : x y z
#
# Youngs Moduli (GPa) = 99.12168 49.99987 87.11936
#
# Poissons Ratio (x) = 0.20978 0.05990
# Poissons Ratio (y) = 0.41588 0.11470
# Poissons Ratio (z) = 0.06815 0.06583
#
# Static dielectric constant tensor:
#      x y z
#    x 1.904730 -0.084960 0.000340 
#    y -0.084960 1.925640 0.011440 
#    z 0.000340 0.011440 2.263130 
# 
# From -- ./inp_files/23897.got.cif
#   From: 2010.05.17/outbox.cif.g08.bks.cpg/sg2_12_cif.got.tgz:23897.got - 2010.06.03 11:33:40.
