data_PCOD9041100
_publ_section_title
;
Structure prediction by ZEFSAII (Michael W. Deem and Ramdas Pophale) SiO2 
 PCOD9041100
Probable space group: P -1
;
_chemical_formula_sum "Si O2"
_cell_formula_units_Z 14
_cell_length_a 17.819010
_cell_length_b 7.744825
_cell_length_c 5.755290
_cell_angle_alpha 72.151187
_cell_angle_beta 91.902520
_cell_angle_gamma 135.160948
_cell_volume 512.635048
_symmetry_space_group_name_H-M "P -1"
_symmetry_group_IT_number 2
_symmetry_cell_setting 'triclinic'
loop_
_space_group_symop_operation_xyz
x,y,z
-x,-y,-z
loop_
_atom_site_type_symbol
_atom_site_label
_atom_site_fract_x
_atom_site_fract_y
_atom_site_fract_z
Si Si1 0.024434 0.261138 0.701653
Si Si2 0.684968 0.491147 0.922965
Si Si3 0.561162 0.605997 0.709487
Si Si4 0.182574 0.294229 0.545005
Si Si5 0.798705 0.969988 0.038471
Si Si6 0.907704 0.485077 0.915133
Si Si7 0.621447 0.124210 0.427064
O O1 0.062913 0.124852 0.709248
O O2 0.055044 0.392409 0.393604
O O3 0.099580 0.433377 0.867131
O O4 0.903190 0.107595 0.827026
O O5 0.615448 0.499338 0.747326
O O6 0.800379 0.646004 0.747767
O O7 0.704908 0.675850 0.048638
O O8 0.639329 0.223413 0.123164
O O9 0.500000 0.500000 0.500000
O O10 0.623491 0.914325 0.576439
O O11 0.500000 0.500000 0.000000
O O12 0.279971 0.593676 0.539826
O O13 0.189762 0.094691 0.679751
O O14 0.794319 0.174419 0.978550
O O15 0.000000 0.500000 0.000000
O O16 0.500000 0.000000 0.500000
#
# Coordination Sequence:
#
# PCOD9041100 Si02
#       7
#     2   2   2   2   2   2   2
#     4  11  25  45  70 104 144 197 247 298 370 428
#     4  11  27  47  74 114 149 198 249 305 378 443
#     4  12  28  50  82 110 143 199 247 304 381 447
#     4  11  27  43  70 107 143 196 245 306 365 442
#     4  10  24  44  70 101 150 193 242 309 362 441
#     4  10  23  43  70  99 139 195 248 303 360 426
#     4  11  25  50  75 105 151 187 247 311 373 443
#
# _framework density 27.309875999999999
#
# number of rings (size 3 to 8) (size 9 to 14) (size 15 to 20)
#    0.000    1.143    1.429    3.000   16.000    1.714 
#    0.000    0.000    0.000    0.000    0.000    0.000 
#    0.000    0.000    0.000    0.000    0.000    0.000 
#
# Total GULP energy -77960.435487 kJ/mol
# GULP energy per Si atom -5568.602535 kJ/mol
# Density = 2.724772 g / cm^3
# Si number density = 27.309876 Si / 1000 Ang^3
#
#
#
# Elastic Constant Matrix: (Units=GPa)
#
#
# Indices 1 2 3 4 5 6 
#
# 1 88.2097 12.9670 50.6468 -0.4375 -11.6611 -3.5013
# 2 12.9670 126.8759 49.1928 3.2898 18.6364 -5.1828
# 3 50.6468 49.1928 214.7926 3.2243 7.4572 -15.8922
# 4 -0.4375 3.2898 3.2243 46.6863 -1.9768 7.9163
# 5 -11.6611 18.6364 7.4572 -1.9768 58.1008 0.6104
# 6 -3.5013 -5.1828 -15.8922 7.9163 0.6104 20.0947
#
#
#
# Elastic Compliance Matrix: (Units=1/GPa)
#
#
# Indices 1 2 3 4 5 6 
#
# 1 0.013740 -0.000689 -0.003266 0.000673 0.003429 -0.000735
# 2 -0.000689 0.009117 -0.001716 -0.000874 -0.002886 0.001307
# 3 -0.003266 -0.001716 0.006192 -0.001118 -0.000984 0.004355
# 4 0.000673 -0.000874 -0.001118 0.023363 0.001461 -0.010240
# 5 0.003429 -0.002886 -0.000984 0.001461 0.019023 -0.002078
# 6 -0.000735 0.001307 0.004355 -0.010240 -0.002078 0.057515
#
#
# Mechanical properties :
#
#
# Convention : Reuss Voigt Hill
#
# Bulk Modulus (GPa) = 56.46976 72.83235 64.65105
# Shear Modulus (GPa) = 34.20110 46.11445 40.15777
#
# Velocity S-wave (km/s) = 3.54267 4.11367 3.83880
# Velocity P-wave (km/s) = 6.12016 7.02067 6.58582
#
# Compressibility (1/GPa) = 0.01770859
#
# Stress axis : x y z
#
# Youngs Moduli (GPa) = 72.77857 109.68162 161.50545
#
# Poissons Ratio (x) = 0.07560 0.52741
# Poissons Ratio (y) = 0.05016 0.27707
# Poissons Ratio (z) = 0.23766 0.18817
#
# Static dielectric constant tensor:
#      x y z
#    x 2.442920 0.058240 0.090480 
#    y 0.058240 2.364260 0.013190 
#    z 0.090480 0.013190 2.172800 
# 
# From -- ./inp_files/122476.got.cif
#   From: 2010.05.17/outbox.cif.g08.bks.cpg/sg2_62_cif.got.tgz:122476.got - 2010.06.03 11:33:40.
