data_PCOD9041603
_publ_section_title
;
Structure prediction by ZEFSAII (Michael W. Deem and Ramdas Pophale) SiO2 
 PCOD9041603
Probable space group: P -1
;
_chemical_formula_sum "Si O2"
_cell_formula_units_Z 14
_cell_length_a 20.247638
_cell_length_b 12.007347
_cell_length_c 16.158962
_cell_angle_alpha 153.053268
_cell_angle_beta 161.568228
_cell_angle_gamma 34.668031
_cell_volume 555.428310
_symmetry_space_group_name_H-M "P -1"
_symmetry_group_IT_number 2
_symmetry_cell_setting 'triclinic'
loop_
_space_group_symop_operation_xyz
x,y,z
-x,-y,-z
loop_
_atom_site_type_symbol
_atom_site_label
_atom_site_fract_x
_atom_site_fract_y
_atom_site_fract_z
Si Si1 0.569403 0.359832 0.135245
Si Si2 0.978661 0.508836 0.291781
Si Si3 0.473893 0.176509 0.217244
Si Si4 0.057460 0.710148 0.071993
Si Si5 0.432857 0.807286 0.364161
Si Si6 0.652254 0.622635 0.637932
Si Si7 0.099584 0.259115 0.487236
O O1 0.531077 0.569018 0.292715
O O2 0.768709 0.462509 0.383448
O O3 0.346057 0.303537 0.785513
O O4 0.603628 0.116302 0.065966
O O5 0.918773 0.727158 0.424374
O O6 0.942255 0.475523 0.127932
O O7 0.818587 0.268820 0.975876
O O8 0.714061 0.218665 0.567087
O O9 0.500551 0.353373 0.286018
O O10 0.328571 0.286241 0.184292
O O11 0.003310 0.982698 0.160465
O O12 0.874036 0.608635 0.850669
O O13 0.539023 0.833946 0.598041
O O14 0.500000 0.000000 0.500000
O O15 0.000000 0.500000 0.500000
#
# Coordination Sequence:
#
# PCOD9041603 Si02
#       7
#     2   2   2   2   2   2   2
#     4  10  23  44  65  95 133 178 222 284 343 397
#     4  11  23  44  66  97 135 178 228 275 350 397
#     4  10  23  44  69  98 136 177 227 286 341 404
#     4  11  22  42  70  97 134 179 225 281 343 405
#     4  11  25  42  65  99 137 175 230 283 334 412
#     4  11  22  42  70  98 133 181 230 279 340 405
#     4  10  25  41  62  99 136 176 232 280 329 410
#
# _framework density 25.205773000000001
#
# number of rings (size 3 to 8) (size 9 to 14) (size 15 to 20)
#    0.000    1.429    2.857    1.286    4.000    3.429 
#    0.000    0.714    0.000    0.000    0.000    0.000 
#    0.000    0.000    0.000    0.000    0.000    0.000 
#
# Total GULP energy -78192.964585 kJ/mol
# GULP energy per Si atom -5585.211756 kJ/mol
# Density = 2.514840 g / cm^3
# Si number density = 25.205773 Si / 1000 Ang^3
#
#
#
# Elastic Constant Matrix: (Units=GPa)
#
#
# Indices 1 2 3 4 5 6 
#
# 1 127.1980 35.0437 54.6342 3.2592 35.2014 -3.4712
# 2 35.0437 109.3731 32.1852 15.6022 14.4502 7.3064
# 3 54.6342 32.1852 125.4089 -13.4594 47.9241 -3.3105
# 4 3.2592 15.6022 -13.4594 33.7489 -10.6405 3.5941
# 5 35.2014 14.4502 47.9241 -10.6405 54.3699 -0.9749
# 6 -3.4712 7.3064 -3.3105 3.5941 -0.9749 41.2469
#
#
#
# Elastic Compliance Matrix: (Units=1/GPa)
#
#
# Indices 1 2 3 4 5 6 
#
# 1 0.010960 -0.001704 -0.002826 -0.003008 -0.004720 0.001148
# 2 -0.001704 0.011612 -0.002599 -0.006345 -0.000968 -0.001879
# 3 -0.002826 -0.002599 0.013657 0.004097 -0.008702 0.000756
# 4 -0.003008 -0.006345 0.004097 0.036963 0.007224 -0.001850
# 5 -0.004720 -0.000968 -0.008702 0.007224 0.030775 -0.000826
# 6 0.001148 -0.001879 0.000756 -0.001850 -0.000826 0.024876
#
#
# Mechanical properties :
#
#
# Convention : Reuss Voigt Hill
#
# Bulk Modulus (GPa) = 45.51240 67.30069 56.40655
# Shear Modulus (GPa) = 33.23925 41.88091 37.56008
#
# Velocity S-wave (km/s) = 3.63535 4.08065 3.86442
# Velocity P-wave (km/s) = 5.97634 6.99719 6.50682
#
# Compressibility (1/GPa) = 0.02197203
#
# Stress axis : x y z
#
# Youngs Moduli (GPa) = 91.24334 86.11633 73.22155
#
# Poissons Ratio (x) = 0.14673 0.20693
# Poissons Ratio (y) = 0.15547 0.19027
# Poissons Ratio (z) = 0.25787 0.22378
#
# Static dielectric constant tensor:
#      x y z
#    x 2.152080 0.172970 -0.094120 
#    y 0.172970 2.169280 -0.035120 
#    z -0.094120 -0.035120 2.041860 
# 
# From -- ./inp_files/556346.got.cif
#   From: 2010.05.17/outbox.cif.g08.bks.cpg/sg2_279_cif.got.tgz:556346.got - 2010.06.03 11:33:40.
