data_PCOD9041172
_publ_section_title
;
Structure prediction by ZEFSAII (Michael W. Deem and Ramdas Pophale) SiO2 
 PCOD9041172
Probable space group: P -1
;
_chemical_formula_sum "Si O2"
_cell_formula_units_Z 16
_cell_length_a 14.447123
_cell_length_b 15.193242
_cell_length_c 5.640825
_cell_angle_alpha 59.884770
_cell_angle_beta 61.284263
_cell_angle_gamma 43.305447
_cell_volume 720.586926
_symmetry_space_group_name_H-M "P -1"
_symmetry_group_IT_number 2
_symmetry_cell_setting 'triclinic'
loop_
_space_group_symop_operation_xyz
x,y,z
-x,-y,-z
loop_
_atom_site_type_symbol
_atom_site_label
_atom_site_fract_x
_atom_site_fract_y
_atom_site_fract_z
Si Si1 0.027090 0.601597 0.872782
Si Si2 0.459734 0.767783 0.540057
Si Si3 0.981979 0.928365 0.915775
Si Si4 0.596787 0.841475 0.588679
Si Si5 0.768724 0.191431 0.531276
Si Si6 0.441344 0.612528 0.119200
Si Si7 0.654047 0.602486 0.154226
Si Si8 0.899051 0.754679 0.324556
O O1 0.186009 0.511283 0.867929
O O2 0.981586 0.676093 0.572926
O O3 0.000000 0.500000 0.000000
O O4 0.953491 0.687500 0.086718
O O5 0.525043 0.830856 0.465602
O O6 0.345267 0.817235 0.417014
O O7 0.594205 0.631513 0.452076
O O8 0.397451 0.743246 0.864387
O O9 0.134058 0.811904 0.776130
O O10 0.879064 0.049415 0.704647
O O11 0.906527 0.871972 0.159326
O O12 0.000000 0.000000 0.000000
O O13 0.750127 0.792941 0.463383
O O14 0.500000 0.000000 0.500000
O O15 0.610226 0.739743 0.904216
O O16 0.686270 0.319731 0.632965
O O17 0.575772 0.563723 0.161697
O O18 0.500000 0.500000 0.000000
#
# Coordination Sequence:
#
# PCOD9041172 Si02
#       8
#     2   2   2   2   2   2   2   2
#     4  12  26  50  76 109 159 194 260 314 382 468
#     4  10  23  44  69 102 144 186 240 309 374 438
#     4  11  27  48  73 107 152 200 261 316 389 455
#     4  11  26  44  73 108 143 189 248 304 380 453
#     4  10  24  46  72 102 153 194 245 323 380 450
#     4  10  23  43  71 106 145 189 255 305 382 451
#     4  10  24  44  70 106 142 200 234 316 374 442
#     4  12  30  47  80 115 145 211 252 313 395 460
#
# _framework density 22.20412
#
# number of rings (size 3 to 8) (size 9 to 14) (size 15 to 20)
#    0.000    1.250    1.250    1.875   14.000    5.500 
#    0.000    0.000    0.000    0.000    0.000    0.000 
#    0.000    0.000    0.000    0.000    0.000    0.000 
#
# Total GULP energy -89119.902783 kJ/mol
# GULP energy per Si atom -5569.993924 kJ/mol
# Density = 2.215358 g / cm^3
# Si number density = 22.204120 Si / 1000 Ang^3
#
#
#
# Elastic Constant Matrix: (Units=GPa)
#
#
# Indices 1 2 3 4 5 6 
#
# 1 30.4670 60.0615 7.3816 23.0060 -5.1984 12.9406
# 2 60.0615 96.3452 37.6892 10.3215 7.3373 1.0137
# 3 7.3816 37.6892 79.5908 2.0937 -4.5240 9.5883
# 4 23.0060 10.3215 2.0937 35.6419 1.6763 -2.7542
# 5 -5.1984 7.3373 -4.5240 1.6763 38.8277 4.8075
# 6 12.9406 1.0137 9.5883 -2.7542 4.8075 49.6067
#
#
#
# Elastic Compliance Matrix: (Units=1/GPa)
#
#
# Indices 1 2 3 4 5 6 
#
# 1 -0.034611 0.025033 -0.011403 0.017375 -0.013047 0.012950
# 2 0.025033 -0.004519 0.001571 -0.015863 0.006090 -0.008212
# 3 -0.011403 0.001571 0.012558 0.006275 -0.000747 0.000936
# 4 0.017375 -0.015863 0.006275 0.020420 0.005774 -0.004847
# 5 -0.013047 0.006090 -0.000747 0.005774 0.022325 0.001580
# 6 0.012950 -0.008212 0.000936 -0.004847 0.001580 0.016345
#
#
# Mechanical properties :
#
#
# Convention : Reuss Voigt Hill
#
# Bulk Modulus (GPa) = 261.09586 46.29639 153.69612
# Shear Modulus (GPa) = 1473.66122 31.56666 752.61394
#
# Velocity S-wave (km/s) = 25.79009 3.77458 18.43063
# Velocity P-wave (km/s) = 31.69673 6.31603 22.85361
#
# Compressibility (1/GPa) = 0.00383001
#
# Stress axis : x y z
#
# Youngs Moduli (GPa) = -28.89247 -221.30109 79.63290
#
# Poissons Ratio (x) = 5.53984 0.90804
# Poissons Ratio (y) = 0.72327 -0.12510
# Poissons Ratio (z) = -0.32946 0.34765
#
# Static dielectric constant tensor:
#      x y z
#    x 1.977630 0.180420 0.184700 
#    y 0.180420 2.018160 0.164880 
#    z 0.184700 0.164880 2.073140 
# 
# From -- ./inp_files/97549.got.cif
#   From: 2010.05.17/outbox.cif.g08.bks.cpg/sg2_49_cif.got.tgz:97549.got - 2010.06.03 11:33:40.
