data_PCOD9041533
_publ_section_title
;
Structure prediction by ZEFSAII (Michael W. Deem and Ramdas Pophale) SiO2 
 PCOD9041533
Probable space group: P -1
;
_chemical_formula_sum "Si O2"
_cell_formula_units_Z 15
_cell_length_a 11.459240
_cell_length_b 15.104848
_cell_length_c 6.890718
_cell_angle_alpha 106.584891
_cell_angle_beta 125.258358
_cell_angle_gamma 46.059068
_cell_volume 687.699346
_symmetry_space_group_name_H-M "P -1"
_symmetry_group_IT_number 2
_symmetry_cell_setting 'triclinic'
loop_
_space_group_symop_operation_xyz
x,y,z
-x,-y,-z
loop_
_atom_site_type_symbol
_atom_site_label
_atom_site_fract_x
_atom_site_fract_y
_atom_site_fract_z
Si Si1 0.511052 0.776291 0.277352
Si Si2 0.860846 0.117032 0.204302
Si Si3 0.200095 0.156482 0.951473
Si Si4 0.500000 0.000000 0.500000
Si Si5 0.771898 0.311335 0.554831
Si Si6 0.251225 0.971899 0.629774
Si Si7 0.656657 0.714275 0.938024
Si Si8 0.623125 0.575772 0.554515
O O1 0.516296 0.879259 0.416734
O O2 0.452405 0.832139 0.710584
O O3 0.622562 0.652136 0.434377
O O4 0.290217 0.834705 0.079908
O O5 0.790859 0.233553 0.342838
O O6 0.838121 0.037377 0.270631
O O7 0.090310 0.033512 0.347089
O O8 0.977693 0.223462 0.805662
O O9 0.277811 0.066123 0.778301
O O10 0.205109 0.262082 0.968385
O O11 0.335842 0.074573 0.211508
O O12 0.725740 0.435013 0.517989
O O13 0.595823 0.355322 0.548069
O O14 0.603695 0.735325 0.125439
O O15 0.714459 0.589604 0.834898
#
# Coordination Sequence:
#
# PCOD9041533 Si02
#       8
#     2   2   2   1   2   2   2   2
#     4  11  23  39  63  98 124 164 215 259 313 382
#     4   9  17  36  60  88 123 157 205 261 309 363
#     4  11  22  39  65  93 132 166 205 264 320 378
#     4  12  22  38  62 100 132 160 208 260 318 386
#     4  10  23  44  64  92 125 170 218 258 316 367
#     4   9  17  32  62  88 118 163 201 249 320 370
#     4  11  21  40  64  89 130 171 200 260 322 372
#     4  11  23  43  68  90 124 173 216 263 307 369
#
# _framework density 21.811858000000001
#
# number of rings (size 3 to 8) (size 9 to 14) (size 15 to 20)
#    0.000    1.600    6.667    0.400    0.000    1.067 
#    2.400    2.000    0.000    0.000    0.000    0.000 
#    0.000    0.000    0.000    0.000    0.000    0.000 
#
# Total GULP energy -83524.298622 kJ/mol
# GULP energy per Si atom -5568.286575 kJ/mol
# Density = 2.176221 g / cm^3
# Si number density = 21.811858 Si / 1000 Ang^3
#
#
#
# Elastic Constant Matrix: (Units=GPa)
#
#
# Indices 1 2 3 4 5 6 
#
# 1 59.4440 43.5964 18.9536 8.2133 -6.7013 24.7454
# 2 43.5964 128.2382 39.9441 21.9570 1.4451 30.7690
# 3 18.9536 39.9441 104.9567 18.1235 8.9378 11.5406
# 4 8.2133 21.9570 18.1235 24.7094 10.5483 8.4924
# 5 -6.7013 1.4451 8.9378 10.5483 31.0321 -1.5642
# 6 24.7454 30.7690 11.5406 8.4924 -1.5642 35.8381
#
#
#
# Elastic Compliance Matrix: (Units=1/GPa)
#
#
# Indices 1 2 3 4 5 6 
#
# 1 0.027975 -0.005617 -0.001798 -0.001202 0.006556 -0.013344
# 2 -0.005617 0.012618 -0.002229 -0.006443 0.000796 -0.004675
# 3 -0.001798 -0.002229 0.011731 -0.005475 -0.001772 0.000597
# 4 -0.001202 -0.006443 -0.005475 0.061517 -0.019662 -0.007311
# 5 0.006556 0.000796 -0.001772 -0.019662 0.040888 0.001804
# 6 -0.013344 -0.004675 0.000597 -0.007311 0.001804 0.042750
#
#
# Mechanical properties :
#
#
# Convention : Reuss Voigt Hill
#
# Bulk Modulus (GPa) = 30.26886 55.29190 42.78038
# Shear Modulus (GPa) = 21.95104 30.99224 26.47164
#
# Velocity S-wave (km/s) = 3.17579 3.77356 3.48751
# Velocity P-wave (km/s) = 5.23019 6.66264 5.98940
#
# Compressibility (1/GPa) = 0.03303725
#
# Stress axis : x y z
#
# Youngs Moduli (GPa) = 35.74572 79.25257 85.24221
#
# Poissons Ratio (x) = 0.44517 0.15325
# Poissons Ratio (y) = 0.20079 0.18999
# Poissons Ratio (z) = 0.06426 0.17664
#
# Static dielectric constant tensor:
#      x y z
#    x 1.832610 -0.030090 0.029970 
#    y -0.030090 1.786830 0.006480 
#    z 0.029970 0.006480 1.841500 
# 
# From -- ./inp_files/316681.got.cif
#   From: 2010.05.17/outbox.cif.g08.bks.cpg/sg2_159_cif.got.tgz:316681.got - 2010.06.03 11:33:40.
