data_PCOD9041872
_publ_section_title
;
Structure prediction by ZEFSAII (Michael W. Deem and Ramdas Pophale) SiO2 
 PCOD9041872
Probable space group: P -1
;
_chemical_formula_sum "Si O2"
_cell_formula_units_Z 15
_cell_length_a 18.820714
_cell_length_b 9.810709
_cell_length_c 6.074869
_cell_angle_alpha 120.972177
_cell_angle_beta 80.450573
_cell_angle_gamma 134.157297
_cell_volume 655.299724
_symmetry_space_group_name_H-M "P -1"
_symmetry_group_IT_number 2
_symmetry_cell_setting 'triclinic'
loop_
_space_group_symop_operation_xyz
x,y,z
-x,-y,-z
loop_
_atom_site_type_symbol
_atom_site_label
_atom_site_fract_x
_atom_site_fract_y
_atom_site_fract_z
Si Si1 0.174340 0.132664 0.247378
Si Si2 0.392672 0.623905 0.635651
Si Si3 0.277364 0.980771 0.199688
Si Si4 0.546265 0.691833 0.313870
Si Si5 0.080883 0.584093 0.221884
Si Si6 0.000000 0.000000 0.500000
Si Si7 0.564204 0.951105 0.147802
Si Si8 0.028193 0.809699 0.705590
O O1 0.272107 0.397136 0.477899
O O2 0.214733 0.014839 0.129021
O O3 0.090373 0.022685 0.390100
O O4 0.117315 0.059640 0.981591
O O5 0.455640 0.589447 0.444507
O O6 0.419348 0.835988 0.691103
O O7 0.448124 0.724478 0.928670
O O8 0.351439 0.192770 0.509564
O O9 0.192829 0.744157 0.181739
O O10 0.352919 0.997966 0.020223
O O11 0.578001 0.899551 0.336090
O O12 0.500000 0.500000 0.000000
O O13 0.078129 0.732151 0.507068
O O14 0.044168 0.374610 0.211587
O O15 0.000000 0.500000 0.000000
O O16 0.969238 0.824232 0.571843
#
# Coordination Sequence:
#
# PCOD9041872 Si02
#       8
#     2   2   2   2   2   1   2   2
#     4  12  25  44  69 100 139 185 236 294 355 420
#     4  10  24  43  66  98 138 182 226 289 350 422
#     4  11  24  41  70 103 134 183 237 285 351 422
#     4  11  23  40  69 104 136 177 233 289 350 419
#     4  11  23  44  70  99 137 181 238 295 347 418
#     4  12  26  46  64 102 146 180 236 288 362 420
#     4  10  23  44  67  99 141 179 231 286 349 424
#     4  11  25  44  70  98 138 186 236 297 351 427
#
# _framework density 22.890288000000002
#
# number of rings (size 3 to 8) (size 9 to 14) (size 15 to 20)
#    0.000    1.067    2.667    2.400    3.733    6.400 
#    0.000    0.000    0.000    0.000    0.000    0.000 
#    0.000    0.000    0.000    0.000    0.000    0.000 
#
# Total GULP energy -83675.007608 kJ/mol
# GULP energy per Si atom -5578.333841 kJ/mol
# Density = 2.283819 g / cm^3
# Si number density = 22.890288 Si / 1000 Ang^3
#
#
#
# Elastic Constant Matrix: (Units=GPa)
#
#
# Indices 1 2 3 4 5 6 
#
# 1 56.5991 25.9993 10.6280 8.0029 2.2458 -0.9410
# 2 25.9993 109.6282 28.1042 -1.6555 18.9362 -5.4617
# 3 10.6280 28.1042 75.6271 15.0537 1.8277 20.6803
# 4 8.0029 -1.6555 15.0537 24.7823 -5.4837 4.4794
# 5 2.2458 18.9362 1.8277 -5.4837 20.5495 -3.7596
# 6 -0.9410 -5.4617 20.6803 4.4794 -3.7596 49.6985
#
#
#
# Elastic Compliance Matrix: (Units=1/GPa)
#
#
# Indices 1 2 3 4 5 6 
#
# 1 0.021039 -0.005280 0.000331 -0.007270 0.000668 0.000386
# 2 -0.005280 0.013724 -0.005463 0.003199 -0.010251 0.002618
# 3 0.000331 -0.005463 0.019611 -0.011229 -0.001176 -0.007832
# 4 -0.007270 0.003199 -0.011229 0.052412 0.013042 0.001149
# 5 0.000668 -0.010251 -0.001176 0.013042 0.062152 0.002902
# 6 0.000386 0.002618 -0.007832 0.001149 0.002902 0.023791
#
#
# Mechanical properties :
#
#
# Convention : Reuss Voigt Hill
#
# Bulk Modulus (GPa) = 29.80581 41.25748 35.53165
# Shear Modulus (GPa) = 22.24817 30.81425 26.53121
#
# Velocity S-wave (km/s) = 3.12099 3.67300 3.40819
# Velocity P-wave (km/s) = 5.10263 6.00425 5.57171
#
# Compressibility (1/GPa) = 0.03355050
#
# Stress axis : x y z
#
# Youngs Moduli (GPa) = 47.52969 72.86610 50.99066
#
# Poissons Ratio (x) = 0.38476 -0.01688
# Poissons Ratio (y) = 0.25098 0.27854
# Poissons Ratio (z) = -0.01573 0.39804
#
# Static dielectric constant tensor:
#      x y z
#    x 1.924130 -0.009910 0.088120 
#    y -0.009910 1.877800 0.033820 
#    z 0.088120 0.033820 1.970540 
# 
# From -- ./inp_files/89055.got.cif
#   From: 2010.05.17/outbox.cif.g08.bks.cpg/sg2_45_cif.got.tgz:89055.got - 2010.06.03 11:33:40.
