data_PCOD9041195
_publ_section_title
;
Structure prediction by ZEFSAII (Michael W. Deem and Ramdas Pophale) SiO2 
 PCOD9041195
Probable space group: P -1
;
_chemical_formula_sum "Si O2"
_cell_formula_units_Z 16
_cell_length_a 12.699241
_cell_length_b 7.801834
_cell_length_c 21.489737
_cell_angle_alpha 51.809617
_cell_angle_beta 26.379027
_cell_angle_gamma 47.836801
_cell_volume 700.279060
_symmetry_space_group_name_H-M "P -1"
_symmetry_group_IT_number 2
_symmetry_cell_setting 'triclinic'
loop_
_space_group_symop_operation_xyz
x,y,z
-x,-y,-z
loop_
_atom_site_type_symbol
_atom_site_label
_atom_site_fract_x
_atom_site_fract_y
_atom_site_fract_z
Si Si1 0.078669 0.073859 0.542719
Si Si2 0.795330 0.835993 0.118238
Si Si3 0.759669 0.440223 0.464280
Si Si4 0.565864 0.385828 0.705477
Si Si5 0.756527 0.428161 0.840165
Si Si6 0.089073 0.074716 0.834818
Si Si7 0.411400 0.338704 0.250108
Si Si8 0.441384 0.918195 0.483249
O O1 0.182144 0.263930 0.415060
O O2 0.786897 0.153304 0.663143
O O3 0.229333 0.822365 0.491042
O O4 0.161462 0.032792 0.580071
O O5 0.655051 0.677347 0.197439
O O6 0.925071 0.760314 0.134058
O O7 0.601576 0.098144 0.175291
O O8 0.991426 0.877784 0.956942
O O9 0.690415 0.495722 0.560798
O O10 0.548655 0.639826 0.493934
O O11 0.033489 0.442277 0.297555
O O12 0.498024 0.541477 0.767559
O O13 0.671259 0.474927 0.803496
O O14 0.922419 0.187295 0.838091
O O15 0.500000 0.500000 0.000000
O O16 0.375772 0.011309 0.676577
O O17 0.500000 0.000000 0.500000
#
# Coordination Sequence:
#
# PCOD9041195 Si02
#       8
#     2   2   2   2   2   2   2   2
#     4  12  23  42  67  99 134 178 229 278 337 396
#     4  11  23  47  71  95 135 179 231 275 339 409
#     4  11  23  40  68  98 131 180 225 275 339 400
#     4  12  25  41  72 107 130 174 232 284 334 400
#     4  11  23  40  66  97 134 178 222 272 343 400
#     4  10  23  43  71  91 136 187 216 280 345 399
#     4  12  23  42  70  99 137 176 221 284 339 391
#     4  11  24  41  66 100 137 177 223 279 335 402
#
# _framework density 22.848033999999998
#
# number of rings (size 3 to 8) (size 9 to 14) (size 15 to 20)
#    0.000    0.750    5.000    2.625    3.500    1.000 
#    0.000    4.375    2.750    0.000    0.000    0.000 
#    0.000    0.000    0.000    0.000    0.000    0.000 
#
# Total GULP energy -89348.622280 kJ/mol
# GULP energy per Si atom -5584.288892 kJ/mol
# Density = 2.279603 g / cm^3
# Si number density = 22.848034 Si / 1000 Ang^3
#
#
#
# Elastic Constant Matrix: (Units=GPa)
#
#
# Indices 1 2 3 4 5 6 
#
# 1 128.3042 40.3987 40.0917 -17.1085 17.5349 -9.1520
# 2 40.3987 86.6071 20.3800 -2.6517 10.0888 -9.9836
# 3 40.0917 20.3800 95.4250 -17.4952 3.3960 -0.7826
# 4 -17.1085 -2.6517 -17.4952 17.0541 -6.2001 -4.9798
# 5 17.5349 10.0888 3.3960 -6.2001 34.1134 -2.9011
# 6 -9.1520 -9.9836 -0.7826 -4.9798 -2.9011 44.4783
#
#
#
# Elastic Compliance Matrix: (Units=1/GPa)
#
#
# Indices 1 2 3 4 5 6 
#
# 1 0.011368 -0.003931 -0.002358 0.007970 -0.002817 0.002124
# 2 -0.003931 0.014237 -0.002073 -0.004315 -0.002624 0.001696
# 3 -0.002358 -0.002073 0.014251 0.013271 0.002901 0.000975
# 4 0.007970 -0.004315 0.013271 0.087585 0.012758 0.011543
# 5 -0.002817 -0.002624 0.002901 0.012758 0.033782 0.002514
# 6 0.002124 0.001696 0.000975 0.011543 0.002514 0.024774
#
#
# Mechanical properties :
#
#
# Convention : Reuss Voigt Hill
#
# Bulk Modulus (GPa) = 43.22918 56.89746 50.06332
# Shear Modulus (GPa) = 23.76105 33.09356 28.42731
#
# Velocity S-wave (km/s) = 3.22834 3.80994 3.53114
# Velocity P-wave (km/s) = 5.73216 6.65664 6.21162
#
# Compressibility (1/GPa) = 0.02313252
#
# Stress axis : x y z
#
# Youngs Moduli (GPa) = 87.96992 70.24083 70.17290
#
# Poissons Ratio (x) = 0.27610 0.16543
# Poissons Ratio (y) = 0.34579 0.14546
# Poissons Ratio (z) = 0.20739 0.14560
#
# Static dielectric constant tensor:
#      x y z
#    x 1.917800 -0.014080 0.003670 
#    y -0.014080 1.902840 0.035640 
#    z 0.003670 0.035640 1.858580 
# 
# From -- ./inp_files/593445.got.cif
#   From: 2010.05.17/outbox.cif.g08.bks.cpg/sg2_297_cif.got.tgz:593445.got - 2010.06.03 11:33:40.
