data_PCOD9041128
_publ_section_title
;
Structure prediction by ZEFSAII (Michael W. Deem and Ramdas Pophale) SiO2 
 PCOD9041128
Probable space group: P -1
;
_chemical_formula_sum "Si O2"
_cell_formula_units_Z 13
_cell_length_a 6.153114
_cell_length_b 20.028562
_cell_length_c 10.428325
_cell_angle_alpha 142.446555
_cell_angle_beta 49.380182
_cell_angle_gamma 136.824648
_cell_volume 527.717839
_symmetry_space_group_name_H-M "P -1"
_symmetry_group_IT_number 2
_symmetry_cell_setting 'triclinic'
loop_
_space_group_symop_operation_xyz
x,y,z
-x,-y,-z
loop_
_atom_site_type_symbol
_atom_site_label
_atom_site_fract_x
_atom_site_fract_y
_atom_site_fract_z
Si Si1 0.500000 0.500000 0.000000
Si Si2 0.184437 0.066800 0.399473
Si Si3 0.746231 0.189137 0.752143
Si Si4 0.288380 0.716501 0.351240
Si Si5 0.459179 0.447743 0.635405
Si Si6 0.393318 0.650898 0.799251
Si Si7 0.122357 0.075207 0.938266
O O1 0.621525 0.392980 0.825667
O O2 0.529187 0.475376 0.797742
O O3 0.548443 0.167389 0.439533
O O4 0.016942 0.152539 0.557170
O O5 0.000000 0.000000 0.500000
O O6 0.119602 0.975773 0.166341
O O7 0.592621 0.223788 0.743936
O O8 0.456755 0.075679 0.762794
O O9 0.870342 0.310935 0.981324
O O10 0.906653 0.659028 0.400876
O O11 0.447121 0.559640 0.733430
O O12 0.673613 0.403115 0.399416
O O13 0.720651 0.779448 0.874141
O O14 0.000000 0.000000 0.000000
#
# Coordination Sequence:
#
# PCOD9041128 Si02
#       7
#     1   2   2   2   2   2   2
#     4  12  24  42  74 106 130 190 244 278 352 430
#     4  12  25  45  75 105 139 193 242 285 358 423
#     4  10  23  45  69 103 145 181 236 295 349 409
#     4  12  26  41  74 108 140 185 241 295 344 431
#     4  11  24  47  72 103 146 183 237 297 353 415
#     4   9  23  46  71  99 148 186 223 306 355 403
#     4  10  23  43  71 101 144 186 228 297 353 414
#
# _framework density 24.634378000000002
#
# number of rings (size 3 to 8) (size 9 to 14) (size 15 to 20)
#    0.923    0.308    3.077    1.846    6.462    0.000 
#    0.000   10.769    3.385    0.000    0.000    0.000 
#    0.000    0.000    0.000    0.000    0.000    0.000 
#
# Total GULP energy -72471.095435 kJ/mol
# GULP energy per Si atom -5574.699649 kJ/mol
# Density = 2.457831 g / cm^3
# Si number density = 24.634378 Si / 1000 Ang^3
#
#
#
# Elastic Constant Matrix: (Units=GPa)
#
#
# Indices 1 2 3 4 5 6 
#
# 1 65.0020 33.4328 32.3061 -4.8457 24.8814 -9.9223
# 2 33.4328 133.3467 22.5589 -5.6598 22.6159 -22.3281
# 3 32.3061 22.5589 147.4058 -8.7736 42.0755 -16.4754
# 4 -4.8457 -5.6598 -8.7736 37.8055 -4.1437 10.7834
# 5 24.8814 22.6159 42.0755 -4.1437 50.8937 -0.1164
# 6 -9.9223 -22.3281 -16.4754 10.7834 -0.1164 38.6233
#
#
#
# Elastic Compliance Matrix: (Units=1/GPa)
#
#
# Indices 1 2 3 4 5 6 
#
# 1 0.021221 -0.003296 -0.001689 0.000233 -0.007488 0.002738
# 2 -0.003296 0.009604 0.000738 -0.000657 -0.003308 0.005193
# 3 -0.001689 0.000738 0.009624 0.000163 -0.007436 0.004030
# 4 0.000233 -0.000657 0.000163 0.029067 0.002391 -0.008359
# 5 -0.007488 -0.003308 -0.007436 0.002391 0.031105 -0.007582
# 6 0.002738 0.005193 0.004030 -0.008359 -0.007582 0.033627
#
#
# Mechanical properties :
#
#
# Convention : Reuss Voigt Hill
#
# Bulk Modulus (GPa) = 31.29512 58.03890 44.66701
# Shear Modulus (GPa) = 32.59621 42.62828 37.61225
#
# Velocity S-wave (km/s) = 3.64153 4.16437 3.91169
# Velocity P-wave (km/s) = 5.51474 6.83622 6.21073
#
# Compressibility (1/GPa) = 0.03195387
#
# Stress axis : x y z
#
# Youngs Moduli (GPa) = 47.12401 104.12770 103.90740
#
# Poissons Ratio (x) = 0.34325 0.17551
# Poissons Ratio (y) = 0.15534 -0.07672
# Poissons Ratio (z) = 0.07960 -0.07688
#
# Static dielectric constant tensor:
#      x y z
#    x 3.507280 2.490350 -0.025930 
#    y 2.490350 5.802550 0.023610 
#    z -0.025930 0.023610 1.841740 
# 
# From -- ./inp_files/136962.got.cif
#   From: 2010.05.17/outbox.cif.g08.bks.cpg/sg2_69_cif.got.tgz:136962.got - 2010.06.03 11:33:40.
