data_PCOD9041367
_publ_section_title
;
Structure prediction by ZEFSAII (Michael W. Deem and Ramdas Pophale) SiO2 
 PCOD9041367
Probable space group: P -1
;
_chemical_formula_sum "Si O2"
_cell_formula_units_Z 14
_cell_length_a 9.094064
_cell_length_b 18.938064
_cell_length_c 5.465675
_cell_angle_alpha 56.485949
_cell_angle_beta 55.343024
_cell_angle_gamma 54.289144
_cell_volume 593.556507
_symmetry_space_group_name_H-M "P -1"
_symmetry_group_IT_number 2
_symmetry_cell_setting 'triclinic'
loop_
_space_group_symop_operation_xyz
x,y,z
-x,-y,-z
loop_
_atom_site_type_symbol
_atom_site_label
_atom_site_fract_x
_atom_site_fract_y
_atom_site_fract_z
Si Si1 0.914944 0.378149 0.256414
Si Si2 0.278998 0.032731 0.727891
Si Si3 0.082127 0.918939 0.378820
Si Si4 0.773575 0.553174 0.350594
Si Si5 0.576696 0.651088 0.846070
Si Si6 0.192523 0.716749 0.837003
Si Si7 0.812766 0.772110 0.373882
O O1 0.831612 0.446767 0.432044
O O2 0.758865 0.357826 0.281485
O O3 0.068588 0.280757 0.397506
O O4 0.031213 0.426379 0.894878
O O5 0.246351 0.119177 0.769774
O O6 0.105672 0.072751 0.617606
O O7 0.500000 0.000000 0.500000
O O8 0.237962 0.947086 0.034242
O O9 0.183030 0.815801 0.574980
O O10 0.000000 0.000000 0.500000
O O11 0.675295 0.585552 0.644264
O O12 0.651446 0.606682 0.124196
O O13 0.347693 0.683690 0.968665
O O14 0.639843 0.737346 0.583816
O O15 0.974575 0.733697 0.087038
#
# Coordination Sequence:
#
# PCOD9041367 Si02
#       7
#     2   2   2   2   2   2   2
#     4  10  23  43  73  93 146 183 229 290 359 410
#     4  11  26  44  72 101 138 184 233 294 353 425
#     4  11  25  45  66 101 140 176 234 288 356 423
#     4  10  24  46  68 107 139 189 236 291 351 428
#     4  11  27  43  72 104 143 181 244 289 350 424
#     4  12  25  43  71  99 137 188 227 296 352 421
#     4  11  24  45  66 102 137 183 232 289 357 422
#
# _framework density 23.586635000000001
#
# number of rings (size 3 to 8) (size 9 to 14) (size 15 to 20)
#    0.000    1.143    4.286    0.000    6.000    6.857 
#    0.000    0.000    0.000    0.000    0.000    0.000 
#    0.000    0.000    0.000    0.000    0.000    0.000 
#
# Total GULP energy -78328.248393 kJ/mol
# GULP energy per Si atom -5594.874885 kJ/mol
# Density = 2.353295 g / cm^3
# Si number density = 23.586635 Si / 1000 Ang^3
#
#
#
# Elastic Constant Matrix: (Units=GPa)
#
#
# Indices 1 2 3 4 5 6 
#
# 1 111.7560 38.9919 42.2053 -11.3576 -15.9503 15.9376
# 2 38.9919 93.8335 27.3155 -20.3380 -8.6302 27.8809
# 3 42.2053 27.3155 90.4854 -8.1628 -9.6305 -4.7282
# 4 -11.3576 -20.3380 -8.1628 39.4082 2.0113 7.4595
# 5 -15.9503 -8.6302 -9.6305 2.0113 34.3793 -0.7028
# 6 15.9376 27.8809 -4.7282 7.4595 -0.7028 28.5843
#
#
#
# Elastic Compliance Matrix: (Units=1/GPa)
#
#
# Indices 1 2 3 4 5 6 
#
# 1 0.013643 0.000648 -0.006223 0.004729 0.004260 -0.010398
# 2 0.000648 0.026499 -0.008030 0.018141 0.002984 -0.032197
# 3 -0.006223 -0.008030 0.016743 -0.005424 0.000422 0.015498
# 4 0.004729 0.018141 -0.005424 0.040894 0.002185 -0.031847
# 5 0.004260 0.002984 0.000422 0.002185 0.031701 -0.005007
# 6 -0.010398 -0.032197 0.015498 -0.031847 -0.005007 0.082938
#
#
# Mechanical properties :
#
#
# Convention : Reuss Voigt Hill
#
# Bulk Modulus (GPa) = 33.69673 57.01114 45.35393
# Shear Modulus (GPa) = 20.03859 32.97852 26.50855
#
# Velocity S-wave (km/s) = 2.91791 3.74329 3.35607
# Velocity P-wave (km/s) = 5.06652 6.55030 5.85560
#
# Compressibility (1/GPa) = 0.02967647
#
# Stress axis : x y z
#
# Youngs Moduli (GPa) = 73.29559 37.73792 59.72499
#
# Poissons Ratio (x) = -0.02447 0.37166
# Poissons Ratio (y) = -0.04752 0.47959
# Poissons Ratio (z) = 0.45610 0.30304
#
# Static dielectric constant tensor:
#      x y z
#    x 1.891110 0.041830 0.037130 
#    y 0.041830 1.922720 0.033410 
#    z 0.037130 0.033410 1.958310 
# 
# From -- ./inp_files/46445.got.cif
#   From: 2010.05.17/outbox.cif.g08.bks.cpg/sg2_24_cif.got.tgz:46445.got - 2010.06.03 11:33:40.
