data_PCOD9041502
_publ_section_title
;
Structure prediction by ZEFSAII (Michael W. Deem and Ramdas Pophale) SiO2 
 PCOD9041502
Probable space group: P -1
;
_chemical_formula_sum "Si O2"
_cell_formula_units_Z 16
_cell_length_a 5.284961
_cell_length_b 19.887280
_cell_length_c 7.547061
_cell_angle_alpha 111.484026
_cell_angle_beta 60.556818
_cell_angle_gamma 100.974467
_cell_volume 642.725307
_symmetry_space_group_name_H-M "P -1"
_symmetry_group_IT_number 2
_symmetry_cell_setting 'triclinic'
loop_
_space_group_symop_operation_xyz
x,y,z
-x,-y,-z
loop_
_atom_site_type_symbol
_atom_site_label
_atom_site_fract_x
_atom_site_fract_y
_atom_site_fract_z
Si Si1 0.918745 0.216115 0.730145
Si Si2 0.308654 0.430601 0.448689
Si Si3 0.576407 0.703320 0.919581
Si Si4 0.885590 0.068792 0.206834
Si Si5 0.152665 0.776194 0.663613
Si Si6 0.388231 0.326368 0.711281
Si Si7 0.701085 0.467512 0.750160
Si Si8 0.205645 0.069491 0.456695
O O1 0.067117 0.294094 0.790884
O O2 0.096767 0.144941 0.653680
O O3 0.882010 0.213627 0.528015
O O4 0.617758 0.224863 0.946456
O O5 0.500000 0.500000 0.500000
O O6 0.477228 0.359092 0.266775
O O7 0.205050 0.460369 0.318300
O O8 0.000939 0.427015 0.653298
O O9 0.904745 0.727596 0.788531
O O10 0.534484 0.674903 0.107696
O O11 0.861682 0.143429 0.178827
O O12 0.545463 0.057358 0.370104
O O13 0.128136 0.079764 0.286452
O O14 0.000000 0.000000 0.000000
O O15 0.451990 0.733953 0.520316
O O16 0.495260 0.403677 0.676333
O O17 0.500000 0.500000 0.000000
O O18 0.000000 0.000000 0.500000
#
# Coordination Sequence:
#
# PCOD9041502 Si02
#       8
#     2   2   2   2   2   2   2   2
#     4  10  25  41  66  95 127 172 218 267 340 393
#     4  11  26  41  61  93 126 166 219 267 332 402
#     4  11  24  41  63  95 124 171 221 271 332 400
#     4  11  24  44  70 103 139 183 228 278 344 406
#     4  10  23  44  63  92 136 166 221 272 327 397
#     4  11  22  43  64  90 129 167 215 275 328 395
#     4  11  24  42  63  90 127 168 213 271 332 395
#     4  11  24  45  70 102 142 178 228 283 341 407
#
# _framework density 24.893996000000001
#
# number of rings (size 3 to 8) (size 9 to 14) (size 15 to 20)
#    0.000    1.250    3.750    0.750    5.250    2.500 
#    0.000    0.000    0.000    0.000    0.000    0.000 
#    0.000    0.000    0.000    0.000    0.000    0.000 
#
# Total GULP energy -89269.086523 kJ/mol
# GULP energy per Si atom -5579.317908 kJ/mol
# Density = 2.483734 g / cm^3
# Si number density = 24.893996 Si / 1000 Ang^3
#
#
#
# Elastic Constant Matrix: (Units=GPa)
#
#
# Indices 1 2 3 4 5 6 
#
# 1 60.5816 -15.0117 14.7159 5.9981 -13.0970 7.8136
# 2 -15.0117 108.1112 18.3235 12.6820 6.6674 3.1295
# 3 14.7159 18.3235 138.4823 24.2780 -21.3790 -9.4028
# 4 5.9981 12.6820 24.2780 43.7502 9.1224 -4.6210
# 5 -13.0970 6.6674 -21.3790 9.1224 29.2559 -0.5852
# 6 7.8136 3.1295 -9.4028 -4.6210 -0.5852 37.5569
#
#
#
# Elastic Compliance Matrix: (Units=1/GPa)
#
#
# Indices 1 2 3 4 5 6 
#
# 1 0.020912 0.003220 -0.000316 -0.006327 0.010264 -0.005317
# 2 0.003220 0.010423 -0.001659 -0.002488 -0.001416 -0.002282
# 3 -0.000316 -0.001659 0.010437 -0.007160 0.010138 0.002094
# 4 -0.006327 -0.002488 -0.007160 0.032442 -0.017545 0.003449
# 5 0.010264 -0.001416 0.010138 -0.017545 0.051961 -0.000828
# 6 -0.005317 -0.002282 0.002094 0.003449 -0.000828 0.028858
#
#
# Mechanical properties :
#
#
# Convention : Reuss Voigt Hill
#
# Bulk Modulus (GPa) = 22.59137 38.13673 30.36405
# Shear Modulus (GPa) = 29.88715 41.38909 35.63812
#
# Velocity S-wave (km/s) = 3.46869 4.08194 3.78775
# Velocity P-wave (km/s) = 5.01370 6.12937 5.59939
#
# Compressibility (1/GPa) = 0.04426469
#
# Stress axis : x y z
#
# Youngs Moduli (GPa) = 47.81856 95.93914 95.81563
#
# Poissons Ratio (x) = -0.30896 0.03024
# Poissons Ratio (y) = -0.15399 0.15892
# Poissons Ratio (z) = 0.01509 0.15913
#
# Static dielectric constant tensor:
#      x y z
#    x 2.274700 -0.161860 0.101460 
#    y -0.161860 2.120170 -0.039610 
#    z 0.101460 -0.039610 1.982590 
# 
# From -- ./inp_files/10709.got.cif
#   From: 2010.05.17/outbox.cif.g08.bks.cpg/sg2_6_cif.got.tgz:10709.got - 2010.06.03 11:33:40.
