data_PCOD9041085
_publ_section_title
;
Structure prediction by ZEFSAII (Michael W. Deem and Ramdas Pophale) SiO2 
 PCOD9041085
Probable space group: P -1
;
_chemical_formula_sum "Si O2"
_cell_formula_units_Z 14
_cell_length_a 16.757372
_cell_length_b 5.343681
_cell_length_c 21.667740
_cell_angle_alpha 86.502187
_cell_angle_beta 18.511787
_cell_angle_gamma 85.324541
_cell_volume 613.168865
_symmetry_space_group_name_H-M "P -1"
_symmetry_group_IT_number 2
_symmetry_cell_setting 'triclinic'
loop_
_space_group_symop_operation_xyz
x,y,z
-x,-y,-z
loop_
_atom_site_type_symbol
_atom_site_label
_atom_site_fract_x
_atom_site_fract_y
_atom_site_fract_z
Si Si1 0.168651 0.451829 0.937808
Si Si2 0.760770 0.516315 0.344718
Si Si3 0.251109 0.949728 0.220762
Si Si4 0.131669 0.007191 0.659171
Si Si5 0.460414 0.892537 0.890922
Si Si6 0.153159 0.447211 0.326572
Si Si7 0.485237 0.916756 0.726331
O O1 0.362584 0.668382 0.795350
O O2 0.303732 0.171121 0.844216
O O3 0.000000 0.500000 0.000000
O O4 0.988923 0.487733 0.128809
O O5 0.500000 0.500000 0.500000
O O6 0.774880 0.780032 0.366015
O O7 0.790329 0.274842 0.371145
O O8 0.144625 0.690239 0.287260
O O9 0.075784 0.205215 0.349281
O O10 0.500000 0.000000 0.000000
O O11 0.354623 0.918204 0.216015
O O12 0.263668 0.049976 0.496838
O O13 0.828856 0.040889 0.882180
O O14 0.565316 0.641499 0.854213
O O15 0.508131 0.881168 0.783653
O O16 0.000000 0.500000 0.500000
#
# Coordination Sequence:
#
# PCOD9041085 Si02
#       7
#     2   2   2   2   2   2   2
#     4  12  24  44  68  97 137 178 231 286 337 405
#     4  12  24  44  68  97 137 178 231 286 337 405
#     4  10  23  43  70  98 136 173 224 268 344 400
#     4  12  25  44  66  98 136 181 229 280 345 396
#     4  10  26  42  72  98 146 170 232 282 344 392
#     4  10  23  43  70  98 136 173 224 268 344 400
#     4  12  25  44  66  98 136 181 229 280 345 396
#
# _framework density 22.832211000000001
#
# number of rings (size 3 to 8) (size 9 to 14) (size 15 to 20)
#    0.857    0.000    2.857    4.286    4.000    1.143 
#    0.000    0.000    0.000    0.000    0.000    0.000 
#    0.000    0.000    0.000    0.000    0.000    0.000 
#
# Total GULP energy -78287.242245 kJ/mol
# GULP energy per Si atom -5591.945875 kJ/mol
# Density = 2.278024 g / cm^3
# Si number density = 22.832211 Si / 1000 Ang^3
#
#
#
# Elastic Constant Matrix: (Units=GPa)
#
#
# Indices 1 2 3 4 5 6 
#
# 1 83.5937 11.4640 -6.0566 -9.5622 1.6725 -3.6216
# 2 11.4640 148.8985 9.2026 -14.1661 -1.0311 5.7168
# 3 -6.0566 9.2026 112.6366 -14.0678 22.3856 -1.2240
# 4 -9.5622 -14.1661 -14.0678 37.0657 -2.8041 3.3839
# 5 1.6725 -1.0311 22.3856 -2.8041 38.2691 1.2177
# 6 -3.6216 5.7168 -1.2240 3.3839 1.2177 24.6962
#
#
#
# Elastic Compliance Matrix: (Units=1/GPa)
#
#
# Indices 1 2 3 4 5 6 
#
# 1 0.012648 -0.000829 0.001413 0.003232 -0.001220 0.001734
# 2 -0.000829 0.007146 -0.000481 0.002593 0.000770 -0.002193
# 3 0.001413 -0.000481 0.010669 0.003713 -0.006064 0.000638
# 4 0.003232 0.002593 0.003713 0.030601 0.000131 -0.004142
# 5 -0.001220 0.000770 -0.006064 0.000131 0.029830 -0.002146
# 6 0.001734 -0.002193 0.000638 -0.004142 -0.002146 0.041959
#
#
# Mechanical properties :
#
#
# Convention : Reuss Voigt Hill
#
# Bulk Modulus (GPa) = 32.60723 41.59433 37.10078
# Shear Modulus (GPa) = 34.99687 42.04078 38.51882
#
# Velocity S-wave (km/s) = 3.91933 4.29568 4.11181
# Velocity P-wave (km/s) = 5.89862 6.54682 6.23115
#
# Compressibility (1/GPa) = 0.03066805
#
# Stress axis : x y z
#
# Youngs Moduli (GPa) = 79.06497 139.94321 93.72773
#
# Poissons Ratio (x) = 0.11596 -0.13241
# Poissons Ratio (y) = 0.06552 0.04512
# Poissons Ratio (z) = -0.11169 0.06737
#
# Static dielectric constant tensor:
#      x y z
#    x 1.859810 0.037030 0.013440 
#    y 0.037030 1.894590 0.017220 
#    z 0.013440 0.017220 1.832000 
# 
# From -- ./inp_files/139178.got.cif
#   From: 2010.05.17/outbox.cif.g08.bks.cpg/sg2_70_cif.got.tgz:139178.got - 2010.06.03 11:33:40.
