data_PCOD9041508
_publ_section_title
;
Structure prediction by ZEFSAII (Michael W. Deem and Ramdas Pophale) SiO2 
 PCOD9041508
Probable space group: P -1
;
_chemical_formula_sum "Si O2"
_cell_formula_units_Z 16
_cell_length_a 9.181938
_cell_length_b 30.005126
_cell_length_c 23.582864
_cell_angle_alpha 170.424889
_cell_angle_beta 47.100066
_cell_angle_gamma 133.744649
_cell_volume 780.730403
_symmetry_space_group_name_H-M "P -1"
_symmetry_group_IT_number 2
_symmetry_cell_setting 'triclinic'
loop_
_space_group_symop_operation_xyz
x,y,z
-x,-y,-z
loop_
_atom_site_type_symbol
_atom_site_label
_atom_site_fract_x
_atom_site_fract_y
_atom_site_fract_z
Si Si1 0.424841 0.923594 0.361414
Si Si2 0.856047 0.445522 0.152753
Si Si3 0.037283 0.261066 0.148112
Si Si4 0.608417 0.841530 0.447201
Si Si5 0.650181 0.442406 0.654213
Si Si6 0.996385 0.388017 0.923865
Si Si7 0.206962 0.738641 0.495026
Si Si8 0.377077 0.091469 0.199669
O O1 0.181795 0.870914 0.357590
O O2 0.500000 0.000000 0.500000
O O3 0.483774 0.144458 0.573652
O O4 0.511079 0.650943 0.978177
O O5 0.708844 0.639180 0.457792
O O6 0.055102 0.496103 0.201229
O O7 0.924045 0.538782 0.187346
O O8 0.730216 0.145437 0.808039
O O9 0.198907 0.385998 0.215177
O O10 0.000000 0.500000 0.500000
O O11 0.122210 0.016143 0.850769
O O12 0.821117 0.130629 0.015377
O O13 0.427662 0.762670 0.439415
O O14 0.783955 0.666446 0.187296
O O15 0.771297 0.326934 0.527410
O O16 0.516292 0.192970 0.343655
O O17 0.000000 0.500000 0.000000
O O18 0.500000 0.000000 0.000000
#
# Coordination Sequence:
#
# PCOD9041508 Si02
#       8
#     2   2   2   2   2   2   2   2
#     4  11  24  41  68  98 137 184 225 276 337 407
#     4  10  23  44  63  95 137 177 224 280 338 405
#     4  11  24  46  73  96 136 179 224 287 344 399
#     4  11  23  44  66  94 145 178 228 284 338 397
#     4  12  24  46  69 103 138 175 233 276 340 414
#     4  11  24  40  64  98 135 180 234 275 341 407
#     4  11  26  42  69  99 135 181 225 279 342 407
#     4  11  22  43  74  98 134 177 222 287 345 398
#
# _framework density 20.49363
#
# number of rings (size 3 to 8) (size 9 to 14) (size 15 to 20)
#    0.000    1.000    5.000    2.250    5.250    2.000 
#    0.000    0.625    0.000    0.000    0.000    0.000 
#    0.000    0.000    0.000    0.000    0.000    0.000 
#
# Total GULP energy -89399.593989 kJ/mol
# GULP energy per Si atom -5587.474624 kJ/mol
# Density = 2.044699 g / cm^3
# Si number density = 20.493630 Si / 1000 Ang^3
#
#
#
# Elastic Constant Matrix: (Units=GPa)
#
#
# Indices 1 2 3 4 5 6 
#
# 1 162.2433 54.7879 54.8480 0.0172 21.2238 -10.7536
# 2 54.7879 73.8972 47.2946 -13.4240 1.4408 3.9263
# 3 54.8480 47.2946 82.2780 -17.9753 7.6668 0.1093
# 4 0.0172 -13.4240 -17.9753 38.9131 1.8159 -0.6866
# 5 21.2238 1.4408 7.6668 1.8159 40.5145 5.6983
# 6 -10.7536 3.9263 0.1093 -0.6866 5.6983 40.4200
#
#
#
# Elastic Compliance Matrix: (Units=1/GPa)
#
#
# Indices 1 2 3 4 5 6 
#
# 1 0.010388 -0.006049 -0.003766 -0.003531 -0.004918 0.003995
# 2 -0.006049 0.025349 -0.010146 0.003761 0.004671 -0.004639
# 3 -0.003766 -0.010146 0.022204 0.006868 -0.002226 0.000354
# 4 -0.003531 0.003761 0.006868 0.030197 -0.000840 -0.000692
# 5 -0.004918 0.004671 -0.002226 -0.000840 0.028363 -0.005769
# 6 0.003995 -0.004639 0.000354 -0.000692 -0.005769 0.027054
#
#
# Mechanical properties :
#
#
# Convention : Reuss Voigt Hill
#
# Bulk Modulus (GPa) = 55.49871 70.25326 62.87598
# Shear Modulus (GPa) = 26.38736 34.73540 30.56138
#
# Velocity S-wave (km/s) = 3.59219 4.12143 3.86588
# Velocity P-wave (km/s) = 6.65919 7.55004 7.11857
#
# Compressibility (1/GPa) = 0.01801844
#
# Stress axis : x y z
#
# Youngs Moduli (GPa) = 96.26541 39.44868 45.03647
#
# Poissons Ratio (x) = 0.23863 0.16962
# Poissons Ratio (y) = 0.58232 0.45695
# Poissons Ratio (z) = 0.36255 0.40026
#
# Static dielectric constant tensor:
#      x y z
#    x 1.736560 0.013550 0.003360 
#    y 0.013550 1.736270 0.015930 
#    z 0.003360 0.015930 1.754750 
# 
# From -- ./inp_files/226297.got.cif
#   From: 2010.05.17/outbox.cif.g08.bks.cpg/sg2_114_cif.got.tgz:226297.got - 2010.06.03 11:33:40.
