data_PCOD9041301
_publ_section_title
;
Structure prediction by ZEFSAII (Michael W. Deem and Ramdas Pophale) SiO2 
 PCOD9041301
Probable space group: P -1
;
_chemical_formula_sum "Si O2"
_cell_formula_units_Z 12
_cell_length_a 11.629022
_cell_length_b 9.285745
_cell_length_c 9.552561
_cell_angle_alpha 130.219577
_cell_angle_beta 94.003730
_cell_angle_gamma 124.246480
_cell_volume 473.532533
_symmetry_space_group_name_H-M "P -1"
_symmetry_group_IT_number 2
_symmetry_cell_setting 'triclinic'
loop_
_space_group_symop_operation_xyz
x,y,z
-x,-y,-z
loop_
_atom_site_type_symbol
_atom_site_label
_atom_site_fract_x
_atom_site_fract_y
_atom_site_fract_z
Si Si1 0.195785 0.651053 0.644463
Si Si2 0.198711 0.356049 0.698219
Si Si3 0.708371 0.178303 0.656177
Si Si4 0.566006 0.658594 0.455084
Si Si5 0.548499 0.774858 0.135860
Si Si6 0.816023 0.640605 0.797836
O O1 0.180818 0.517235 0.702406
O O2 0.238995 0.551024 0.465546
O O3 0.000000 0.500000 0.500000
O O4 0.354869 0.020285 0.869822
O O5 0.316001 0.349989 0.617590
O O6 0.335980 0.586505 0.985604
O O7 0.000000 0.000000 0.500000
O O8 0.854953 0.535196 0.854979
O O9 0.500000 0.000000 0.500000
O O10 0.694789 0.018248 0.683913
O O11 0.702762 0.033098 0.428742
O O12 0.500000 0.500000 0.500000
O O13 0.364099 0.461970 0.244775
O O14 0.500000 0.500000 0.000000
O O15 0.000000 0.000000 0.000000
#
# Coordination Sequence:
#
# PCOD9041301 Si02
#       6
#     2   2   2   2   2   2
#     4  11  25  43  68 102 143 183 236 287 351 417
#     4  12  26  43  70 104 143 185 238 291 347 417
#     4   9  21  41  68  96 134 178 227 275 350 411
#     4  11  22  45  70  97 143 183 228 288 348 419
#     4  11  22  43  71  98 136 185 230 289 349 410
#     4  10  23  43  72  99 133 184 234 281 348 418
#
# _framework density 25.341449000000001
#
# number of rings (size 3 to 8) (size 9 to 14) (size 15 to 20)
#    0.000    1.333    3.333    1.500    4.667    2.667 
#    0.000    0.833    0.000    0.000    0.000    0.000 
#    0.000    0.000    0.000    0.000    0.000    0.000 
#
# Total GULP energy -67023.065010 kJ/mol
# GULP energy per Si atom -5585.255418 kJ/mol
# Density = 2.528377 g / cm^3
# Si number density = 25.341449 Si / 1000 Ang^3
#
#
#
# Elastic Constant Matrix: (Units=GPa)
#
#
# Indices 1 2 3 4 5 6 
#
# 1 132.0857 56.8576 40.3969 19.0011 3.7959 -12.2863
# 2 56.8576 223.8821 69.7231 56.3360 -6.2973 -43.5304
# 3 40.3969 69.7231 95.8033 55.9971 4.6828 -10.9294
# 4 19.0011 56.3360 55.9971 65.3000 -6.3496 -12.4730
# 5 3.7959 -6.2973 4.6828 -6.3496 38.0904 6.8328
# 6 -12.2863 -43.5304 -10.9294 -12.4730 6.8328 62.9791
#
#
#
# Elastic Compliance Matrix: (Units=1/GPa)
#
#
# Indices 1 2 3 4 5 6 
#
# 1 0.009185 -0.001562 -0.003834 0.002013 -0.000455 0.000495
# 2 -0.001562 0.007026 -0.002455 -0.002779 0.000525 0.003518
# 3 -0.003834 -0.002455 0.025253 -0.019248 -0.006120 -0.001210
# 4 0.002013 -0.002779 -0.019248 0.034564 0.007255 0.001190
# 5 -0.000455 0.000525 -0.006120 0.007255 0.028791 -0.002475
# 6 0.000495 0.003518 -0.001210 0.001190 -0.002475 0.018701
#
#
# Mechanical properties :
#
#
# Convention : Reuss Voigt Hill
#
# Bulk Modulus (GPa) = 38.81620 87.30294 63.05957
# Shear Modulus (GPa) = 33.82736 52.26014 43.04375
#
# Velocity S-wave (km/s) = 3.65754 4.54612 4.12582
# Velocity P-wave (km/s) = 5.76085 7.87919 6.90178
#
# Compressibility (1/GPa) = 0.02576244
#
# Stress axis : x y z
#
# Youngs Moduli (GPa) = 108.86885 142.33315 39.59935
#
# Poissons Ratio (x) = 0.22227 0.15184
# Poissons Ratio (y) = 0.17001 0.09720
# Poissons Ratio (z) = 0.41745 0.34939
#
# Static dielectric constant tensor:
#      x y z
#    x 2.074940 0.089570 -0.121680 
#    y 0.089570 2.136330 -0.109940 
#    z -0.121680 -0.109940 2.151000 
# 
# From -- ./inp_files/145109.got.cif
#   From: 2010.05.17/outbox.cif.g08.bks.cpg/sg2_73_cif.got.tgz:145109.got - 2010.06.03 11:33:40.
