data_PCOD9041176
_publ_section_title
;
Structure prediction by ZEFSAII (Michael W. Deem and Ramdas Pophale) SiO2 
 PCOD9041176
Probable space group: P -1
;
_chemical_formula_sum "Si O2"
_cell_formula_units_Z 13
_cell_length_a 7.260916
_cell_length_b 9.152333
_cell_length_c 12.977187
_cell_angle_alpha 40.217499
_cell_angle_beta 85.837598
_cell_angle_gamma 68.384117
_cell_volume 485.379308
_symmetry_space_group_name_H-M "P -1"
_symmetry_group_IT_number 2
_symmetry_cell_setting 'triclinic'
loop_
_space_group_symop_operation_xyz
x,y,z
-x,-y,-z
loop_
_atom_site_type_symbol
_atom_site_label
_atom_site_fract_x
_atom_site_fract_y
_atom_site_fract_z
Si Si1 0.980836 0.622248 0.778550
Si Si2 0.272159 0.942090 0.952015
Si Si3 0.500000 0.000000 0.500000
Si Si4 0.981451 0.489814 0.381800
Si Si5 0.373069 0.437515 0.120605
Si Si6 0.228218 0.857874 0.426919
Si Si7 0.667777 0.955311 0.883299
O O1 0.817234 0.615150 0.871623
O O2 0.870726 0.666841 0.642457
O O3 0.985509 0.880902 0.668198
O O4 0.185029 0.346769 0.926819
O O5 0.072057 0.221467 0.801213
O O6 0.443928 0.973129 0.858877
O O7 0.354321 0.895262 0.089951
O O8 0.248982 0.704217 0.044506
O O9 0.522532 0.188285 0.312926
O O10 0.590329 0.132616 0.517663
O O11 0.811220 0.386492 0.429691
O O12 0.000000 0.500000 0.500000
O O13 0.500000 0.500000 0.000000
O O14 0.261792 0.913318 0.277690
#
# Coordination Sequence:
#
# PCOD9041176 Si02
#       7
#     2   2   1   2   2   2   2
#     4  10  24  46  72 106 147 195 250 304 374 449
#     4  10  24  44  70 103 152 191 248 306 373 453
#     4  10  26  46  72 110 138 192 254 298 374 434
#     4  11  27  45  73 113 149 198 243 311 386 440
#     4  11  25  47  76 106 151 198 248 315 373 449
#     4  11  24  46  72 106 148 190 249 316 364 450
#     4  10  23  43  71 107 138 201 245 303 387 432
#
# _framework density 26.783176999999998
#
# number of rings (size 3 to 8) (size 9 to 14) (size 15 to 20)
#    0.000    1.538    0.000    2.769   10.769    6.769 
#    0.000    0.000    0.000    0.000    0.000    0.000 
#    0.000    0.000    0.000    0.000    0.000    0.000 
#
# Total GULP energy -72394.424068 kJ/mol
# GULP energy per Si atom -5568.801851 kJ/mol
# Density = 2.672222 g / cm^3
# Si number density = 26.783177 Si / 1000 Ang^3
#
#
#
# Elastic Constant Matrix: (Units=GPa)
#
#
# Indices 1 2 3 4 5 6 
#
# 1 60.3703 18.7510 31.8505 4.8686 -19.2330 12.4536
# 2 18.7510 101.9047 51.3469 15.1829 -11.8715 23.8287
# 3 31.8505 51.3469 170.8081 16.4398 -33.5572 12.7949
# 4 4.8686 15.1829 16.4398 61.9071 -0.1761 -9.5794
# 5 -19.2330 -11.8715 -33.5572 -0.1761 42.4509 3.7538
# 6 12.4536 23.8287 12.7949 -9.5794 3.7538 45.9958
#
#
#
# Elastic Compliance Matrix: (Units=1/GPa)
#
#
# Indices 1 2 3 4 5 6 
#
# 1 0.021928 -0.000352 -0.001456 -0.002242 0.009257 -0.006572
# 2 -0.000352 0.013755 -0.002751 -0.003726 0.002135 -0.007216
# 3 -0.001456 -0.002751 0.008208 -0.001563 0.005160 -0.001210
# 4 -0.002242 -0.003726 -0.001563 0.018761 -0.003852 0.007194
# 5 0.009257 0.002135 0.005160 -0.003852 0.033167 -0.008557
# 6 -0.006572 -0.007216 -0.001210 0.007194 -0.008557 0.029792
#
#
# Mechanical properties :
#
#
# Convention : Reuss Voigt Hill
#
# Bulk Modulus (GPa) = 28.75806 59.66444 44.21125
# Shear Modulus (GPa) = 34.17193 45.47974 39.82583
#
# Velocity S-wave (km/s) = 3.57581 4.12524 3.86031
# Velocity P-wave (km/s) = 5.27345 6.70934 6.03426
#
# Compressibility (1/GPa) = 0.03477286
#
# Stress axis : x y z
#
# Youngs Moduli (GPa) = 45.60441 72.70093 121.83570
#
# Poissons Ratio (x) = 0.02557 0.17744
# Poissons Ratio (y) = 0.01604 0.33513
# Poissons Ratio (z) = 0.06642 0.19998
#
# Static dielectric constant tensor:
#      x y z
#    x 1.938810 0.016280 -0.016970 
#    y 0.016280 2.307130 -0.024260 
#    z -0.016970 -0.024260 2.049100 
# 
# From -- ./inp_files/377494.got.cif
#   From: 2010.05.17/outbox.cif.g08.bks.cpg/sg2_189_cif.got.tgz:377494.got - 2010.06.03 11:33:40.
