data_PCOD9041677
_publ_section_title
;
Structure prediction by ZEFSAII (Michael W. Deem and Ramdas Pophale) SiO2 
 PCOD9041677
Probable space group: P -1
;
_chemical_formula_sum "Si O2"
_cell_formula_units_Z 16
_cell_length_a 25.885281
_cell_length_b 14.678880
_cell_length_c 9.694548
_cell_angle_alpha 133.870333
_cell_angle_beta 143.784857
_cell_angle_gamma 19.656432
_cell_volume 689.536940
_symmetry_space_group_name_H-M "P -1"
_symmetry_group_IT_number 2
_symmetry_cell_setting 'triclinic'
loop_
_space_group_symop_operation_xyz
x,y,z
-x,-y,-z
loop_
_atom_site_type_symbol
_atom_site_label
_atom_site_fract_x
_atom_site_fract_y
_atom_site_fract_z
Si Si1 0.114266 0.598951 0.985318
Si Si2 0.058033 0.728311 0.313576
Si Si3 0.690156 0.355468 0.192154
Si Si4 0.690252 0.914948 0.117937
Si Si5 0.440835 0.890195 0.643706
Si Si6 0.722360 0.664969 0.404518
Si Si7 0.455039 0.490348 0.664608
Si Si8 0.910973 0.889226 0.567533
O O1 0.146117 0.408094 0.874455
O O2 0.962570 0.822380 0.770256
O O3 0.064788 0.718548 0.153447
O O4 0.328897 0.372476 0.161574
O O5 0.179549 0.690548 0.592969
O O6 0.168904 0.469201 0.354104
O O7 0.834109 0.048766 0.210643
O O8 0.567396 0.535075 0.255536
O O9 0.569804 0.471946 0.920492
O O10 0.794556 0.910883 0.302592
O O11 0.618335 0.014004 0.225828
O O12 0.492215 0.126458 0.832009
O O13 0.425312 0.764892 0.435028
O O14 0.318469 0.146514 0.554745
O O15 0.881366 0.385271 0.356393
O O16 0.237337 0.804063 0.466246
#
# Coordination Sequence:
#
# PCOD9041677 Si02
#       8
#     2   2   2   2   2   2   2   2
#     4  11  23  44  69 100 135 176 224 279 336 396
#     4  11  23  44  70  99 130 182 222 275 341 398
#     4  10  23  44  66  92 144 171 220 285 332 394
#     4  11  24  43  69 100 139 173 221 287 332 387
#     4  11  23  44  67 100 140 175 217 285 337 388
#     4  11  23  45  71  99 134 178 227 273 335 400
#     4  11  24  44  66  99 133 180 223 274 337 399
#     4  12  24  44  71  98 134 183 227 270 332 405
#
# _framework density 23.203977999999999
#
# number of rings (size 3 to 8) (size 9 to 14) (size 15 to 20)
#    0.000    1.000    5.000    1.875    1.750    3.000 
#    9.000    1.250    0.000    0.000    0.000    0.000 
#    0.000    0.000    0.000    0.000    0.000    0.000 
#
# Total GULP energy -89512.159082 kJ/mol
# GULP energy per Si atom -5594.509943 kJ/mol
# Density = 2.315116 g / cm^3
# Si number density = 23.203978 Si / 1000 Ang^3
#
#
#
# Elastic Constant Matrix: (Units=GPa)
#
#
# Indices 1 2 3 4 5 6 
#
# 1 42.3944 5.4064 11.9928 -5.4036 4.2286 -4.6319
# 2 5.4064 84.9563 39.2882 -9.6309 -16.4869 11.0651
# 3 11.9928 39.2882 89.9555 -12.5997 -18.7938 6.8870
# 4 -5.4036 -9.6309 -12.5997 34.5967 2.8642 -3.4077
# 5 4.2286 -16.4869 -18.7938 2.8642 26.5558 -3.0034
# 6 -4.6319 11.0651 6.8870 -3.4077 -3.0034 27.5006
#
#
#
# Elastic Compliance Matrix: (Units=1/GPa)
#
#
# Indices 1 2 3 4 5 6 
#
# 1 0.026979 -0.001562 -0.004611 0.003357 -0.008230 0.005845
# 2 -0.001562 0.016133 -0.005016 0.001462 0.006030 -0.004658
# 3 -0.004611 -0.005016 0.016254 0.002938 0.008634 -0.001522
# 4 0.003357 0.001462 0.002938 0.031254 -0.000573 0.003052
# 5 -0.008230 0.006030 0.008634 -0.000573 0.048802 -0.000716
# 6 0.005845 -0.004658 -0.001522 0.003052 -0.000716 0.039903
#
#
# Mechanical properties :
#
#
# Convention : Reuss Voigt Hill
#
# Bulk Modulus (GPa) = 27.03746 36.74234 31.88990
# Shear Modulus (GPa) = 23.36087 28.43855 25.89971
#
# Velocity S-wave (km/s) = 3.17639 3.50464 3.34455
# Velocity P-wave (km/s) = 5.01298 5.67852 5.35610
#
# Compressibility (1/GPa) = 0.03698573
#
# Stress axis : x y z
#
# Youngs Moduli (GPa) = 37.06579 61.98596 61.52235
#
# Poissons Ratio (x) = 0.09684 0.28370
# Poissons Ratio (y) = 0.05791 0.30863
# Poissons Ratio (z) = 0.17092 0.31095
#
# Static dielectric constant tensor:
#      x y z
#    x 1.868080 0.034180 0.030340 
#    y 0.034180 1.875070 -0.024180 
#    z 0.030340 -0.024180 1.916430 
# 
# From -- ./inp_files/357455.got.cif
#   From: 2010.05.17/outbox.cif.g08.bks.cpg/sg2_179_cif.got.tgz:357455.got - 2010.06.03 11:33:40.
