data_PCOD9041454
_publ_section_title
;
Structure prediction by ZEFSAII (Michael W. Deem and Ramdas Pophale) SiO2 
 PCOD9041454
Probable space group: P -1
;
_chemical_formula_sum "Si O2"
_cell_formula_units_Z 14
_cell_length_a 8.631931
_cell_length_b 9.673490
_cell_length_c 11.030445
_cell_angle_alpha 101.741922
_cell_angle_beta 139.969587
_cell_angle_gamma 66.852328
_cell_volume 537.269985
_symmetry_space_group_name_H-M "P -1"
_symmetry_group_IT_number 2
_symmetry_cell_setting 'triclinic'
loop_
_space_group_symop_operation_xyz
x,y,z
-x,-y,-z
loop_
_atom_site_type_symbol
_atom_site_label
_atom_site_fract_x
_atom_site_fract_y
_atom_site_fract_z
Si Si1 0.500909 0.865373 0.565969
Si Si2 0.061741 0.826062 0.152525
Si Si3 0.966446 0.401286 0.076679
Si Si4 0.806600 0.134126 0.140066
Si Si5 0.834665 0.336876 0.384665
Si Si6 0.483730 0.858521 0.815670
Si Si7 0.260461 0.386891 0.790970
O O1 0.290987 0.798424 0.380380
O O2 0.766042 0.720986 0.727451
O O3 0.500000 0.000000 0.500000
O O4 0.036716 0.990032 0.884293
O O5 0.710773 0.053495 0.178881
O O6 0.158899 0.711558 0.078353
O O7 0.571134 0.058738 0.330601
O O8 0.000000 0.500000 0.000000
O O9 0.950195 0.224825 0.317866
O O10 0.819053 0.510503 0.117352
O O11 0.537159 0.255342 0.953589
O O12 0.602435 0.286125 0.278079
O O13 0.734493 0.503680 0.297157
O O14 0.040057 0.324596 0.608989
O O15 0.786956 0.810557 0.017614
#
# Coordination Sequence:
#
# PCOD9041454 Si02
#       7
#     2   2   2   2   2   2   2
#     4  11  27  49  72 107 154 203 252 304 381 459
#     4  11  25  49  71 108 153 195 245 319 374 455
#     4  11  28  49  77 112 154 203 254 303 388 454
#     4  10  23  43  76 109 147 193 253 314 382 439
#     4   9  24  41  74 112 145 195 256 313 370 444
#     4   9  23  42  69 110 139 197 247 307 375 435
#     4  11  22  48  75 110 154 198 254 316 370 451
#
# _framework density 26.057663000000002
#
# number of rings (size 3 to 8) (size 9 to 14) (size 15 to 20)
#    0.857    0.857    0.000    2.571    6.000    6.857 
#    5.143    0.000    0.000    0.000    0.000    0.000 
#    0.000    0.000    0.000    0.000    0.000    0.000 
#
# Total GULP energy -78263.648608 kJ/mol
# GULP energy per Si atom -5590.260615 kJ/mol
# Density = 2.599835 g / cm^3
# Si number density = 26.057663 Si / 1000 Ang^3
#
#
#
# Elastic Constant Matrix: (Units=GPa)
#
#
# Indices 1 2 3 4 5 6 
#
# 1 123.1317 39.2324 55.6327 -8.1945 -21.8191 3.0238
# 2 39.2324 121.5532 68.6965 -1.1727 -10.4838 -18.3449
# 3 55.6327 68.6965 182.9667 6.4800 -13.7573 -17.0804
# 4 -8.1945 -1.1727 6.4800 61.1368 7.6257 -6.8534
# 5 -21.8191 -10.4838 -13.7573 7.6257 32.2922 -0.6095
# 6 3.0238 -18.3449 -17.0804 -6.8534 -0.6095 61.6701
#
#
#
# Elastic Compliance Matrix: (Units=1/GPa)
#
#
# Indices 1 2 3 4 5 6 
#
# 1 0.010865 -0.001948 -0.002339 0.000800 0.005493 -0.001617
# 2 -0.001948 0.011201 -0.003328 0.000490 0.000835 0.002568
# 3 -0.002339 -0.003328 0.007639 -0.001173 0.000892 0.001119
# 4 0.000800 0.000490 -0.001173 0.017264 -0.003845 0.001662
# 5 0.005493 0.000835 0.000892 -0.003845 0.036241 0.000157
# 6 -0.001617 0.002568 0.001119 0.001662 0.000157 0.017555
#
#
# Mechanical properties :
#
#
# Convention : Reuss Voigt Hill
#
# Bulk Modulus (GPa) = 69.07798 83.86386 76.47092
# Shear Modulus (GPa) = 41.38465 48.62582 45.00524
#
# Velocity S-wave (km/s) = 3.98954 4.32451 4.16040
# Velocity P-wave (km/s) = 6.91297 7.56234 7.24493
#
# Compressibility (1/GPa) = 0.01447639
#
# Stress axis : x y z
#
# Youngs Moduli (GPa) = 92.03991 89.28026 130.90491
#
# Poissons Ratio (x) = 0.17388 0.30613
# Poissons Ratio (y) = 0.17925 0.43565
# Poissons Ratio (z) = 0.21524 0.29713
#
# Static dielectric constant tensor:
#      x y z
#    x 2.141450 0.035380 0.000980 
#    y 0.035380 2.101550 0.005960 
#    z 0.000980 0.005960 2.017250 
# 
# From -- ./inp_files/515798.got.cif
#   From: 2010.05.17/outbox.cif.g08.bks.cpg/sg2_258_cif.got.tgz:515798.got - 2010.06.03 11:33:40.
