data_PCOD9041589
_publ_section_title
;
Structure prediction by ZEFSAII (Michael W. Deem and Ramdas Pophale) SiO2 
 PCOD9041589
Probable space group: P -1
;
_chemical_formula_sum "Si O2"
_cell_formula_units_Z 16
_cell_length_a 11.886810
_cell_length_b 12.365890
_cell_length_c 12.830727
_cell_angle_alpha 140.621770
_cell_angle_beta 106.256930
_cell_angle_gamma 101.762962
_cell_volume 831.451710
_symmetry_space_group_name_H-M "P -1"
_symmetry_group_IT_number 2
_symmetry_cell_setting 'triclinic'
loop_
_space_group_symop_operation_xyz
x,y,z
-x,-y,-z
loop_
_atom_site_type_symbol
_atom_site_label
_atom_site_fract_x
_atom_site_fract_y
_atom_site_fract_z
Si Si1 0.828112 0.502329 0.675377
Si Si2 0.819430 0.154330 0.982237
Si Si3 0.502559 0.398718 0.532270
Si Si4 0.497896 0.259110 0.089588
Si Si5 0.496945 0.694822 0.121489
Si Si6 0.823932 0.437208 0.012864
Si Si7 0.253703 0.755538 0.751206
Si Si8 0.177405 0.788144 0.363506
O O1 0.669903 0.459795 0.621522
O O2 0.825919 0.423262 0.499259
O O3 0.815618 0.335875 0.630543
O O4 0.007131 0.763417 0.931253
O O5 0.657427 0.880633 0.718710
O O6 0.811722 0.302068 0.009053
O O7 0.823614 0.235064 0.160188
O O8 0.500000 0.500000 0.500000
O O9 0.496929 0.539456 0.723154
O O10 0.634603 0.279525 0.194341
O O11 0.507991 0.265768 0.973111
O O12 0.341633 0.002679 0.901183
O O13 0.662980 0.939187 0.389987
O O14 0.500000 0.500000 0.000000
O O15 0.333358 0.604517 0.061155
O O16 0.001556 0.702247 0.260279
O O17 0.821701 0.318578 0.821604
#
# Coordination Sequence:
#
# PCOD9041589 Si02
#       8
#     2   2   2   2   2   2   2   2
#     4  11  23  40  66  91 119 165 210 251 309 374
#     4  11  23  40  66  91 119 165 210 251 309 374
#     4  12  23  40  58  88 131 159 192 258 311 359
#     4  11  23  39  62  92 127 169 198 254 313 358
#     4  12  25  40  65  94 125 165 208 248 315 375
#     4  10  23  44  65  90 122 161 211 259 302 361
#     4  11  19  42  66  89 127 160 209 255 302 369
#     4  10  23  44  65  90 122 161 211 259 302 361
#
# _framework density 19.243451
#
# number of rings (size 3 to 8) (size 9 to 14) (size 15 to 20)
#    0.000    1.000    5.000    2.250    3.500    1.000 
#    0.000    1.250    0.000    0.000    0.000    0.000 
#    0.000    0.000    0.000    0.000    0.000    0.000 
#
# Total GULP energy -89236.952120 kJ/mol
# GULP energy per Si atom -5577.309507 kJ/mol
# Density = 1.919965 g / cm^3
# Si number density = 19.243451 Si / 1000 Ang^3
#
#
#
# Elastic Constant Matrix: (Units=GPa)
#
#
# Indices 1 2 3 4 5 6 
#
# 1 113.5660 33.7788 103.7867 46.8456 24.4518 19.2508
# 2 33.7788 72.7316 7.7750 -4.5484 8.4348 5.3844
# 3 103.7867 7.7750 87.2977 -0.0385 21.3876 -4.7955
# 4 46.8456 -4.5484 -0.0385 23.1930 15.0559 -7.9561
# 5 24.4518 8.4348 21.3876 15.0559 34.3029 -1.5578
# 6 19.2508 5.3844 -4.7955 -7.9561 -1.5578 22.7581
#
#
#
# Elastic Compliance Matrix: (Units=1/GPa)
#
#
# Indices 1 2 3 4 5 6 
#
# 1 -0.003187 0.002125 0.006080 0.015031 -0.008268 0.008163
# 2 0.002125 0.013669 -0.003755 -0.003023 -0.001525 -0.006983
# 3 0.006080 -0.003755 0.003706 -0.017106 0.001362 -0.009361
# 4 0.015031 -0.003023 -0.017106 0.011051 -0.004704 -0.012062
# 5 -0.008268 -0.001525 0.001362 -0.004704 0.037024 0.008532
# 6 0.008163 -0.006983 -0.009361 -0.012062 0.008532 0.033082
#
#
# Mechanical properties :
#
#
# Convention : Reuss Voigt Hill
#
# Bulk Modulus (GPa) = 43.31307 62.69736 53.00521
# Shear Modulus (GPa) = 53.11188 24.60110 38.85649
#
# Velocity S-wave (km/s) = 5.25927 3.57937 4.49843
# Velocity P-wave (km/s) = 7.70952 7.05226 7.38820
#
# Compressibility (1/GPa) = 0.02308772
#
# Stress axis : x y z
#
# Youngs Moduli (GPa) = -313.80511 73.16021 269.86765
#
# Poissons Ratio (x) = -0.15544 -1.64083
# Poissons Ratio (y) = 0.66672 1.01325
# Poissons Ratio (z) = 1.90797 0.27469
#
# Static dielectric constant tensor:
#      x y z
#    x 1.649500 0.012240 0.077010 
#    y 0.012240 1.625640 0.011720 
#    z 0.077010 0.011720 1.655120 
# 
# From -- ./inp_files/429110.got.cif
#   From: 2010.05.17/outbox.cif.g08.bks.cpg/sg2_215_cif.got.tgz:429110.got - 2010.06.03 11:33:40.
