data_PCOD9041084
_publ_section_title
;
Structure prediction by ZEFSAII (Michael W. Deem and Ramdas Pophale) SiO2 
 PCOD9041084
Probable space group: P -1
;
_chemical_formula_sum "Si O2"
_cell_formula_units_Z 16
_cell_length_a 11.457002
_cell_length_b 20.609945
_cell_length_c 9.181964
_cell_angle_alpha 66.580458
_cell_angle_beta 111.432421
_cell_angle_gamma 157.407857
_cell_volume 764.299580
_symmetry_space_group_name_H-M "P -1"
_symmetry_group_IT_number 2
_symmetry_cell_setting 'triclinic'
loop_
_space_group_symop_operation_xyz
x,y,z
-x,-y,-z
loop_
_atom_site_type_symbol
_atom_site_label
_atom_site_fract_x
_atom_site_fract_y
_atom_site_fract_z
Si Si1 0.864275 0.565604 0.566058
Si Si2 0.168493 0.306501 0.740760
Si Si3 0.642850 0.804071 0.319558
Si Si4 0.206768 0.010225 0.302358
Si Si5 0.403392 0.797688 0.427429
Si Si6 0.229109 0.461196 0.128367
Si Si7 0.201551 0.807519 0.087523
Si Si8 0.633947 0.314825 0.008852
O O1 0.864043 0.642006 0.424086
O O2 0.534652 0.360824 0.591504
O O3 0.937617 0.610840 0.729488
O O4 0.092959 0.630524 0.528007
O O5 0.518570 0.468149 0.786627
O O6 0.994810 0.150594 0.731123
O O7 0.008727 0.246579 0.870888
O O8 0.557831 0.810110 0.409912
O O9 0.987853 0.960580 0.304222
O O10 0.502767 0.765920 0.142572
O O11 0.363864 0.055596 0.474300
O O12 0.461078 0.175487 0.166228
O O13 0.311540 0.803939 0.252741
O O14 0.415055 0.627885 0.024478
O O15 0.992624 0.322276 0.018947
O O16 0.500000 0.000000 0.000000
O O17 0.000000 0.500000 0.000000
#
# Coordination Sequence:
#
# PCOD9041084 Si02
#       8
#     2   2   2   2   2   2   2   2
#     4  10  23  43  70  98 135 181 225 272 337 406
#     4  11  25  43  69 100 138 178 223 276 338 405
#     4  11  23  43  68 100 134 179 226 279 332 391
#     4  12  25  42  69 104 135 177 225 277 339 399
#     4  11  26  42  64  99 138 177 225 278 334 395
#     4  11  23  45  69  97 133 181 226 275 338 396
#     4  11  28  43  68 100 134 177 223 285 333 403
#     4  11  24  42  71  98 134 180 225 277 335 402
#
# _framework density 20.934197999999999
#
# number of rings (size 3 to 8) (size 9 to 14) (size 15 to 20)
#    0.000    1.000    2.500    4.125    7.000    3.000 
#    0.000    0.000    0.000    0.000    0.000    0.000 
#    0.000    0.000    0.000    0.000    0.000    0.000 
#
# Total GULP energy -89419.146593 kJ/mol
# GULP energy per Si atom -5588.696662 kJ/mol
# Density = 2.088655 g / cm^3
# Si number density = 20.934198 Si / 1000 Ang^3
#
#
#
# Elastic Constant Matrix: (Units=GPa)
#
#
# Indices 1 2 3 4 5 6 
#
# 1 95.0986 25.2424 41.0479 -13.5605 -15.2899 9.1276
# 2 25.2424 89.3815 66.1815 0.3945 -12.1853 8.6286
# 3 41.0479 66.1815 126.5614 6.0520 -18.4220 -6.4285
# 4 -13.5605 0.3945 6.0520 38.0548 6.4424 -6.8359
# 5 -15.2899 -12.1853 -18.4220 6.4424 29.4425 2.7249
# 6 9.1276 8.6286 -6.4285 -6.8359 2.7249 36.9528
#
#
#
# Elastic Compliance Matrix: (Units=1/GPa)
#
#
# Indices 1 2 3 4 5 6 
#
# 1 0.014013 0.000269 -0.004510 0.004355 0.003966 -0.003796
# 2 0.000269 0.019816 -0.010430 -0.000069 0.002451 -0.006702
# 3 -0.004510 -0.010430 0.015776 -0.003639 0.003512 0.005362
# 4 0.004355 -0.000069 -0.003639 0.030414 -0.007112 0.004458
# 5 0.003966 0.002451 0.003512 -0.007112 0.041282 -0.005300
# 6 -0.003796 -0.006702 0.005362 0.004458 -0.005300 0.031712
#
#
# Mechanical properties :
#
#
# Convention : Reuss Voigt Hill
#
# Bulk Modulus (GPa) = 49.34753 63.99834 56.67294
# Shear Modulus (GPa) = 26.43985 32.79465 29.61725
#
# Velocity S-wave (km/s) = 3.55772 3.96227 3.76543
# Velocity P-wave (km/s) = 6.36399 7.18125 6.78494
#
# Compressibility (1/GPa) = 0.02026444
#
# Stress axis : x y z
#
# Youngs Moduli (GPa) = 71.36098 50.46435 63.38930
#
# Poissons Ratio (x) = -0.01360 0.28586
# Poissons Ratio (y) = -0.01923 0.66115
# Poissons Ratio (z) = 0.32181 0.52634
#
# Static dielectric constant tensor:
#      x y z
#    x 1.786160 0.017360 0.012070 
#    y 0.017360 1.721170 0.002420 
#    z 0.012070 0.002420 1.751870 
# 
# From -- ./inp_files/261679.got.cif
#   From: 2010.05.17/outbox.cif.g08.bks.cpg/sg2_131_cif.got.tgz:261679.got - 2010.06.03 11:33:40.
