data_PCOD9041860
_publ_section_title
;
Structure prediction by ZEFSAII (Michael W. Deem and Ramdas Pophale) SiO2 
 PCOD9041860
Probable space group: P -1
;
_chemical_formula_sum "Si O2"
_cell_formula_units_Z 16
_cell_length_a 7.993064
_cell_length_b 12.606409
_cell_length_c 15.839823
_cell_angle_alpha 28.620896
_cell_angle_beta 102.456004
_cell_angle_gamma 98.802956
_cell_volume 744.294986
_symmetry_space_group_name_H-M "P -1"
_symmetry_group_IT_number 2
_symmetry_cell_setting 'triclinic'
loop_
_space_group_symop_operation_xyz
x,y,z
-x,-y,-z
loop_
_atom_site_type_symbol
_atom_site_label
_atom_site_fract_x
_atom_site_fract_y
_atom_site_fract_z
Si Si1 0.859851 0.100693 0.481819
Si Si2 0.476419 0.403883 0.469930
Si Si3 0.313262 0.743653 0.805197
Si Si4 0.955772 0.759323 0.291324
Si Si5 0.855475 0.824688 0.420562
Si Si6 0.278996 0.262671 0.160338
Si Si7 0.377648 0.201794 0.884681
Si Si8 0.272586 0.015834 0.171787
O O1 0.730430 0.246175 0.306591
O O2 0.962861 0.227214 0.475937
O O3 0.770161 0.900241 0.656862
O O4 0.000000 0.000000 0.500000
O O5 0.500000 0.500000 0.500000
O O6 0.279925 0.361392 0.459411
O O7 0.544562 0.572522 0.292558
O O8 0.591234 0.171176 0.643836
O O9 0.517530 0.748224 0.829557
O O10 0.228577 0.956396 0.695953
O O11 0.237731 0.523473 0.988011
O O12 0.881431 0.863346 0.297834
O O13 0.810788 0.788751 0.184495
O O14 0.000000 0.500000 0.500000
O O15 0.127324 0.879271 0.207633
O O16 0.196961 0.170311 0.131072
O O17 0.361851 0.158009 0.012354
O O18 0.500000 0.000000 0.000000
#
# Coordination Sequence:
#
# PCOD9041860 Si02
#       8
#     2   2   2   2   2   2   2   2
#     4  10  23  44  67  99 133 171 230 276 345 408
#     4  12  22  45  69  94 141 182 227 279 339 403
#     4  10  24  44  70  99 132 174 233 281 344 406
#     4  12  24  44  72  98 144 184 227 287 343 405
#     4  11  22  43  71  97 135 189 217 281 349 400
#     4  11  23  45  71  96 137 173 223 292 344 404
#     4  12  26  44  70 102 138 184 238 276 337 417
#     4  12  24  44  69 102 134 182 230 283 345 407
#
# _framework density 21.496853000000002
#
# number of rings (size 3 to 8) (size 9 to 14) (size 15 to 20)
#    0.000    0.750    6.250    0.750    0.000    4.000 
#   11.250    0.000    0.000    0.000    0.000    0.000 
#    0.000    0.000    0.000    0.000    0.000    0.000 
#
# Total GULP energy -89468.228826 kJ/mol
# GULP energy per Si atom -5591.764302 kJ/mol
# Density = 2.144793 g / cm^3
# Si number density = 21.496853 Si / 1000 Ang^3
#
#
#
# Elastic Constant Matrix: (Units=GPa)
#
#
# Indices 1 2 3 4 5 6 
#
# 1 50.5393 7.2748 33.4564 -7.9043 -21.3062 15.8712
# 2 7.2748 56.8911 25.7313 -16.5957 1.4681 7.2068
# 3 33.4564 25.7313 117.3961 4.3825 -23.3367 10.0846
# 4 -7.9043 -16.5957 4.3825 23.2239 1.0106 -9.3541
# 5 -21.3062 1.4681 -23.3367 1.0106 34.9151 2.8014
# 6 15.8712 7.2068 10.0846 -9.3541 2.8014 44.4750
#
#
#
# Elastic Compliance Matrix: (Units=1/GPa)
#
#
# Indices 1 2 3 4 5 6 
#
# 1 0.036699 0.002218 -0.006726 0.010130 0.018392 -0.010959
# 2 0.002218 0.028417 -0.009328 0.024013 -0.006948 0.002207
# 3 -0.006726 -0.009328 0.014481 -0.012985 0.006545 -0.002515
# 4 0.010130 0.024013 -0.012985 0.070712 -0.006413 0.010714
# 5 0.018392 -0.006948 0.006545 -0.006413 0.045611 -0.011143
# 6 -0.010959 0.002207 -0.002515 0.010714 -0.011143 0.029563
#
#
# Mechanical properties :
#
#
# Convention : Reuss Voigt Hill
#
# Bulk Modulus (GPa) = 19.25800 39.75017 29.50409
# Shear Modulus (GPa) = 18.48676 31.08039 24.78358
#
# Velocity S-wave (km/s) = 2.93571 3.80651 3.39911
# Velocity P-wave (km/s) = 4.52429 6.15229 5.39999
#
# Compressibility (1/GPa) = 0.05192646
#
# Stress axis : x y z
#
# Youngs Moduli (GPa) = 27.24861 35.18969 69.05494
#
# Poissons Ratio (x) = -0.07804 0.46443
# Poissons Ratio (y) = -0.06043 0.64414
# Poissons Ratio (z) = 0.18326 0.32825
#
# Static dielectric constant tensor:
#      x y z
#    x 1.820510 0.015090 0.030620 
#    y 0.015090 1.802630 -0.015630 
#    z 0.030620 -0.015630 1.753300 
# 
# From -- ./inp_files/107150.got.cif
#   From: 2010.05.17/outbox.cif.g08.bks.cpg/sg2_54_cif.got.tgz:107150.got - 2010.06.03 11:33:40.
