data_PCOD9041236
_publ_section_title
;
Structure prediction by ZEFSAII (Michael W. Deem and Ramdas Pophale) SiO2 
 PCOD9041236
Probable space group: P -1
;
_chemical_formula_sum "Si O2"
_cell_formula_units_Z 16
_cell_length_a 8.590319
_cell_length_b 12.955587
_cell_length_c 8.682121
_cell_angle_alpha 78.744684
_cell_angle_beta 125.829040
_cell_angle_gamma 102.410354
_cell_volume 762.160641
_symmetry_space_group_name_H-M "P -1"
_symmetry_group_IT_number 2
_symmetry_cell_setting 'triclinic'
loop_
_space_group_symop_operation_xyz
x,y,z
-x,-y,-z
loop_
_atom_site_type_symbol
_atom_site_label
_atom_site_fract_x
_atom_site_fract_y
_atom_site_fract_z
Si Si1 0.300126 0.025623 0.941764
Si Si2 0.696777 0.022375 0.700182
Si Si3 0.497212 0.580416 0.620820
Si Si4 0.289998 0.230098 0.673982
Si Si5 0.299653 0.740377 0.258732
Si Si6 0.044493 0.079503 0.359509
Si Si7 0.813209 0.550792 0.315464
Si Si8 0.908807 0.595635 0.001375
O O1 0.257791 0.134586 0.806339
O O2 0.159734 0.919774 0.840315
O O3 0.500000 0.000000 0.000000
O O4 0.305470 0.038665 0.122745
O O5 0.727163 0.144980 0.725954
O O6 0.500000 0.000000 0.500000
O O7 0.849677 0.982373 0.688086
O O8 0.500000 0.500000 0.500000
O O9 0.376944 0.671135 0.461655
O O10 0.377118 0.521970 0.709599
O O11 0.717447 0.617629 0.790132
O O12 0.518378 0.251473 0.757355
O O13 0.172701 0.182842 0.468209
O O14 0.207014 0.333878 0.657034
O O15 0.092600 0.686174 0.094007
O O16 0.000000 0.000000 0.500000
O O17 0.837519 0.563256 0.142536
O O18 0.000000 0.500000 0.500000
O O19 0.000000 0.500000 0.000000
#
# Coordination Sequence:
#
# PCOD9041236 Si02
#       8
#     2   2   2   2   2   2   2   2
#     4  11  23  45  67 104 145 191 241 296 355 433
#     4  12  24  46  71 106 149 189 239 297 359 428
#     4  12  24  47  73 105 146 188 241 301 363 437
#     4  11  24  47  72 104 145 190 244 298 364 435
#     4  12  25  45  75 106 148 190 245 295 370 426
#     4  10  23  43  71  99 144 190 235 298 355 427
#     4  12  25  48  75 108 145 190 243 304 363 441
#     4  12  26  47  74 105 147 190 241 304 368 432
#
# _framework density 20.99295
#
# number of rings (size 3 to 8) (size 9 to 14) (size 15 to 20)
#    0.000    0.500    6.250    1.500    3.500    2.000 
#    0.000    1.250    0.000    0.000    0.000    0.000 
#    0.000    0.000    0.000    0.000    0.000    0.000 
#
# Total GULP energy -89422.792155 kJ/mol
# GULP energy per Si atom -5588.924510 kJ/mol
# Density = 2.094517 g / cm^3
# Si number density = 20.992950 Si / 1000 Ang^3
#
#
#
# Elastic Constant Matrix: (Units=GPa)
#
#
# Indices 1 2 3 4 5 6 
#
# 1 161.5688 60.3778 63.8782 21.3839 -5.6159 -4.4288
# 2 60.3778 138.5370 57.8831 7.1165 4.6972 -8.5401
# 3 63.8782 57.8831 145.1874 21.9620 12.0787 11.9778
# 4 21.3839 7.1165 21.9620 33.8860 8.6910 4.3826
# 5 -5.6159 4.6972 12.0787 8.6910 56.1273 5.2118
# 6 -4.4288 -8.5401 11.9778 4.3826 5.2118 43.5285
#
#
#
# Elastic Compliance Matrix: (Units=1/GPa)
#
#
# Indices 1 2 3 4 5 6 
#
# 1 0.008791 -0.002572 -0.002504 -0.004097 0.002153 0.001233
# 2 -0.002572 0.009742 -0.003110 0.001496 -0.000863 0.002458
# 3 -0.002504 -0.003110 0.010142 -0.003595 -0.001325 -0.003135
# 4 -0.004097 0.001496 -0.003595 0.035691 -0.005091 -0.002118
# 5 0.002153 -0.000863 -0.001325 -0.005091 0.019306 -0.001385
# 6 0.001233 0.002458 -0.003135 -0.002118 -0.001385 0.024823
#
#
# Mechanical properties :
#
#
# Convention : Reuss Voigt Hill
#
# Bulk Modulus (GPa) = 81.27144 89.95237 85.61191
# Shear Modulus (GPa) = 38.76924 44.25198 41.51061
#
# Velocity S-wave (km/s) = 4.30207 4.59622 4.45158
# Velocity P-wave (km/s) = 7.96711 8.43260 8.20316
#
# Compressibility (1/GPa) = 0.01230445
#
# Stress axis : x y z
#
# Youngs Moduli (GPa) = 113.75077 102.64330 98.60326
#
# Poissons Ratio (x) = 0.26398 0.24688
# Poissons Ratio (y) = 0.29255 0.30664
# Poissons Ratio (z) = 0.28480 0.31921
#
# Static dielectric constant tensor:
#      x y z
#    x 1.794240 0.093240 0.061400 
#    y 0.093240 1.776130 0.024580 
#    z 0.061400 0.024580 1.829540 
# 
# From -- ./inp_files/187099.got.cif
#   From: 2010.05.17/outbox.cif.g08.bks.cpg/sg2_94_cif.got.tgz:187099.got - 2010.06.03 11:33:40.
