data_PCOD9041549
_publ_section_title
;
Structure prediction by ZEFSAII (Michael W. Deem and Ramdas Pophale) SiO2 
 PCOD9041549
Probable space group: P -1
;
_chemical_formula_sum "Si O2"
_cell_formula_units_Z 16
_cell_length_a 5.143929
_cell_length_b 25.594082
_cell_length_c 20.158062
_cell_angle_alpha 13.411960
_cell_angle_beta 91.792388
_cell_angle_gamma 92.511016
_cell_volume 614.245160
_symmetry_space_group_name_H-M "P -1"
_symmetry_group_IT_number 2
_symmetry_cell_setting 'triclinic'
loop_
_space_group_symop_operation_xyz
x,y,z
-x,-y,-z
loop_
_atom_site_type_symbol
_atom_site_label
_atom_site_fract_x
_atom_site_fract_y
_atom_site_fract_z
Si Si1 0.839024 0.783867 0.928691
Si Si2 0.061885 0.240253 0.308952
Si Si3 0.445286 0.275989 0.375988
Si Si4 0.479274 0.961850 0.874600
Si Si5 0.965312 0.699391 0.188840
Si Si6 0.467304 0.384816 0.441802
Si Si7 0.034455 0.736768 0.331762
Si Si8 0.970876 0.564273 0.063763
O O1 0.560730 0.638043 0.109549
O O2 0.967389 0.656864 0.023897
O O3 0.887630 0.046057 0.585066
O O4 0.952239 0.753199 0.041642
O O5 0.349737 0.237453 0.347181
O O6 0.018190 0.231069 0.241577
O O7 0.000000 0.500000 0.000000
O O8 0.703624 0.426551 0.209808
O O9 0.206625 0.401016 0.254839
O O10 0.472713 0.035018 0.707718
O O11 0.534700 0.199254 0.617571
O O12 0.201717 0.857194 0.023032
O O13 0.694392 0.785065 0.105871
O O14 0.030025 0.437697 0.512827
O O15 0.173132 0.340910 0.517092
O O16 0.666645 0.315014 0.587415
O O17 0.000000 0.000000 0.000000
#
# Coordination Sequence:
#
# PCOD9041549 Si02
#       8
#     2   2   2   2   2   2   2   2
#     4  11  23  42  67  98 137 176 243 282 342 408
#     4  10  23  44  64  95 134 187 232 294 357 397
#     4  11  23  42  67  89 136 177 231 289 349 403
#     4  12  23  43  68 104 138 174 237 283 334 403
#     4  11  25  41  70 103 135 182 226 284 340 408
#     4  11  25  43  76 105 138 187 228 279 341 408
#     4  11  25  51  75 107 145 180 219 275 346 421
#     4  11  24  42  63  95 130 182 236 291 346 407
#
# _framework density 26.048233
#
# number of rings (size 3 to 8) (size 9 to 14) (size 15 to 20)
#    0.000    1.000    2.500    4.125    5.250    1.000 
#    0.000    6.875    0.000    0.000    0.000    0.000 
#    0.000    0.000    0.000    0.000    0.000    0.000 
#
# Total GULP energy -89531.683494 kJ/mol
# GULP energy per Si atom -5595.730218 kJ/mol
# Density = 2.598895 g / cm^3
# Si number density = 26.048233 Si / 1000 Ang^3
#
#
#
# Elastic Constant Matrix: (Units=GPa)
#
#
# Indices 1 2 3 4 5 6 
#
# 1 119.8391 9.4465 48.0724 -0.8633 7.0730 8.0229
# 2 9.4465 68.4819 21.7789 -18.3435 10.4616 -1.5838
# 3 48.0724 21.7789 185.1455 -15.7335 -15.0947 7.5998
# 4 -0.8633 -18.3435 -15.7335 52.5342 -0.6549 5.2740
# 5 7.0730 10.4616 -15.0947 -0.6549 50.0588 3.5984
# 6 8.0229 -1.5838 7.5998 5.2740 3.5984 37.9284
#
#
#
# Elastic Compliance Matrix: (Units=1/GPa)
#
#
# Indices 1 2 3 4 5 6 
#
# 1 0.009622 -0.000398 -0.002619 -0.000665 -0.001985 -0.001247
# 2 -0.000398 0.017327 -0.001849 0.005356 -0.004111 0.000823
# 3 -0.002619 -0.001849 0.006717 0.001495 0.002899 -0.001352
# 4 -0.000665 0.005356 0.001495 0.021636 -0.000080 -0.002936
# 5 -0.001985 -0.004111 0.002899 -0.000080 0.022164 -0.002424
# 6 -0.001247 0.000823 -0.001352 -0.002936 -0.002424 0.027573
#
#
# Mechanical properties :
#
#
# Convention : Reuss Voigt Hill
#
# Bulk Modulus (GPa) = 41.77870 59.11799 50.44835
# Shear Modulus (GPa) = 40.73370 47.71551 44.22461
#
# Velocity S-wave (km/s) = 3.95876 4.28461 4.12490
# Velocity P-wave (km/s) = 6.08025 6.87183 6.48812
#
# Compressibility (1/GPa) = 0.02393564
#
# Stress axis : x y z
#
# Youngs Moduli (GPa) = 103.92634 57.71333 148.86613
#
# Poissons Ratio (x) = 0.02298 0.38984
# Poissons Ratio (y) = 0.04138 0.27521
# Poissons Ratio (z) = 0.27215 0.10669
#
# Static dielectric constant tensor:
#      x y z
#    x 2.046090 -0.050780 0.012780 
#    y -0.050780 2.248350 0.076690 
#    z 0.012780 0.076690 2.032470 
# 
# From -- ./inp_files/605313.got.cif
#   From: 2010.05.17/outbox.cif.g08.bks.cpg/sg2_303_cif.got.tgz:605313.got - 2010.06.03 11:33:40.
