data_PCOD9041153
_publ_section_title
;
Structure prediction by ZEFSAII (Michael W. Deem and Ramdas Pophale) SiO2 
 PCOD9041153
Probable space group: P -1
;
_chemical_formula_sum "Si O2"
_cell_formula_units_Z 16
_cell_length_a 8.978098
_cell_length_b 16.110654
_cell_length_c 8.916959
_cell_angle_alpha 44.771396
_cell_angle_beta 61.358980
_cell_angle_gamma 48.304420
_cell_volume 678.203504
_symmetry_space_group_name_H-M "P -1"
_symmetry_group_IT_number 2
_symmetry_cell_setting 'triclinic'
loop_
_space_group_symop_operation_xyz
x,y,z
-x,-y,-z
loop_
_atom_site_type_symbol
_atom_site_label
_atom_site_fract_x
_atom_site_fract_y
_atom_site_fract_z
Si Si1 0.809190 0.027890 0.712005
Si Si2 0.126453 0.287183 0.422641
Si Si3 0.592649 0.338788 0.277850
Si Si4 0.442641 0.799359 0.154793
Si Si5 0.486547 0.259720 0.153034
Si Si6 0.798887 0.970041 0.478678
Si Si7 0.779299 0.633096 0.439700
Si Si8 0.697310 0.396138 0.445326
O O1 0.701471 0.177917 0.485758
O O2 0.679425 0.052124 0.892240
O O3 0.032614 0.991039 0.682215
O O4 0.812663 0.932375 0.697406
O O5 0.254216 0.336109 0.206870
O O6 0.155084 0.155296 0.489697
O O7 0.208456 0.262538 0.583740
O O8 0.890528 0.394997 0.403395
O O9 0.584790 0.330518 0.112562
O O10 0.366872 0.407475 0.357195
O O11 0.683027 0.404005 0.260807
O O12 0.654557 0.710053 0.252589
O O13 0.293618 0.744878 0.336167
O O14 0.475437 0.770146 0.001540
O O15 0.586944 0.104562 0.371651
O O16 0.000000 0.500000 0.500000
O O17 0.500000 0.500000 0.500000
#
# Coordination Sequence:
#
# PCOD9041153 Si02
#       8
#     2   2   2   2   2   2   2   2
#     4   8  16  32  56  77 105 148 186 216 260 339
#     4  11  19  35  56  86 106 143 195 225 260 332
#     4   8  16  34  51  77 106 144 178 211 274 336
#     4  10  20  39  52  81 113 145 181 226 282 325
#     4  10  22  33  55  80 120 146 171 228 284 328
#     4  10  17  33  57  82 106 151 189 214 268 333
#     4   9  18  34  57  75 103 145 184 223 274 330
#     4  10  19  36  62  80 101 141 198 235 262 325
#
# _framework density 23.591739
#
# number of rings (size 3 to 8) (size 9 to 14) (size 15 to 20)
#    0.000    2.750    2.500    2.625    0.000    0.500 
#    0.000   10.000    0.000    0.000    0.000    0.000 
#    0.000    0.000    0.000    0.000    0.000    0.000 
#
# Total GULP energy -89132.680894 kJ/mol
# GULP energy per Si atom -5570.792556 kJ/mol
# Density = 2.353804 g / cm^3
# Si number density = 23.591739 Si / 1000 Ang^3
#
#
#
# Elastic Constant Matrix: (Units=GPa)
#
#
# Indices 1 2 3 4 5 6 
#
# 1 153.4889 33.8571 48.5741 31.5249 26.2602 8.4253
# 2 33.8571 72.4795 20.7832 36.0492 3.6376 -5.7273
# 3 48.5741 20.7832 55.6798 25.6798 27.0569 14.8405
# 4 31.5249 36.0492 25.6798 35.5890 17.2299 5.9750
# 5 26.2602 3.6376 27.0569 17.2299 32.3224 27.2528
# 6 8.4253 -5.7273 14.8405 5.9750 27.2528 50.7481
#
#
#
# Elastic Compliance Matrix: (Units=1/GPa)
#
#
# Indices 1 2 3 4 5 6 
#
# 1 0.009536 -0.002327 -0.005847 -0.000097 -0.004448 0.002264
# 2 -0.002327 0.037152 -0.003347 -0.046538 0.029263 -0.004677
# 3 -0.005847 -0.003347 0.040595 -0.007337 -0.029536 0.005447
# 4 -0.000097 -0.046538 -0.007337 0.106318 -0.058582 0.015852
# 5 -0.004448 0.029263 -0.029536 -0.058582 0.129212 -0.049814
# 6 0.002264 -0.004677 0.005447 0.015852 -0.049814 0.042093
#
#
# Mechanical properties :
#
#
# Convention : Reuss Voigt Hill
#
# Bulk Modulus (GPa) = 15.56680 54.23077 34.89879
# Shear Modulus (GPa) = 12.21409 35.62749 23.92079
#
# Velocity S-wave (km/s) = 2.27783 3.89030 3.18771
# Velocity P-wave (km/s) = 3.67842 6.57392 5.32668
#
# Compressibility (1/GPa) = 0.06423926
#
# Stress axis : x y z
#
# Youngs Moduli (GPa) = 104.87041 26.91626 24.63346
#
# Poissons Ratio (x) = 0.06264 0.14404
# Poissons Ratio (y) = 0.24407 0.08245
# Poissons Ratio (z) = 0.61323 0.09009
#
# Static dielectric constant tensor:
#      x y z
#    x 1.946090 0.061460 0.028910 
#    y 0.061460 2.038680 0.001540 
#    z 0.028910 0.001540 1.958810 
# 
# From -- ./inp_files/212184.got.cif
#   From: 2010.05.17/outbox.cif.g08.bks.cpg/sg2_107_cif.got.tgz:212184.got - 2010.06.03 11:33:40.
