data_PCOD9041817
_publ_section_title
;
Structure prediction by ZEFSAII (Michael W. Deem and Ramdas Pophale) SiO2 
 PCOD9041817
Probable space group: P -1
;
_chemical_formula_sum "Si O2"
_cell_formula_units_Z 14
_cell_length_a 6.826828
_cell_length_b 12.639215
_cell_length_c 7.603777
_cell_angle_alpha 103.427531
_cell_angle_beta 123.742627
_cell_angle_gamma 79.457172
_cell_volume 529.475260
_symmetry_space_group_name_H-M "P -1"
_symmetry_group_IT_number 2
_symmetry_cell_setting 'triclinic'
loop_
_space_group_symop_operation_xyz
x,y,z
-x,-y,-z
loop_
_atom_site_type_symbol
_atom_site_label
_atom_site_fract_x
_atom_site_fract_y
_atom_site_fract_z
Si Si1 0.887907 0.878807 0.697290
Si Si2 0.239475 0.556732 0.854663
Si Si3 0.148127 0.178428 0.712382
Si Si4 0.371665 0.085848 0.097390
Si Si5 0.494130 0.746096 0.528019
Si Si6 0.836529 0.402227 0.581386
Si Si7 0.688053 0.206474 0.904195
O O1 0.890800 0.901780 0.502207
O O2 0.763946 0.761964 0.610712
O O3 0.714047 0.951350 0.767075
O O4 0.136771 0.864748 0.910437
O O5 0.016388 0.488581 0.770770
O O6 0.215384 0.575457 0.640221
O O7 0.500000 0.500000 0.000000
O O8 0.229587 0.671624 0.991400
O O9 0.145894 0.130474 0.888657
O O10 0.981011 0.285341 0.637057
O O11 0.421314 0.206559 0.843643
O O12 0.521633 0.186907 0.271647
O O13 0.500000 0.000000 0.000000
O O14 0.348680 0.810789 0.328062
O O15 0.410378 0.625300 0.460225
#
# Coordination Sequence:
#
# PCOD9041817 Si02
#       7
#     2   2   2   2   2   2   2
#     4   9  22  39  64  93 125 170 209 256 327 381
#     4  11  23  35  63  95 127 165 221 260 297 377
#     4  11  21  39  70  87 131 175 203 257 328 374
#     4  10  23  44  67  95 126 162 217 268 314 385
#     4   9  23  39  63  89 126 166 210 256 329 373
#     4  11  22  39  62  96 124 170 216 255 315 372
#     4  11  20  42  62  92 131 169 211 259 317 378
#
# _framework density 26.441272999999999
#
# number of rings (size 3 to 8) (size 9 to 14) (size 15 to 20)
#    0.857    0.857    2.857    1.714    0.000    1.143 
#    0.000    5.000    0.000    0.000    0.000    0.000 
#    0.000    0.000    0.000    0.000    0.000    0.000 
#
# Total GULP energy -78272.252567 kJ/mol
# GULP energy per Si atom -5590.875183 kJ/mol
# Density = 2.638109 g / cm^3
# Si number density = 26.441273 Si / 1000 Ang^3
#
#
#
# Elastic Constant Matrix: (Units=GPa)
#
#
# Indices 1 2 3 4 5 6 
#
# 1 69.7647 12.3846 35.2248 3.3128 3.2447 25.5153
# 2 12.3846 72.7765 46.3960 5.3297 0.7856 14.3319
# 3 35.2248 46.3960 210.5322 -1.5827 -11.1761 2.6737
# 4 3.3128 5.3297 -1.5827 38.6555 -1.5965 3.0454
# 5 3.2447 0.7856 -11.1761 -1.5965 61.1867 3.6351
# 6 25.5153 14.3319 2.6737 3.0454 3.6351 40.9077
#
#
#
# Elastic Compliance Matrix: (Units=1/GPa)
#
#
# Indices 1 2 3 4 5 6 
#
# 1 0.020839 0.001498 -0.003715 -0.001156 -0.001055 -0.013100
# 2 0.001498 0.017564 -0.004092 -0.002228 -0.000719 -0.006590
# 3 -0.003715 -0.004092 0.006306 0.000943 0.001238 0.003159
# 4 -0.001156 -0.002228 0.000943 0.026404 0.000988 -0.000613
# 5 -0.001055 -0.000719 0.001238 0.000988 0.016704 -0.000729
# 6 -0.013100 -0.006590 0.003159 -0.000613 -0.000729 0.034829
#
#
# Mechanical properties :
#
#
# Convention : Reuss Voigt Hill
#
# Bulk Modulus (GPa) = 31.16287 60.12044 45.64166
# Shear Modulus (GPa) = 34.25593 45.42118 39.83856
#
# Velocity S-wave (km/s) = 3.60328 4.14915 3.88581
# Velocity P-wave (km/s) = 5.39655 6.76318 6.11814
#
# Compressibility (1/GPa) = 0.03208947
#
# Stress axis : x y z
#
# Youngs Moduli (GPa) = 47.98749 56.93608 158.57849
#
# Poissons Ratio (x) = -0.08529 0.58913
# Poissons Ratio (y) = -0.07189 0.64897
# Poissons Ratio (z) = 0.17828 0.23301
#
# Static dielectric constant tensor:
#      x y z
#    x 2.201180 0.033030 0.021300 
#    y 0.033030 2.115900 0.002330 
#    z 0.021300 0.002330 2.032300 
# 
# From -- ./inp_files/208567.got.cif
#   From: 2010.05.17/outbox.cif.g08.bks.cpg/sg2_105_cif.got.tgz:208567.got - 2010.06.03 11:33:40.
