data_PCOD9041116
_publ_section_title
;
Structure prediction by ZEFSAII (Michael W. Deem and Ramdas Pophale) SiO2 
 PCOD9041116
Probable space group: P -1
;
_chemical_formula_sum "Si O2"
_cell_formula_units_Z 16
_cell_length_a 13.991498
_cell_length_b 14.497452
_cell_length_c 9.496179
_cell_angle_alpha 58.864721
_cell_angle_beta 76.510744
_cell_angle_gamma 29.246413
_cell_volume 687.545320
_symmetry_space_group_name_H-M "P -1"
_symmetry_group_IT_number 2
_symmetry_cell_setting 'triclinic'
loop_
_space_group_symop_operation_xyz
x,y,z
-x,-y,-z
loop_
_atom_site_type_symbol
_atom_site_label
_atom_site_fract_x
_atom_site_fract_y
_atom_site_fract_z
Si Si1 0.461561 0.662696 0.365558
Si Si2 0.282438 0.142640 0.916216
Si Si3 0.632801 0.618623 0.135928
Si Si4 0.556811 0.572204 0.912189
Si Si5 0.969558 0.909362 0.028967
Si Si6 0.028400 0.637018 0.388159
Si Si7 0.983778 0.608911 0.751706
Si Si8 0.456520 0.826221 0.501503
O O1 0.500000 0.500000 0.500000
O O2 0.687235 0.481594 0.349281
O O3 0.427622 0.768679 0.430946
O O4 0.245675 0.879899 0.164890
O O5 0.078299 0.392560 0.886957
O O6 0.149808 0.261614 0.717988
O O7 0.500000 0.000000 0.000000
O O8 0.423599 0.892179 0.062347
O O9 0.839652 0.494387 0.137064
O O10 0.560422 0.624020 0.021338
O O11 0.809277 0.332674 0.949926
O O12 0.421440 0.786209 0.683691
O O13 0.500000 0.500000 0.000000
O O14 0.963706 0.824840 0.220266
O O15 0.000000 0.000000 0.000000
O O16 0.019673 0.613504 0.573081
O O17 0.290814 0.371825 0.449410
O O18 0.728763 0.894382 0.656282
#
# Coordination Sequence:
#
# PCOD9041116 Si02
#       8
#     2   2   2   2   2   2   2   2
#     4  12  23  42  66  99 137 178 225 279 341 407
#     4  10  23  43  71 101 129 188 229 282 351 401
#     4  11  22  44  69  93 143 177 223 288 338 404
#     4  11  24  41  64 101 135 182 231 271 341 418
#     4  11  24  40  65  98 138 185 224 276 347 405
#     4  11  22  44  68  98 144 177 222 291 340 407
#     4  11  24  43  70 100 133 180 236 283 343 402
#     4  11  25  41  67 103 137 177 232 280 343 404
#
# _framework density 23.271193
#
# number of rings (size 3 to 8) (size 9 to 14) (size 15 to 20)
#    0.000    1.000    2.500    4.875    1.750    0.500 
#    0.000    4.375    0.000    0.000    0.000    0.000 
#    0.000    0.000    0.000    0.000    0.000    0.000 
#
# Total GULP energy -89264.750331 kJ/mol
# GULP energy per Si atom -5579.046896 kJ/mol
# Density = 2.321823 g / cm^3
# Si number density = 23.271193 Si / 1000 Ang^3
#
#
#
# Elastic Constant Matrix: (Units=GPa)
#
#
# Indices 1 2 3 4 5 6 
#
# 1 128.6827 36.8868 49.5509 9.2022 20.2766 18.6069
# 2 36.8868 101.8391 29.4949 -8.5486 -8.3594 11.9158
# 3 49.5509 29.4949 92.5835 -2.7230 3.7546 -1.7166
# 4 9.2022 -8.5486 -2.7230 47.5919 0.6045 4.5799
# 5 20.2766 -8.3594 3.7546 0.6045 39.3705 3.6518
# 6 18.6069 11.9158 -1.7166 4.5799 3.6518 38.8083
#
#
#
# Elastic Compliance Matrix: (Units=1/GPa)
#
#
# Indices 1 2 3 4 5 6 
#
# 1 0.012704 -0.003180 -0.005700 -0.002847 -0.006218 -0.004446
# 2 -0.003180 0.012741 -0.002526 0.003016 0.004845 -0.003311
# 3 -0.005700 -0.002526 0.014738 0.001101 0.000608 0.003973
# 4 -0.002847 0.003016 0.001101 0.022367 0.001874 -0.002328
# 5 -0.006218 0.004845 0.000608 0.001874 0.029683 -0.001494
# 6 -0.004446 -0.003311 0.003973 -0.002328 -0.001494 0.029507
#
#
# Mechanical properties :
#
#
# Convention : Reuss Voigt Hill
#
# Bulk Modulus (GPa) = 57.56898 61.66337 59.61617
# Shear Modulus (GPa) = 33.25759 38.96564 36.11161
#
# Velocity S-wave (km/s) = 3.78449 4.09640 3.94353
# Velocity P-wave (km/s) = 6.62484 6.99494 6.81240
#
# Compressibility (1/GPa) = 0.01737047
#
# Stress axis : x y z
#
# Youngs Moduli (GPa) = 78.71843 78.48635 67.85210
#
# Poissons Ratio (x) = 0.24956 0.38675
# Poissons Ratio (y) = 0.25030 0.17142
# Poissons Ratio (z) = 0.44869 0.19829
#
# Static dielectric constant tensor:
#      x y z
#    x 1.928710 0.008150 -0.052520 
#    y 0.008150 1.901920 -0.026860 
#    z -0.052520 -0.026860 1.934810 
# 
# From -- ./inp_files/314903.got.cif
#   From: 2010.05.17/outbox.cif.g08.bks.cpg/sg2_158_cif.got.tgz:314903.got - 2010.06.03 11:33:40.
