data_PCOD9041373
_publ_section_title
;
Structure prediction by ZEFSAII (Michael W. Deem and Ramdas Pophale) SiO2 
 PCOD9041373
Probable space group: P -1
;
_chemical_formula_sum "Si O2"
_cell_formula_units_Z 16
_cell_length_a 13.968159
_cell_length_b 10.414291
_cell_length_c 8.926173
_cell_angle_alpha 82.674346
_cell_angle_beta 74.389857
_cell_angle_gamma 30.924874
_cell_volume 628.530727
_symmetry_space_group_name_H-M "P -1"
_symmetry_group_IT_number 2
_symmetry_cell_setting 'triclinic'
loop_
_space_group_symop_operation_xyz
x,y,z
-x,-y,-z
loop_
_atom_site_type_symbol
_atom_site_label
_atom_site_fract_x
_atom_site_fract_y
_atom_site_fract_z
Si Si1 0.438489 0.930100 0.980712
Si Si2 0.886588 0.794682 0.116651
Si Si3 0.322105 0.322001 0.377699
Si Si4 0.742832 0.480355 0.102376
Si Si5 0.887255 0.260377 0.389742
Si Si6 0.368039 0.659113 0.882794
Si Si7 0.283931 0.807491 0.402341
Si Si8 0.292594 0.073251 0.525597
O O1 0.581528 0.741462 0.808004
O O2 0.218205 0.168930 0.977394
O O3 0.516807 0.754325 0.108706
O O4 0.500000 0.000000 0.000000
O O5 0.750342 0.076346 0.126102
O O6 0.857970 0.762823 0.295418
O O7 0.107051 0.589239 0.024656
O O8 0.156614 0.604669 0.464348
O O9 0.498310 0.141977 0.449234
O O10 0.261902 0.238368 0.417110
O O11 0.782230 0.442941 0.266573
O O12 0.782300 0.290959 0.061532
O O13 0.806549 0.206409 0.455519
O O14 0.120820 0.999903 0.310622
O O15 0.514383 0.472220 0.708724
O O16 0.500000 0.500000 0.000000
O O17 0.294659 0.933005 0.462341
#
# Coordination Sequence:
#
# PCOD9041373 Si02
#       8
#     2   2   2   2   2   2   2   2
#     4  11  27  47  73 103 147 187 235 294 353 422
#     4  11  25  47  70 108 139 187 238 292 356 427
#     4  10  24  46  71 101 138 186 238 287 352 424
#     4  12  27  45  74 105 144 186 235 293 358 425
#     4  11  26  44  71 109 141 184 241 294 351 428
#     4  12  24  43  73 100 140 187 230 288 362 421
#     4  11  25  45  72 104 145 183 238 298 356 417
#     4  10  23  43  73  98 137 183 239 289 355 415
#
# _framework density 25.456195999999998
#
# number of rings (size 3 to 8) (size 9 to 14) (size 15 to 20)
#    0.000    1.000    1.250    4.125    8.750    3.500 
#    0.000    0.000    0.000    0.000    0.000    0.000 
#    0.000    0.000    0.000    0.000    0.000    0.000 
#
# Total GULP energy -89664.028158 kJ/mol
# GULP energy per Si atom -5604.001760 kJ/mol
# Density = 2.539826 g / cm^3
# Si number density = 25.456196 Si / 1000 Ang^3
#
#
#
# Elastic Constant Matrix: (Units=GPa)
#
#
# Indices 1 2 3 4 5 6 
#
# 1 151.2066 26.6715 20.3635 19.1985 -1.0048 3.4769
# 2 26.6715 74.3926 21.7337 -2.0308 4.2515 -13.2619
# 3 20.3635 21.7337 57.1784 -5.2446 -8.1482 -19.6442
# 4 19.1985 -2.0308 -5.2446 31.1585 -1.8458 -0.6234
# 5 -1.0048 4.2515 -8.1482 -1.8458 37.1887 -2.8390
# 6 3.4769 -13.2619 -19.6442 -0.6234 -2.8390 45.4593
#
#
#
# Elastic Compliance Matrix: (Units=1/GPa)
#
#
# Indices 1 2 3 4 5 6 
#
# 1 0.008425 -0.002599 -0.003785 -0.006112 -0.000850 -0.003175
# 2 -0.002599 0.016412 -0.004528 0.001811 -0.002628 0.002891
# 3 -0.003785 -0.004528 0.025923 0.007045 0.007263 0.010721
# 4 -0.006112 0.001811 0.007045 0.037460 0.003395 0.004766
# 5 -0.000850 -0.002628 0.007263 0.003395 0.029256 0.004311
# 6 -0.003175 0.002891 0.010721 0.004766 0.004311 0.028051
#
#
# Mechanical properties :
#
#
# Convention : Reuss Voigt Hill
#
# Bulk Modulus (GPa) = 34.55972 46.70167 40.63069
# Shear Modulus (GPa) = 28.24923 37.02855 32.63889
#
# Velocity S-wave (km/s) = 3.33486 3.81806 3.58461
# Velocity P-wave (km/s) = 5.33235 6.15000 5.75571
#
# Compressibility (1/GPa) = 0.02893542
#
# Stress axis : x y z
#
# Youngs Moduli (GPa) = 118.69432 60.93192 38.57628
#
# Poissons Ratio (x) = 0.15836 0.14602
# Poissons Ratio (y) = 0.30849 0.17467
# Poissons Ratio (z) = 0.44928 0.27589
#
# Static dielectric constant tensor:
#      x y z
#    x 2.055600 0.064560 -0.015100 
#    y 0.064560 2.091240 -0.063790 
#    z -0.015100 -0.063790 2.042240 
# 
# From -- ./inp_files/307301.got.cif
#   From: 2010.05.17/outbox.cif.g08.bks.cpg/sg2_154_cif.got.tgz:307301.got - 2010.06.03 11:33:40.
