data_PCOD9041006
_publ_section_title
;
Structure prediction by ZEFSAII (Michael W. Deem and Ramdas Pophale) SiO2 
 PCOD9041006
Probable space group: P -1
;
_chemical_formula_sum "Si O2"
_cell_formula_units_Z 16
_cell_length_a 4.960692
_cell_length_b 16.174559
_cell_length_c 20.695002
_cell_angle_alpha 154.287484
_cell_angle_beta 121.353258
_cell_angle_gamma 66.895693
_cell_volume 602.003632
_symmetry_space_group_name_H-M "P -1"
_symmetry_group_IT_number 2
_symmetry_cell_setting 'triclinic'
loop_
_space_group_symop_operation_xyz
x,y,z
-x,-y,-z
loop_
_atom_site_type_symbol
_atom_site_label
_atom_site_fract_x
_atom_site_fract_y
_atom_site_fract_z
Si Si1 0.566371 0.366382 0.572321
Si Si2 0.747706 0.815793 0.364745
Si Si3 0.890490 0.197428 0.221333
Si Si4 0.818600 0.386705 0.477231
Si Si5 0.709428 0.781191 0.085682
Si Si6 0.689283 0.783863 0.932806
Si Si7 0.772979 0.439989 0.036226
Si Si8 0.310539 0.043103 0.404412
O O1 0.196139 0.387327 0.537248
O O2 0.754132 0.575530 0.770574
O O3 0.555988 0.176525 0.480790
O O4 0.662964 0.329919 0.486378
O O5 0.860819 0.625246 0.223342
O O6 0.708923 0.826225 0.443423
O O7 0.428018 0.855303 0.316222
O O8 0.000000 0.000000 0.500000
O O9 0.176260 0.384163 0.375382
O O10 0.634120 0.192353 0.128413
O O11 0.740853 0.255235 0.311088
O O12 0.949097 0.979874 0.084282
O O13 0.972972 0.965227 0.272240
O O14 0.913437 0.607781 0.991805
O O15 0.634006 0.786691 0.004580
O O16 0.408347 0.737052 0.065593
O O17 0.500000 0.500000 0.000000
#
# Coordination Sequence:
#
# PCOD9041006 Si02
#       8
#     2   2   2   2   2   2   2   2
#     4  11  25  43  68 103 139 180 233 291 344 411
#     4  11  26  44  73 101 136 190 233 287 355 418
#     4   9  21  45  71 101 140 184 234 287 355 418
#     4  10  23  44  72  99 136 186 231 283 351 418
#     4  12  27  46  72 104 141 185 235 291 348 417
#     4  10  23  43  70 104 140 182 232 292 349 413
#     4  12  26  48  73 101 142 183 234 288 352 418
#     4  11  26  44  68 102 141 182 237 289 349 419
#
# _framework density 26.577911
#
# number of rings (size 3 to 8) (size 9 to 14) (size 15 to 20)
#    0.000    1.250    1.250    2.625    7.000    8.000 
#    0.000    6.250    0.000    0.000    0.000    0.000 
#    0.000    0.000    0.000    0.000    0.000    0.000 
#
# Total GULP energy -89720.397744 kJ/mol
# GULP energy per Si atom -5607.524859 kJ/mol
# Density = 2.651742 g / cm^3
# Si number density = 26.577911 Si / 1000 Ang^3
#
#
#
# Elastic Constant Matrix: (Units=GPa)
#
#
# Indices 1 2 3 4 5 6 
#
# 1 79.5129 23.7667 8.9441 -2.1656 -9.3520 19.7980
# 2 23.7667 160.1451 62.6020 -22.0892 0.2748 25.9947
# 3 8.9441 62.6020 136.1310 2.5664 6.2110 5.8664
# 4 -2.1656 -22.0892 2.5664 50.6626 -2.8206 -1.4712
# 5 -9.3520 0.2748 6.2110 -2.8206 32.9867 5.8260
# 6 19.7980 25.9947 5.8664 -1.4712 5.8260 46.1606
#
#
#
# Elastic Compliance Matrix: (Units=1/GPa)
#
#
# Indices 1 2 3 4 5 6 
#
# 1 0.015244 -0.000920 -0.000557 0.000400 0.005643 -0.006649
# 2 -0.000920 0.009300 -0.004179 0.004188 0.001580 -0.004377
# 3 -0.000557 -0.004179 0.009388 -0.002407 -0.002383 0.001623
# 4 0.000400 0.004188 -0.002407 0.021801 0.002727 -0.001873
# 5 0.005643 0.001580 -0.002383 0.002727 0.033854 -0.007193
# 6 -0.006649 -0.004377 0.001623 -0.001873 -0.007193 0.027622
#
#
# Mechanical properties :
#
#
# Convention : Reuss Voigt Hill
#
# Bulk Modulus (GPa) = 44.20629 62.93496 53.57062
# Shear Modulus (GPa) = 36.74829 44.66039 40.70434
#
# Velocity S-wave (km/s) = 3.72245 4.10366 3.91770
# Velocity P-wave (km/s) = 5.92827 6.79590 6.37686
#
# Compressibility (1/GPa) = 0.02262121
#
# Stress axis : x y z
#
# Youngs Moduli (GPa) = 65.59834 107.52940 106.51631
#
# Poissons Ratio (x) = 0.09892 0.05933
# Poissons Ratio (y) = 0.06035 0.44509
# Poissons Ratio (z) = 0.03654 0.44932
#
# Static dielectric constant tensor:
#      x y z
#    x 2.071390 -0.097180 0.036470 
#    y -0.097180 2.121830 0.027480 
#    z 0.036470 0.027480 2.107290 
# 
# From -- ./inp_files/550212.got.cif
#   From: 2010.05.17/outbox.cif.g08.bks.cpg/sg2_276_cif.got.tgz:550212.got - 2010.06.03 11:33:40.
