data_PCOD9041468
_publ_section_title
;
Structure prediction by ZEFSAII (Michael W. Deem and Ramdas Pophale) SiO2 
 PCOD9041468
Probable space group: P -1
;
_chemical_formula_sum "Si O2"
_cell_formula_units_Z 10
_cell_length_a 12.555306
_cell_length_b 10.657347
_cell_length_c 6.425356
_cell_angle_alpha 100.728176
_cell_angle_beta 45.714579
_cell_angle_gamma 129.813174
_cell_volume 416.155702
_symmetry_space_group_name_H-M "P -1"
_symmetry_group_IT_number 2
_symmetry_cell_setting 'triclinic'
loop_
_space_group_symop_operation_xyz
x,y,z
-x,-y,-z
loop_
_atom_site_type_symbol
_atom_site_label
_atom_site_fract_x
_atom_site_fract_y
_atom_site_fract_z
Si Si1 0.038454 0.187460 0.524605
Si Si2 0.562362 0.896459 0.958539
Si Si3 0.793773 0.682119 0.253153
Si Si4 0.820463 0.492649 0.799219
Si Si5 0.396056 0.272389 0.814776
O O1 0.018378 0.170001 0.794262
O O2 0.151931 0.391776 0.387783
O O3 0.820988 0.055862 0.647443
O O4 0.212814 0.195516 0.209277
O O5 0.415841 0.716621 0.955389
O O6 0.519341 0.809579 0.226912
O O7 0.500000 0.000000 0.000000
O O8 0.583992 0.496584 0.605098
O O9 0.727265 0.767855 0.244311
O O10 0.848865 0.598354 0.997404
O O11 0.000000 0.500000 0.500000
#
# Coordination Sequence:
#
# PCOD9041468 Si02
#       5
#     2   2   2   2   2
#     4  11  23  46  73 100 136 180 226 285 336 396
#     4  12  25  45  69 101 142 182 220 283 341 401
#     4  10  23  43  77  99 129 187 228 277 342 396
#     4  11  24  47  68  98 144 178 225 282 339 404
#     4  10  23  44  71 103 138 174 230 281 335 404
#
# _framework density 24.029467
#
# number of rings (size 3 to 8) (size 9 to 14) (size 15 to 20)
#    0.000    1.200    4.000    1.200    5.600    1.600 
#    7.200    2.000    0.000    0.000    0.000    0.000 
#    0.000    0.000    0.000    0.000    0.000    0.000 
#
# Total GULP energy -55714.732070 kJ/mol
# GULP energy per Si atom -5571.473207 kJ/mol
# Density = 2.397477 g / cm^3
# Si number density = 24.029467 Si / 1000 Ang^3
#
#
#
# Elastic Constant Matrix: (Units=GPa)
#
#
# Indices 1 2 3 4 5 6 
#
# 1 173.5783 72.6274 56.4383 24.6006 -3.7991 -22.6249
# 2 72.6274 123.3545 48.2085 -2.1917 -2.2800 0.7988
# 3 56.4383 48.2085 98.6655 1.3096 -6.3247 8.7066
# 4 24.6006 -2.1917 1.3096 31.8282 -6.5694 11.4621
# 5 -3.7991 -2.2800 -6.3247 -6.5694 24.8447 -6.0993
# 6 -22.6249 0.7988 8.7066 11.4621 -6.0993 60.3805
#
#
#
# Elastic Compliance Matrix: (Units=1/GPa)
#
#
# Indices 1 2 3 4 5 6 
#
# 1 0.012697 -0.005819 -0.005033 -0.013147 -0.001407 0.007914
# 2 -0.005819 0.012723 -0.002658 0.006756 0.000605 -0.003187
# 3 -0.005033 -0.002658 0.014852 0.005422 0.003044 -0.004714
# 4 -0.013147 0.006756 0.005422 0.048856 0.009442 -0.014118
# 5 -0.001407 0.000605 0.003044 0.009442 0.043768 0.001654
# 6 0.007914 -0.003187 -0.004714 -0.014118 0.001654 0.023096
#
#
# Mechanical properties :
#
#
# Convention : Reuss Voigt Hill
#
# Bulk Modulus (GPa) = 75.46289 83.34963 79.40626
# Shear Modulus (GPa) = 26.67662 37.96561 32.32112
#
# Velocity S-wave (km/s) = 3.33553 3.97918 3.67149
# Velocity P-wave (km/s) = 6.80491 7.47486 7.14774
#
# Compressibility (1/GPa) = 0.01325155
#
# Stress axis : x y z
#
# Youngs Moduli (GPa) = 78.76161 78.59567 67.32998
#
# Poissons Ratio (x) = 0.45735 0.33890
# Poissons Ratio (y) = 0.45832 0.17895
# Poissons Ratio (z) = 0.39644 0.20889
#
# Static dielectric constant tensor:
#      x y z
#    x 2.814100 -0.411530 -0.099090 
#    y -0.411530 2.197360 0.055130 
#    z -0.099090 0.055130 1.966090 
# 
# From -- ./inp_files/18729.got.cif
#   From: 2010.05.17/outbox.cif.g08.bks.cpg/sg2_10_cif.got.tgz:18729.got - 2010.06.03 11:33:40.
