data_PCOD9041442
_publ_section_title
;
Structure prediction by ZEFSAII (Michael W. Deem and Ramdas Pophale) SiO2 
 PCOD9041442
Probable space group: P -1
;
_chemical_formula_sum "Si O2"
_cell_formula_units_Z 12
_cell_length_a 13.771482
_cell_length_b 11.572408
_cell_length_c 9.230897
_cell_angle_alpha 37.797049
_cell_angle_beta 144.565773
_cell_angle_gamma 124.806175
_cell_volume 511.559928
_symmetry_space_group_name_H-M "P -1"
_symmetry_group_IT_number 2
_symmetry_cell_setting 'triclinic'
loop_
_space_group_symop_operation_xyz
x,y,z
-x,-y,-z
loop_
_atom_site_type_symbol
_atom_site_label
_atom_site_fract_x
_atom_site_fract_y
_atom_site_fract_z
Si Si1 0.916366 0.980945 0.728545
Si Si2 0.307848 0.078158 0.746568
Si Si3 0.597605 0.561563 0.419766
Si Si4 0.461076 0.301394 0.085725
Si Si5 0.905172 0.710295 0.230767
Si Si6 0.288020 0.824028 0.244869
O O1 0.816608 0.993174 0.446375
O O2 0.958311 0.182793 0.631323
O O3 0.103290 0.846870 0.067006
O O4 0.833793 0.860554 0.865455
O O5 0.276545 0.309056 0.491837
O O6 0.500000 0.000000 0.000000
O O7 0.286729 0.991829 0.962396
O O8 0.500000 0.500000 0.500000
O O9 0.670929 0.370140 0.608052
O O10 0.494588 0.699578 0.030507
O O11 0.580079 0.161213 0.480858
O O12 0.500000 0.500000 0.000000
O O13 0.260253 0.305894 0.859352
O O14 0.000000 0.500000 0.500000
#
# Coordination Sequence:
#
# PCOD9041442 Si02
#       6
#     2   2   2   2   2   2
#     4  11  27  43  68 108 143 184 235 295 357 418
#     4  12  25  43  70 100 143 187 236 293 350 419
#     4  11  24  43  70 105 136 187 237 286 350 415
#     4  10  23  43  76 101 138 185 239 288 350 420
#     4  11  24  46  71 104 143 184 236 291 357 424
#     4  11  24  46  68 105 143 182 240 290 357 414
#
# _framework density 23.457661000000002
#
# number of rings (size 3 to 8) (size 9 to 14) (size 15 to 20)
#    0.000    1.000    1.667    4.500    2.333   10.000 
#    0.000    0.000    0.000    0.000    0.000    0.000 
#    0.000    0.000    0.000    0.000    0.000    0.000 
#
# Total GULP energy -67131.163638 kJ/mol
# GULP energy per Si atom -5594.263637 kJ/mol
# Density = 2.340427 g / cm^3
# Si number density = 23.457661 Si / 1000 Ang^3
#
#
#
# Elastic Constant Matrix: (Units=GPa)
#
#
# Indices 1 2 3 4 5 6 
#
# 1 134.4245 43.7430 45.6241 -0.2454 -24.1722 -0.6543
# 2 43.7430 162.4344 53.3299 -14.4899 -9.4443 -18.5084
# 3 45.6241 53.3299 99.5763 20.8245 -22.5167 -2.2900
# 4 -0.2454 -14.4899 20.8245 32.9689 -4.6780 -3.4959
# 5 -24.1722 -9.4443 -22.5167 -4.6780 48.1256 -10.2588
# 6 -0.6543 -18.5084 -2.2900 -3.4959 -10.2588 46.2780
#
#
#
# Elastic Compliance Matrix: (Units=1/GPa)
#
#
# Indices 1 2 3 4 5 6 
#
# 1 0.009575 -0.000896 -0.003685 0.002522 0.003263 0.000509
# 2 -0.000896 0.009879 -0.006621 0.009004 0.000190 0.004333
# 3 -0.003685 -0.006621 0.019210 -0.014715 0.003986 -0.001978
# 4 0.002522 0.009004 -0.014715 0.044584 0.001911 0.006700
# 5 0.003263 0.000190 0.003986 0.001911 0.025825 0.006188
# 6 0.000509 0.004333 -0.001978 0.006700 0.006188 0.025129
#
#
# Mechanical properties :
#
#
# Convention : Reuss Voigt Hill
#
# Bulk Modulus (GPa) = 61.49884 75.75879 68.62881
# Shear Modulus (GPa) = 30.85903 42.39037 36.62470
#
# Velocity S-wave (km/s) = 3.63095 4.25561 3.95563
# Velocity P-wave (km/s) = 6.62210 7.51752 7.08397
#
# Compressibility (1/GPa) = 0.01626047
#
# Stress axis : x y z
#
# Youngs Moduli (GPa) = 104.43528 101.22158 52.05549
#
# Poissons Ratio (x) = 0.09069 0.19184
# Poissons Ratio (y) = 0.09357 0.34465
# Poissons Ratio (z) = 0.38488 0.67018
#
# Static dielectric constant tensor:
#      x y z
#    x 1.917950 0.013750 0.011610 
#    y 0.013750 1.920320 -0.064150 
#    z 0.011610 -0.064150 1.981390 
# 
# From -- ./inp_files/306395.got.cif
#   From: 2010.05.17/outbox.cif.g08.bks.cpg/sg2_154_cif.got.tgz:306395.got - 2010.06.03 11:33:40.
