data_PCOD9041711
_publ_section_title
;
Structure prediction by ZEFSAII (Michael W. Deem and Ramdas Pophale) SiO2 
 PCOD9041711
Probable space group: P -1
;
_chemical_formula_sum "Si O2"
_cell_formula_units_Z 14
_cell_length_a 7.976888
_cell_length_b 18.931461
_cell_length_c 5.045088
_cell_angle_alpha 75.807264
_cell_angle_beta 62.963683
_cell_angle_gamma 48.325507
_cell_volume 505.017900
_symmetry_space_group_name_H-M "P -1"
_symmetry_group_IT_number 2
_symmetry_cell_setting 'triclinic'
loop_
_space_group_symop_operation_xyz
x,y,z
-x,-y,-z
loop_
_atom_site_type_symbol
_atom_site_label
_atom_site_fract_x
_atom_site_fract_y
_atom_site_fract_z
Si Si1 0.960208 0.821016 0.700232
Si Si2 0.475449 0.093337 0.426639
Si Si3 0.170006 0.639929 0.062135
Si Si4 0.326687 0.456408 0.908984
Si Si5 0.238726 0.974285 0.218034
Si Si6 0.494862 0.287624 0.637482
Si Si7 0.798597 0.658233 0.705846
O O1 0.788632 0.829755 0.586996
O O2 0.218458 0.788173 0.436151
O O3 0.813992 0.925641 0.832090
O O4 0.042594 0.740259 0.925793
O O5 0.323856 0.290001 0.973788
O O6 0.500000 0.000000 0.500000
O O7 0.682000 0.068312 0.092397
O O8 0.211117 0.564529 0.888823
O O9 0.016084 0.642015 0.408469
O O10 0.429420 0.597374 0.039441
O O11 0.150748 0.440265 0.187028
O O12 0.419008 0.391605 0.641294
O O13 0.457675 0.899833 0.332484
O O14 0.000000 0.000000 0.500000
O O15 0.425018 0.282107 0.399442
#
# Coordination Sequence:
#
# PCOD9041711 Si02
#       7
#     2   2   2   2   2   2   2
#     4  11  23  44  70 102 140 177 237 281 344 413
#     4  10  23  45  73 100 131 177 227 276 352 425
#     4  11  22  44  72 101 138 195 227 295 333 412
#     4   9  23  44  68  98 147 183 242 271 356 389
#     4  11  25  47  75  99 139 178 221 289 354 415
#     4  10  23  44  66  97 144 176 233 290 326 411
#     4  10  23  45  65  99 135 190 232 278 344 397
#
# _framework density 27.721792000000001
#
# number of rings (size 3 to 8) (size 9 to 14) (size 15 to 20)
#    0.857    0.857    1.429    2.571    0.000   10.286 
#    0.000    5.714    0.000    0.000    0.000    0.000 
#    0.000    0.000    0.000    0.000    0.000    0.000 
#
# Total GULP energy -78532.366389 kJ/mol
# GULP energy per Si atom -5609.454742 kJ/mol
# Density = 2.765870 g / cm^3
# Si number density = 27.721792 Si / 1000 Ang^3
#
#
#
# Elastic Constant Matrix: (Units=GPa)
#
#
# Indices 1 2 3 4 5 6 
#
# 1 81.2153 20.5560 45.4876 -2.5349 -9.1006 -30.7311
# 2 20.5560 143.3979 35.4940 -20.7453 7.5798 -4.5200
# 3 45.4876 35.4940 150.5726 -7.2591 -5.9859 -10.2679
# 4 -2.5349 -20.7453 -7.2591 54.9469 -0.1638 -2.1813
# 5 -9.1006 7.5798 -5.9859 -0.1638 51.0474 0.8764
# 6 -30.7311 -4.5200 -10.2679 -2.1813 0.8764 50.5536
#
#
#
# Elastic Compliance Matrix: (Units=1/GPa)
#
#
# Indices 1 2 3 4 5 6 
#
# 1 0.019823 -0.001449 -0.004775 0.000179 0.003003 0.010907
# 2 -0.001449 0.008001 -0.001400 0.002752 -0.001596 -0.000303
# 3 -0.004775 -0.001400 0.008352 0.000303 0.000360 -0.001325
# 4 0.000179 0.002752 0.000303 0.019336 -0.000301 0.001256
# 5 0.003003 -0.001596 0.000360 -0.000301 0.020379 0.001389
# 6 0.010907 -0.000303 -0.001325 0.001256 0.001389 0.026145
#
#
# Mechanical properties :
#
#
# Convention : Reuss Voigt Hill
#
# Bulk Modulus (GPa) = 47.78129 64.25122 56.01626
# Shear Modulus (GPa) = 40.23813 49.55277 44.89545
#
# Velocity S-wave (km/s) = 3.81399 4.23247 4.02867
# Velocity P-wave (km/s) = 6.05547 6.86386 6.47230
#
# Compressibility (1/GPa) = 0.02092869
#
# Stress axis : x y z
#
# Youngs Moduli (GPa) = 50.44600 124.98859 119.72506
#
# Poissons Ratio (x) = 0.18108 0.57172
# Poissons Ratio (y) = 0.07308 0.16759
# Poissons Ratio (z) = 0.24090 0.17496
#
# Static dielectric constant tensor:
#      x y z
#    x 2.171610 0.033350 -0.023380 
#    y 0.033350 2.164300 -0.034200 
#    z -0.023380 -0.034200 2.089550 
# 
# From -- ./inp_files/46576.got.cif
#   From: 2010.05.17/outbox.cif.g08.bks.cpg/sg2_24_cif.got.tgz:46576.got - 2010.06.03 11:33:40.
