data_PCOD9041567
_publ_section_title
;
Structure prediction by ZEFSAII (Michael W. Deem and Ramdas Pophale) SiO2 
 PCOD9041567
Probable space group: P -1
;
_chemical_formula_sum "Si O2"
_cell_formula_units_Z 16
_cell_length_a 21.793369
_cell_length_b 14.649894
_cell_length_c 8.989453
_cell_angle_alpha 64.615123
_cell_angle_beta 76.160744
_cell_angle_gamma 20.966311
_cell_volume 804.368413
_symmetry_space_group_name_H-M "P -1"
_symmetry_group_IT_number 2
_symmetry_cell_setting 'triclinic'
loop_
_space_group_symop_operation_xyz
x,y,z
-x,-y,-z
loop_
_atom_site_type_symbol
_atom_site_label
_atom_site_fract_x
_atom_site_fract_y
_atom_site_fract_z
Si Si1 0.872303 0.102126 0.071497
Si Si2 0.354009 0.641529 0.415452
Si Si3 0.538291 0.258335 0.288804
Si Si4 0.179430 0.757538 0.671423
Si Si5 0.987721 0.756335 0.012839
Si Si6 0.374588 0.101229 0.580520
Si Si7 0.954236 0.682678 0.345455
Si Si8 0.608657 0.768479 0.975544
O O1 0.897091 0.071048 0.255122
O O2 0.639415 0.465594 0.919438
O O3 0.938349 0.906475 0.073715
O O4 0.000000 0.000000 0.000000
O O5 0.500000 0.500000 0.500000
O O6 0.454510 0.427142 0.373438
O O7 0.303713 0.643460 0.577275
O O8 0.163830 0.984989 0.211045
O O9 0.585670 0.067140 0.403197
O O10 0.728476 0.036265 0.284539
O O11 0.296586 0.479022 0.845585
O O12 0.000000 0.000000 0.500000
O O13 0.208538 0.444382 0.049251
O O14 0.962176 0.688103 0.158656
O O15 0.136687 0.471539 0.453743
O O16 0.500000 0.000000 0.500000
O O17 0.456194 0.973429 0.789442
O O18 0.000000 0.500000 0.500000
O O19 0.500000 0.000000 0.000000
#
# Coordination Sequence:
#
# PCOD9041567 Si02
#       8
#     2   2   2   2   2   2   2   2
#     4  11  21  40  72  96 131 179 231 292 332 404
#     4  11  27  41  67 101 142 180 220 286 354 411
#     4  10  23  44  64  98 136 174 233 280 339 404
#     4  12  24  44  68 102 140 179 231 285 350 405
#     4  11  23  45  65 101 134 177 237 283 340 414
#     4  11  22  42  70  94 128 182 236 274 337 410
#     4  10  24  40  70  97 132 177 234 280 337 412
#     4  12  26  42  67 105 141 177 225 293 352 407
#
# _framework density 19.891383000000001
#
# number of rings (size 3 to 8) (size 9 to 14) (size 15 to 20)
#    0.000    1.000    5.000    0.750    5.250    3.000 
#    0.000    0.000    0.000    4.500    0.000    0.000 
#    0.000    0.000    0.000    0.000    0.000    0.000 
#
# Total GULP energy -89339.778711 kJ/mol
# GULP energy per Si atom -5583.736169 kJ/mol
# Density = 1.984611 g / cm^3
# Si number density = 19.891383 Si / 1000 Ang^3
#
#
#
# Elastic Constant Matrix: (Units=GPa)
#
#
# Indices 1 2 3 4 5 6 
#
# 1 84.2684 36.1112 32.5068 4.7115 11.4899 -15.4982
# 2 36.1112 128.7928 42.7758 6.6480 9.2692 -28.3483
# 3 32.5068 42.7758 122.4459 7.6706 7.4592 -12.5185
# 4 4.7115 6.6480 7.6706 41.5709 -7.1744 0.6760
# 5 11.4899 9.2692 7.4592 -7.1744 44.3009 5.5738
# 6 -15.4982 -28.3483 -12.5185 0.6760 5.5738 45.3801
#
#
#
# Elastic Compliance Matrix: (Units=1/GPa)
#
#
# Indices 1 2 3 4 5 6 
#
# 1 0.015047 -0.002261 -0.002522 -0.001574 -0.003701 0.003508
# 2 -0.002261 0.010614 -0.002319 -0.001478 -0.002176 0.005508
# 3 -0.002522 -0.002319 0.009829 -0.001302 -0.000792 0.000518
# 4 -0.001574 -0.001478 -0.001302 0.025699 0.005460 -0.002874
# 5 -0.003701 -0.002176 -0.000792 0.005460 0.025772 -0.006089
# 6 0.003508 0.005508 0.000518 -0.002874 -0.006089 0.027608
#
#
# Mechanical properties :
#
#
# Convention : Reuss Voigt Hill
#
# Bulk Modulus (GPa) = 46.98165 62.03277 54.50721
# Shear Modulus (GPa) = 36.80005 41.19127 38.99566
#
# Velocity S-wave (km/s) = 4.30589 4.55555 4.43248
# Velocity P-wave (km/s) = 6.95638 7.67621 7.32514
#
# Compressibility (1/GPa) = 0.02128490
#
# Stress axis : x y z
#
# Youngs Moduli (GPa) = 66.46023 94.21564 101.73604
#
# Poissons Ratio (x) = 0.21306 0.25656
# Poissons Ratio (y) = 0.15029 0.23596
# Poissons Ratio (z) = 0.16760 0.21852
#
# Static dielectric constant tensor:
#      x y z
#    x 1.725920 0.016660 -0.057380 
#    y 0.016660 1.668800 -0.041720 
#    z -0.057380 -0.041720 1.745520 
# 
# From -- ./inp_files/222080.got.cif
#   From: 2010.05.17/outbox.cif.g08.bks.cpg/sg2_112_cif.got.tgz:222080.got - 2010.06.03 11:33:40.
