data_PCOD9041748
_publ_section_title
;
Structure prediction by ZEFSAII (Michael W. Deem and Ramdas Pophale) SiO2 
 PCOD9041748
Probable space group: P -1
;
_chemical_formula_sum "Si O2"
_cell_formula_units_Z 16
_cell_length_a 15.317900
_cell_length_b 7.276291
_cell_length_c 20.232580
_cell_angle_alpha 61.916027
_cell_angle_beta 158.159276
_cell_angle_gamma 108.822762
_cell_volume 693.813180
_symmetry_space_group_name_H-M "P -1"
_symmetry_group_IT_number 2
_symmetry_cell_setting 'triclinic'
loop_
_space_group_symop_operation_xyz
x,y,z
-x,-y,-z
loop_
_atom_site_type_symbol
_atom_site_label
_atom_site_fract_x
_atom_site_fract_y
_atom_site_fract_z
Si Si1 0.682234 0.934729 0.847667
Si Si2 0.726769 0.184537 0.491807
Si Si3 0.173196 0.740341 0.908341
Si Si4 0.473076 0.007554 0.901446
Si Si5 0.404593 0.356435 0.043317
Si Si6 0.120612 0.535150 0.207901
Si Si7 0.074150 0.714005 0.526158
Si Si8 0.459495 0.452801 0.589824
O O1 0.516269 0.880382 0.682849
O O2 0.629689 0.814544 0.896787
O O3 0.588779 0.197661 0.745435
O O4 0.972600 0.799569 0.060079
O O5 0.825653 0.234837 0.482400
O O6 0.668383 0.386064 0.467550
O O7 0.942486 0.967005 0.706107
O O8 0.089298 0.580520 0.924882
O O9 0.232741 0.600201 0.904993
O O10 0.410935 0.813478 0.075825
O O11 0.626337 0.760366 0.025505
O O12 0.179504 0.090576 0.664277
O O13 0.500000 0.000000 0.000000
O O14 0.690472 0.342481 0.250673
O O15 0.263141 0.467882 0.389728
O O16 0.325784 0.472139 0.305853
O O17 0.000000 0.500000 0.500000
#
# Coordination Sequence:
#
# PCOD9041748 Si02
#       8
#     2   2   2   2   2   2   2   2
#     4  10  23  44  67 100 137 177 226 278 344 408
#     4  11  25  43  68  99 136 179 226 279 340 411
#     4  11  23  44  64  99 137 168 234 275 336 408
#     4  12  25  43  67  98 132 182 230 273 345 407
#     4  10  25  43  70  97 137 181 220 288 342 396
#     4  10  24  46  69 101 138 178 227 284 345 410
#     4  11  23  45  63 101 136 173 232 280 334 413
#     4  11  24  46  71 100 136 180 226 284 348 400
#
# _framework density 23.060962
#
# number of rings (size 3 to 8) (size 9 to 14) (size 15 to 20)
#    0.000    1.250    3.750    0.750    5.250    1.500 
#    2.250    0.000    0.000    0.000    0.000    0.000 
#    0.000    0.000    0.000    0.000    0.000    0.000 
#
# Total GULP energy -89495.883452 kJ/mol
# GULP energy per Si atom -5593.492716 kJ/mol
# Density = 2.300847 g / cm^3
# Si number density = 23.060962 Si / 1000 Ang^3
#
#
#
# Elastic Constant Matrix: (Units=GPa)
#
#
# Indices 1 2 3 4 5 6 
#
# 1 46.3280 35.9504 21.0355 0.1143 12.3462 3.7903
# 2 35.9504 107.5057 20.2585 -27.4934 15.5842 -0.6206
# 3 21.0355 20.2585 99.3607 -25.0346 21.2694 2.2902
# 4 0.1143 -27.4934 -25.0346 46.4474 5.9613 8.0437
# 5 12.3462 15.5842 21.2694 5.9613 29.6418 -2.7967
# 6 3.7903 -0.6206 2.2902 8.0437 -2.7967 26.3924
#
#
#
# Elastic Compliance Matrix: (Units=1/GPa)
#
#
# Indices 1 2 3 4 5 6 
#
# 1 0.035860 -0.013724 -0.007985 -0.012404 0.000414 -0.000956
# 2 -0.013724 0.018803 0.006039 0.016782 -0.012304 -0.004529
# 3 -0.007985 0.006039 0.018793 0.017262 -0.017509 -0.007458
# 4 -0.012404 0.016782 0.017262 0.047142 -0.027086 -0.016560
# 5 0.000414 -0.012304 -0.017509 -0.027086 0.059528 0.015734
# 6 -0.000956 -0.004529 -0.007458 -0.016560 0.015734 0.045282
#
#
# Mechanical properties :
#
#
# Convention : Reuss Voigt Hill
#
# Bulk Modulus (GPa) = 23.74569 45.29812 34.52191
# Shear Modulus (GPa) = 18.46469 32.22632 25.34551
#
# Velocity S-wave (km/s) = 2.83272 3.74229 3.31881
# Velocity P-wave (km/s) = 4.58457 6.19342 5.44870
#
# Compressibility (1/GPa) = 0.04211290
#
# Stress axis : x y z
#
# Youngs Moduli (GPa) = 27.88658 53.18370 53.21175
#
# Poissons Ratio (x) = 0.72992 0.42491
# Poissons Ratio (y) = 0.38273 -0.32132
# Poissons Ratio (z) = 0.22268 -0.32115
#
# Static dielectric constant tensor:
#      x y z
#    x 1.884480 0.023740 0.000430 
#    y 0.023740 1.870210 0.018020 
#    z 0.000430 0.018020 1.889660 
# 
# From -- ./inp_files/612633.got.cif
#   From: 2010.05.17/outbox.cif.g08.bks.cpg/sg2_307_cif.got.tgz:612633.got - 2010.06.03 11:33:40.
