data_PCOD9041113
_publ_section_title
;
Structure prediction by ZEFSAII (Michael W. Deem and Ramdas Pophale) SiO2 
 PCOD9041113
Probable space group: P -1
;
_chemical_formula_sum "Si O2"
_cell_formula_units_Z 16
_cell_length_a 14.703060
_cell_length_b 19.230433
_cell_length_c 9.345274
_cell_angle_alpha 144.697385
_cell_angle_beta 38.097828
_cell_angle_gamma 154.254114
_cell_volume 648.986209
_symmetry_space_group_name_H-M "P -1"
_symmetry_group_IT_number 2
_symmetry_cell_setting 'triclinic'
loop_
_space_group_symop_operation_xyz
x,y,z
-x,-y,-z
loop_
_atom_site_type_symbol
_atom_site_label
_atom_site_fract_x
_atom_site_fract_y
_atom_site_fract_z
Si Si1 0.521593 0.818942 0.267962
Si Si2 0.691328 0.680026 0.980955
Si Si3 0.980514 0.868695 0.206746
Si Si4 0.270730 0.758916 0.003837
Si Si5 0.183828 0.282866 0.564967
Si Si6 0.943713 0.205978 0.478039
Si Si7 0.698941 0.151914 0.192519
Si Si8 0.450103 0.673562 0.817509
O O1 0.337932 0.771182 0.511506
O O2 0.735891 0.028753 0.358703
O O3 0.595845 0.734737 0.100719
O O4 0.430855 0.747674 0.102243
O O5 0.845138 0.691105 0.705689
O O6 0.500000 0.500000 0.000000
O O7 0.853609 0.817976 0.135579
O O8 0.840376 0.707134 0.221010
O O9 0.181589 0.898641 0.990354
O O10 0.000000 0.000000 0.500000
O O11 0.104227 0.690710 0.222699
O O12 0.457536 0.968351 0.145661
O O13 0.198528 0.732986 0.886501
O O14 0.385915 0.702362 0.801139
O O15 0.314245 0.472630 0.662751
O O16 0.309997 0.233519 0.312714
O O17 0.979653 0.157183 0.503432
#
# Coordination Sequence:
#
# PCOD9041113 Si02
#       8
#     2   2   2   2   2   2   2   2
#     4  11  25  45  72 102 141 182 231 295 341 413
#     4  12  28  46  68 106 144 184 226 293 359 409
#     4  12  26  44  76 102 134 188 237 287 344 416
#     4  10  23  43  71 100 141 184 225 291 350 408
#     4  11  24  45  66 101 139 181 243 281 340 427
#     4  11  24  46  71  98 138 179 240 283 341 418
#     4  10  24  44  68 108 141 171 241 294 339 410
#     4  11  25  42  71  98 141 187 227 290 352 406
#
# _framework density 24.653839000000001
#
# number of rings (size 3 to 8) (size 9 to 14) (size 15 to 20)
#    0.000    1.000    2.500    2.625   12.250    1.500 
#    2.250    1.250    0.000    0.000    0.000    0.000 
#    0.000    0.000    0.000    0.000    0.000    0.000 
#
# Total GULP energy -89459.431888 kJ/mol
# GULP energy per Si atom -5591.214493 kJ/mol
# Density = 2.459773 g / cm^3
# Si number density = 24.653839 Si / 1000 Ang^3
#
#
#
# Elastic Constant Matrix: (Units=GPa)
#
#
# Indices 1 2 3 4 5 6 
#
# 1 125.3069 11.3059 37.4159 4.8398 -9.6516 3.6288
# 2 11.3059 55.9297 39.6405 -8.6748 -0.4708 -7.6749
# 3 37.4159 39.6405 139.5477 -19.2581 -0.5559 7.1713
# 4 4.8398 -8.6748 -19.2581 30.2893 -0.0200 0.8731
# 5 -9.6516 -0.4708 -0.5559 -0.0200 45.8011 -1.7342
# 6 3.6288 -7.6749 7.1713 0.8731 -1.7342 29.5155
#
#
#
# Elastic Compliance Matrix: (Units=1/GPa)
#
#
# Indices 1 2 3 4 5 6 
#
# 1 0.009125 -0.000442 -0.002754 -0.003324 0.001870 -0.000360
# 2 -0.000442 0.024309 -0.006859 0.002441 0.000377 0.007992
# 3 -0.002754 -0.006859 0.010826 0.005482 -0.000679 -0.004278
# 4 -0.003324 0.002441 0.005482 0.037772 -0.000647 -0.001444
# 5 0.001870 0.000377 -0.000679 -0.000647 0.022274 0.001361
# 6 -0.000360 0.007992 -0.004278 -0.001444 0.001361 0.037165
#
#
# Mechanical properties :
#
#
# Convention : Reuss Voigt Hill
#
# Bulk Modulus (GPa) = 41.40648 55.27878 48.34263
# Shear Modulus (GPa) = 29.47553 36.61597 33.04575
#
# Velocity S-wave (km/s) = 3.46146 3.85801 3.66511
# Velocity P-wave (km/s) = 5.72776 6.50510 6.12877
#
# Compressibility (1/GPa) = 0.02415081
#
# Stress axis : x y z
#
# Youngs Moduli (GPa) = 109.58369 41.13734 92.36604
#
# Poissons Ratio (x) = 0.01818 0.25438
# Poissons Ratio (y) = 0.04842 0.63354
# Poissons Ratio (z) = 0.30180 0.28216
#
# Static dielectric constant tensor:
#      x y z
#    x 1.903830 -0.006440 -0.009600 
#    y -0.006440 2.104740 -0.046770 
#    z -0.009600 -0.046770 1.980760 
# 
# From -- ./inp_files/318137.got.cif
#   From: 2010.05.17/outbox.cif.g08.bks.cpg/sg2_160_cif.got.tgz:318137.got - 2010.06.03 11:33:40.
