data_PCOD9041507
_publ_section_title
;
Structure prediction by ZEFSAII (Michael W. Deem and Ramdas Pophale) SiO2 
 PCOD9041507
Probable space group: P -1
;
_chemical_formula_sum "Si O2"
_cell_formula_units_Z 14
_cell_length_a 12.454688
_cell_length_b 6.760504
_cell_length_c 13.418587
_cell_angle_alpha 106.457498
_cell_angle_beta 34.571338
_cell_angle_gamma 90.775324
_cell_volume 562.485536
_symmetry_space_group_name_H-M "P -1"
_symmetry_group_IT_number 2
_symmetry_cell_setting 'triclinic'
loop_
_space_group_symop_operation_xyz
x,y,z
-x,-y,-z
loop_
_atom_site_type_symbol
_atom_site_label
_atom_site_fract_x
_atom_site_fract_y
_atom_site_fract_z
Si Si1 0.681107 0.407649 0.934461
Si Si2 0.733986 0.789556 0.412341
Si Si3 0.710579 0.084391 0.285018
Si Si4 0.948962 0.250171 0.536848
Si Si5 0.964670 0.716666 0.891051
Si Si6 0.741773 0.911839 0.885396
Si Si7 0.576144 0.165131 0.747781
O O1 0.877388 0.383655 0.713530
O O2 0.707159 0.169080 0.924508
O O3 0.500000 0.500000 0.000000
O O4 0.622632 0.601482 0.089564
O O5 0.747524 0.965733 0.346814
O O6 0.931827 0.554911 0.227155
O O7 0.526830 0.760147 0.533471
O O8 0.675488 0.934586 0.579002
O O9 0.853847 0.219559 0.192306
O O10 0.775670 0.875026 0.128140
O O11 0.749110 0.272116 0.628492
O O12 0.000000 0.000000 0.500000
O O13 0.140174 0.236926 0.322517
O O14 0.896644 0.820250 0.847598
O O15 0.526531 0.902092 0.084813
#
# Coordination Sequence:
#
# PCOD9041507 Si02
#       7
#     2   2   2   2   2   2   2
#     4   9  22  43  65  93 132 172 218 272 333 399
#     4  11  23  42  66  97 131 173 221 269 333 391
#     4  10  23  44  63  95 134 175 215 270 333 393
#     4   9  21  41  61  92 128 169 219 266 333 395
#     4  11  23  42  66  98 131 172 222 270 329 397
#     4  11  23  41  67  99 131 172 227 275 330 396
#     4  11  23  41  66  98 130 172 223 273 330 394
#
# _framework density 24.889529
#
# number of rings (size 3 to 8) (size 9 to 14) (size 15 to 20)
#    0.000    1.714    1.429    1.714    0.000   12.571 
#   10.286    0.000    0.000    0.000    0.000    0.000 
#    0.000    0.000    0.000    0.000    0.000    0.000 
#
# Total GULP energy -78038.871564 kJ/mol
# GULP energy per Si atom -5574.205112 kJ/mol
# Density = 2.483288 g / cm^3
# Si number density = 24.889529 Si / 1000 Ang^3
#
#
#
# Elastic Constant Matrix: (Units=GPa)
#
#
# Indices 1 2 3 4 5 6 
#
# 1 62.1671 15.0470 26.1044 12.7128 -4.5962 -6.9065
# 2 15.0470 85.7719 19.3310 17.1321 -6.4256 1.3132
# 3 26.1044 19.3310 139.8590 19.8444 12.6579 -10.2428
# 4 12.7128 17.1321 19.8444 43.5609 -6.6584 -5.7238
# 5 -4.5962 -6.4256 12.6579 -6.6584 41.8076 11.0512
# 6 -6.9065 1.3132 -10.2428 -5.7238 11.0512 35.8926
#
#
#
# Elastic Compliance Matrix: (Units=1/GPa)
#
#
# Indices 1 2 3 4 5 6 
#
# 1 0.018666 -0.001970 -0.002811 -0.002893 0.001639 0.001896
# 2 -0.001970 0.013316 -0.001288 -0.004070 0.002253 -0.002576
# 3 -0.002811 -0.001288 0.008900 -0.003024 -0.004460 0.002937
# 4 -0.002893 -0.004070 -0.003024 0.027624 0.003857 0.001947
# 5 0.001639 0.002253 -0.004460 0.003857 0.028872 -0.009314
# 6 0.001896 -0.002576 0.002937 0.001947 -0.009314 0.032337
#
#
# Mechanical properties :
#
#
# Convention : Reuss Voigt Hill
#
# Bulk Modulus (GPa) = 34.78805 45.41810 40.10308
# Shear Modulus (GPa) = 33.01793 39.40659 36.21226
#
# Velocity S-wave (km/s) = 3.64617 3.98334 3.81848
# Velocity P-wave (km/s) = 5.63324 6.28040 5.96561
#
# Compressibility (1/GPa) = 0.02874550
#
# Stress axis : x y z
#
# Youngs Moduli (GPa) = 53.57348 75.09926 112.35422
#
# Poissons Ratio (x) = 0.14791 0.31580
# Poissons Ratio (y) = 0.10552 0.14471
# Poissons Ratio (z) = 0.15058 0.09673
#
# Static dielectric constant tensor:
#      x y z
#    x 1.481980 -0.182400 0.286580 
#    y -0.182400 1.900950 0.131610 
#    z 0.286580 0.131610 1.918340 
# 
# From -- ./inp_files/525823.got.cif
#   From: 2010.05.17/outbox.cif.g08.bks.cpg/sg2_263_cif.got.tgz:525823.got - 2010.06.03 11:33:40.
