data_PCOD9041547
_publ_section_title
;
Structure prediction by ZEFSAII (Michael W. Deem and Ramdas Pophale) SiO2 
 PCOD9041547
Probable space group: P -1
;
_chemical_formula_sum "Si O2"
_cell_formula_units_Z 14
_cell_length_a 18.693353
_cell_length_b 6.834847
_cell_length_c 6.861534
_cell_angle_alpha 115.316408
_cell_angle_beta 107.383251
_cell_angle_gamma 55.755498
_cell_volume 653.110669
_symmetry_space_group_name_H-M "P -1"
_symmetry_group_IT_number 2
_symmetry_cell_setting 'triclinic'
loop_
_space_group_symop_operation_xyz
x,y,z
-x,-y,-z
loop_
_atom_site_type_symbol
_atom_site_label
_atom_site_fract_x
_atom_site_fract_y
_atom_site_fract_z
Si Si1 0.013550 0.947969 0.216345
Si Si2 0.432440 0.937630 0.596907
Si Si3 0.837907 0.926052 0.568422
Si Si4 0.547778 0.610711 0.218189
Si Si5 0.690212 0.104821 0.209892
Si Si6 0.899140 0.411632 0.569262
Si Si7 0.272664 0.153254 0.273054
O O1 0.099769 0.962459 0.335889
O O2 0.932353 0.170947 0.357295
O O3 0.037347 0.688544 0.233208
O O4 0.000000 0.000000 0.000000
O O5 0.461739 0.134381 0.767384
O O6 0.358228 0.079117 0.431966
O O7 0.505949 0.699965 0.437897
O O8 0.384857 0.885407 0.709941
O O9 0.898772 0.627921 0.528762
O O10 0.771899 0.995655 0.727754
O O11 0.777046 0.000373 0.362518
O O12 0.647321 0.389244 0.220582
O O13 0.500000 0.500000 0.000000
O O14 0.707847 0.923837 0.965677
O O15 0.800321 0.559052 0.627962
#
# Coordination Sequence:
#
# PCOD9041547 Si02
#       7
#     2   2   2   2   2   2   2
#     4  11  23  40  64  90 121 169 206 257 320 369
#     4  10  23  44  64  95 131 164 213 267 307 377
#     4   9  23  40  61  89 123 163 206 255 311 368
#     4  11  23  43  67  95 131 166 215 261 313 381
#     4  11  22  42  66  90 127 172 208 257 328 367
#     4   9  23  41  58  92 126 150 217 255 302 383
#     4   9  21  42  60  92 126 162 208 263 310 373
#
# _framework density 21.435879
#
# number of rings (size 3 to 8) (size 9 to 14) (size 15 to 20)
#    0.857    1.143    1.429    0.857    4.000    3.429 
#    5.143    0.000    0.000    0.000    0.000    0.000 
#    0.000    0.000    0.000    0.000    0.000    0.000 
#
# Total GULP energy -78043.021152 kJ/mol
# GULP energy per Si atom -5574.501511 kJ/mol
# Density = 2.138709 g / cm^3
# Si number density = 21.435879 Si / 1000 Ang^3
#
#
#
# Elastic Constant Matrix: (Units=GPa)
#
#
# Indices 1 2 3 4 5 6 
#
# 1 55.9486 14.2874 24.8927 13.5431 6.5455 -5.5162
# 2 14.2874 122.0757 43.5787 -4.8328 3.7540 -13.4873
# 3 24.8927 43.5787 110.3040 -5.8463 -6.3887 -7.2411
# 4 13.5431 -4.8328 -5.8463 29.0202 0.4892 -5.2697
# 5 6.5455 3.7540 -6.3887 0.4892 23.7504 8.7384
# 6 -5.5162 -13.4873 -7.2411 -5.2697 8.7384 26.3374
#
#
#
# Elastic Compliance Matrix: (Units=1/GPa)
#
#
# Indices 1 2 3 4 5 6 
#
# 1 0.025454 -0.000352 -0.006563 -0.012327 -0.010017 0.004204
# 2 -0.000352 0.010561 -0.003835 0.002402 -0.005017 0.006426
# 3 -0.006563 -0.003835 0.012599 0.004689 0.006055 -0.000945
# 4 -0.012327 0.002402 0.004689 0.043089 0.000276 0.008467
# 5 -0.010017 -0.005017 0.006055 0.000276 0.055091 -0.021226
# 6 0.004204 0.006426 -0.000945 0.008467 -0.021226 0.050617
#
#
# Mechanical properties :
#
#
# Convention : Reuss Voigt Hill
#
# Bulk Modulus (GPa) = 36.87932 50.42732 43.65332
# Shear Modulus (GPa) = 21.93490 29.52623 25.73057
#
# Velocity S-wave (km/s) = 3.20234 3.71539 3.46837
# Velocity P-wave (km/s) = 5.56014 6.47930 6.03724
#
# Compressibility (1/GPa) = 0.02711547
#
# Stress axis : x y z
#
# Youngs Moduli (GPa) = 39.28702 94.68845 79.37121
#
# Poissons Ratio (x) = 0.03330 0.52090
# Poissons Ratio (y) = 0.01382 0.30435
# Poissons Ratio (z) = 0.25784 0.36309
#
# Static dielectric constant tensor:
#      x y z
#    x 1.816260 0.053250 -0.010210 
#    y 0.053250 1.839570 -0.022570 
#    z -0.010210 -0.022570 1.753400 
# 
# From -- ./inp_files/117433.got.cif
#   From: 2010.05.17/outbox.cif.g08.bks.cpg/sg2_59_cif.got.tgz:117433.got - 2010.06.03 11:33:40.
