data_PCOD9041318
_publ_section_title
;
Structure prediction by ZEFSAII (Michael W. Deem and Ramdas Pophale) SiO2 
 PCOD9041318
Probable space group: P -1
;
_chemical_formula_sum "Si O2"
_cell_formula_units_Z 12
_cell_length_a 9.158206
_cell_length_b 14.957376
_cell_length_c 24.220835
_cell_angle_alpha 16.845388
_cell_angle_beta 147.838302
_cell_angle_gamma 148.424345
_cell_volume 492.724920
_symmetry_space_group_name_H-M "P -1"
_symmetry_group_IT_number 2
_symmetry_cell_setting 'triclinic'
loop_
_space_group_symop_operation_xyz
x,y,z
-x,-y,-z
loop_
_atom_site_type_symbol
_atom_site_label
_atom_site_fract_x
_atom_site_fract_y
_atom_site_fract_z
Si Si1 0.772416 0.714837 0.931192
Si Si2 0.464158 0.201782 0.716626
Si Si3 0.848239 0.247898 0.720720
Si Si4 0.143951 0.168004 0.236146
Si Si5 0.188816 0.374493 0.326625
Si Si6 0.439705 0.590242 0.679287
O O1 0.764422 0.684656 0.881265
O O2 0.786548 0.073233 0.745217
O O3 0.500000 0.500000 0.000000
O O4 0.012015 0.580075 0.116064
O O5 0.647584 0.054514 0.819119
O O6 0.269096 0.438616 0.495194
O O7 0.689062 0.432845 0.692888
O O8 0.198964 0.928458 0.816868
O O9 0.189151 0.319258 0.789274
O O10 0.283252 0.340519 0.234537
O O11 0.282415 0.870078 0.459757
O O12 0.456376 0.421872 0.342776
O O13 0.000000 0.000000 0.500000
#
# Coordination Sequence:
#
# PCOD9041318 Si02
#       6
#     2   2   2   2   2   2
#     4  12  27  44  67 103 140 177 230 288 335 401
#     4  10  23  43  73 101 137 182 222 276 337 414
#     4  10  23  44  71 103 138 176 228 276 341 399
#     4  10  23  44  71 103 138 176 228 276 341 399
#     4  12  27  44  71  97 136 183 232 281 345 402
#     4  10  23  43  73 101 137 182 222 276 337 414
#
# _framework density 24.354361999999998
#
# number of rings (size 3 to 8) (size 9 to 14) (size 15 to 20)
#    0.000    1.333    0.000    4.000   14.000    6.667 
#    0.000    0.000    0.000    0.000    0.000    0.000 
#    0.000    0.000    0.000    0.000    0.000    0.000 
#
# Total GULP energy -66894.999628 kJ/mol
# GULP energy per Si atom -5574.583302 kJ/mol
# Density = 2.429893 g / cm^3
# Si number density = 24.354362 Si / 1000 Ang^3
#
#
#
# Elastic Constant Matrix: (Units=GPa)
#
#
# Indices 1 2 3 4 5 6 
#
# 1 147.7887 48.2147 33.1603 -3.9969 -9.8782 5.1344
# 2 48.2147 96.1652 12.0177 11.9338 -10.5237 7.1604
# 3 33.1603 12.0177 75.4796 6.7387 0.7056 2.4874
# 4 -3.9969 11.9338 6.7387 20.2680 -4.1363 -4.0890
# 5 -9.8782 -10.5237 0.7056 -4.1363 41.2032 3.9379
# 6 5.1344 7.1604 2.4874 -4.0890 3.9379 48.4306
#
#
#
# Elastic Compliance Matrix: (Units=1/GPa)
#
#
# Indices 1 2 3 4 5 6 
#
# 1 0.009563 -0.004941 -0.004027 0.006554 0.001725 0.000337
# 2 -0.004941 0.014385 0.000834 -0.009897 0.001732 -0.002622
# 3 -0.004027 0.000834 0.015555 -0.006981 -0.001629 -0.000952
# 4 0.006554 -0.009897 -0.006981 0.060930 0.004717 0.005888
# 5 0.001725 0.001732 -0.001629 0.004717 0.025824 -0.002057
# 6 0.000337 -0.002622 -0.000952 0.005888 -0.002057 0.021713
#
#
# Mechanical properties :
#
#
# Convention : Reuss Voigt Hill
#
# Bulk Modulus (GPa) = 43.03821 56.24656 49.64238
# Shear Modulus (GPa) = 29.07284 37.04975 33.06130
#
# Velocity S-wave (km/s) = 3.45881 3.90459 3.68844
# Velocity P-wave (km/s) = 5.80182 6.59340 6.21024
#
# Compressibility (1/GPa) = 0.02323517
#
# Stress axis : x y z
#
# Youngs Moduli (GPa) = 104.57289 69.51833 64.28891
#
# Poissons Ratio (x) = 0.34348 0.25888
# Poissons Ratio (y) = 0.51667 -0.05362
# Poissons Ratio (z) = 0.42110 -0.05799
#
# Static dielectric constant tensor:
#      x y z
#    x 1.905300 0.063830 -0.073560 
#    y 0.063830 2.040380 -0.117900 
#    z -0.073560 -0.117900 2.105720 
# 
# From -- ./inp_files/185443.got.cif
#   From: 2010.05.17/outbox.cif.g08.bks.cpg/sg2_93_cif.got.tgz:185443.got - 2010.06.03 11:33:40.
