data_PCOD9041215
_publ_section_title
;
Structure prediction by ZEFSAII (Michael W. Deem and Ramdas Pophale) SiO2 
 PCOD9041215
Probable space group: P -1
;
_chemical_formula_sum "Si O2"
_cell_formula_units_Z 16
_cell_length_a 8.560511
_cell_length_b 21.179975
_cell_length_c 18.293421
_cell_angle_alpha 18.421698
_cell_angle_beta 51.491473
_cell_angle_gamma 60.826170
_cell_volume 745.245653
_symmetry_space_group_name_H-M "P -1"
_symmetry_group_IT_number 2
_symmetry_cell_setting 'triclinic'
loop_
_space_group_symop_operation_xyz
x,y,z
-x,-y,-z
loop_
_atom_site_type_symbol
_atom_site_label
_atom_site_fract_x
_atom_site_fract_y
_atom_site_fract_z
Si Si1 0.002758 0.636788 0.277070
Si Si2 0.258264 0.140492 0.264474
Si Si3 0.206023 0.318933 0.938908
Si Si4 0.263803 0.834190 0.780170
Si Si5 0.291345 0.156323 0.936605
Si Si6 0.619189 0.963494 0.327662
Si Si7 0.537579 0.486600 0.916989
Si Si8 0.789676 0.313655 0.566813
O O1 0.000000 0.500000 0.500000
O O2 0.809888 0.718114 0.226351
O O3 0.966176 0.472586 0.398827
O O4 0.228964 0.860034 0.968613
O O5 0.394470 0.991772 0.376442
O O6 0.323784 0.297954 0.000666
O O7 0.341535 0.294229 0.142508
O O8 0.000000 0.000000 0.500000
O O9 0.257465 0.208175 0.973722
O O10 0.233579 0.553924 0.642716
O O11 0.948058 0.198076 0.167385
O O12 0.500000 0.000000 0.500000
O O13 0.237436 0.935810 0.752188
O O14 0.273070 0.600864 0.044927
O O15 0.550421 0.234156 0.762347
O O16 0.175868 0.898887 0.233884
O O17 0.580728 0.712116 0.615523
O O18 0.500000 0.500000 0.000000
#
# Coordination Sequence:
#
# PCOD9041215 Si02
#       8
#     2   2   2   2   2   2   2   2
#     4  11  24  41  68  96 138 178 223 283 341 398
#     4  11  28  45  64 103 143 178 226 280 339 405
#     4  11  22  42  69  92 137 176 219 280 340 400
#     4  11  21  41  68  97 129 173 223 274 331 402
#     4  10  23  43  71  98 130 174 227 279 345 404
#     4  11  24  43  65  98 134 180 223 277 341 404
#     4  11  25  44  72  96 136 181 230 279 339 406
#     4  10  23  44  69 102 129 174 230 278 341 412
#
# _framework density 21.469429000000002
#
# number of rings (size 3 to 8) (size 9 to 14) (size 15 to 20)
#    0.000    1.250    3.750    3.000    5.250    2.000 
#    2.250    0.000    0.000    0.000    0.000    0.000 
#    0.000    0.000    0.000    0.000    0.000    0.000 
#
# Total GULP energy -89282.626271 kJ/mol
# GULP energy per Si atom -5580.164142 kJ/mol
# Density = 2.142056 g / cm^3
# Si number density = 21.469429 Si / 1000 Ang^3
#
#
#
# Elastic Constant Matrix: (Units=GPa)
#
#
# Indices 1 2 3 4 5 6 
#
# 1 91.0735 39.4942 34.8142 -3.3945 19.6441 11.8557
# 2 39.4942 76.1926 52.4133 -13.9791 9.2213 0.8371
# 3 34.8142 52.4133 140.4064 -12.8032 25.2575 -1.2138
# 4 -3.3945 -13.9791 -12.8032 44.4344 -5.9263 3.7875
# 5 19.6441 9.2213 25.2575 -5.9263 40.6158 9.4060
# 6 11.8557 0.8371 -1.2138 3.7875 9.4060 25.0773
#
#
#
# Elastic Compliance Matrix: (Units=1/GPa)
#
#
# Indices 1 2 3 4 5 6 
#
# 1 0.016170 -0.007704 -0.000462 -0.001495 -0.004752 -0.005402
# 2 -0.007704 0.022054 -0.006468 0.004875 0.003310 0.000615
# 3 -0.000462 -0.006468 0.010698 -0.000007 -0.005676 0.003082
# 4 -0.001495 0.004875 -0.000007 0.024922 0.004384 -0.004865
# 5 -0.004752 0.003310 -0.005676 0.004384 0.032918 -0.011148
# 6 -0.005402 0.000615 0.003082 -0.004865 -0.011148 0.047475
#
#
# Mechanical properties :
#
#
# Convention : Reuss Voigt Hill
#
# Bulk Modulus (GPa) = 50.87788 62.34621 56.61204
# Shear Modulus (GPa) = 26.30788 34.08890 30.19839
#
# Velocity S-wave (km/s) = 3.50432 3.98903 3.75450
# Velocity P-wave (km/s) = 6.33427 7.09359 6.72465
#
# Compressibility (1/GPa) = 0.01965491
#
# Stress axis : x y z
#
# Youngs Moduli (GPa) = 61.84390 45.34225 93.47295
#
# Poissons Ratio (x) = 0.34930 0.04317
# Poissons Ratio (y) = 0.47642 0.60461
# Poissons Ratio (z) = 0.02856 0.29329
#
# Static dielectric constant tensor:
#      x y z
#    x 1.765450 -0.012510 0.003330 
#    y -0.012510 1.789680 0.058950 
#    z 0.003330 0.058950 1.879180 
# 
# From -- ./inp_files/562514.got.cif
#   From: 2010.05.17/outbox.cif.g08.bks.cpg/sg2_282_cif.got.tgz:562514.got - 2010.06.03 11:33:40.
