data_PCOD9041225
_publ_section_title
;
Structure prediction by ZEFSAII (Michael W. Deem and Ramdas Pophale) SiO2 
 PCOD9041225
Probable space group: P -1
;
_chemical_formula_sum "Si O2"
_cell_formula_units_Z 16
_cell_length_a 20.630245
_cell_length_b 9.300764
_cell_length_c 24.328109
_cell_angle_alpha 152.029769
_cell_angle_beta 160.545568
_cell_angle_gamma 30.339585
_cell_volume 715.349280
_symmetry_space_group_name_H-M "P -1"
_symmetry_group_IT_number 2
_symmetry_cell_setting 'triclinic'
loop_
_space_group_symop_operation_xyz
x,y,z
-x,-y,-z
loop_
_atom_site_type_symbol
_atom_site_label
_atom_site_fract_x
_atom_site_fract_y
_atom_site_fract_z
Si Si1 0.801638 0.718403 0.393283
Si Si2 0.051477 0.941626 0.458533
Si Si3 0.392059 0.601508 0.006377
Si Si4 0.412134 0.811744 0.275364
Si Si5 0.338963 0.820874 0.477352
Si Si6 0.308916 0.267136 0.934850
Si Si7 0.248614 0.230504 0.375834
Si Si8 0.996204 0.865759 0.130429
O O1 0.599694 0.604608 0.204979
O O2 0.000000 0.500000 0.500000
O O3 0.745470 0.059716 0.491014
O O4 0.839976 0.786682 0.383613
O O5 0.167321 0.593338 0.429333
O O6 0.866230 0.927170 0.266222
O O7 0.000000 0.000000 0.500000
O O8 0.290599 0.413784 0.907848
O O9 0.500000 0.500000 0.000000
O O10 0.226089 0.920561 0.971486
O O11 0.325453 0.530552 0.083193
O O12 0.555930 0.755648 0.425370
O O13 0.540280 0.942451 0.375754
O O14 0.257270 0.090992 0.273844
O O15 0.500000 0.500000 0.500000
O O16 0.138952 0.847573 0.291135
O O17 0.500000 0.000000 0.000000
O O18 0.113056 0.030635 0.233632
O O19 0.000000 0.500000 0.000000
#
# Coordination Sequence:
#
# PCOD9041225 Si02
#       8
#     2   2   2   2   2   2   2   2
#     4  12  26  43  70 103 138 187 237 295 363 420
#     4  12  26  43  70 100 143 185 237 290 362 426
#     4  12  25  46  69 102 146 187 241 293 364 434
#     4  10  23  43  71  98 141 180 242 298 354 437
#     4  11  23  43  70 101 142 183 241 295 360 430
#     4  12  25  44  70 104 139 188 240 299 357 427
#     4  10  23  45  68 102 138 191 234 297 369 428
#     4  11  25  43  70 103 143 192 240 297 361 437
#
# _framework density 22.366696999999998
#
# number of rings (size 3 to 8) (size 9 to 14) (size 15 to 20)
#    0.000    0.750    2.500    4.500    3.500    4.500 
#    0.000    0.000    0.000    0.000    0.000    0.000 
#    0.000    0.000    0.000    0.000    0.000    0.000 
#
# Total GULP energy -89111.578041 kJ/mol
# GULP energy per Si atom -5569.473628 kJ/mol
# Density = 2.231579 g / cm^3
# Si number density = 22.366697 Si / 1000 Ang^3
#
#
#
# Elastic Constant Matrix: (Units=GPa)
#
#
# Indices 1 2 3 4 5 6 
#
# 1 100.2168 10.8665 4.1658 7.5389 -21.8645 -14.6278
# 2 10.8665 119.8382 5.6063 -13.8338 -10.7890 -17.0734
# 3 4.1658 5.6063 84.8173 2.1126 5.5462 -8.1814
# 4 7.5389 -13.8338 2.1126 32.6657 -1.4368 0.7929
# 5 -21.8645 -10.7890 5.5462 -1.4368 31.7189 8.4282
# 6 -14.6278 -17.0734 -8.1814 0.7929 8.4282 35.2278
#
#
#
# Elastic Compliance Matrix: (Units=1/GPa)
#
#
# Indices 1 2 3 4 5 6 
#
# 1 0.012345 -0.000270 -0.000724 -0.002657 0.007610 0.003066
# 2 -0.000270 0.009627 -0.000518 0.004185 0.002366 0.003773
# 3 -0.000724 -0.000518 0.012449 -0.001103 -0.003770 0.003266
# 4 -0.002657 0.004185 -0.001103 0.033141 0.001396 -0.000410
# 5 0.007610 0.002366 -0.003770 0.001396 0.039935 -0.006155
# 6 0.003066 0.003773 0.003266 -0.000410 -0.006155 0.033729
#
#
# Mechanical properties :
#
#
# Convention : Reuss Voigt Hill
#
# Bulk Modulus (GPa) = 31.85088 38.46105 35.15596
# Shear Modulus (GPa) = 32.31708 38.87139 35.59423
#
# Velocity S-wave (km/s) = 3.80527 4.17335 3.99356
# Velocity P-wave (km/s) = 5.79466 6.36046 6.08414
#
# Compressibility (1/GPa) = 0.03139631
#
# Stress axis : x y z
#
# Youngs Moduli (GPa) = 81.00215 103.87424 80.32845
#
# Poissons Ratio (x) = 0.02808 0.05817
# Poissons Ratio (y) = 0.02189 0.04162
# Poissons Ratio (z) = 0.05866 0.05381
#
# Static dielectric constant tensor:
#      x y z
#    x 1.876470 -0.091690 -0.032430 
#    y -0.091690 1.946130 -0.061060 
#    z -0.032430 -0.061060 2.070220 
# 
# From -- ./inp_files/613637.got.cif
#   From: 2010.05.17/outbox.cif.g08.bks.cpg/sg2_307_cif.got.tgz:613637.got - 2010.06.03 11:33:40.
