data_PCOD9041592
_publ_section_title
;
Structure prediction by ZEFSAII (Michael W. Deem and Ramdas Pophale) SiO2 
 PCOD9041592
Probable space group: P -1
;
_chemical_formula_sum "Si O2"
_cell_formula_units_Z 16
_cell_length_a 14.167315
_cell_length_b 8.917603
_cell_length_c 20.808155
_cell_angle_alpha 124.492264
_cell_angle_beta 159.348948
_cell_angle_gamma 63.226416
_cell_volume 735.057739
_symmetry_space_group_name_H-M "P -1"
_symmetry_group_IT_number 2
_symmetry_cell_setting 'triclinic'
loop_
_space_group_symop_operation_xyz
x,y,z
-x,-y,-z
loop_
_atom_site_type_symbol
_atom_site_label
_atom_site_fract_x
_atom_site_fract_y
_atom_site_fract_z
Si Si1 0.198144 0.549221 0.199835
Si Si2 0.088974 0.203682 0.138866
Si Si3 0.132941 0.170905 0.896848
Si Si4 0.685263 0.858714 0.599714
Si Si5 0.228457 0.354577 0.763387
Si Si6 0.047645 0.018610 0.665633
Si Si7 0.521079 0.888221 0.232672
Si Si8 0.303773 0.767222 0.670957
O O1 0.201938 0.366044 0.198545
O O2 0.511189 0.665632 0.408820
O O3 0.063792 0.687907 0.190743
O O4 0.000000 0.500000 0.000000
O O5 0.291814 0.195725 0.324803
O O6 0.795873 0.219650 0.983494
O O7 0.000000 0.000000 0.000000
O O8 0.156309 0.084488 0.821050
O O9 0.430852 0.282448 0.142267
O O10 0.988065 0.982803 0.800661
O O11 0.500000 0.000000 0.500000
O O12 0.111260 0.207265 0.709444
O O13 0.342612 0.242392 0.754538
O O14 0.955412 0.390729 0.563775
O O15 0.500000 0.500000 0.000000
O O16 0.187787 0.878100 0.681321
O O17 0.712209 0.934875 0.429438
O O18 0.571761 0.079451 0.269021
#
# Coordination Sequence:
#
# PCOD9041592 Si02
#       8
#     2   2   2   2   2   2   2   2
#     4  11  27  44  60  97 135 164 221 275 324 389
#     4  12  24  42  71  90 126 173 223 265 331 390
#     4  11  21  40  68  93 131 168 214 268 324 384
#     4  10  23  44  65  92 127 166 214 272 328 378
#     4   9  19  38  61  90 137 161 209 267 312 386
#     4   9  20  35  64  91 125 166 213 257 318 387
#     4   9  20  37  63  92 117 171 216 253 321 383
#     4   9  18  40  61  93 124 170 210 254 318 391
#
# _framework density 21.766997
#
# number of rings (size 3 to 8) (size 9 to 14) (size 15 to 20)
#    0.000    2.000    1.250    3.750    7.000    0.000 
#    2.250    0.625    0.000    0.000    0.000    0.000 
#    0.000    0.000    0.000    0.000    0.000    0.000 
#
# Total GULP energy -89238.298702 kJ/mol
# GULP energy per Si atom -5577.393669 kJ/mol
# Density = 2.171745 g / cm^3
# Si number density = 21.766997 Si / 1000 Ang^3
#
#
#
# Elastic Constant Matrix: (Units=GPa)
#
#
# Indices 1 2 3 4 5 6 
#
# 1 49.5906 17.1664 19.3181 -1.6220 -8.8446 14.5306
# 2 17.1664 65.8619 32.5203 0.9402 -1.1183 16.2855
# 3 19.3181 32.5203 170.5995 -7.7746 -21.7891 12.7066
# 4 -1.6220 0.9402 -7.7746 33.4094 -0.9398 -1.2512
# 5 -8.8446 -1.1183 -21.7891 -0.9398 26.7693 -3.2890
# 6 14.5306 16.2855 12.7066 -1.2512 -3.2890 11.8569
#
#
#
# Elastic Compliance Matrix: (Units=1/GPa)
#
#
# Indices 1 2 3 4 5 6 
#
# 1 0.032502 0.001737 -0.000283 0.000111 0.005628 -0.040341
# 2 0.001737 0.024779 -0.003151 -0.002789 -0.005298 -0.034552
# 3 -0.000283 -0.003151 0.007420 0.001906 0.005698 -0.001496
# 4 0.000111 -0.002789 0.001906 0.030768 0.003265 0.005805
# 5 0.005628 -0.005298 0.005698 0.003265 0.044606 0.006992
# 6 -0.040341 -0.034552 -0.001496 0.005805 0.006992 0.185390
#
#
# Mechanical properties :
#
#
# Convention : Reuss Voigt Hill
#
# Bulk Modulus (GPa) = 16.31081 47.11796 31.71439
# Shear Modulus (GPa) = 14.31457 28.87692 21.59575
#
# Velocity S-wave (km/s) = 2.56721 3.64626 3.15323
# Velocity P-wave (km/s) = 4.03696 6.27857 5.27814
#
# Compressibility (1/GPa) = 0.06130903
#
# Stress axis : x y z
#
# Youngs Moduli (GPa) = 30.76757 40.35607 134.76468
#
# Poissons Ratio (x) = -0.07011 0.03814
# Poissons Ratio (y) = -0.05346 0.42460
# Poissons Ratio (z) = 0.00871 0.12715
#
# Static dielectric constant tensor:
#      x y z
#    x 1.788580 -0.032430 0.021830 
#    y -0.032430 1.804590 -0.036420 
#    z 0.021830 -0.036420 1.897860 
# 
# From -- ./inp_files/328027.got.cif
#   From: 2010.05.17/outbox.cif.g08.bks.cpg/sg2_165_cif.got.tgz:328027.got - 2010.06.03 11:33:40.
