data_PCOD9041782
_publ_section_title
;
Structure prediction by ZEFSAII (Michael W. Deem and Ramdas Pophale) SiO2 
 PCOD9041782
Probable space group: P -1
;
_chemical_formula_sum "Si O2"
_cell_formula_units_Z 16
_cell_length_a 6.248587
_cell_length_b 26.149852
_cell_length_c 5.794382
_cell_angle_alpha 137.551933
_cell_angle_beta 101.732202
_cell_angle_gamma 83.009622
_cell_volume 625.090296
_symmetry_space_group_name_H-M "P -1"
_symmetry_group_IT_number 2
_symmetry_cell_setting 'triclinic'
loop_
_space_group_symop_operation_xyz
x,y,z
-x,-y,-z
loop_
_atom_site_type_symbol
_atom_site_label
_atom_site_fract_x
_atom_site_fract_y
_atom_site_fract_z
Si Si1 0.416341 0.858500 0.345819
Si Si2 0.852342 0.922001 0.708527
Si Si3 0.736115 0.256174 0.725817
Si Si4 0.693082 0.388162 0.532246
Si Si5 0.996794 0.091250 0.805027
Si Si6 0.232779 0.481991 0.346406
Si Si7 0.607947 0.719632 0.678294
Si Si8 0.054487 0.324398 0.702501
O O1 0.589745 0.925828 0.660580
O O2 0.288814 0.824990 0.428051
O O3 0.247671 0.880301 0.184683
O O4 0.547601 0.784486 0.057433
O O5 0.893743 0.887437 0.346843
O O6 0.899184 0.885889 0.850232
O O7 0.000000 0.000000 0.000000
O O8 0.544219 0.264273 0.523315
O O9 0.968519 0.270313 0.702220
O O10 0.724700 0.327331 0.133860
O O11 0.775055 0.469229 0.727139
O O12 0.455425 0.363143 0.500085
O O13 0.848148 0.367491 0.707291
O O14 0.000000 0.000000 0.500000
O O15 0.500000 0.500000 0.500000
O O16 0.000000 0.500000 0.500000
O O17 0.221932 0.391319 0.034466
O O18 0.850348 0.720294 0.638503
#
# Coordination Sequence:
#
# PCOD9041782 Si02
#       8
#     2   2   2   2   2   2   2   2
#     4  11  26  46  75 108 156 199 259 320 406 484
#     4  10  25  46  77 115 153 199 256 320 401 476
#     4  10  23  45  66 102 147 194 252 312 394 474
#     4  10  23  44  67 104 141 193 254 324 395 461
#     4  10  25  47  76 115 154 199 256 323 400 482
#     4  12  26  44  77 106 146 206 266 331 408 483
#     4  10  25  43  68 105 144 203 250 325 392 484
#     4  11  24  44  74 100 151 191 262 323 399 474
#
# _framework density 25.596298999999998
#
# number of rings (size 3 to 8) (size 9 to 14) (size 15 to 20)
#    0.000    1.500    1.250    1.125    7.000   10.500 
#    0.000    0.000    0.000    0.000    0.000    0.000 
#    0.000    0.000    0.000    0.000    0.000    0.000 
#
# Total GULP energy -89279.583583 kJ/mol
# GULP energy per Si atom -5579.973974 kJ/mol
# Density = 2.553804 g / cm^3
# Si number density = 25.596299 Si / 1000 Ang^3
#
#
#
# Elastic Constant Matrix: (Units=GPa)
#
#
# Indices 1 2 3 4 5 6 
#
# 1 112.0277 44.2974 23.5151 -0.4153 -4.6812 29.5190
# 2 44.2974 108.8611 23.4375 -15.9643 2.5125 20.0771
# 3 23.5151 23.4375 71.0555 -10.5174 -2.8778 13.7595
# 4 -0.4153 -15.9643 -10.5174 49.6865 -1.2132 1.0706
# 5 -4.6812 2.5125 -2.8778 -1.2132 42.0724 -2.8228
# 6 29.5190 20.0771 13.7595 1.0706 -2.8228 42.2131
#
#
#
# Elastic Compliance Matrix: (Units=1/GPa)
#
#
# Indices 1 2 3 4 5 6 
#
# 1 0.012477 -0.003749 -0.001839 -0.001330 0.001029 -0.006240
# 2 -0.003749 0.012149 -0.001765 0.003525 -0.001347 -0.002761
# 3 -0.001839 -0.001765 0.016365 0.002973 0.000889 -0.003225
# 4 -0.001330 0.003525 0.002973 0.021933 0.000326 -0.002250
# 5 0.001029 -0.001347 0.000889 0.000326 0.024117 0.001235
# 6 -0.006240 -0.002761 -0.003225 -0.002250 0.001235 0.030556
#
#
# Mechanical properties :
#
#
# Convention : Reuss Voigt Hill
#
# Bulk Modulus (GPa) = 38.04572 52.71605 45.38089
# Shear Modulus (GPa) = 35.44461 40.17403 37.80932
#
# Velocity S-wave (km/s) = 3.72527 3.96602 3.84753
# Velocity P-wave (km/s) = 5.77923 6.45076 6.12421
#
# Compressibility (1/GPa) = 0.02628417
#
# Stress axis : x y z
#
# Youngs Moduli (GPa) = 80.14610 82.31321 61.10678
#
# Poissons Ratio (x) = 0.30861 0.11240
# Poissons Ratio (y) = 0.30048 0.10783
# Poissons Ratio (z) = 0.14742 0.14526
#
# Static dielectric constant tensor:
#      x y z
#    x 2.191290 0.076770 0.096020 
#    y 0.076770 2.146450 0.157140 
#    z 0.096020 0.157140 2.234360 
# 
# From -- ./inp_files/13346.got.cif
#   From: 2010.05.17/outbox.cif.g08.bks.cpg/sg2_7_cif.got.tgz:13346.got - 2010.06.03 11:33:40.
