data_PCOD9041664
_publ_section_title
;
Structure prediction by ZEFSAII (Michael W. Deem and Ramdas Pophale) SiO2 
 PCOD9041664
Probable space group: P -1
;
_chemical_formula_sum "Si O2"
_cell_formula_units_Z 14
_cell_length_a 13.821189
_cell_length_b 27.455277
_cell_length_c 22.256571
_cell_angle_alpha 168.976743
_cell_angle_beta 157.658082
_cell_angle_gamma 21.033675
_cell_volume 574.832744
_symmetry_space_group_name_H-M "P -1"
_symmetry_group_IT_number 2
_symmetry_cell_setting 'triclinic'
loop_
_space_group_symop_operation_xyz
x,y,z
-x,-y,-z
loop_
_atom_site_type_symbol
_atom_site_label
_atom_site_fract_x
_atom_site_fract_y
_atom_site_fract_z
Si Si1 0.579308 0.235311 0.366880
Si Si2 0.727073 0.113489 0.439740
Si Si3 0.764369 0.481489 0.300276
Si Si4 0.674822 0.173561 0.782730
Si Si5 0.143865 0.566654 0.903933
Si Si6 0.001533 0.274699 0.363588
Si Si7 0.683911 0.592040 0.763177
O O1 0.731581 0.152167 0.417119
O O2 0.291288 0.480127 0.512471
O O3 0.739319 0.373148 0.582362
O O4 0.500000 0.000000 0.000000
O O5 0.529819 0.408469 0.706148
O O6 0.000000 0.000000 0.500000
O O7 0.568902 0.896392 0.092592
O O8 0.000000 0.500000 0.500000
O O9 0.767462 0.676463 0.484047
O O10 0.842928 0.197761 0.967263
O O11 0.430170 0.448906 0.958066
O O12 0.500000 0.000000 0.500000
O O13 0.859377 0.187965 0.846978
O O14 0.091249 0.326605 0.544453
O O15 0.933125 0.610511 0.890237
O O16 0.000000 0.000000 0.000000
O O17 0.500000 0.500000 0.500000
#
# Coordination Sequence:
#
# PCOD9041664 Si02
#       7
#     2   2   2   2   2   2   2
#     4  12  25  45  75 113 148 206 263 317 385 472
#     4  12  27  48  72 110 162 200 257 331 397 464
#     4  11  24  43  71 106 144 191 256 314 383 458
#     4  10  24  43  71  99 141 194 244 308 382 452
#     4  10  23  44  66 106 143 187 255 309 373 457
#     4  11  23  41  71 108 150 192 254 318 385 457
#     4  12  24  44  76 106 149 205 256 317 386 465
#
# _framework density 24.35491
#
# number of rings (size 3 to 8) (size 9 to 14) (size 15 to 20)
#    0.000    0.857    4.286    1.714    2.000    4.000 
#    0.000    1.429    0.000    0.000    0.000    0.000 
#    0.000    0.000    0.000    0.000    0.000    0.000 
#
# Total GULP energy -77941.355619 kJ/mol
# GULP energy per Si atom -5567.239687 kJ/mol
# Density = 2.429948 g / cm^3
# Si number density = 24.354910 Si / 1000 Ang^3
#
#
#
# Elastic Constant Matrix: (Units=GPa)
#
#
# Indices 1 2 3 4 5 6 
#
# 1 195.4287 52.2678 56.8857 7.1028 16.9016 11.3742
# 2 52.2678 113.0754 21.4259 -15.1811 -11.9792 18.9821
# 3 56.8857 21.4259 132.4959 -7.0317 7.6991 19.3363
# 4 7.1028 -15.1811 -7.0317 39.2994 2.9845 -5.9738
# 5 16.9016 -11.9792 7.6991 2.9845 53.4503 -1.2415
# 6 11.3742 18.9821 19.3363 -5.9738 -1.2415 50.2114
#
#
#
# Elastic Compliance Matrix: (Units=1/GPa)
#
#
# Indices 1 2 3 4 5 6 
#
# 1 0.007089 -0.003493 -0.002527 -0.002850 -0.002495 0.000287
# 2 -0.003493 0.011943 0.000064 0.004519 0.003447 -0.003125
# 3 -0.002527 0.000064 0.009160 0.001748 -0.000668 -0.002788
# 4 -0.002850 0.004519 0.001748 0.028258 0.000122 0.001629
# 5 -0.002495 0.003447 -0.000668 0.000122 0.020361 0.000037
# 6 0.000287 -0.003125 -0.002788 0.001629 0.000037 0.022301
#
#
# Mechanical properties :
#
#
# Convention : Reuss Voigt Hill
#
# Bulk Modulus (GPa) = 61.42335 78.01764 69.72049
# Shear Modulus (GPa) = 42.93658 49.28694 46.11176
#
# Velocity S-wave (km/s) = 4.20331 4.50343 4.35596
# Velocity P-wave (km/s) = 6.98799 7.69054 7.34766
#
# Compressibility (1/GPa) = 0.01628045
#
# Stress axis : x y z
#
# Youngs Moduli (GPa) = 141.05464 83.73226 109.16493
#
# Poissons Ratio (x) = 0.29250 0.27586
# Poissons Ratio (y) = 0.49274 -0.00701
# Poissons Ratio (z) = 0.35645 -0.00538
#
# Static dielectric constant tensor:
#      x y z
#    x 2.054090 -0.077900 -0.039620 
#    y -0.077900 2.025420 0.132690 
#    z -0.039620 0.132690 2.099490 
# 
# From -- ./inp_files/612484.got.cif
#   From: 2010.05.17/outbox.cif.g08.bks.cpg/sg2_307_cif.got.tgz:612484.got - 2010.06.03 11:33:40.
