data_PCOD9041045
_publ_section_title
;
Structure prediction by ZEFSAII (Michael W. Deem and Ramdas Pophale) SiO2 
 PCOD9041045
Probable space group: P -1
;
_chemical_formula_sum "Si O2"
_cell_formula_units_Z 16
_cell_length_a 8.233603
_cell_length_b 8.828725
_cell_length_c 19.563792
_cell_angle_alpha 120.322403
_cell_angle_beta 144.434351
_cell_angle_gamma 63.889017
_cell_volume 712.779075
_symmetry_space_group_name_H-M "P -1"
_symmetry_group_IT_number 2
_symmetry_cell_setting 'triclinic'
loop_
_space_group_symop_operation_xyz
x,y,z
-x,-y,-z
loop_
_atom_site_type_symbol
_atom_site_label
_atom_site_fract_x
_atom_site_fract_y
_atom_site_fract_z
Si Si1 0.738354 0.020232 0.645273
Si Si2 0.590042 0.320404 0.950727
Si Si3 0.255120 0.542050 0.478145
Si Si4 0.277118 0.307042 0.704838
Si Si5 0.752938 0.763213 0.849077
Si Si6 0.419420 0.925179 0.653001
Si Si7 0.516491 0.387343 0.657995
Si Si8 0.391951 0.980301 0.880241
O O1 0.751909 0.231717 0.694184
O O2 0.500000 0.000000 0.500000
O O3 0.582110 0.959195 0.646293
O O4 0.062162 0.943815 0.744543
O O5 0.500750 0.340501 0.846058
O O6 0.438888 0.163345 0.899859
O O7 0.500000 0.500000 0.000000
O O8 0.916432 0.261989 0.046702
O O9 0.500000 0.500000 0.500000
O O10 0.270857 0.742206 0.556027
O O11 0.297260 0.408225 0.524868
O O12 0.978527 0.551925 0.340955
O O13 0.368087 0.341486 0.666703
O O14 0.226922 0.098866 0.644986
O O15 0.645084 0.897597 0.783920
O O16 0.644123 0.573721 0.750849
O O17 0.599881 0.834074 0.881406
O O18 0.500000 0.000000 0.000000
#
# Coordination Sequence:
#
# PCOD9041045 Si02
#       8
#     2   2   2   2   2   2   2   2
#     4  11  25  45  72 106 145 182 237 292 350 417
#     4  12  28  46  73 100 138 185 239 289 348 418
#     4  11  24  40  69 100 137 178 229 287 347 418
#     4  11  25  43  67  96 136 183 230 279 353 412
#     4  11  25  47  72 101 140 184 236 288 353 420
#     4  10  23  43  70  95 138 181 225 284 350 417
#     4  10  25  44  69  99 141 181 230 287 352 413
#     4  12  28  46  75 106 144 185 237 292 356 420
#
# _framework density 22.447348999999999
#
# number of rings (size 3 to 8) (size 9 to 14) (size 15 to 20)
#    0.000    1.000    1.250    3.375   12.250    6.500 
#    0.000    0.000    0.000    0.000    0.000    0.000 
#    0.000    0.000    0.000    0.000    0.000    0.000 
#
# Total GULP energy -89382.182371 kJ/mol
# GULP energy per Si atom -5586.386398 kJ/mol
# Density = 2.239626 g / cm^3
# Si number density = 22.447349 Si / 1000 Ang^3
#
#
#
# Elastic Constant Matrix: (Units=GPa)
#
#
# Indices 1 2 3 4 5 6 
#
# 1 79.0341 27.7327 45.2687 -27.4623 -15.3176 -5.2289
# 2 27.7327 72.7224 29.5306 -23.6260 -6.9947 5.3002
# 3 45.2687 29.5306 114.2262 -41.0891 -6.8575 -4.9859
# 4 -27.4623 -23.6260 -41.0891 48.5150 1.2928 0.7359
# 5 -15.3176 -6.9947 -6.8575 1.2928 40.7601 -9.0195
# 6 -5.2289 5.3002 -4.9859 0.7359 -9.0195 40.4998
#
#
#
# Elastic Compliance Matrix: (Units=1/GPa)
#
#
# Indices 1 2 3 4 5 6 
#
# 1 0.019965 -0.003655 -0.004382 0.005568 0.006833 0.003937
# 2 -0.003655 0.017718 -0.001224 0.005550 0.000644 -0.002899
# 3 -0.004382 -0.001224 0.014059 0.008797 0.000512 0.001279
# 4 0.005568 0.005550 0.008797 0.033798 0.003739 0.001294
# 5 0.006833 0.000644 0.000512 0.003739 0.028773 0.007201
# 6 0.003937 -0.002899 0.001279 0.001294 0.007201 0.027317
#
#
# Mechanical properties :
#
#
# Convention : Reuss Voigt Hill
#
# Bulk Modulus (GPa) = 30.10242 52.33851 41.22047
# Shear Modulus (GPa) = 29.20143 36.85168 33.02655
#
# Velocity S-wave (km/s) = 3.61069 4.05618 3.83990
# Velocity P-wave (km/s) = 5.55177 6.73079 6.16951
#
# Compressibility (1/GPa) = 0.03321992
#
# Stress axis : x y z
#
# Youngs Moduli (GPa) = 50.08809 56.44041 71.12970
#
# Poissons Ratio (x) = 0.20628 0.31172
# Poissons Ratio (y) = 0.18306 0.08703
# Poissons Ratio (z) = 0.21951 0.06906
#
# Static dielectric constant tensor:
#      x y z
#    x 1.759990 -0.016930 -0.018100 
#    y -0.016930 1.842000 0.017210 
#    z -0.018100 0.017210 1.888450 
# 
# From -- ./inp_files/216572.got.cif
#   From: 2010.05.17/outbox.cif.g08.bks.cpg/sg2_109_cif.got.tgz:216572.got - 2010.06.03 11:33:40.
