data_PCOD9041935
_publ_section_title
;
Structure prediction by ZEFSAII (Michael W. Deem and Ramdas Pophale) SiO2 
 PCOD9041935
Probable space group: P -1
;
_chemical_formula_sum "Si O2"
_cell_formula_units_Z 12
_cell_length_a 15.128104
_cell_length_b 11.978635
_cell_length_c 20.173892
_cell_angle_alpha 25.308507
_cell_angle_beta 162.886960
_cell_angle_gamma 153.479921
_cell_volume 445.890406
_symmetry_space_group_name_H-M "P -1"
_symmetry_group_IT_number 2
_symmetry_cell_setting 'triclinic'
loop_
_space_group_symop_operation_xyz
x,y,z
-x,-y,-z
loop_
_atom_site_type_symbol
_atom_site_label
_atom_site_fract_x
_atom_site_fract_y
_atom_site_fract_z
Si Si1 0.450374 0.749567 0.046993
Si Si2 0.379167 0.034026 0.468729
Si Si3 0.086770 0.644720 0.053792
Si Si4 0.698506 0.818657 0.918573
Si Si5 0.374865 0.978981 0.728795
Si Si6 0.121575 0.439227 0.456098
O O1 0.129445 0.538142 0.949184
O O2 0.737569 0.624110 0.339474
O O3 0.427857 0.817343 0.918596
O O4 0.500000 0.000000 0.000000
O O5 0.042694 0.086618 0.191146
O O6 0.595150 0.322007 0.495558
O O7 0.500000 0.000000 0.500000
O O8 0.437159 0.805494 0.682029
O O9 0.000000 0.500000 0.000000
O O10 0.451826 0.717598 0.289658
O O11 0.573027 0.949618 0.821125
O O12 0.827259 0.570100 0.170941
O O13 0.000000 0.000000 0.000000
O O14 0.017463 0.850166 0.523124
#
# Coordination Sequence:
#
# PCOD9041935 Si02
#       6
#     2   2   2   2   2   2
#     4  11  26  49  71 103 146 189 245 290 359 436
#     4  10  23  45  77 102 148 191 238 305 361 430
#     4  11  24  47  71 107 144 194 239 296 364 424
#     4  10  23  44  68 109 140 182 242 292 364 425
#     4  12  26  44  76 103 146 188 239 300 358 426
#     4  10  25  45  69 108 141 186 242 294 362 427
#
# _framework density 26.912441999999999
#
# number of rings (size 3 to 8) (size 9 to 14) (size 15 to 20)
#    0.000    1.333    1.667    2.500   11.667    1.333 
#    0.000    1.667    0.000    0.000    0.000    0.000 
#    0.000    0.000    0.000    0.000    0.000    0.000 
#
# Total GULP energy -67087.460802 kJ/mol
# GULP energy per Si atom -5590.621733 kJ/mol
# Density = 2.685119 g / cm^3
# Si number density = 26.912442 Si / 1000 Ang^3
#
#
#
# Elastic Constant Matrix: (Units=GPa)
#
#
# Indices 1 2 3 4 5 6 
#
# 1 148.1302 25.1058 58.1940 -0.0419 -27.4315 3.3470
# 2 25.1058 133.4370 32.0794 49.8175 -0.9981 16.1026
# 3 58.1940 32.0794 144.8203 0.7087 -29.3059 4.3223
# 4 -0.0419 49.8175 0.7087 56.2124 2.5234 7.2079
# 5 -27.4315 -0.9981 -29.3059 2.5234 55.5031 2.8504
# 6 3.3470 16.1026 4.3223 7.2079 2.8504 53.2641
#
#
#
# Elastic Compliance Matrix: (Units=1/GPa)
#
#
# Indices 1 2 3 4 5 6 
#
# 1 0.008507 -0.001373 -0.002548 0.001158 0.002793 -0.000219
# 2 -0.001373 0.012592 -0.002346 -0.010824 -0.001096 -0.002007
# 3 -0.002548 -0.002346 0.009149 0.001846 0.003461 -0.000308
# 4 0.001158 -0.010824 0.001846 0.027440 0.000139 -0.000671
# 5 0.002793 -0.001096 0.003461 0.000139 0.021265 -0.001282
# 6 -0.000219 -0.002007 -0.000308 -0.000671 -0.001282 0.019579
#
#
# Mechanical properties :
#
#
# Convention : Reuss Voigt Hill
#
# Bulk Modulus (GPa) = 56.45620 73.01621 64.73620
# Shear Modulus (GPa) = 42.74554 53.72981 48.23767
#
# Velocity S-wave (km/s) = 3.98970 4.47303 4.23826
# Velocity P-wave (km/s) = 6.49976 7.33943 6.93232
#
# Compressibility (1/GPa) = 0.01771285
#
# Stress axis : x y z
#
# Youngs Moduli (GPa) = 117.54884 79.41794 109.29653
#
# Poissons Ratio (x) = 0.10904 0.27852
# Poissons Ratio (y) = 0.16139 0.25645
# Poissons Ratio (z) = 0.29955 0.18635
#
# Static dielectric constant tensor:
#      x y z
#    x 2.038920 -0.037150 0.051010 
#    y -0.037150 2.252250 -0.030960 
#    z 0.051010 -0.030960 2.107680 
# 
# From -- ./inp_files/535448.got.cif
#   From: 2010.05.17/outbox.cif.g08.bks.cpg/sg2_268_cif.got.tgz:535448.got - 2010.06.03 11:33:40.
