data_PCOD9041753
_publ_section_title
;
Structure prediction by ZEFSAII (Michael W. Deem and Ramdas Pophale) SiO2 
 PCOD9041753
Probable space group: P -1
;
_chemical_formula_sum "Si O2"
_cell_formula_units_Z 14
_cell_length_a 24.965026
_cell_length_b 12.462558
_cell_length_c 8.889054
_cell_angle_alpha 35.201083
_cell_angle_beta 152.643681
_cell_angle_gamma 150.114856
_cell_volume 619.702432
_symmetry_space_group_name_H-M "P -1"
_symmetry_group_IT_number 2
_symmetry_cell_setting 'triclinic'
loop_
_space_group_symop_operation_xyz
x,y,z
-x,-y,-z
loop_
_atom_site_type_symbol
_atom_site_label
_atom_site_fract_x
_atom_site_fract_y
_atom_site_fract_z
Si Si1 0.583561 0.187268 0.718423
Si Si2 0.006496 0.118856 0.717444
Si Si3 0.566493 0.283978 0.229205
Si Si4 0.546412 0.627708 0.625577
Si Si5 0.858187 0.437313 0.632712
Si Si6 0.136515 0.716136 0.660841
Si Si7 0.164907 0.956768 0.160503
O O1 0.537095 0.224455 0.398587
O O2 0.529987 0.250793 0.655678
O O3 0.523683 0.928775 0.857400
O O4 0.748199 0.334357 0.959732
O O5 0.117717 0.371220 0.646666
O O6 0.884826 0.164243 0.387983
O O7 0.028399 0.970594 0.822173
O O8 0.000000 0.000000 0.000000
O O9 0.726754 0.379929 0.473684
O O10 0.519886 0.450765 0.886368
O O11 0.500000 0.500000 0.500000
O O12 0.707802 0.805378 0.830220
O O13 0.831417 0.219344 0.732673
O O14 0.000000 0.500000 0.000000
O O15 0.190176 0.893291 0.460180
O O16 0.000000 0.500000 0.500000
#
# Coordination Sequence:
#
# PCOD9041753 Si02
#       7
#     2   2   2   2   2   2   2
#     4  11  26  47  71 101 143 194 237 301 364 430
#     4  10  23  44  67 100 141 181 234 294 356 426
#     4  11  25  48  69 102 147 186 245 293 362 438
#     4  12  26  44  74 105 138 187 242 302 358 433
#     4  12  24  44  73 104 144 195 239 297 369 431
#     4  11  23  42  70 100 140 184 233 294 360 424
#     4  11  24  43  68 101 140 182 236 299 357 431
#
# _framework density 22.591487000000001
#
# number of rings (size 3 to 8) (size 9 to 14) (size 15 to 20)
#    0.000    0.857    4.286    2.143    4.000    1.714 
#    2.571    0.000    0.000    0.000    0.000    0.000 
#    0.000    0.000    0.000    0.000    0.000    0.000 
#
# Total GULP energy -78008.858872 kJ/mol
# GULP energy per Si atom -5572.061348 kJ/mol
# Density = 2.254007 g / cm^3
# Si number density = 22.591487 Si / 1000 Ang^3
#
#
#
# Elastic Constant Matrix: (Units=GPa)
#
#
# Indices 1 2 3 4 5 6 
#
# 1 71.5329 9.0016 -8.4259 1.4672 16.7023 -19.5675
# 2 9.0016 92.9905 15.6056 -14.0604 -11.8186 -4.3506
# 3 -8.4259 15.6056 37.6664 7.4608 10.1885 -13.2614
# 4 1.4672 -14.0604 7.4608 32.3977 4.3524 3.2529
# 5 16.7023 -11.8186 10.1885 4.3524 29.6262 -12.1286
# 6 -19.5675 -4.3506 -13.2614 3.2529 -12.1286 35.2133
#
#
#
# Elastic Compliance Matrix: (Units=1/GPa)
#
#
# Indices 1 2 3 4 5 6 
#
# 1 0.027083 -0.009531 0.022983 -0.009877 -0.018542 0.017053
# 2 -0.009531 0.017877 -0.017658 0.010860 0.014651 -0.005694
# 3 0.022983 -0.017658 0.059567 -0.021410 -0.026790 0.025774
# 4 -0.009877 0.010860 -0.021410 0.041672 0.005317 -0.014228
# 5 -0.018542 0.014651 -0.026790 0.005317 0.058994 0.001246
# 6 0.017053 -0.005694 0.025774 -0.014228 0.001246 0.048621
#
#
# Mechanical properties :
#
#
# Convention : Reuss Voigt Hill
#
# Bulk Modulus (GPa) = 10.40400 26.06139 18.23270
# Shear Modulus (GPa) = 16.99155 31.84800 24.41978
#
# Velocity S-wave (km/s) = 2.74546 3.75872 3.29131
# Velocity P-wave (km/s) = 3.82953 5.51346 4.74677
#
# Compressibility (1/GPa) = 0.09611689
#
# Stress axis : x y z
#
# Youngs Moduli (GPa) = 36.92359 55.93667 16.78769
#
# Poissons Ratio (x) = 0.53312 -0.38583
# Poissons Ratio (y) = 0.35191 0.29643
# Poissons Ratio (z) = -0.84862 0.98771
#
# Static dielectric constant tensor:
#      x y z
#    x 1.862840 0.001280 -0.006850 
#    y 0.001280 1.843490 -0.003330 
#    z -0.006850 -0.003330 1.850670 
# 
# From -- ./inp_files/353781.got.cif
#   From: 2010.05.17/outbox.cif.g08.bks.cpg/sg2_177_cif.got.tgz:353781.got - 2010.06.03 11:33:40.
