data_PCOD9041688
_publ_section_title
;
Structure prediction by ZEFSAII (Michael W. Deem and Ramdas Pophale) SiO2 
 PCOD9041688
Probable space group: P -1
;
_chemical_formula_sum "Si O2"
_cell_formula_units_Z 14
_cell_length_a 9.963441
_cell_length_b 16.511334
_cell_length_c 5.140701
_cell_angle_alpha 108.262479
_cell_angle_beta 112.020391
_cell_angle_gamma 44.953964
_cell_volume 552.435882
_symmetry_space_group_name_H-M "P -1"
_symmetry_group_IT_number 2
_symmetry_cell_setting 'triclinic'
loop_
_space_group_symop_operation_xyz
x,y,z
-x,-y,-z
loop_
_atom_site_type_symbol
_atom_site_label
_atom_site_fract_x
_atom_site_fract_y
_atom_site_fract_z
Si Si1 0.928483 0.884546 0.347180
Si Si2 0.730847 0.655438 0.859735
Si Si3 0.602746 0.137327 0.540678
Si Si4 0.702466 0.470301 0.622844
Si Si5 0.955345 0.366961 0.183056
Si Si6 0.274198 0.188598 0.606598
Si Si7 0.124335 0.863869 0.962477
O O1 0.792435 0.859002 0.298018
O O2 0.026747 0.848528 0.104413
O O3 0.786924 0.023363 0.414328
O O4 0.096279 0.828951 0.633457
O O5 0.553267 0.764506 0.673698
O O6 0.682543 0.576999 0.796990
O O7 0.932573 0.590609 0.781663
O O8 0.757095 0.706979 0.176455
O O9 0.497662 0.104163 0.595090
O O10 0.668476 0.185708 0.834374
O O11 0.500000 0.500000 0.500000
O O12 0.802100 0.432387 0.373069
O O13 0.846256 0.376705 0.855709
O O14 0.133886 0.242854 0.309952
O O15 0.000000 0.000000 0.000000
#
# Coordination Sequence:
#
# PCOD9041688 Si02
#       7
#     2   2   2   2   2   2   2
#     4  11  25  43  69  97 142 186 231 277 334 400
#     4  11  26  44  73 100 138 180 227 279 346 405
#     4  10  24  42  67 100 140 182 229 281 336 399
#     4  12  27  48  74 103 133 176 225 285 346 409
#     4  11  25  49  71  98 138 177 222 279 346 411
#     4  11  26  43  70 105 135 183 231 279 335 400
#     4  10  23  44  66  94 134 188 230 277 337 389
#
# _framework density 25.342307999999999
#
# number of rings (size 3 to 8) (size 9 to 14) (size 15 to 20)
#    0.000    1.143    1.429    3.429   14.000    2.857 
#    0.000    0.000    0.000    0.000    0.000    0.000 
#    0.000    0.000    0.000    0.000    0.000    0.000 
#
# Total GULP energy -78458.120557 kJ/mol
# GULP energy per Si atom -5604.151468 kJ/mol
# Density = 2.528463 g / cm^3
# Si number density = 25.342308 Si / 1000 Ang^3
#
#
#
# Elastic Constant Matrix: (Units=GPa)
#
#
# Indices 1 2 3 4 5 6 
#
# 1 175.8451 39.5849 70.6171 -7.8751 22.6371 7.2667
# 2 39.5849 49.3510 33.0892 -6.1059 7.6611 -3.2480
# 3 70.6171 33.0892 172.5745 -9.9406 9.1232 -6.4970
# 4 -7.8751 -6.1059 -9.9406 36.0082 -1.0193 7.5088
# 5 22.6371 7.6611 9.1232 -1.0193 47.3392 -5.0535
# 6 7.2667 -3.2480 -6.4970 7.5088 -5.0535 38.5022
#
#
#
# Elastic Compliance Matrix: (Units=1/GPa)
#
#
# Indices 1 2 3 4 5 6 
#
# 1 0.008232 -0.004620 -0.002382 0.000882 -0.003022 -0.002914
# 2 -0.004620 0.026534 -0.002927 0.002225 -0.001258 0.002017
# 3 -0.002382 -0.002927 0.007407 0.000756 0.000346 0.001351
# 4 0.000882 0.002225 0.000756 0.029727 -0.000903 -0.005767
# 5 -0.003022 -0.001258 0.000346 -0.000903 0.023085 0.003729
# 6 -0.002914 0.002017 0.001351 -0.005767 0.003729 0.028535
#
#
# Mechanical properties :
#
#
# Convention : Reuss Voigt Hill
#
# Bulk Modulus (GPa) = 44.81048 76.03924 60.42486
# Shear Modulus (GPa) = 33.15322 41.33521 37.24421
#
# Velocity S-wave (km/s) = 3.62085 4.04304 3.83775
# Velocity P-wave (km/s) = 5.93306 7.20173 6.59796
#
# Compressibility (1/GPa) = 0.02231621
#
# Stress axis : x y z
#
# Youngs Moduli (GPa) = 121.47297 37.68742 135.01539
#
# Poissons Ratio (x) = 0.17410 0.32161
# Poissons Ratio (y) = 0.56116 0.39514
# Poissons Ratio (z) = 0.28935 0.11030
#
# Static dielectric constant tensor:
#      x y z
#    x 2.021130 0.008490 0.000280 
#    y 0.008490 2.033490 0.021280 
#    z 0.000280 0.021280 2.019100 
# 
# From -- ./inp_files/48699.got.cif
#   From: 2010.05.17/outbox.cif.g08.bks.cpg/sg2_25_cif.got.tgz:48699.got - 2010.06.03 11:33:40.
