data_PCOD9041883
_publ_section_title
;
Structure prediction by ZEFSAII (Michael W. Deem and Ramdas Pophale) SiO2 
 PCOD9041883
Probable space group: P -1
;
_chemical_formula_sum "Si O2"
_cell_formula_units_Z 12
_cell_length_a 14.615064
_cell_length_b 8.083018
_cell_length_c 5.156522
_cell_angle_alpha 60.984039
_cell_angle_beta 68.045815
_cell_angle_gamma 61.550151
_cell_volume 460.221073
_symmetry_space_group_name_H-M "P -1"
_symmetry_group_IT_number 2
_symmetry_cell_setting 'triclinic'
loop_
_space_group_symop_operation_xyz
x,y,z
-x,-y,-z
loop_
_atom_site_type_symbol
_atom_site_label
_atom_site_fract_x
_atom_site_fract_y
_atom_site_fract_z
Si Si1 0.218889 0.586307 0.581363
Si Si2 0.426321 0.875090 0.923099
Si Si3 0.607677 0.329944 0.405711
Si Si4 0.343731 0.253061 0.364039
Si Si5 0.033520 0.797990 0.291695
Si Si6 0.131229 0.370191 0.204650
O O1 0.285698 0.621073 0.722464
O O2 0.308494 0.472650 0.365739
O O3 0.130166 0.777025 0.399900
O O4 0.161225 0.430503 0.844520
O O5 0.411732 0.739636 0.803063
O O6 0.552706 0.804369 0.878433
O O7 0.379361 0.097624 0.683564
O O8 0.374445 0.845493 0.264921
O O9 0.500000 0.500000 0.500000
O O10 0.240201 0.255644 0.325535
O O11 0.075469 0.594611 0.222176
O O12 0.941480 0.761919 0.584840
O O13 0.000000 0.000000 0.000000
#
# Coordination Sequence:
#
# PCOD9041883 Si02
#       6
#     2   2   2   2   2   2
#     4  11  24  42  71  99 140 188 231 301 361 418
#     4  11  26  43  67 106 142 195 239 287 347 440
#     4  12  25  42  69 102 146 185 241 290 353 420
#     4  10  24  42  68  96 144 185 236 290 358 414
#     4  10  24  45  70  99 137 182 239 299 367 432
#     4  10  23  44  68 100 140 179 238 304 358 428
#
# _framework density 26.074425999999999
#
# number of rings (size 3 to 8) (size 9 to 14) (size 15 to 20)
#    0.000    1.333    1.667    2.000    9.333    2.000 
#    0.000    0.000    0.000    0.000    0.000    0.000 
#    0.000    0.000    0.000    0.000    0.000    0.000 
#
# Total GULP energy -67285.968365 kJ/mol
# GULP energy per Si atom -5607.164030 kJ/mol
# Density = 2.601508 g / cm^3
# Si number density = 26.074426 Si / 1000 Ang^3
#
#
#
# Elastic Constant Matrix: (Units=GPa)
#
#
# Indices 1 2 3 4 5 6 
#
# 1 161.5263 61.0406 32.7590 -27.3216 8.1355 -28.9864
# 2 61.0406 101.3812 42.6644 -8.5877 1.2026 -8.5944
# 3 32.7590 42.6644 167.0329 -25.9300 -6.3725 -23.1581
# 4 -27.3216 -8.5877 -25.9300 28.6013 0.1929 9.3063
# 5 8.1355 1.2026 -6.3725 0.1929 40.3852 -1.8858
# 6 -28.9864 -8.5944 -23.1581 9.3063 -1.8858 36.1326
#
#
#
# Elastic Compliance Matrix: (Units=1/GPa)
#
#
# Indices 1 2 3 4 5 6 
#
# 1 0.010504 -0.005728 0.001346 0.007631 -0.001495 0.005884
# 2 -0.005728 0.014235 -0.003391 -0.003464 0.000095 -0.002486
# 3 0.001346 -0.003391 0.008175 0.006391 0.001273 0.003933
# 4 0.007631 -0.003464 0.006391 0.047991 -0.000795 -0.003009
# 5 -0.001495 0.000095 0.001273 -0.000795 0.025319 0.001166
# 6 0.005884 -0.002486 0.003933 -0.003009 0.001166 0.035161
#
#
# Mechanical properties :
#
#
# Convention : Reuss Voigt Hill
#
# Bulk Modulus (GPa) = 57.57852 78.09647 67.83749
# Shear Modulus (GPa) = 30.72751 40.58892 35.65821
#
# Velocity S-wave (km/s) = 3.43659 3.94973 3.70206
# Velocity P-wave (km/s) = 6.15444 7.12859 6.65935
#
# Compressibility (1/GPa) = 0.01736759
#
# Stress axis : x y z
#
# Youngs Moduli (GPa) = 95.19740 70.25169 122.32408
#
# Poissons Ratio (x) = 0.40242 -0.16468
# Poissons Ratio (y) = 0.54532 0.41482
# Poissons Ratio (z) = -0.12816 0.23824
#
# Static dielectric constant tensor:
#      x y z
#    x 2.021590 0.048860 -0.032870 
#    y 0.048860 2.080280 -0.020010 
#    z -0.032870 -0.020010 2.080810 
# 
# From -- ./inp_files/19085.got.cif
#   From: 2010.05.17/outbox.cif.g08.bks.cpg/sg2_10_cif.got.tgz:19085.got - 2010.06.03 11:33:40.
