data_PCOD9041323
_publ_section_title
;
Structure prediction by ZEFSAII (Michael W. Deem and Ramdas Pophale) SiO2 
 PCOD9041323
Probable space group: P -1
;
_chemical_formula_sum "Si O2"
_cell_formula_units_Z 16
_cell_length_a 17.696767
_cell_length_b 8.390923
_cell_length_c 5.866252
_cell_angle_alpha 53.674444
_cell_angle_beta 91.400524
_cell_angle_gamma 92.536928
_cell_volume 701.118615
_symmetry_space_group_name_H-M "P -1"
_symmetry_group_IT_number 2
_symmetry_cell_setting 'triclinic'
loop_
_space_group_symop_operation_xyz
x,y,z
-x,-y,-z
loop_
_atom_site_type_symbol
_atom_site_label
_atom_site_fract_x
_atom_site_fract_y
_atom_site_fract_z
Si Si1 0.558533 0.959127 0.237344
Si Si2 0.449628 0.674163 0.763880
Si Si3 0.018846 0.237836 0.809409
Si Si4 0.199573 0.721645 0.916207
Si Si5 0.714490 0.864280 0.459223
Si Si6 0.035423 0.781439 0.678454
Si Si7 0.696629 0.574830 0.094158
Si Si8 0.179798 0.400719 0.536063
O O1 0.506632 0.810496 0.507891
O O2 0.639011 0.856534 0.300949
O O3 0.577183 0.171034 0.179104
O O4 0.500000 0.000000 0.000000
O O5 0.378398 0.557744 0.744296
O O6 0.500000 0.500000 0.000000
O O7 0.106294 0.305326 0.729682
O O8 0.984400 0.302135 0.505856
O O9 0.994805 0.304883 0.005952
O O10 0.000000 0.000000 0.000000
O O11 0.125441 0.771295 0.724446
O O12 0.252318 0.564347 0.938102
O O13 0.252238 0.916379 0.763057
O O14 0.172749 0.617466 0.240477
O O15 0.791557 0.746697 0.529518
O O16 0.684145 0.774757 0.776251
O O17 0.000000 0.000000 0.500000
O O18 0.748774 0.606990 0.287482
#
# Coordination Sequence:
#
# PCOD9041323 Si02
#       8
#     2   2   2   2   2   2   2   2
#     4  11  26  42  71 101 140 185 238 289 358 432
#     4  11  24  46  67 103 140 184 235 292 353 429
#     4  10  23  44  71 104 142 190 248 298 372 438
#     4  11  26  46  70 102 146 182 241 295 364 440
#     4  11  24  46  67 101 141 188 234 295 361 435
#     4  10  23  43  73 102 141 194 241 305 365 444
#     4  11  26  45  69 102 143 184 236 297 362 433
#     4  11  28  43  72 104 137 189 238 298 366 434
#
# _framework density 22.820675000000001
#
# number of rings (size 3 to 8) (size 9 to 14) (size 15 to 20)
#    0.000    1.250    2.500    1.500   12.250    2.500 
#    0.000    0.000    0.000    0.000    0.000    0.000 
#    0.000    0.000    0.000    0.000    0.000    0.000 
#
# Total GULP energy -89173.392224 kJ/mol
# GULP energy per Si atom -5573.337014 kJ/mol
# Density = 2.276873 g / cm^3
# Si number density = 22.820675 Si / 1000 Ang^3
#
#
#
# Elastic Constant Matrix: (Units=GPa)
#
#
# Indices 1 2 3 4 5 6 
#
# 1 160.0886 32.7836 39.5502 -0.1294 7.1999 34.8704
# 2 32.7836 40.1510 48.1609 -11.5137 -17.8484 18.8720
# 3 39.5502 48.1609 130.1515 -15.7231 15.6165 8.6149
# 4 -0.1294 -11.5137 -15.7231 43.9890 1.6486 5.2942
# 5 7.1999 -17.8484 15.6165 1.6486 28.3546 15.3382
# 6 34.8704 18.8720 8.6149 5.2942 15.3382 24.3679
#
#
#
# Elastic Compliance Matrix: (Units=1/GPa)
#
#
# Indices 1 2 3 4 5 6 
#
# 1 0.008912 -0.006108 0.000226 -0.000643 -0.002862 -0.006161
# 2 -0.006108 -0.015129 0.008333 -0.004520 -0.033818 0.039780
# 3 0.000226 0.008333 0.004969 0.005560 0.011217 -0.016802
# 4 -0.000643 -0.004520 0.005560 0.023526 -0.008605 0.002760
# 5 -0.002862 -0.033818 0.011217 -0.008605 -0.009431 0.034127
# 6 -0.006161 0.039780 -0.016802 0.002760 0.034127 0.002905
#
#
# Mechanical properties :
#
#
# Convention : Reuss Voigt Hill
#
# Bulk Modulus (GPa) = 273.74930 63.48672 168.61801
# Shear Modulus (GPa) = 414.33294 33.33538 223.83416
#
# Velocity S-wave (km/s) = 13.48905 3.82613 9.91448
# Velocity P-wave (km/s) = 19.04792 6.88471 14.32170
#
# Compressibility (1/GPa) = 0.00365298
#
# Stress axis : x y z
#
# Youngs Moduli (GPa) = 112.21096 -66.09739 201.24300
#
# Poissons Ratio (x) = -0.40373 -0.04541
# Poissons Ratio (y) = 0.68539 -1.67698
# Poissons Ratio (z) = -0.02532 0.55080
#
# Static dielectric constant tensor:
#      x y z
#    x 1.975220 -0.303490 -0.013280 
#    y -0.303490 2.328220 0.036360 
#    z -0.013280 0.036360 1.893170 
# 
# From -- ./inp_files/106126.got.cif
#   From: 2010.05.17/outbox.cif.g08.bks.cpg/sg2_54_cif.got.tgz:106126.got - 2010.06.03 11:33:40.
