data_PCOD9041165
_publ_section_title
;
Structure prediction by ZEFSAII (Michael W. Deem and Ramdas Pophale) SiO2 
 PCOD9041165
Probable space group: P -1
;
_chemical_formula_sum "Si O2"
_cell_formula_units_Z 16
_cell_length_a 14.747115
_cell_length_b 10.882545
_cell_length_c 11.761959
_cell_angle_alpha 120.056601
_cell_angle_beta 39.193153
_cell_angle_gamma 90.135048
_cell_volume 731.837125
_symmetry_space_group_name_H-M "P -1"
_symmetry_group_IT_number 2
_symmetry_cell_setting 'triclinic'
loop_
_space_group_symop_operation_xyz
x,y,z
-x,-y,-z
loop_
_atom_site_type_symbol
_atom_site_label
_atom_site_fract_x
_atom_site_fract_y
_atom_site_fract_z
Si Si1 0.947185 0.373244 0.471791
Si Si2 0.419769 0.415934 0.476284
Si Si3 0.407925 0.488336 0.257045
Si Si4 0.651864 0.030306 0.194229
Si Si5 0.790442 0.091127 0.298424
Si Si6 0.240200 0.176262 0.674460
Si Si7 0.130425 0.771969 0.305560
Si Si8 0.091367 0.570442 0.052604
O O1 0.728619 0.514583 0.690620
O O2 0.947598 0.270127 0.533766
O O3 0.000000 0.500000 0.500000
O O4 0.124766 0.186265 0.133509
O O5 0.500000 0.500000 0.500000
O O6 0.378723 0.470299 0.409847
O O7 0.584158 0.176507 0.222945
O O8 0.224334 0.508741 0.782078
O O9 0.316026 0.710096 0.437164
O O10 0.645465 0.328529 0.928942
O O11 0.647508 0.137665 0.356455
O O12 0.480950 0.029777 0.371420
O O13 0.823768 0.930623 0.267558
O O14 0.000000 0.000000 0.000000
O O15 0.139394 0.263988 0.689029
O O16 0.154008 0.365059 0.923875
O O17 0.140218 0.653967 0.136515
O O18 0.000000 0.000000 0.500000
#
# Coordination Sequence:
#
# PCOD9041165 Si02
#       8
#     2   2   2   2   2   2   2   2
#     4  12  31  47  68  99 148 199 236 282 343 427
#     4  11  20  41  75 107 134 170 226 309 362 403
#     4  12  25  46  75 105 142 178 240 298 356 416
#     4  11  24  44  65 104 137 181 229 284 357 419
#     4  12  23  38  75 107 136 172 223 310 359 407
#     4  10  24  40  71 105 140 173 223 301 367 412
#     4  12  28  48  73 100 143 199 244 284 337 427
#     4  10  23  43  71 105 141 182 231 291 361 421
#
# _framework density 21.862787999999998
#
# number of rings (size 3 to 8) (size 9 to 14) (size 15 to 20)
#    0.000    0.750    3.750    3.000    5.250    3.000 
#    0.000    1.875    0.000    0.000    0.000    0.000 
#    0.000    0.000    0.000    0.000    0.000    0.000 
#
# Total GULP energy -89522.594318 kJ/mol
# GULP energy per Si atom -5595.162145 kJ/mol
# Density = 2.181303 g / cm^3
# Si number density = 21.862788 Si / 1000 Ang^3
#
#
#
# Elastic Constant Matrix: (Units=GPa)
#
#
# Indices 1 2 3 4 5 6 
#
# 1 112.7963 38.1754 25.4187 -1.1704 -19.9276 15.4371
# 2 38.1754 126.7710 26.2796 6.2308 -0.1663 8.3059
# 3 25.4187 26.2796 82.5213 2.4019 -27.1450 10.8056
# 4 -1.1704 6.2308 2.4019 33.5815 1.3209 0.4509
# 5 -19.9276 -0.1663 -27.1450 1.3209 38.4036 -5.1607
# 6 15.4371 8.3059 10.8056 0.4509 -5.1607 35.0251
#
#
#
# Elastic Compliance Matrix: (Units=1/GPa)
#
#
# Indices 1 2 3 4 5 6 
#
# 1 0.011410 -0.003166 -0.000393 0.000857 0.005141 -0.003410
# 2 -0.003166 0.009618 -0.003279 -0.001500 -0.003925 -0.000433
# 3 -0.000393 -0.003279 0.017578 -0.001094 0.011880 -0.002707
# 4 0.000857 -0.001500 -0.001094 0.030224 -0.001412 -0.000282
# 5 0.005141 -0.003925 0.011880 -0.001412 0.037203 0.000500
# 6 -0.003410 -0.000433 -0.002707 -0.000282 0.000500 0.031069
#
#
# Mechanical properties :
#
#
# Convention : Reuss Voigt Hill
#
# Bulk Modulus (GPa) = 40.11420 55.75954 47.93687
# Shear Modulus (GPa) = 31.42923 36.88303 34.15613
#
# Velocity S-wave (km/s) = 3.79564 4.11179 3.95688
# Velocity P-wave (km/s) = 6.13165 6.93557 6.54597
#
# Compressibility (1/GPa) = 0.02492883
#
# Stress axis : x y z
#
# Youngs Moduli (GPa) = 87.64528 103.96830 56.89080
#
# Poissons Ratio (x) = 0.32919 0.02239
# Poissons Ratio (y) = 0.27751 0.18652
# Poissons Ratio (z) = 0.03449 0.34087
#
# Static dielectric constant tensor:
#      x y z
#    x 1.810770 -0.028250 -0.015090 
#    y -0.028250 1.837340 0.001710 
#    z -0.015090 0.001710 1.808020 
# 
# From -- ./inp_files/452541.got.cif
#   From: 2010.05.17/outbox.cif.g08.bks.cpg/sg2_227_cif.got.tgz:452541.got - 2010.06.03 11:33:40.
