data_PCOD9041229
_publ_section_title
;
Structure prediction by ZEFSAII (Michael W. Deem and Ramdas Pophale) SiO2 
 PCOD9041229
Probable space group: P -1
;
_chemical_formula_sum "Si O2"
_cell_formula_units_Z 16
_cell_length_a 8.815937
_cell_length_b 10.388639
_cell_length_c 15.437467
_cell_angle_alpha 78.190335
_cell_angle_beta 40.317415
_cell_angle_gamma 57.424921
_cell_volume 713.826989
_symmetry_space_group_name_H-M "P -1"
_symmetry_group_IT_number 2
_symmetry_cell_setting 'triclinic'
loop_
_space_group_symop_operation_xyz
x,y,z
-x,-y,-z
loop_
_atom_site_type_symbol
_atom_site_label
_atom_site_fract_x
_atom_site_fract_y
_atom_site_fract_z
Si Si1 0.257869 0.201903 0.686479
Si Si2 0.943015 0.938623 0.445505
Si Si3 0.811641 0.465610 0.360707
Si Si4 0.777620 0.136303 0.150113
Si Si5 0.883953 0.084013 0.808796
Si Si6 0.099736 0.328242 0.436803
Si Si7 0.224353 0.323710 0.042194
Si Si8 0.022375 0.678175 0.024439
O O1 0.215422 0.366499 0.652880
O O2 0.165680 0.219311 0.824567
O O3 0.046631 0.170245 0.735013
O O4 0.600992 0.055903 0.551310
O O5 0.031730 0.756720 0.447663
O O6 0.103003 0.952507 0.293220
O O7 0.000000 0.000000 0.500000
O O8 0.500000 0.500000 0.500000
O O9 0.994397 0.364993 0.378952
O O10 0.975740 0.372437 0.213319
O O11 0.452660 0.191628 0.299039
O O12 0.943177 0.067020 0.179333
O O13 0.736735 0.297123 0.110255
O O14 0.000000 0.000000 0.000000
O O15 0.541300 0.204268 0.964079
O O16 0.000000 0.500000 0.500000
O O17 0.171275 0.491491 0.011616
O O18 0.181679 0.261912 0.979522
#
# Coordination Sequence:
#
# PCOD9041229 Si02
#       8
#     2   2   2   2   2   2   2   2
#     4  11  23  44  70 103 141 190 237 295 359 432
#     4  12  26  46  71 102 149 193 242 294 369 439
#     4  11  26  44  70 103 146 185 240 299 368 434
#     4  12  25  45  72 105 144 187 241 300 359 435
#     4  12  25  43  74 103 143 187 245 293 360 432
#     4  12  28  45  72 108 145 190 249 305 368 426
#     4  10  25  44  69 106 137 189 234 294 368 431
#     4  10  23  43  71  98 145 177 239 295 360 424
#
# _framework density 22.414396
#
# number of rings (size 3 to 8) (size 9 to 14) (size 15 to 20)
#    0.000    0.750    2.500    3.375    7.000    3.500 
#    0.000    0.000    0.000    0.000    0.000    0.000 
#    0.000    0.000    0.000    0.000    0.000    0.000 
#
# Total GULP energy -89509.341299 kJ/mol
# GULP energy per Si atom -5594.333831 kJ/mol
# Density = 2.236338 g / cm^3
# Si number density = 22.414396 Si / 1000 Ang^3
#
#
#
# Elastic Constant Matrix: (Units=GPa)
#
#
# Indices 1 2 3 4 5 6 
#
# 1 78.4690 19.9043 27.1529 4.1356 17.7728 -18.0659
# 2 19.9043 78.7491 33.5688 -15.0208 8.6251 -22.6944
# 3 27.1529 33.5688 104.3146 -13.7247 3.8796 -12.9716
# 4 4.1356 -15.0208 -13.7247 38.7911 -9.9355 0.4279
# 5 17.7728 8.6251 3.8796 -9.9355 44.0848 0.1473
# 6 -18.0659 -22.6944 -12.9716 0.4279 0.1473 37.8920
#
#
#
# Elastic Compliance Matrix: (Units=1/GPa)
#
#
# Indices 1 2 3 4 5 6 
#
# 1 0.018098 -0.001217 -0.003976 -0.005948 -0.008071 0.006637
# 2 -0.001217 0.018431 -0.003702 0.005448 -0.001592 0.009135
# 3 -0.003976 -0.003702 0.012246 0.003866 0.002121 0.000027
# 4 -0.005948 0.005448 0.003866 0.031974 0.008193 0.001358
# 5 -0.008071 -0.001592 0.002121 0.008193 0.027923 -0.004277
# 6 0.006637 0.009135 0.000027 0.001358 -0.004277 0.035037
#
#
# Mechanical properties :
#
#
# Convention : Reuss Voigt Hill
#
# Bulk Modulus (GPa) = 32.27562 46.97609 39.62585
# Shear Modulus (GPa) = 29.09881 36.21405 32.65643
#
# Velocity S-wave (km/s) = 3.60699 4.02389 3.82113
# Velocity P-wave (km/s) = 5.63719 6.52629 6.09796
#
# Compressibility (1/GPa) = 0.03098314
#
# Stress axis : x y z
#
# Youngs Moduli (GPa) = 55.25437 54.25747 81.65987
#
# Poissons Ratio (x) = 0.06605 0.32470
# Poissons Ratio (y) = 0.06726 0.30232
# Poissons Ratio (z) = 0.21971 0.20087
#
# Static dielectric constant tensor:
#      x y z
#    x 1.847680 0.064780 0.003320 
#    y 0.064780 1.833970 -0.001410 
#    z 0.003320 -0.001410 1.820340 
# 
# From -- ./inp_files/500237.got.cif
#   From: 2010.05.17/outbox.cif.g08.bks.cpg/sg2_251_cif.got.tgz:500237.got - 2010.06.03 11:33:40.
