data_PCOD9041633
_publ_section_title
;
Structure prediction by ZEFSAII (Michael W. Deem and Ramdas Pophale) SiO2 
 PCOD9041633
Probable space group: P -1
;
_chemical_formula_sum "Si O2"
_cell_formula_units_Z 15
_cell_length_a 9.168923
_cell_length_b 11.845547
_cell_length_c 8.991142
_cell_angle_alpha 51.380102
_cell_angle_beta 97.467146
_cell_angle_gamma 117.925118
_cell_volume 655.225149
_symmetry_space_group_name_H-M "P -1"
_symmetry_group_IT_number 2
_symmetry_cell_setting 'triclinic'
loop_
_space_group_symop_operation_xyz
x,y,z
-x,-y,-z
loop_
_atom_site_type_symbol
_atom_site_label
_atom_site_fract_x
_atom_site_fract_y
_atom_site_fract_z
Si Si1 0.933488 0.824153 0.933255
Si Si2 0.399800 0.300042 0.173604
Si Si3 0.500000 0.500000 0.500000
Si Si4 0.401716 0.718895 0.501378
Si Si5 0.858418 0.810314 0.277476
Si Si6 0.886249 0.369477 0.969092
Si Si7 0.468012 0.924550 0.726592
Si Si8 0.977396 0.391715 0.442406
O O1 0.797298 0.768322 0.828493
O O2 0.854188 0.815819 0.092244
O O3 0.084727 0.012519 0.787604
O O4 0.008039 0.701687 0.041441
O O5 0.471214 0.277781 0.357232
O O6 0.440460 0.186336 0.160897
O O7 0.500000 0.500000 0.000000
O O8 0.390436 0.584280 0.492782
O O9 0.674159 0.671806 0.415248
O O10 0.214448 0.664409 0.588970
O O11 0.468318 0.909672 0.301769
O O12 0.999400 0.762906 0.384176
O O13 0.872664 0.490464 0.748071
O O14 0.723131 0.213220 0.145019
O O15 0.000000 0.500000 0.000000
O O16 0.500000 0.000000 0.500000
O O17 0.000000 0.500000 0.500000
#
# Coordination Sequence:
#
# PCOD9041633 Si02
#       8
#     2   2   1   2   2   2   2   2
#     4  11  24  45  67 104 140 183 232 285 347 410
#     4  11  22  42  70 101 138 179 225 291 349 407
#     4  12  22  40  64 100 132 180 228 282 348 402
#     4  11  24  44  69  96 141 181 230 287 343 416
#     4  11  25  44  71  98 143 185 232 286 341 420
#     4  12  24  42  71 103 136 181 233 280 344 416
#     4  10  23  44  66 100 138 176 224 286 346 403
#     4  12  23  47  70  99 138 186 232 278 344 417
#
# _framework density 22.892894999999999
#
# number of rings (size 3 to 8) (size 9 to 14) (size 15 to 20)
#    0.000    0.800    2.667    5.600    0.000    4.267 
#    0.000    4.667    0.000    0.000    0.000    0.000 
#    0.000    0.000    0.000    0.000    0.000    0.000 
#
# Total GULP energy -83522.743968 kJ/mol
# GULP energy per Si atom -5568.182931 kJ/mol
# Density = 2.284079 g / cm^3
# Si number density = 22.892895 Si / 1000 Ang^3
#
#
#
# Elastic Constant Matrix: (Units=GPa)
#
#
# Indices 1 2 3 4 5 6 
#
# 1 59.3858 10.3086 26.8609 -12.2618 -3.0981 19.2117
# 2 10.3086 117.0049 53.2814 -38.0122 0.2410 1.2608
# 3 26.8609 53.2814 84.0292 -20.6062 -0.1590 13.9773
# 4 -12.2618 -38.0122 -20.6062 48.6449 1.1488 6.1872
# 5 -3.0981 0.2410 -0.1590 1.1488 34.3851 -13.9515
# 6 19.2117 1.2608 13.9773 6.1872 -13.9515 42.6473
#
#
#
# Elastic Compliance Matrix: (Units=1/GPa)
#
#
# Indices 1 2 3 4 5 6 
#
# 1 0.023900 0.003164 -0.006056 0.007360 -0.002510 -0.010764
# 2 0.003164 0.014948 -0.008143 0.009123 -0.000431 -0.000663
# 3 -0.006056 -0.008143 0.020051 0.001233 -0.002273 -0.004525
# 4 0.007360 0.009123 0.001233 0.031446 -0.004515 -0.010029
# 5 -0.002510 -0.000431 -0.002273 -0.004515 0.034628 0.013872
# 6 -0.010764 -0.000663 -0.004525 -0.010029 0.013872 0.035793
#
#
# Mechanical properties :
#
#
# Convention : Reuss Voigt Hill
#
# Bulk Modulus (GPa) = 27.15188 49.03574 38.09381
# Shear Modulus (GPa) = 25.62651 36.46672 31.04661
#
# Velocity S-wave (km/s) = 3.34939 3.99548 3.68661
# Velocity P-wave (km/s) = 5.18112 6.53845 5.89895
#
# Compressibility (1/GPa) = 0.03682986
#
# Stress axis : x y z
#
# Youngs Moduli (GPa) = 41.84131 66.89853 49.87401
#
# Poissons Ratio (x) = -0.21168 0.30201
# Poissons Ratio (y) = -0.13240 0.40612
# Poissons Ratio (z) = 0.25337 0.54475
#
# Static dielectric constant tensor:
#      x y z
#    x 1.869360 -0.034580 -0.039370 
#    y -0.034580 1.808930 -0.034780 
#    z -0.039370 -0.034780 1.852580 
# 
# From -- ./inp_files/184438.got.cif
#   From: 2010.05.17/outbox.cif.g08.bks.cpg/sg2_93_cif.got.tgz:184438.got - 2010.06.03 11:33:40.
