data_PCOD9041642
_publ_section_title
;
Structure prediction by ZEFSAII (Michael W. Deem and Ramdas Pophale) SiO2 
 PCOD9041642
Probable space group: P -1
;
_chemical_formula_sum "Si O2"
_cell_formula_units_Z 15
_cell_length_a 11.553172
_cell_length_b 9.585517
_cell_length_c 11.332726
_cell_angle_alpha 72.264384
_cell_angle_beta 37.414706
_cell_angle_gamma 58.430168
_cell_volume 634.507685
_symmetry_space_group_name_H-M "P -1"
_symmetry_group_IT_number 2
_symmetry_cell_setting 'triclinic'
loop_
_space_group_symop_operation_xyz
x,y,z
-x,-y,-z
loop_
_atom_site_type_symbol
_atom_site_label
_atom_site_fract_x
_atom_site_fract_y
_atom_site_fract_z
Si Si1 0.381629 0.810522 0.945370
Si Si2 0.231032 0.103760 0.802897
Si Si3 0.058809 0.147322 0.427763
Si Si4 0.500000 0.000000 0.000000
Si Si5 0.801982 0.290508 0.247410
Si Si6 0.313390 0.386833 0.604841
Si Si7 0.800850 0.517652 0.578341
Si Si8 0.886288 0.947312 0.344494
O O1 0.145454 0.825330 0.151481
O O2 0.446376 0.876189 0.992024
O O3 0.573646 0.630646 0.797861
O O4 0.343265 0.942997 0.836873
O O5 0.232591 0.054523 0.678583
O O6 0.979748 0.208273 0.022350
O O7 0.671601 0.770576 0.296731
O O8 0.235812 0.128889 0.194670
O O9 0.181241 0.106142 0.467096
O O10 0.852667 0.329893 0.553465
O O11 0.000000 0.000000 0.500000
O O12 0.553284 0.360935 0.390495
O O13 0.812217 0.442656 0.263529
O O14 0.850919 0.135737 0.334091
O O15 0.798735 0.599812 0.432892
O O16 0.000000 0.500000 0.500000
#
# Coordination Sequence:
#
# PCOD9041642 Si02
#       8
#     2   2   2   1   2   2   2   2
#     4  11  25  46  72 105 142 185 232 288 348 412
#     4  11  24  43  73 101 136 178 232 286 348 411
#     4  12  26  48  71 101 139 190 233 282 347 416
#     4  12  26  48  70 102 142 186 234 284 344 418
#     4  10  23  44  66 101 138 174 226 292 342 406
#     4  11  24  42  67 100 136 184 227 281 350 405
#     4  12  25  43  69 102 144 181 234 288 338 414
#     4  11  23  46  73  99 138 181 235 286 349 411
#
# _framework density 23.640376
#
# number of rings (size 3 to 8) (size 9 to 14) (size 15 to 20)
#    0.000    0.800    2.667    5.200    3.733    1.600 
#    0.000    1.333    0.000    0.000    0.000    0.000 
#    0.000    0.000    0.000    0.000    0.000    0.000 
#
# Total GULP energy -83767.155903 kJ/mol
# GULP energy per Si atom -5584.477060 kJ/mol
# Density = 2.358657 g / cm^3
# Si number density = 23.640376 Si / 1000 Ang^3
#
#
#
# Elastic Constant Matrix: (Units=GPa)
#
#
# Indices 1 2 3 4 5 6 
#
# 1 43.2251 -5.9454 0.6819 4.7980 -13.9724 8.1868
# 2 -5.9454 103.3304 45.9243 33.3024 2.0737 13.0150
# 3 0.6819 45.9243 79.6461 36.2838 -15.6846 1.3449
# 4 4.7980 33.3024 36.2838 48.3567 2.0158 3.1325
# 5 -13.9724 2.0737 -15.6846 2.0158 30.2126 -1.6667
# 6 8.1868 13.0150 1.3449 3.1325 -1.6667 28.4013
#
#
#
# Elastic Compliance Matrix: (Units=1/GPa)
#
#
# Indices 1 2 3 4 5 6 
#
# 1 0.032119 0.003074 0.006341 -0.010250 0.018135 -0.008773
# 2 0.003074 0.015766 -0.007452 -0.004940 -0.003609 -0.007425
# 3 0.006341 -0.007452 0.029002 -0.018309 0.019910 0.003401
# 4 -0.010250 -0.004940 -0.018309 0.039475 -0.016498 0.000763
# 5 0.018135 -0.003609 0.019910 -0.016498 0.053193 0.000425
# 6 -0.008773 -0.007425 0.003401 0.000763 0.000425 0.040921
#
#
# Mechanical properties :
#
#
# Convention : Reuss Voigt Hill
#
# Bulk Modulus (GPa) = 12.37412 34.16925 23.27168
# Shear Modulus (GPa) = 21.41436 33.76349 27.58892
#
# Velocity S-wave (km/s) = 3.01298 3.78327 3.41988
# Velocity P-wave (km/s) = 4.16530 5.79390 5.04574
#
# Compressibility (1/GPa) = 0.08081384
#
# Stress axis : x y z
#
# Youngs Moduli (GPa) = 31.13440 63.42596 34.47992
#
# Poissons Ratio (x) = -0.19498 -0.21864
# Poissons Ratio (y) = -0.09571 0.25695
# Poissons Ratio (z) = -0.19743 0.47267
#
# Static dielectric constant tensor:
#      x y z
#    x 1.994580 0.053050 -0.071810 
#    y 0.053050 1.924370 -0.079890 
#    z -0.071810 -0.079890 2.041020 
# 
# From -- ./inp_files/600882.got.cif
#   From: 2010.05.17/outbox.cif.g08.bks.cpg/sg2_301_cif.got.tgz:600882.got - 2010.06.03 11:33:40.
