data_PCOD9041764
_publ_section_title
;
Structure prediction by ZEFSAII (Michael W. Deem and Ramdas Pophale) SiO2 
 PCOD9041764
Probable space group: P -1
;
_chemical_formula_sum "Si O2"
_cell_formula_units_Z 10
_cell_length_a 12.023199
_cell_length_b 6.899309
_cell_length_c 16.533834
_cell_angle_alpha 38.075806
_cell_angle_beta 26.942732
_cell_angle_gamma 40.234423
_cell_volume 373.793362
_symmetry_space_group_name_H-M "P -1"
_symmetry_group_IT_number 2
_symmetry_cell_setting 'triclinic'
loop_
_space_group_symop_operation_xyz
x,y,z
-x,-y,-z
loop_
_atom_site_type_symbol
_atom_site_label
_atom_site_fract_x
_atom_site_fract_y
_atom_site_fract_z
Si Si1 0.147248 0.154159 0.161245
Si Si2 0.314544 0.059969 0.424362
Si Si3 0.329162 0.276969 0.580035
Si Si4 0.565164 0.362025 0.744287
Si Si5 0.788112 0.444912 0.805404
O O1 0.301603 0.990928 0.193416
O O2 0.178256 0.869699 0.168993
O O3 0.858249 0.187916 0.358868
O O4 0.284143 0.412904 0.947526
O O5 0.293185 0.386018 0.386800
O O6 0.214226 0.233181 0.349810
O O7 0.587427 0.862684 0.340016
O O8 0.418517 0.578837 0.380969
O O9 0.028059 0.354793 0.738536
O O10 0.500000 0.000000 0.500000
O O11 0.500000 0.500000 0.000000
#
# Coordination Sequence:
#
# PCOD9041764 Si02
#       5
#     2   2   2   2   2
#     4  10  17  33  58  80 102 142 177 220 258 310
#     4  10  19  36  58  76 109 137 181 220 258 309
#     4  10  18  34  57  81 103 138 183 217 257 315
#     4   9  17  30  57  85 100 131 190 217 254 308
#     4  11  21  36  55  79 112 143 170 218 274 311
#
# _framework density 26.752748
#
# number of rings (size 3 to 8) (size 9 to 14) (size 15 to 20)
#    0.000    2.000    6.000    1.200    0.000    1.600 
#    0.000    1.000    0.000    1.200    0.000    0.000 
#    0.000    0.000    0.000    0.000    0.000    0.000 
#
# Total GULP energy -55794.791845 kJ/mol
# GULP energy per Si atom -5579.479185 kJ/mol
# Density = 2.669186 g / cm^3
# Si number density = 26.752748 Si / 1000 Ang^3
#
#
#
# Elastic Constant Matrix: (Units=GPa)
#
#
# Indices 1 2 3 4 5 6 
#
# 1 112.1500 33.2814 26.8516 12.2399 -27.9068 -34.4087
# 2 33.2814 113.5304 28.0951 18.1261 -20.1673 -20.4882
# 3 26.8516 28.0951 171.2229 15.0533 -28.6074 -25.4902
# 4 12.2399 18.1261 15.0533 36.4858 -1.9780 -20.6339
# 5 -27.9068 -20.1673 -28.6074 -1.9780 35.2673 5.5347
# 6 -34.4087 -20.4882 -25.4902 -20.6339 5.5347 58.1706
#
#
#
# Elastic Compliance Matrix: (Units=1/GPa)
#
#
# Indices 1 2 3 4 5 6 
#
# 1 0.013654 -0.001236 0.000695 0.000306 0.009557 0.007145
# 2 -0.001236 0.010905 -0.000308 -0.003993 0.004608 0.001120
# 3 0.000695 -0.000308 0.007231 -0.001374 0.005780 0.002434
# 4 0.000306 -0.003993 -0.001374 0.036053 -0.002897 0.011237
# 5 0.009557 0.004608 0.005780 -0.002897 0.042333 0.004754
# 6 0.007145 0.001120 0.002434 0.011237 0.004754 0.026412
#
#
# Mechanical properties :
#
#
# Convention : Reuss Voigt Hill
#
# Bulk Modulus (GPa) = 33.23184 63.70663 48.46923
# Shear Modulus (GPa) = 33.71175 46.56307 40.13741
#
# Velocity S-wave (km/s) = 3.55367 4.17645 3.87759
# Velocity P-wave (km/s) = 5.41174 6.86453 6.18097
#
# Compressibility (1/GPa) = 0.03009163
#
# Stress axis : x y z
#
# Youngs Moduli (GPa) = 73.23881 91.70115 138.29901
#
# Poissons Ratio (x) = 0.11338 -0.09614
# Poissons Ratio (y) = 0.09055 0.04257
# Poissons Ratio (z) = -0.05091 0.02822
#
# Static dielectric constant tensor:
#      x y z
#    x 2.220690 0.143160 0.091040 
#    y 0.143160 2.194030 0.073570 
#    z 0.091040 0.073570 2.208720 
# 
# From -- ./inp_files/144021.got.cif
#   From: 2010.05.17/outbox.cif.g08.bks.cpg/sg2_73_cif.got.tgz:144021.got - 2010.06.03 11:33:40.
