data_PCOD9041581
_publ_section_title
;
Structure prediction by ZEFSAII (Michael W. Deem and Ramdas Pophale) SiO2 
 PCOD9041581
Probable space group: P -1
;
_chemical_formula_sum "Si O2"
_cell_formula_units_Z 14
_cell_length_a 5.929406
_cell_length_b 16.904312
_cell_length_c 9.715189
_cell_angle_alpha 40.699332
_cell_angle_beta 102.017377
_cell_angle_gamma 96.085541
_cell_volume 619.019525
_symmetry_space_group_name_H-M "P -1"
_symmetry_group_IT_number 2
_symmetry_cell_setting 'triclinic'
loop_
_space_group_symop_operation_xyz
x,y,z
-x,-y,-z
loop_
_atom_site_type_symbol
_atom_site_label
_atom_site_fract_x
_atom_site_fract_y
_atom_site_fract_z
Si Si1 0.075305 0.906633 0.255000
Si Si2 0.381458 0.653206 0.675291
Si Si3 0.744391 0.706894 0.467623
Si Si4 0.766790 0.037662 0.510268
Si Si5 0.759020 0.320209 0.074791
Si Si6 0.590523 0.624634 0.291123
Si Si7 0.912607 0.530895 0.239620
O O1 0.257952 0.783866 0.431379
O O2 0.163720 0.982758 0.293927
O O3 0.850656 0.832334 0.346528
O O4 0.000000 0.000000 0.000000
O O5 0.642466 0.667472 0.650747
O O6 0.315353 0.624603 0.859606
O O7 0.312805 0.537630 0.733821
O O8 0.584517 0.716836 0.297735
O O9 0.905961 0.587760 0.596132
O O10 0.760940 0.180739 0.298364
O O11 0.500000 0.000000 0.500000
O O12 0.000000 0.000000 0.500000
O O13 0.583235 0.334233 0.906896
O O14 0.992842 0.371987 0.980546
O O15 0.500000 0.500000 0.500000
O O16 0.841462 0.599128 0.282630
#
# Coordination Sequence:
#
# PCOD9041581 Si02
#       7
#     2   2   2   2   2   2   2
#     4  10  26  46  73 102 138 192 244 304 364 437
#     4  10  23  44  65 102 141 182 238 296 362 437
#     4  11  24  42  68  98 145 181 234 298 357 433
#     4  11  29  53  76 108 146 191 250 310 368 436
#     4  11  26  41  73  98 141 189 235 300 364 433
#     4  12  24  41  65 104 142 187 233 292 357 439
#     4  11  22  41  67  99 139 183 241 284 365 427
#
# _framework density 22.616409999999998
#
# number of rings (size 3 to 8) (size 9 to 14) (size 15 to 20)
#    0.000    1.143    2.857    0.857    8.000    6.286 
#    0.000    0.000    0.000    0.000    0.000    0.000 
#    0.000    0.000    0.000    0.000    0.000    0.000 
#
# Total GULP energy -77939.889157 kJ/mol
# GULP energy per Si atom -5567.134940 kJ/mol
# Density = 2.256493 g / cm^3
# Si number density = 22.616410 Si / 1000 Ang^3
#
#
#
# Elastic Constant Matrix: (Units=GPa)
#
#
# Indices 1 2 3 4 5 6 
#
# 1 85.6282 30.7759 41.3513 12.9868 -32.5235 7.9881
# 2 30.7759 71.4532 15.3039 15.9484 -14.7512 15.2531
# 3 41.3513 15.3039 129.4937 18.9674 -12.4151 4.1007
# 4 12.9868 15.9484 18.9674 34.3854 4.1536 -6.5495
# 5 -32.5235 -14.7512 -12.4151 4.1536 54.8962 3.7669
# 6 7.9881 15.2531 4.1007 -6.5495 3.7669 35.4504
#
#
#
# Elastic Compliance Matrix: (Units=1/GPa)
#
#
# Indices 1 2 3 4 5 6 
#
# 1 0.020430 -0.003085 -0.003976 -0.006437 0.011219 -0.005197
# 2 -0.003085 0.021568 0.001202 -0.012444 0.005981 -0.011658
# 3 -0.003976 0.001202 0.009665 -0.004785 0.000631 -0.001690
# 4 -0.006437 -0.012444 -0.004785 0.044702 -0.012787 0.016976
# 5 0.011219 0.005981 0.000631 -0.012787 0.028304 -0.010544
# 6 -0.005197 -0.011658 -0.001690 0.016976 -0.010544 0.038848
#
#
# Mechanical properties :
#
#
# Convention : Reuss Voigt Hill
#
# Bulk Modulus (GPa) = 25.03608 51.27081 38.15345
# Shear Modulus (GPa) = 26.51808 38.22266 32.37037
#
# Velocity S-wave (km/s) = 3.42792 4.11547 3.78733
# Velocity P-wave (km/s) = 5.17314 6.73066 6.00263
#
# Compressibility (1/GPa) = 0.03994236
#
# Stress axis : x y z
#
# Youngs Moduli (GPa) = 48.94790 46.36587 103.46607
#
# Poissons Ratio (x) = 0.14306 0.41140
# Poissons Ratio (y) = 0.15103 -0.12433
# Poissons Ratio (z) = 0.19463 -0.05572
#
# Static dielectric constant tensor:
#      x y z
#    x 2.056280 0.007810 0.086850 
#    y 0.007810 1.742570 0.169000 
#    z 0.086850 0.169000 1.876460 
# 
# From -- ./inp_files/126819.got.cif
#   From: 2010.05.17/outbox.cif.g08.bks.cpg/sg2_64_cif.got.tgz:126819.got - 2010.06.03 11:33:40.
