data_PCOD9041699
_publ_section_title
;
Structure prediction by ZEFSAII (Michael W. Deem and Ramdas Pophale) SiO2 
 PCOD9041699
Probable space group: P -1
;
_chemical_formula_sum "Si O2"
_cell_formula_units_Z 13
_cell_length_a 6.884474
_cell_length_b 7.536687
_cell_length_c 13.568205
_cell_angle_alpha 50.658150
_cell_angle_beta 73.744994
_cell_angle_gamma 95.048172
_cell_volume 488.147698
_symmetry_space_group_name_H-M "P -1"
_symmetry_group_IT_number 2
_symmetry_cell_setting 'triclinic'
loop_
_space_group_symop_operation_xyz
x,y,z
-x,-y,-z
loop_
_atom_site_type_symbol
_atom_site_label
_atom_site_fract_x
_atom_site_fract_y
_atom_site_fract_z
Si Si1 0.451754 0.713251 0.489976
Si Si2 0.000000 0.000000 0.000000
Si Si3 0.985287 0.647826 0.243809
Si Si4 0.357489 0.332294 0.966940
Si Si5 0.905702 0.983644 0.409932
Si Si6 0.828758 0.500691 0.895683
Si Si7 0.257167 0.873219 0.283637
O O1 0.500000 0.500000 0.500000
O O2 0.226473 0.580489 0.625588
O O3 0.649984 0.854885 0.481953
O O4 0.412140 0.873299 0.350455
O O5 0.247281 0.202993 0.929692
O O6 0.945297 0.903295 0.160015
O O7 0.091271 0.705269 0.095174
O O8 0.176848 0.660876 0.286665
O O9 0.227499 0.484352 0.987717
O O10 0.353592 0.120945 0.120545
O O11 0.611522 0.488000 0.872496
O O12 0.029013 0.842289 0.378131
O O13 0.000000 0.000000 0.500000
O O14 0.987596 0.252149 0.253916
#
# Coordination Sequence:
#
# PCOD9041699 Si02
#       7
#     2   1   2   2   2   2   2
#     4  12  26  43  73  99 135 188 225 277 339 403
#     4  10  24  42  70 102 132 174 240 268 336 408
#     4  11  24  42  70 102 133 179 230 283 332 406
#     4   9  22  47  68  97 135 178 219 289 335 400
#     4  11  25  44  68 102 141 173 229 285 333 410
#     4  10  23  44  66  96 136 176 218 281 346 387
#     4  10  23  46  68 100 136 176 232 278 336 405
#
# _framework density 26.631281999999999
#
# number of rings (size 3 to 8) (size 9 to 14) (size 15 to 20)
#    0.000    1.538    1.538    1.385    4.308    6.769 
#    5.538    0.000    0.000    0.000    0.000    0.000 
#    0.000    0.000    0.000    0.000    0.000    0.000 
#
# Total GULP energy -72557.063517 kJ/mol
# GULP energy per Si atom -5581.312578 kJ/mol
# Density = 2.657067 g / cm^3
# Si number density = 26.631282 Si / 1000 Ang^3
#
#
#
# Elastic Constant Matrix: (Units=GPa)
#
#
# Indices 1 2 3 4 5 6 
#
# 1 98.4120 48.2434 9.5677 1.5066 7.9968 31.5079
# 2 48.2434 118.7018 26.5784 12.4807 -16.7992 27.1693
# 3 9.5677 26.5784 64.7317 5.1366 13.3666 11.2668
# 4 1.5066 12.4807 5.1366 39.6293 10.6492 -8.1641
# 5 7.9968 -16.7992 13.3666 10.6492 48.2326 6.3382
# 6 31.5079 27.1693 11.2668 -8.1641 6.3382 64.5264
#
#
#
# Elastic Compliance Matrix: (Units=1/GPa)
#
#
# Indices 1 2 3 4 5 6 
#
# 1 0.014849 -0.006454 0.002105 0.001710 -0.005121 -0.004182
# 2 -0.006454 0.015774 -0.006338 -0.007651 0.010587 -0.004392
# 3 0.002105 -0.006338 0.019445 0.001429 -0.008159 -0.000772
# 4 0.001710 -0.007651 0.001429 0.031948 -0.011357 0.007295
# 5 -0.005121 0.010587 -0.008159 -0.011357 0.030693 -0.004984
# 6 -0.004182 -0.004392 -0.000772 0.007295 -0.004984 0.020936
#
#
# Mechanical properties :
#
#
# Convention : Reuss Voigt Hill
#
# Bulk Modulus (GPa) = 34.84853 50.06938 42.45895
# Shear Modulus (GPa) = 30.37965 43.64141 37.01053
#
# Velocity S-wave (km/s) = 3.38116 4.05251 3.73196
# Velocity P-wave (km/s) = 5.32513 6.38270 5.87775
#
# Compressibility (1/GPa) = 0.02869562
#
# Stress axis : x y z
#
# Youngs Moduli (GPa) = 67.34355 63.39355 51.42640
#
# Poissons Ratio (x) = 0.40913 -0.10824
# Poissons Ratio (y) = 0.43462 0.32592
# Poissons Ratio (z) = -0.14174 0.40176
#
# Static dielectric constant tensor:
#      x y z
#    x 2.620570 -0.752510 0.364310 
#    y -0.752510 3.398430 -0.503680 
#    z 0.364310 -0.503680 2.310970 
# 
# From -- ./inp_files/34266.got.cif
#   From: 2010.05.17/outbox.cif.g08.bks.cpg/sg2_18_cif.got.tgz:34266.got - 2010.06.03 11:33:40.
