data_PCOD9041854
_publ_section_title
;
Structure prediction by ZEFSAII (Michael W. Deem and Ramdas Pophale) SiO2 
 PCOD9041854
Probable space group: P -1
;
_chemical_formula_sum "Si O2"
_cell_formula_units_Z 16
_cell_length_a 8.549472
_cell_length_b 9.205356
_cell_length_c 15.226151
_cell_angle_alpha 141.692773
_cell_angle_beta 97.479449
_cell_angle_gamma 68.253469
_cell_volume 662.573121
_symmetry_space_group_name_H-M "P -1"
_symmetry_group_IT_number 2
_symmetry_cell_setting 'triclinic'
loop_
_space_group_symop_operation_xyz
x,y,z
-x,-y,-z
loop_
_atom_site_type_symbol
_atom_site_label
_atom_site_fract_x
_atom_site_fract_y
_atom_site_fract_z
Si Si1 0.624615 0.537493 0.779787
Si Si2 0.238617 0.204519 0.335459
Si Si3 0.452826 0.721018 0.677707
Si Si4 0.340345 0.994731 0.429209
Si Si5 0.072901 0.712300 0.903785
Si Si6 0.707497 0.359744 0.962376
Si Si7 0.975394 0.383645 0.617024
Si Si8 0.773694 0.749748 0.031218
O O1 0.480909 0.614400 0.728471
O O2 0.807290 0.429218 0.685351
O O3 0.616298 0.305032 0.724380
O O4 0.631621 0.753303 0.948741
O O5 0.406676 0.162059 0.269493
O O6 0.308024 0.171961 0.424404
O O7 0.098256 0.483280 0.420014
O O8 0.204100 0.950879 0.198343
O O9 0.500000 0.500000 0.500000
O O10 0.273987 0.985280 0.791494
O O11 0.138818 0.104296 0.500742
O O12 0.500000 0.000000 0.500000
O O13 0.068393 0.547985 0.743388
O O14 0.253748 0.619816 0.922999
O O15 0.941687 0.695097 0.959138
O O16 0.000000 0.000000 0.000000
O O17 0.500000 0.500000 0.000000
O O18 0.787570 0.517654 0.985333
#
# Coordination Sequence:
#
# PCOD9041854 Si02
#       8
#     2   2   2   2   2   2   2   2
#     4  10  23  44  67  98 135 184 237 279 350 419
#     4  11  23  45  66 101 136 189 230 275 358 412
#     4  11  24  43  67 103 144 179 228 291 354 417
#     4  12  25  41  69 104 138 179 235 291 351 410
#     4  11  25  44  69 104 137 180 238 288 350 411
#     4  12  24  43  73 101 141 182 234 290 341 421
#     4  10  24  45  68  93 143 184 232 284 345 421
#     4  11  24  45  71 101 138 188 235 289 347 419
#
# _framework density 24.14828
#
# number of rings (size 3 to 8) (size 9 to 14) (size 15 to 20)
#    0.000    1.000    3.750    2.250    1.750    4.000 
#    4.500    0.000    0.000    0.000    0.000    0.000 
#    0.000    0.000    0.000    0.000    0.000    0.000 
#
# Total GULP energy -89317.490779 kJ/mol
# GULP energy per Si atom -5582.343174 kJ/mol
# Density = 2.409332 g / cm^3
# Si number density = 24.148280 Si / 1000 Ang^3
#
#
#
# Elastic Constant Matrix: (Units=GPa)
#
#
# Indices 1 2 3 4 5 6 
#
# 1 70.3318 38.3551 9.4505 3.2418 -0.4881 -10.0285
# 2 38.3551 145.2409 38.0009 -6.7902 20.0013 -9.4639
# 3 9.4505 38.0009 104.4518 7.1537 5.1249 -1.4342
# 4 3.2418 -6.7902 7.1537 37.6793 -0.5400 5.8867
# 5 -0.4881 20.0013 5.1249 -0.5400 27.1856 -8.2254
# 6 -10.0285 -9.4639 -1.4342 5.8867 -8.2254 35.9744
#
#
#
# Elastic Compliance Matrix: (Units=1/GPa)
#
#
# Indices 1 2 3 4 5 6 
#
# 1 0.018159 -0.005508 0.000380 -0.003407 0.005915 0.005538
# 2 -0.005508 0.010218 -0.003079 0.002972 -0.007319 -0.001130
# 3 0.000380 -0.003079 0.010834 -0.002676 0.000244 0.000221
# 4 -0.003407 0.002972 -0.002676 0.028715 -0.002876 -0.005631
# 5 0.005915 -0.007319 0.000244 -0.002876 0.045373 0.010578
# 6 0.005538 -0.001130 0.000221 -0.005631 0.010578 0.032393
#
#
# Mechanical properties :
#
#
# Convention : Reuss Voigt Hill
#
# Bulk Modulus (GPa) = 43.86466 54.62639 49.24553
# Shear Modulus (GPa) = 29.46292 35.78240 32.62266
#
# Velocity S-wave (km/s) = 3.49676 3.85356 3.67949
# Velocity P-wave (km/s) = 5.87429 6.51692 6.20393
#
# Compressibility (1/GPa) = 0.02279739
#
# Stress axis : x y z
#
# Youngs Moduli (GPa) = 55.07026 97.86188 92.30213
#
# Poissons Ratio (x) = 0.53899 -0.03508
# Poissons Ratio (y) = 0.30331 0.28422
# Poissons Ratio (z) = -0.02093 0.30134
#
# Static dielectric constant tensor:
#      x y z
#    x 1.974880 -0.012000 0.013260 
#    y -0.012000 1.918470 -0.068590 
#    z 0.013260 -0.068590 1.885410 
# 
# From -- ./inp_files/495886.got.cif
#   From: 2010.05.17/outbox.cif.g08.bks.cpg/sg2_248_cif.got.tgz:495886.got - 2010.06.03 11:33:40.
