data_PCOD9041620
_publ_section_title
;
Structure prediction by ZEFSAII (Michael W. Deem and Ramdas Pophale) SiO2 
 PCOD9041620
Probable space group: P -1
;
_chemical_formula_sum "Si O2"
_cell_formula_units_Z 16
_cell_length_a 18.629952
_cell_length_b 16.250722
_cell_length_c 5.264260
_cell_angle_alpha 77.871798
_cell_angle_beta 100.655432
_cell_angle_gamma 155.674983
_cell_volume 641.749858
_symmetry_space_group_name_H-M "P -1"
_symmetry_group_IT_number 2
_symmetry_cell_setting 'triclinic'
loop_
_space_group_symop_operation_xyz
x,y,z
-x,-y,-z
loop_
_atom_site_type_symbol
_atom_site_label
_atom_site_fract_x
_atom_site_fract_y
_atom_site_fract_z
Si Si1 0.782220 0.303086 0.203794
Si Si2 0.193649 0.753077 0.243667
Si Si3 0.138226 0.268308 0.882253
Si Si4 0.697089 0.405775 0.984598
Si Si5 0.658786 0.749952 0.163841
Si Si6 0.187026 0.157738 0.287629
Si Si7 0.567988 0.395291 0.527569
Si Si8 0.325061 0.067528 0.198883
O O1 0.717804 0.208630 0.500670
O O2 0.991857 0.517252 0.232504
O O3 0.724213 0.179544 0.021739
O O4 0.739198 0.352455 0.060312
O O5 0.203727 0.860368 0.264152
O O6 0.312969 0.440013 0.717022
O O7 0.159379 0.384966 0.922200
O O8 0.128007 0.190275 0.155739
O O9 0.974810 0.073439 0.729182
O O10 0.668497 0.418933 0.683804
O O11 0.510519 0.226979 0.111794
O O12 0.752215 0.796966 0.418183
O O13 0.477747 0.589079 0.283064
O O14 0.672718 0.718937 0.921603
O O15 0.738588 0.925177 0.032444
O O16 0.385106 0.173509 0.431618
#
# Coordination Sequence:
#
# PCOD9041620 Si02
#       8
#     2   2   2   2   2   2   2   2
#     4  10  24  43  64  98 127 168 216 266 336 384
#     4  10  24  43  66  95 130 165 217 276 314 400
#     4  10  26  44  66 100 138 173 223 282 329 401
#     4  10  24  42  66  96 134 176 217 270 336 392
#     4  11  24  44  68 100 130 177 226 272 331 395
#     4  11  26  44  69 101 132 175 229 274 336 390
#     4  10  23  45  65 101 134 181 226 270 328 399
#     4  10  23  44  65  98 134 173 224 267 327 394
#
# _framework density 24.931830000000001
#
# number of rings (size 3 to 8) (size 9 to 14) (size 15 to 20)
#    0.000    1.750    1.250    0.000   12.250    3.000 
#    2.250    0.000    0.000    0.000    0.000    0.000 
#    0.000    0.000    0.000    0.000    0.000    0.000 
#
# Total GULP energy -89514.760744 kJ/mol
# GULP energy per Si atom -5594.672546 kJ/mol
# Density = 2.487508 g / cm^3
# Si number density = 24.931830 Si / 1000 Ang^3
#
#
#
# Elastic Constant Matrix: (Units=GPa)
#
#
# Indices 1 2 3 4 5 6 
#
# 1 88.8912 -0.1447 53.0167 5.6367 5.9522 -16.4375
# 2 -0.1447 74.3492 25.0944 6.3110 -13.3323 -20.6589
# 3 53.0167 25.0944 165.7721 15.7495 9.5532 -17.2531
# 4 5.6367 6.3110 15.7495 25.2846 -2.3353 -3.9496
# 5 5.9522 -13.3323 9.5532 -2.3353 46.3995 -7.0523
# 6 -16.4375 -20.6589 -17.2531 -3.9496 -7.0523 37.5837
#
#
#
# Elastic Compliance Matrix: (Units=1/GPa)
#
#
# Indices 1 2 3 4 5 6 
#
# 1 0.015304 0.003738 -0.004805 -0.000197 0.001113 0.006731
# 2 0.003738 0.019336 -0.003194 -0.001087 0.007517 0.012094
# 3 -0.004805 -0.003194 0.008460 -0.003745 -0.002355 -0.000809
# 4 -0.000197 -0.001087 -0.003745 0.042898 0.003050 0.002677
# 5 0.001113 0.007517 -0.002355 0.003050 0.025522 0.008648
# 6 0.006731 0.012094 -0.000809 0.002677 0.008648 0.037731
#
#
# Mechanical properties :
#
#
# Convention : Reuss Voigt Hill
#
# Bulk Modulus (GPa) = 28.91985 53.88281 41.40133
# Shear Modulus (GPa) = 29.53347 38.58997 34.06172
#
# Velocity S-wave (km/s) = 3.44549 3.93850 3.70022
# Velocity P-wave (km/s) = 5.23959 6.50702 5.90740
#
# Compressibility (1/GPa) = 0.03457833
#
# Stress axis : x y z
#
# Youngs Moduli (GPa) = 65.34065 51.71702 118.20320
#
# Poissons Ratio (x) = -0.19333 0.56801
# Poissons Ratio (y) = -0.24426 0.37753
# Poissons Ratio (z) = 0.31399 0.16518
#
# Static dielectric constant tensor:
#      x y z
#    x 1.991850 0.033570 -0.040840 
#    y 0.033570 2.006150 0.031030 
#    z -0.040840 0.031030 1.982070 
# 
# From -- ./inp_files/110762.got.cif
#   From: 2010.05.17/outbox.cif.g08.bks.cpg/sg2_56_cif.got.tgz:110762.got - 2010.06.03 11:33:40.
