data_PCOD9041196
_publ_section_title
;
Structure prediction by ZEFSAII (Michael W. Deem and Ramdas Pophale) SiO2 
 PCOD9041196
Probable space group: P -1
;
_chemical_formula_sum "Si O2"
_cell_formula_units_Z 14
_cell_length_a 9.343708
_cell_length_b 6.312878
_cell_length_c 14.812783
_cell_angle_alpha 88.154762
_cell_angle_beta 47.062970
_cell_angle_gamma 91.394753
_cell_volume 638.057636
_symmetry_space_group_name_H-M "P -1"
_symmetry_group_IT_number 2
_symmetry_cell_setting 'triclinic'
loop_
_space_group_symop_operation_xyz
x,y,z
-x,-y,-z
loop_
_atom_site_type_symbol
_atom_site_label
_atom_site_fract_x
_atom_site_fract_y
_atom_site_fract_z
Si Si1 0.388438 0.474204 0.403982
Si Si2 0.892501 0.846207 0.800481
Si Si3 0.651172 0.214588 0.416512
Si Si4 0.617720 0.833189 0.205344
Si Si5 0.986971 0.139154 0.912525
Si Si6 0.619279 0.780245 0.758394
Si Si7 0.726342 0.515946 0.012721
O O1 0.563411 0.334500 0.366642
O O2 0.325676 0.596556 0.519556
O O3 0.444761 0.678334 0.316984
O O4 0.291104 0.318705 0.370200
O O5 0.784961 0.879957 0.752145
O O6 0.125482 0.841340 0.690368
O O7 0.867123 0.029078 0.883272
O O8 0.797250 0.627506 0.887929
O O9 0.500000 0.000000 0.500000
O O10 0.711179 0.707954 0.085639
O O11 0.783552 0.838989 0.210940
O O12 0.533214 0.049865 0.209223
O O13 0.891302 0.357283 0.969898
O O14 0.000000 0.000000 0.000000
O O15 0.481567 0.614455 0.880166
#
# Coordination Sequence:
#
# PCOD9041196 Si02
#       7
#     2   2   2   2   2   2   2
#     4  10  23  43  71  92 124 169 216 272 328 373
#     4  12  26  40  65  96 134 172 216 262 325 386
#     4  11  24  46  70  96 123 164 222 280 319 377
#     4  11  22  42  67  94 133 170 217 266 323 382
#     4  12  22  37  62  96 127 170 216 263 311 378
#     4  11  24  42  63  97 136 174 207 261 324 394
#     4  11  23  40  65  95 135 172 215 259 321 386
#
# _framework density 21.941590999999999
#
# number of rings (size 3 to 8) (size 9 to 14) (size 15 to 20)
#    0.000    0.857    2.857    4.286    2.000    6.286 
#    0.000    2.857    0.000    0.000    0.000    0.000 
#    0.000    0.000    0.000    0.000    0.000    0.000 
#
# Total GULP energy -77956.145006 kJ/mol
# GULP energy per Si atom -5568.296072 kJ/mol
# Density = 2.189165 g / cm^3
# Si number density = 21.941591 Si / 1000 Ang^3
#
#
#
# Elastic Constant Matrix: (Units=GPa)
#
#
# Indices 1 2 3 4 5 6 
#
# 1 90.0494 33.4163 29.6638 23.5918 25.4158 26.9260
# 2 33.4163 97.1780 27.7095 16.2659 7.9867 11.0466
# 3 29.6638 27.7095 57.0974 20.0071 9.8744 3.2589
# 4 23.5918 16.2659 20.0071 37.1750 7.2336 7.4245
# 5 25.4158 7.9867 9.8744 7.2336 27.4171 4.3212
# 6 26.9260 11.0466 3.2589 7.4245 4.3212 24.1657
#
#
#
# Elastic Compliance Matrix: (Units=1/GPa)
#
#
# Indices 1 2 3 4 5 6 
#
# 1 0.027785 -0.002553 -0.007271 -0.004350 -0.017407 -0.024362
# 2 -0.002553 0.012838 -0.004473 -0.001337 0.000934 -0.002177
# 3 -0.007271 -0.004473 0.026288 -0.009400 -0.000453 0.009570
# 4 -0.004350 -0.001337 -0.009400 0.036370 -0.001119 -0.004249
# 5 -0.017407 0.000934 -0.000453 -0.001119 0.051185 0.010220
# 6 -0.024362 -0.002177 0.009570 -0.004249 0.010220 0.067708
#
#
# Mechanical properties :
#
#
# Convention : Reuss Voigt Hill
#
# Bulk Modulus (GPa) = 26.09803 47.32265 36.71034
# Shear Modulus (GPa) = 18.97250 27.98726 23.47988
#
# Velocity S-wave (km/s) = 2.94374 3.57534 3.27480
# Velocity P-wave (km/s) = 4.84502 6.21759 5.57372
#
# Compressibility (1/GPa) = 0.03831707
#
# Stress axis : x y z
#
# Youngs Moduli (GPa) = 35.99123 77.89274 38.04042
#
# Poissons Ratio (x) = 0.19886 0.27659
# Poissons Ratio (y) = 0.09188 0.17015
# Poissons Ratio (z) = 0.26169 0.34840
#
# Static dielectric constant tensor:
#      x y z
#    x 1.886390 0.126590 -0.017300 
#    y 0.126590 1.854730 -0.018390 
#    z -0.017300 -0.018390 1.915760 
# 
# From -- ./inp_files/39917.got.cif
#   From: 2010.05.17/outbox.cif.g08.bks.cpg/sg2_20_cif.got.tgz:39917.got - 2010.06.03 11:33:40.
