data_PCOD9041362
_publ_section_title
;
Structure prediction by ZEFSAII (Michael W. Deem and Ramdas Pophale) SiO2 
 PCOD9041362
Probable space group: P -1
;
_chemical_formula_sum "Si O2"
_cell_formula_units_Z 14
_cell_length_a 8.700385
_cell_length_b 9.344457
_cell_length_c 12.617385
_cell_angle_alpha 84.820341
_cell_angle_beta 34.862883
_cell_angle_gamma 90.501091
_cell_volume 577.753518
_symmetry_space_group_name_H-M "P -1"
_symmetry_group_IT_number 2
_symmetry_cell_setting 'triclinic'
loop_
_space_group_symop_operation_xyz
x,y,z
-x,-y,-z
loop_
_atom_site_type_symbol
_atom_site_label
_atom_site_fract_x
_atom_site_fract_y
_atom_site_fract_z
Si Si1 0.341150 0.393293 0.008247
Si Si2 0.782133 0.932988 0.833548
Si Si3 0.504005 0.379437 0.676367
Si Si4 0.812975 0.136280 0.553896
Si Si5 0.777572 0.045563 0.043624
Si Si6 0.041916 0.648241 0.143348
Si Si7 0.922530 0.627471 0.455289
O O1 0.275739 0.239951 0.111296
O O2 0.113180 0.488010 0.094200
O O3 0.500000 0.500000 0.000000
O O4 0.460149 0.353650 0.829616
O O5 0.991533 0.951667 0.617714
O O6 0.914502 0.002143 0.859963
O O7 0.500000 0.000000 0.000000
O O8 0.710575 0.268230 0.534802
O O9 0.244535 0.345769 0.751362
O O10 0.626321 0.549411 0.592229
O O11 0.999418 0.230105 0.529791
O O12 0.525392 0.040787 0.757485
O O13 0.763292 0.217215 0.029189
O O14 0.000000 0.000000 0.000000
O O15 0.057208 0.662359 0.261684
O O16 0.000000 0.500000 0.500000
#
# Coordination Sequence:
#
# PCOD9041362 Si02
#       7
#     2   2   2   2   2   2   2
#     4  12  23  45  75 112 157 207 270 329 388 470
#     4  12  28  49  78 111 153 211 269 330 398 468
#     4  11  22  46  74 116 160 202 266 329 397 474
#     4  11  24  50  78 110 163 207 261 330 392 478
#     4  12  27  52  75 117 166 203 262 323 399 488
#     4  12  25  45  78 116 158 215 256 328 402 472
#     4  10  23  43  73 114 152 202 267 327 391 472
#
# _framework density 24.231788000000002
#
# number of rings (size 3 to 8) (size 9 to 14) (size 15 to 20)
#    0.000    0.571    2.857    6.000    2.000    1.143 
#    2.571    0.000    0.000    0.000    0.000    0.000 
#    0.000    0.000    0.000    0.000    0.000    0.000 
#
# Total GULP energy -78115.954907 kJ/mol
# GULP energy per Si atom -5579.711065 kJ/mol
# Density = 2.417663 g / cm^3
# Si number density = 24.231788 Si / 1000 Ang^3
#
#
#
# Elastic Constant Matrix: (Units=GPa)
#
#
# Indices 1 2 3 4 5 6 
#
# 1 118.4529 43.7309 47.9145 11.2785 8.6004 3.2032
# 2 43.7309 184.2365 70.7006 -10.9395 -6.7880 -20.0025
# 3 47.9145 70.7006 140.2206 -3.6890 10.6893 2.4758
# 4 11.2785 -10.9395 -3.6890 51.7868 4.3752 7.4264
# 5 8.6004 -6.7880 10.6893 4.3752 38.7253 -2.3492
# 6 3.2032 -20.0025 2.4758 7.4264 -2.3492 32.9563
#
#
#
# Elastic Compliance Matrix: (Units=1/GPa)
#
#
# Indices 1 2 3 4 5 6 
#
# 1 0.010597 -0.001921 -0.002555 -0.002520 -0.001795 -0.001564
# 2 -0.001921 0.008058 -0.003717 0.000821 0.003099 0.005393
# 3 -0.002555 -0.003717 0.010217 0.001244 -0.003244 -0.003287
# 4 -0.002520 0.000821 0.001244 0.020918 -0.002260 -0.004225
# 5 -0.001795 0.003099 -0.003244 -0.002260 0.028208 0.004819
# 6 -0.001564 0.005393 -0.003287 -0.004225 0.004819 0.035311
#
#
# Mechanical properties :
#
#
# Convention : Reuss Voigt Hill
#
# Bulk Modulus (GPa) = 80.07472 85.28912 82.68192
# Shear Modulus (GPa) = 37.35381 43.39793 40.37587
#
# Velocity S-wave (km/s) = 3.93048 4.23655 4.08638
# Velocity P-wave (km/s) = 7.32907 7.69447 7.51399
#
# Compressibility (1/GPa) = 0.01248834
#
# Stress axis : x y z
#
# Youngs Moduli (GPa) = 94.36553 124.09403 97.87958
#
# Poissons Ratio (x) = 0.23834 0.25004
# Poissons Ratio (y) = 0.18124 0.36379
# Poissons Ratio (z) = 0.24106 0.46123
#
# Static dielectric constant tensor:
#      x y z
#    x 2.059630 -0.148200 0.009730 
#    y -0.148200 2.165810 0.039830 
#    z 0.009730 0.039830 2.171150 
# 
# From -- ./inp_files/243950.got.cif
#   From: 2010.05.17/outbox.cif.g08.bks.cpg/sg2_122_cif.got.tgz:243950.got - 2010.06.03 11:33:40.
