data_PCOD9041397
_publ_section_title
;
Structure prediction by ZEFSAII (Michael W. Deem and Ramdas Pophale) SiO2 
 PCOD9041397
Probable space group: P -1
;
_chemical_formula_sum "Si O2"
_cell_formula_units_Z 10
_cell_length_a 5.233202
_cell_length_b 14.938660
_cell_length_c 11.105205
_cell_angle_alpha 41.334129
_cell_angle_beta 53.276511
_cell_angle_gamma 42.450674
_cell_volume 385.125330
_symmetry_space_group_name_H-M "P -1"
_symmetry_group_IT_number 2
_symmetry_cell_setting 'triclinic'
loop_
_space_group_symop_operation_xyz
x,y,z
-x,-y,-z
loop_
_atom_site_type_symbol
_atom_site_label
_atom_site_fract_x
_atom_site_fract_y
_atom_site_fract_z
Si Si1 0.330809 0.535645 0.878020
Si Si2 0.758188 0.222720 0.940828
Si Si3 0.645685 0.315966 0.627968
Si Si4 0.570794 0.862116 0.308321
Si Si5 0.694347 0.895752 0.670837
O O1 0.660095 0.396252 0.841661
O O2 0.098744 0.724582 0.717972
O O3 0.500000 0.500000 0.000000
O O4 0.000000 0.500000 0.000000
O O5 0.535832 0.264228 0.834799
O O6 0.191570 0.109438 0.888970
O O7 0.609901 0.144615 0.151562
O O8 0.500000 0.500000 0.500000
O O9 0.527716 0.252780 0.614195
O O10 0.900720 0.769259 0.408854
O O11 0.258502 0.012626 0.321114
O O12 0.500000 0.000000 0.500000
#
# Coordination Sequence:
#
# PCOD9041397 Si02
#       5
#     2   2   2   2   2
#     4  10  24  45  69 100 146 193 238 289 365 434
#     4   9  24  44  75 101 144 196 246 290 360 444
#     4  10  23  43  74 104 140 187 253 296 358 430
#     4  10  24  43  76 103 144 185 249 300 362 420
#     4  11  25  47  72 115 155 189 239 311 374 429
#
# _framework density 25.965572000000002
#
# number of rings (size 3 to 8) (size 9 to 14) (size 15 to 20)
#    1.200    0.800    0.000    1.200    8.400    4.000 
#    7.200    5.000    0.000    0.000    0.000    0.000 
#    0.000    0.000    0.000    0.000    0.000    0.000 
#
# Total GULP energy -55903.725415 kJ/mol
# GULP energy per Si atom -5590.372541 kJ/mol
# Density = 2.590647 g / cm^3
# Si number density = 25.965572 Si / 1000 Ang^3
#
#
#
# Elastic Constant Matrix: (Units=GPa)
#
#
# Indices 1 2 3 4 5 6 
#
# 1 126.6396 46.2583 46.2072 2.5551 9.0374 25.0899
# 2 46.2583 219.9834 82.4039 2.1715 12.9806 21.4983
# 3 46.2072 82.4039 181.6309 9.7675 13.0055 -4.1669
# 4 2.5551 2.1715 9.7675 44.8313 -1.4616 1.8124
# 5 9.0374 12.9806 13.0055 -1.4616 18.8945 -5.5470
# 6 25.0899 21.4983 -4.1669 1.8124 -5.5470 45.6837
#
#
#
# Elastic Compliance Matrix: (Units=1/GPa)
#
#
# Indices 1 2 3 4 5 6 
#
# 1 0.010505 -0.000443 -0.002258 0.000008 -0.005039 -0.006379
# 2 -0.000443 0.006080 -0.002510 0.000305 -0.003166 -0.003243
# 3 -0.002258 -0.002510 0.007485 -0.001553 -0.001595 0.002972
# 4 0.000008 0.000305 -0.001553 0.022742 0.002348 -0.000907
# 5 -0.005039 -0.003166 -0.001595 0.002348 0.062187 0.011570
# 6 -0.006379 -0.003243 0.002972 -0.000907 0.011570 0.028631
#
#
# Mechanical properties :
#
#
# Convention : Reuss Voigt Hill
#
# Bulk Modulus (GPa) = 73.26429 97.55474 85.40951
# Shear Modulus (GPa) = 32.76527 45.44084 39.10305
#
# Velocity S-wave (km/s) = 3.55614 4.18789 3.88488
# Velocity P-wave (km/s) = 6.71853 7.81261 7.28614
#
# Compressibility (1/GPa) = 0.01364921
#
# Stress axis : x y z
#
# Youngs Moduli (GPa) = 95.19110 164.47790 133.60695
#
# Poissons Ratio (x) = 0.07281 0.30165
# Poissons Ratio (y) = 0.04214 0.33534
# Poissons Ratio (z) = 0.21491 0.41282
#
# Static dielectric constant tensor:
#      x y z
#    x 2.045270 -0.094210 -0.026050 
#    y -0.094210 2.180090 -0.020240 
#    z -0.026050 -0.020240 2.107270 
# 
# From -- ./inp_files/20641.got.cif
#   From: 2010.05.17/outbox.cif.g08.bks.cpg/sg2_11_cif.got.tgz:20641.got - 2010.06.03 11:33:40.
