data_PCOD9041179
_publ_section_title
;
Structure prediction by ZEFSAII (Michael W. Deem and Ramdas Pophale) SiO2 
 PCOD9041179
Probable space group: P -1
;
_chemical_formula_sum "Si O2"
_cell_formula_units_Z 16
_cell_length_a 8.702989
_cell_length_b 5.745862
_cell_length_c 22.611253
_cell_angle_alpha 140.571763
_cell_angle_beta 59.786058
_cell_angle_gamma 114.820287
_cell_volume 619.571527
_symmetry_space_group_name_H-M "P -1"
_symmetry_group_IT_number 2
_symmetry_cell_setting 'triclinic'
loop_
_space_group_symop_operation_xyz
x,y,z
-x,-y,-z
loop_
_atom_site_type_symbol
_atom_site_label
_atom_site_fract_x
_atom_site_fract_y
_atom_site_fract_z
Si Si1 0.872726 0.444626 0.569632
Si Si2 0.537236 0.341691 0.105182
Si Si3 0.130638 0.392553 0.610382
Si Si4 0.844864 0.742133 0.054025
Si Si5 0.524515 0.600258 0.388160
Si Si6 0.910653 0.248815 0.846061
Si Si7 0.262314 0.525421 0.794327
Si Si8 0.835062 0.483877 0.776585
O O1 0.675815 0.577298 0.618427
O O2 0.000000 0.500000 0.500000
O O3 0.999593 0.580850 0.626278
O O4 0.833875 0.006665 0.502237
O O5 0.665509 0.610833 0.095069
O O6 0.631031 0.252714 0.131304
O O7 0.374826 0.568001 0.204588
O O8 0.500000 0.000000 0.000000
O O9 0.322944 0.555643 0.628598
O O10 0.995616 0.320439 0.677311
O O11 0.868000 0.171552 0.146004
O O12 0.850596 0.620556 0.961470
O O13 0.000000 0.500000 0.000000
O O14 0.618972 0.618168 0.309022
O O15 0.500000 0.000000 0.500000
O O16 0.839764 0.300237 0.804233
O O17 0.124429 0.243932 0.798089
O O18 0.849803 0.913443 0.835006
#
# Coordination Sequence:
#
# PCOD9041179 Si02
#       8
#     2   2   2   2   2   2   2   2
#     4  10  23  43  71 107 146 192 251 326 392 463
#     4  12  27  44  70 106 153 197 255 319 387 463
#     4  10  23  44  70 101 147 195 254 314 393 462
#     4  12  26  46  71 106 149 200 256 315 382 470
#     4  10  23  46  73 108 149 196 261 318 392 473
#     4  12  26  47  74 104 151 195 259 309 384 463
#     4  12  26  45  75 105 148 205 258 317 392 465
#     4  12  27  45  74 110 147 201 252 316 388 463
#
# _framework density 25.824297999999999
#
# number of rings (size 3 to 8) (size 9 to 14) (size 15 to 20)
#    0.000    0.750    3.750    2.625    3.500    2.500 
#    0.000    2.500    0.000    0.000    0.000    0.000 
#    0.000    0.000    0.000    0.000    0.000    0.000 
#
# Total GULP energy -89301.536022 kJ/mol
# GULP energy per Si atom -5581.346001 kJ/mol
# Density = 2.576552 g / cm^3
# Si number density = 25.824298 Si / 1000 Ang^3
#
#
#
# Elastic Constant Matrix: (Units=GPa)
#
#
# Indices 1 2 3 4 5 6 
#
# 1 204.1187 34.1867 41.2390 -17.1403 -7.0905 -5.5775
# 2 34.1867 82.6770 34.8366 -7.3007 -6.6259 -3.0308
# 3 41.2390 34.8366 132.4132 -9.1958 -7.6762 -4.9678
# 4 -17.1403 -7.3007 -9.1958 53.0387 -3.4025 -6.0977
# 5 -7.0905 -6.6259 -7.6762 -3.4025 57.1917 -16.5026
# 6 -5.5775 -3.0308 -4.9678 -6.0977 -16.5026 43.3203
#
#
#
# Elastic Compliance Matrix: (Units=1/GPa)
#
#
# Indices 1 2 3 4 5 6 
#
# 1 0.005577 -0.001600 -0.001130 0.001544 0.000726 0.000971
# 2 -0.001600 0.014305 -0.003058 0.001148 0.001451 0.001159
# 3 -0.001130 -0.003058 0.008886 0.000965 0.001107 0.001217
# 4 0.001544 0.001148 0.000965 0.020369 0.002927 0.004372
# 5 0.000726 0.001451 0.001107 0.002927 0.020535 0.008557
# 6 0.000971 0.001159 0.001217 0.004372 0.008557 0.027304
#
#
# Mechanical properties :
#
#
# Convention : Reuss Voigt Hill
#
# Bulk Modulus (GPa) = 58.16700 71.08152 64.62426
# Shear Modulus (GPa) = 43.75112 51.30658 47.52885
#
# Velocity S-wave (km/s) = 4.12051 4.46214 4.29472
# Velocity P-wave (km/s) = 6.72393 7.35747 7.04782
#
# Compressibility (1/GPa) = 0.01719188
#
# Stress axis : x y z
#
# Youngs Moduli (GPa) = 179.31465 69.90351 112.54252
#
# Poissons Ratio (x) = 0.11182 0.12720
# Poissons Ratio (y) = 0.28683 0.34417
# Poissons Ratio (z) = 0.20267 0.21377
#
# Static dielectric constant tensor:
#      x y z
#    x 2.508570 0.399870 0.291410 
#    y 0.399870 2.483550 0.377500 
#    z 0.291410 0.377500 2.263140 
# 
# From -- ./inp_files/585919.got.cif
#   From: 2010.05.17/outbox.cif.g08.bks.cpg/sg2_293_cif.got.tgz:585919.got - 2010.06.03 11:33:40.
