data_PCOD9041842
_publ_section_title
;
Structure prediction by ZEFSAII (Michael W. Deem and Ramdas Pophale) SiO2 
 PCOD9041842
Probable space group: P -1
;
_chemical_formula_sum "Si O2"
_cell_formula_units_Z 16
_cell_length_a 8.421876
_cell_length_b 8.246271
_cell_length_c 15.081403
_cell_angle_alpha 53.881737
_cell_angle_beta 119.776622
_cell_angle_gamma 89.865876
_cell_volume 666.173318
_symmetry_space_group_name_H-M "P -1"
_symmetry_group_IT_number 2
_symmetry_cell_setting 'triclinic'
loop_
_space_group_symop_operation_xyz
x,y,z
-x,-y,-z
loop_
_atom_site_type_symbol
_atom_site_label
_atom_site_fract_x
_atom_site_fract_y
_atom_site_fract_z
Si Si1 0.234220 0.464569 0.200113
Si Si2 0.665044 0.032763 0.659824
Si Si3 0.667869 0.809725 0.052494
Si Si4 0.777888 0.904620 0.424577
Si Si5 0.157458 0.689041 0.481588
Si Si6 0.638098 0.422208 0.249806
Si Si7 0.899446 0.473696 0.669482
Si Si8 0.121837 0.096457 0.065221
O O1 0.267938 0.214359 0.277558
O O2 0.405391 0.496249 0.183459
O O3 0.243104 0.511308 0.292208
O O4 0.021635 0.644107 0.048778
O O5 0.440662 0.102211 0.615994
O O6 0.810597 0.023489 0.784617
O O7 0.712585 0.172122 0.551615
O O8 0.643759 0.581155 0.121817
O O9 0.888302 0.726455 0.184982
O O10 0.684082 0.907964 0.930810
O O11 0.500000 0.000000 0.000000
O O12 0.735914 0.158255 0.347647
O O13 0.909178 0.713204 0.593185
O O14 0.924520 0.830421 0.402412
O O15 0.265854 0.538330 0.644557
O O16 0.163379 0.558026 0.436050
O O17 0.000000 0.000000 0.000000
#
# Coordination Sequence:
#
# PCOD9041842 Si02
#       8
#     2   2   2   2   2   2   2   2
#     4  10  23  44  67  97 139 181 237 276 344 416
#     4  11  25  44  71 102 138 185 225 290 345 409
#     4  11  25  41  69  95 138 181 225 283 340 407
#     4  11  25  44  68 106 143 176 235 283 347 421
#     4  12  25  41  72 103 141 182 225 291 345 414
#     4  11  24  44  70 104 136 185 225 286 353 405
#     4  11  24  43  66 103 137 181 229 282 349 407
#     4  11  24  45  68  96 136 185 231 282 337 415
#
# _framework density 24.017773999999999
#
# number of rings (size 3 to 8) (size 9 to 14) (size 15 to 20)
#    0.000    1.000    1.250    4.875    5.250    5.000 
#    0.000    1.250    0.000    0.000    0.000    0.000 
#    0.000    0.000    0.000    0.000    0.000    0.000 
#
# Total GULP energy -89417.255690 kJ/mol
# GULP energy per Si atom -5588.578481 kJ/mol
# Density = 2.396311 g / cm^3
# Si number density = 24.017774 Si / 1000 Ang^3
#
#
#
# Elastic Constant Matrix: (Units=GPa)
#
#
# Indices 1 2 3 4 5 6 
#
# 1 135.1131 33.6587 22.6761 -18.2393 -10.4662 -1.7013
# 2 33.6587 79.6325 9.3053 -10.4187 6.9265 -15.0205
# 3 22.6761 9.3053 63.1341 -15.4427 -9.4831 -17.6894
# 4 -18.2393 -10.4187 -15.4427 36.8513 -5.5632 3.5585
# 5 -10.4662 6.9265 -9.4831 -5.5632 44.9919 -9.4770
# 6 -1.7013 -15.0205 -17.6894 3.5585 -9.4770 30.5286
#
#
#
# Elastic Compliance Matrix: (Units=1/GPa)
#
#
# Indices 1 2 3 4 5 6 
#
# 1 0.009326 -0.003916 -0.002407 0.003061 0.002117 -0.002501
# 2 -0.003916 0.015922 0.001736 0.002362 -0.001012 0.008032
# 3 -0.002407 0.001736 0.024858 0.009468 0.009133 0.016856
# 4 0.003061 0.002362 0.009468 0.033935 0.007643 0.005236
# 5 0.002117 -0.001012 0.009133 0.007643 0.028452 0.012854
# 6 -0.002501 0.008032 0.016856 0.005236 0.012854 0.049715
#
#
# Mechanical properties :
#
#
# Convention : Reuss Voigt Hill
#
# Bulk Modulus (GPa) = 24.42987 45.46221 34.94604
# Shear Modulus (GPa) = 27.02303 36.62367 31.82335
#
# Velocity S-wave (km/s) = 3.35793 3.90918 3.64399
# Velocity P-wave (km/s) = 5.02274 6.27258 5.68213
#
# Compressibility (1/GPa) = 0.04093349
#
# Stress axis : x y z
#
# Youngs Moduli (GPa) = 107.22167 62.80506 40.22802
#
# Poissons Ratio (x) = 0.24596 0.09681
# Poissons Ratio (y) = 0.41991 -0.06984
# Poissons Ratio (z) = 0.25804 -0.10904
#
# Static dielectric constant tensor:
#      x y z
#    x 1.981130 0.053940 0.006040 
#    y 0.053940 1.946550 -0.011750 
#    z 0.006040 -0.011750 1.898230 
# 
# From -- ./inp_files/494428.got.cif
#   From: 2010.05.17/outbox.cif.g08.bks.cpg/sg2_248_cif.got.tgz:494428.got - 2010.06.03 11:33:40.
