data_PCOD9041355
_publ_section_title
;
Structure prediction by ZEFSAII (Michael W. Deem and Ramdas Pophale) SiO2 
 PCOD9041355
Probable space group: P -1
;
_chemical_formula_sum "Si O2"
_cell_formula_units_Z 14
_cell_length_a 5.131833
_cell_length_b 9.282844
_cell_length_c 15.529336
_cell_angle_alpha 55.201858
_cell_angle_beta 90.605022
_cell_angle_gamma 103.410685
_cell_volume 584.014064
_symmetry_space_group_name_H-M "P -1"
_symmetry_group_IT_number 2
_symmetry_cell_setting 'triclinic'
loop_
_space_group_symop_operation_xyz
x,y,z
-x,-y,-z
loop_
_atom_site_type_symbol
_atom_site_label
_atom_site_fract_x
_atom_site_fract_y
_atom_site_fract_z
Si Si1 0.131622 0.310753 0.374600
Si Si2 0.989948 0.923076 0.176511
Si Si3 0.074315 0.728894 0.016064
Si Si4 0.798373 0.932746 0.699110
Si Si5 0.599947 0.279893 0.817632
Si Si6 0.577061 0.176928 0.501063
Si Si7 0.353216 0.609947 0.898771
O O1 0.091414 0.155571 0.352738
O O2 0.287367 0.504704 0.270122
O O3 0.324580 0.260460 0.465649
O O4 0.844733 0.310222 0.413922
O O5 0.709165 0.793550 0.185947
O O6 0.226100 0.825648 0.201399
O O7 0.986805 0.987711 0.252829
O O8 0.046927 0.101957 0.055223
O O9 0.323346 0.762555 0.070559
O O10 0.850097 0.544751 0.106002
O O11 0.176207 0.694493 0.933474
O O12 0.565497 0.765108 0.795325
O O13 0.667760 0.093358 0.615374
O O14 0.500000 0.000000 0.500000
O O15 0.500000 0.500000 0.000000
#
# Coordination Sequence:
#
# PCOD9041355 Si02
#       7
#     2   2   2   2   2   2   2
#     4  11  25  47  73 105 134 181 240 287 349 411
#     4  12  27  46  67 106 143 188 232 276 352 420
#     4  11  26  42  69 101 147 185 233 282 345 419
#     4  11  24  45  76 101 143 178 233 295 347 409
#     4  12  28  46  71  99 146 191 229 283 347 413
#     4  10  23  43  73 108 134 174 233 297 351 404
#     4  11  23  42  69 112 135 177 237 294 343 402
#
# _framework density 23.972024000000001
#
# number of rings (size 3 to 8) (size 9 to 14) (size 15 to 20)
#    0.000    0.857    1.429    5.143   10.000    4.571 
#    0.000    4.286    0.000    0.000    0.000    0.000 
#    0.000    0.000    0.000    0.000    0.000    0.000 
#
# Total GULP energy -78461.103344 kJ/mol
# GULP energy per Si atom -5604.364525 kJ/mol
# Density = 2.391746 g / cm^3
# Si number density = 23.972024 Si / 1000 Ang^3
#
#
#
# Elastic Constant Matrix: (Units=GPa)
#
#
# Indices 1 2 3 4 5 6 
#
# 1 47.9667 14.0772 3.7044 8.2471 -10.0760 6.6932
# 2 14.0772 89.5991 29.7452 7.1881 4.5815 13.9727
# 3 3.7044 29.7452 86.9050 5.8102 13.2017 12.4693
# 4 8.2471 7.1881 5.8102 23.7088 4.8059 10.0694
# 5 -10.0760 4.5815 13.2017 4.8059 42.1627 -6.8141
# 6 6.6932 13.9727 12.4693 10.0694 -6.8141 45.9054
#
#
#
# Elastic Compliance Matrix: (Units=1/GPa)
#
#
# Indices 1 2 3 4 5 6 
#
# 1 0.025058 -0.003526 -0.000517 -0.009416 0.007732 0.000773
# 2 -0.003526 0.013520 -0.003835 -0.000497 -0.001486 -0.002671
# 3 -0.000517 -0.003835 0.014007 0.000260 -0.004657 -0.003310
# 4 -0.009416 -0.000497 0.000260 0.052508 -0.010132 -0.011568
# 5 0.007732 -0.001486 -0.004657 -0.010132 0.029502 0.007192
# 6 0.000773 -0.002671 -0.003310 -0.011568 0.007192 0.026988
#
#
# Mechanical properties :
#
#
# Convention : Reuss Voigt Hill
#
# Bulk Modulus (GPa) = 27.15299 35.50270 31.32785
# Shear Modulus (GPa) = 26.36917 34.15164 30.26041
#
# Velocity S-wave (km/s) = 3.32022 3.77854 3.55677
# Velocity P-wave (km/s) = 5.10392 5.82054 5.47397
#
# Compressibility (1/GPa) = 0.03682836
#
# Stress axis : x y z
#
# Youngs Moduli (GPa) = 39.90796 73.96258 71.39504
#
# Poissons Ratio (x) = 0.26077 0.03693
# Poissons Ratio (y) = 0.14070 0.27381
# Poissons Ratio (z) = 0.02064 0.28366
#
# Static dielectric constant tensor:
#      x y z
#    x 1.929740 -0.015860 0.017220 
#    y -0.015860 1.927710 0.010190 
#    z 0.017220 0.010190 1.928690 
# 
# From -- ./inp_files/480224.got.cif
#   From: 2010.05.17/outbox.cif.g08.bks.cpg/sg2_241_cif.got.tgz:480224.got - 2010.06.03 11:33:40.
