data_PCOD9041325
_publ_section_title
;
Structure prediction by ZEFSAII (Michael W. Deem and Ramdas Pophale) SiO2 
 PCOD9041325
Probable space group: P -1
;
_chemical_formula_sum "Si O2"
_cell_formula_units_Z 8
_cell_length_a 8.834721
_cell_length_b 17.559123
_cell_length_c 5.222853
_cell_angle_alpha 109.843790
_cell_angle_beta 95.366931
_cell_angle_gamma 30.555272
_cell_volume 352.370004
_symmetry_space_group_name_H-M "P -1"
_symmetry_group_IT_number 2
_symmetry_cell_setting 'triclinic'
loop_
_space_group_symop_operation_xyz
x,y,z
-x,-y,-z
loop_
_atom_site_type_symbol
_atom_site_label
_atom_site_fract_x
_atom_site_fract_y
_atom_site_fract_z
Si Si1 0.276120 0.602673 0.335256
Si Si2 0.186564 0.335234 0.735872
Si Si3 0.275383 0.028492 0.483808
Si Si4 0.820065 0.051082 0.273651
O O1 0.500000 0.500000 0.500000
O O2 0.055696 0.624429 0.324394
O O3 0.042690 0.792225 0.508777
O O4 0.500000 0.500000 0.000000
O O5 0.431672 0.251036 0.455086
O O6 0.463439 0.164319 0.773570
O O7 0.000000 0.500000 0.000000
O O8 0.500000 0.000000 0.500000
O O9 0.168665 0.049978 0.776391
O O10 0.000000 0.000000 0.500000
O O11 0.000000 0.000000 0.000000
#
# Coordination Sequence:
#
# PCOD9041325 Si02
#       4
#     2   2   2   2
#     4  11  25  46  73 106 143 192 245 299 363 435
#     4   9  22  47  73 109 146 187 244 302 362 431
#     4   8  20  46  70 104 143 195 239 301 357 434
#     4  10  23  43  73 102 144 189 240 294 368 428
#
# _framework density 22.703408
#
# number of rings (size 3 to 8) (size 9 to 14) (size 15 to 20)
#    1.500    1.000    0.000    0.000    3.500    4.000 
#    0.000    8.750    0.000    0.000    0.000    0.000 
#    0.000    0.000    0.000    0.000    0.000    0.000 
#
# Total GULP energy -44543.797664 kJ/mol
# GULP energy per Si atom -5567.974708 kJ/mol
# Density = 2.265173 g / cm^3
# Si number density = 22.703408 Si / 1000 Ang^3
#
#
#
# Elastic Constant Matrix: (Units=GPa)
#
#
# Indices 1 2 3 4 5 6 
#
# 1 171.0775 65.8139 92.9266 10.7546 -42.0843 -9.1402
# 2 65.8139 214.3813 94.7390 22.5862 4.8179 12.1446
# 3 92.9266 94.7390 170.6679 -0.6327 -34.4384 -2.9248
# 4 10.7546 22.5862 -0.6327 33.3302 8.5763 5.6093
# 5 -42.0843 4.8179 -34.4384 8.5763 46.9291 11.9066
# 6 -9.1402 12.1446 -2.9248 5.6093 11.9066 51.3624
#
#
#
# Elastic Compliance Matrix: (Units=1/GPa)
#
#
# Indices 1 2 3 4 5 6 
#
# 1 0.010435 -0.001480 -0.003305 -0.004538 0.007731 0.000722
# 2 -0.001480 0.007521 -0.004284 -0.003421 -0.004390 -0.000894
# 3 -0.003305 -0.004284 0.011088 0.002921 0.005198 -0.000468
# 4 -0.004538 -0.003421 0.002921 0.036152 -0.007674 -0.002002
# 5 0.007731 -0.004390 0.005198 -0.007674 0.035071 -0.004582
# 6 0.000722 -0.000894 -0.000468 -0.002002 -0.004582 0.021064
#
#
# Mechanical properties :
#
#
# Convention : Reuss Voigt Hill
#
# Bulk Modulus (GPa) = 91.66922 118.12061 104.89491
# Shear Modulus (GPa) = 34.93937 46.50080 40.72009
#
# Velocity S-wave (km/s) = 3.92720 4.53060 4.23965
# Velocity P-wave (km/s) = 7.81207 8.91679 8.38264
#
# Compressibility (1/GPa) = 0.01090879
#
# Stress axis : x y z
#
# Youngs Moduli (GPa) = 95.82830 132.95224 90.18391
#
# Poissons Ratio (x) = 0.19671 0.29807
# Poissons Ratio (y) = 0.14178 0.38631
# Poissons Ratio (z) = 0.31673 0.56951
#
# Static dielectric constant tensor:
#      x y z
#    x 1.946630 0.023070 0.024570 
#    y 0.023070 1.869090 0.001800 
#    z 0.024570 0.001800 1.920840 
# 
# From -- ./inp_files/26044.got.cif
#   From: 2010.05.17/outbox.cif.g08.bks.cpg/sg2_14_cif.got.tgz:26044.got - 2010.06.03 11:33:40.
