data_PCOD9041068
_publ_section_title
;
Structure prediction by ZEFSAII (Michael W. Deem and Ramdas Pophale) SiO2 
 PCOD9041068
Probable space group: P -1
;
_chemical_formula_sum "Si O2"
_cell_formula_units_Z 15
_cell_length_a 12.112763
_cell_length_b 10.794206
_cell_length_c 7.254029
_cell_angle_alpha 60.279004
_cell_angle_beta 51.491178
_cell_angle_gamma 52.201001
_cell_volume 576.355081
_symmetry_space_group_name_H-M "P -1"
_symmetry_group_IT_number 2
_symmetry_cell_setting 'triclinic'
loop_
_space_group_symop_operation_xyz
x,y,z
-x,-y,-z
loop_
_atom_site_type_symbol
_atom_site_label
_atom_site_fract_x
_atom_site_fract_y
_atom_site_fract_z
Si Si1 0.249605 0.611185 0.034472
Si Si2 0.773889 0.710199 0.713838
Si Si3 0.500000 0.000000 0.000000
Si Si4 0.729128 0.723073 0.310983
Si Si5 0.257988 0.980026 0.022959
Si Si6 0.122243 0.637475 0.541407
Si Si7 0.921077 0.130442 0.250160
Si Si8 0.619125 0.174590 0.379818
O O1 0.251964 0.445805 0.099045
O O2 0.234619 0.624401 0.260633
O O3 0.611740 0.349183 0.218013
O O4 0.098975 0.758379 0.990422
O O5 0.744444 0.732318 0.507999
O O6 0.951961 0.674287 0.606237
O O7 0.650114 0.862317 0.835615
O O8 0.615209 0.078247 0.908216
O O9 0.800274 0.828729 0.065836
O O10 0.808009 0.539728 0.313352
O O11 0.543183 0.812002 0.380659
O O12 0.347296 0.908110 0.792839
O O13 0.089758 0.980303 0.200873
O O14 0.115746 0.757273 0.618016
O O15 0.779249 0.085012 0.393616
#
# Coordination Sequence:
#
# PCOD9041068 Si02
#       8
#     2   2   1   2   2   2   2   2
#     4   9  23  43  67  98 134 173 214 282 326 390
#     4  11  22  43  65 102 128 170 228 270 330 388
#     4  12  26  38  68 100 128 174 220 276 324 394
#     4  11  24  42  73  92 132 177 221 280 325 391
#     4  12  23  46  64  97 134 175 224 273 328 398
#     4  11  22  42  71 102 127 173 230 270 329 398
#     4  10  23  43  70  97 132 176 219 272 338 392
#     4  10  24  44  63 100 133 181 212 274 343 384
#
# _framework density 26.025621999999998
#
# number of rings (size 3 to 8) (size 9 to 14) (size 15 to 20)
#    0.800    0.533    2.667    4.000    1.867    3.733 
#    2.400    0.667    0.000    0.000    0.000    0.000 
#    0.000    0.000    0.000    0.000    0.000    0.000 
#
# Total GULP energy -83814.476028 kJ/mol
# GULP energy per Si atom -5587.631735 kJ/mol
# Density = 2.596639 g / cm^3
# Si number density = 26.025622 Si / 1000 Ang^3
#
#
#
# Elastic Constant Matrix: (Units=GPa)
#
#
# Indices 1 2 3 4 5 6 
#
# 1 152.7700 12.2290 10.0035 13.9819 9.2811 -25.7729
# 2 12.2290 72.4007 5.4000 3.0354 2.9331 -9.1716
# 3 10.0035 5.4000 57.2826 1.7376 1.0314 8.8419
# 4 13.9819 3.0354 1.7376 42.5818 2.9624 -7.5989
# 5 9.2811 2.9331 1.0314 2.9624 39.4643 11.6097
# 6 -25.7729 -9.1716 8.8419 -7.5989 11.6097 39.9931
#
#
#
# Elastic Compliance Matrix: (Units=1/GPa)
#
#
# Indices 1 2 3 4 5 6 
#
# 1 0.008151 -0.000172 -0.002322 -0.001138 -0.003695 0.006583
# 2 -0.000172 0.014631 -0.001980 0.000029 -0.002277 0.004348
# 3 -0.002322 -0.001980 0.019147 -0.001316 0.002388 -0.007127
# 4 -0.001138 0.000029 -0.001316 0.025060 -0.003120 0.005232
# 5 -0.003695 -0.002277 0.002388 -0.003120 0.030323 -0.012826
# 6 0.006583 0.004348 -0.007127 0.005232 -0.012826 0.036537
#
#
# Mechanical properties :
#
#
# Convention : Reuss Voigt Hill
#
# Bulk Modulus (GPa) = 30.32274 37.52424 33.92349
# Shear Modulus (GPa) = 32.51190 41.39589 36.95390
#
# Velocity S-wave (km/s) = 3.53827 3.99254 3.77225
# Velocity P-wave (km/s) = 5.32625 5.97522 5.66004
#
# Compressibility (1/GPa) = 0.03297855
#
# Stress axis : x y z
#
# Youngs Moduli (GPa) = 122.68780 68.34951 52.22878
#
# Poissons Ratio (x) = 0.01177 0.12129
# Poissons Ratio (y) = 0.02113 0.10343
# Poissons Ratio (z) = 0.28491 0.13535
#
# Static dielectric constant tensor:
#      x y z
#    x 2.060070 0.039300 -0.041910 
#    y 0.039300 1.914110 0.037290 
#    z -0.041910 0.037290 1.902100 
# 
# From -- ./inp_files/248204.got.cif
#   From: 2010.05.17/outbox.cif.g08.bks.cpg/sg2_125_cif.got.tgz:248204.got - 2010.06.03 11:33:40.
