data_PCOD9041159
_publ_section_title
;
Structure prediction by ZEFSAII (Michael W. Deem and Ramdas Pophale) SiO2 
 PCOD9041159
Probable space group: P -1
;
_chemical_formula_sum "Si O2"
_cell_formula_units_Z 12
_cell_length_a 8.148295
_cell_length_b 11.743942
_cell_length_c 16.045411
_cell_angle_alpha 30.481074
_cell_angle_beta 46.787064
_cell_angle_gamma 39.398958
_cell_volume 493.512096
_symmetry_space_group_name_H-M "P -1"
_symmetry_group_IT_number 2
_symmetry_cell_setting 'triclinic'
loop_
_space_group_symop_operation_xyz
x,y,z
-x,-y,-z
loop_
_atom_site_type_symbol
_atom_site_label
_atom_site_fract_x
_atom_site_fract_y
_atom_site_fract_z
Si Si1 0.950832 0.760796 0.660872
Si Si2 0.258396 0.713112 0.895535
Si Si3 0.182575 0.029145 0.987823
Si Si4 0.724192 0.576763 0.380887
Si Si5 0.388869 0.538732 0.776459
Si Si6 0.609450 0.857527 0.408879
O O1 0.026180 0.638286 0.619752
O O2 0.162566 0.575454 0.769871
O O3 0.647668 0.899430 0.695724
O O4 0.000000 0.000000 0.500000
O O5 0.282160 0.595013 0.871332
O O6 0.008722 0.786263 0.991567
O O7 0.244842 0.990477 0.710668
O O8 0.500000 0.500000 0.000000
O O9 0.376617 0.748856 0.130603
O O10 0.335729 0.161152 0.811004
O O11 0.000000 0.000000 0.000000
O O12 0.500000 0.500000 0.500000
O O13 0.755035 0.639146 0.425959
O O14 0.501707 0.731004 0.592537
#
# Coordination Sequence:
#
# PCOD9041159 Si02
#       6
#     2   2   2   2   2   2
#     4  10  23  43  71 104 142 180 233 292 351 421
#     4  12  24  46  73 102 148 191 233 297 354 423
#     4  12  26  46  70 103 145 188 236 295 355 417
#     4  12  23  46  75  99 143 189 236 289 362 416
#     4  11  25  44  70 112 139 188 241 288 361 422
#     4  11  24  45  74 106 143 187 239 291 354 428
#
# _framework density 24.315512999999999
#
# number of rings (size 3 to 8) (size 9 to 14) (size 15 to 20)
#    0.000    0.667    6.667    1.500    0.000    5.333 
#    0.000    5.833    0.000    0.000    0.000    0.000 
#    0.000    0.000    0.000    0.000    0.000    0.000 
#
# Total GULP energy -67159.517214 kJ/mol
# GULP energy per Si atom -5596.626434 kJ/mol
# Density = 2.426017 g / cm^3
# Si number density = 24.315513 Si / 1000 Ang^3
#
#
#
# Elastic Constant Matrix: (Units=GPa)
#
#
# Indices 1 2 3 4 5 6 
#
# 1 66.6395 38.9372 40.6329 -6.0595 1.6744 4.9078
# 2 38.9372 171.9787 30.3484 8.3470 22.9449 22.8413
# 3 40.6329 30.3484 143.1746 0.1644 -18.8065 -11.9258
# 4 -6.0595 8.3470 0.1644 47.3111 0.6950 7.6984
# 5 1.6744 22.9449 -18.8065 0.6950 51.2728 -3.2743
# 6 4.9078 22.8413 -11.9258 7.6984 -3.2743 31.6424
#
#
#
# Elastic Compliance Matrix: (Units=1/GPa)
#
#
# Indices 1 2 3 4 5 6 
#
# 1 0.021209 -0.003103 -0.005980 0.004040 -0.001838 -0.004477
# 2 -0.003103 0.008479 -0.002123 -0.000712 -0.004895 -0.006773
# 3 -0.005980 -0.002123 0.010469 -0.001711 0.005480 0.007389
# 4 0.004040 -0.000712 -0.001711 0.022850 -0.001162 -0.006437
# 5 -0.001838 -0.004895 0.005480 -0.001162 0.024334 0.008684
# 6 -0.004477 -0.006773 0.007389 -0.006437 0.008684 0.042436
#
#
# Mechanical properties :
#
#
# Convention : Reuss Voigt Hill
#
# Bulk Modulus (GPa) = 56.35519 66.84774 61.60147
# Shear Modulus (GPa) = 31.62476 44.17023 37.89749
#
# Velocity S-wave (km/s) = 3.61030 4.26672 3.95216
# Velocity P-wave (km/s) = 6.37228 7.19894 6.79818
#
# Compressibility (1/GPa) = 0.01774459
#
# Stress axis : x y z
#
# Youngs Moduli (GPa) = 47.15029 117.94059 95.52013
#
# Poissons Ratio (x) = 0.36593 0.57125
# Poissons Ratio (y) = 0.14629 0.20278
# Poissons Ratio (z) = 0.28198 0.25038
#
# Static dielectric constant tensor:
#      x y z
#    x 1.882710 -0.025950 -0.011380 
#    y -0.025950 1.878710 -0.000860 
#    z -0.011380 -0.000860 2.031940 
# 
# From -- ./inp_files/239841.got.cif
#   From: 2010.05.17/outbox.cif.g08.bks.cpg/sg2_120_cif.got.tgz:239841.got - 2010.06.03 11:33:40.
