data_PCOD9041591
_publ_section_title
;
Structure prediction by ZEFSAII (Michael W. Deem and Ramdas Pophale) SiO2 
 PCOD9041591
Probable space group: P -1
;
_chemical_formula_sum "Si O2"
_cell_formula_units_Z 15
_cell_length_a 7.545007
_cell_length_b 11.599708
_cell_length_c 12.723850
_cell_angle_alpha 37.296440
_cell_angle_beta 104.557064
_cell_angle_gamma 84.446080
_cell_volume 563.347240
_symmetry_space_group_name_H-M "P -1"
_symmetry_group_IT_number 2
_symmetry_cell_setting 'triclinic'
loop_
_space_group_symop_operation_xyz
x,y,z
-x,-y,-z
loop_
_atom_site_type_symbol
_atom_site_label
_atom_site_fract_x
_atom_site_fract_y
_atom_site_fract_z
Si Si1 0.829391 0.434171 0.159844
Si Si2 0.531835 0.715912 0.489118
Si Si3 0.185830 0.870846 0.849778
Si Si4 0.465919 0.378558 0.206518
Si Si5 0.792131 0.862281 0.164855
Si Si6 0.828139 0.833114 0.955416
Si Si7 0.741059 0.500494 0.472701
Si Si8 0.000000 0.000000 0.500000
O O1 0.717048 0.283495 0.286841
O O2 0.684927 0.603225 0.924270
O O3 0.856695 0.589869 0.131423
O O4 0.033314 0.214345 0.309535
O O5 0.570212 0.694056 0.634382
O O6 0.720196 0.570230 0.542155
O O7 0.385563 0.612156 0.508865
O O8 0.399929 0.974048 0.257946
O O9 0.089059 0.009952 0.629343
O O10 0.009510 0.835344 0.909895
O O11 0.280225 0.956489 0.890146
O O12 0.384073 0.636731 0.017521
O O13 0.664241 0.733018 0.236680
O O14 0.019015 0.681976 0.377070
O O15 0.833764 0.908585 0.020298
#
# Coordination Sequence:
#
# PCOD9041591 Si02
#       8
#     2   2   2   2   2   2   2   1
#     4  10  24  45  67  96 124 173 211 272 314 389
#     4  11  23  41  62  97 131 176 206 273 310 386
#     4  11  24  43  67  95 130 174 210 276 310 384
#     4  10  23  44  65  90 132 168 219 257 327 376
#     4  11  24  42  63  99 128 174 213 267 317 389
#     4  12  25  40  68  98 132 164 220 262 326 373
#     4  10  24  40  63  92 134 173 215 254 330 371
#     4  10  24  46  68  90 126 170 216 258 326 376
#
# _framework density 26.626560999999999
#
# number of rings (size 3 to 8) (size 9 to 14) (size 15 to 20)
#    0.000    1.333    1.333    2.800    9.333    3.200 
#    2.400    0.000    0.000    0.000    0.000    0.000 
#    0.000    0.000    0.000    0.000    0.000    0.000 
#
# Total GULP energy -83703.242191 kJ/mol
# GULP energy per Si atom -5580.216146 kJ/mol
# Density = 2.656596 g / cm^3
# Si number density = 26.626561 Si / 1000 Ang^3
#
#
#
# Elastic Constant Matrix: (Units=GPa)
#
#
# Indices 1 2 3 4 5 6 
#
# 1 64.8103 25.5288 14.1782 14.1291 -6.2547 -0.5623
# 2 25.5288 149.2907 44.5216 12.5218 -2.1929 9.0160
# 3 14.1782 44.5216 81.0918 29.6875 7.9499 15.3843
# 4 14.1291 12.5218 29.6875 56.2772 -2.3996 -10.1435
# 5 -6.2547 -2.1929 7.9499 -2.3996 28.8953 9.8458
# 6 -0.5623 9.0160 15.3843 -10.1435 9.8458 26.2052
#
#
#
# Elastic Compliance Matrix: (Units=1/GPa)
#
#
# Indices 1 2 3 4 5 6 
#
# 1 0.017673 -0.002410 -0.000534 -0.003702 0.003959 -0.001398
# 2 -0.002410 0.008478 -0.004813 0.001280 0.001643 -0.000265
# 3 -0.000534 -0.004813 0.023894 -0.014588 -0.002434 -0.017115
# 4 -0.003702 0.001280 -0.014588 0.029654 -0.001010 0.019902
# 5 0.003959 0.001643 -0.002434 -0.001010 0.041268 -0.014947
# 6 -0.001398 -0.000265 -0.017115 0.019902 -0.014947 0.061589
#
#
# Mechanical properties :
#
#
# Convention : Reuss Voigt Hill
#
# Bulk Modulus (GPa) = 28.95911 51.51668 40.23789
# Shear Modulus (GPa) = 23.85721 36.33983 30.09852
#
# Velocity S-wave (km/s) = 2.99656 3.69832 3.36578
# Velocity P-wave (km/s) = 4.78248 6.13406 5.49994
#
# Compressibility (1/GPa) = 0.03453145
#
# Stress axis : x y z
#
# Youngs Moduli (GPa) = 56.58445 117.94591 41.85171
#
# Poissons Ratio (x) = 0.28419 0.02237
# Poissons Ratio (y) = 0.13634 0.20142
# Poissons Ratio (z) = 0.03024 0.56765
#
# Static dielectric constant tensor:
#      x y z
#    x 25.004940 -17.160800 26.572240 
#    y -17.160800 15.011690 -20.072670 
#    z 26.572240 -20.072670 33.129980 
# 
# From -- ./inp_files/175536.got.cif
#   From: 2010.05.17/outbox.cif.g08.bks.cpg/sg2_88_cif.got.tgz:175536.got - 2010.06.03 11:33:40.
