data_PCOD9041105
_publ_section_title
;
Structure prediction by ZEFSAII (Michael W. Deem and Ramdas Pophale) SiO2 
 PCOD9041105
Probable space group: P -1
;
_chemical_formula_sum "Si O2"
_cell_formula_units_Z 16
_cell_length_a 21.914513
_cell_length_b 12.325322
_cell_length_c 18.910935
_cell_angle_alpha 26.049829
_cell_angle_beta 18.021758
_cell_angle_gamma 25.560080
_cell_volume 649.617846
_symmetry_space_group_name_H-M "P -1"
_symmetry_group_IT_number 2
_symmetry_cell_setting 'triclinic'
loop_
_space_group_symop_operation_xyz
x,y,z
-x,-y,-z
loop_
_atom_site_type_symbol
_atom_site_label
_atom_site_fract_x
_atom_site_fract_y
_atom_site_fract_z
Si Si1 0.542451 0.150746 0.796042
Si Si2 0.331839 0.846787 0.036712
Si Si3 0.028863 0.015093 0.541643
Si Si4 0.228195 0.698549 0.830188
Si Si5 0.004341 0.399674 0.723640
Si Si6 0.592188 0.185922 0.564823
Si Si7 0.530070 0.985125 0.558213
Si Si8 0.259766 0.667579 0.081398
O O1 0.325705 0.391412 0.885092
O O2 0.612549 0.044749 0.701323
O O3 0.751635 0.212568 0.548971
O O4 0.500000 0.000000 0.000000
O O5 0.529331 0.593668 0.992684
O O6 0.171427 0.985971 0.193765
O O7 0.201749 0.736816 0.187370
O O8 0.436743 0.059872 0.771453
O O9 0.048868 0.295841 0.376022
O O10 0.000000 0.000000 0.500000
O O11 0.212137 0.848018 0.684643
O O12 0.417776 0.764103 0.620591
O O13 0.058267 0.731772 0.059666
O O14 0.251985 0.253367 0.524290
O O15 0.883045 0.367794 0.804671
O O16 0.500000 0.500000 0.500000
O O17 0.332199 0.912886 0.841432
O O18 0.500000 0.000000 0.500000
#
# Coordination Sequence:
#
# PCOD9041105 Si02
#       8
#     2   2   2   2   2   2   2   2
#     4  11  23  44  70 101 138 199 244 297 363 439
#     4  11  24  47  70 109 149 190 245 313 366 435
#     4  12  27  42  72 108 144 188 255 304 359 445
#     4  11  24  43  70 104 146 189 239 302 374 432
#     4  12  26  46  74 108 141 196 248 300 375 443
#     4  10  23  43  70  99 144 191 238 296 372 434
#     4  12  25  45  69 106 144 185 247 305 366 434
#     4  11  25  46  76 104 149 193 246 312 365 436
#
# _framework density 24.629864000000001
#
# number of rings (size 3 to 8) (size 9 to 14) (size 15 to 20)
#    0.000    0.750    5.000    1.875    5.250    1.500 
#    0.000    2.500    0.000    0.000    0.000    0.000 
#    0.000    0.000    0.000    0.000    0.000    0.000 
#
# Total GULP energy -89228.353265 kJ/mol
# GULP energy per Si atom -5576.772079 kJ/mol
# Density = 2.457381 g / cm^3
# Si number density = 24.629864 Si / 1000 Ang^3
#
#
#
# Elastic Constant Matrix: (Units=GPa)
#
#
# Indices 1 2 3 4 5 6 
#
# 1 172.9396 14.8593 23.4013 -0.2709 -3.5524 6.7281
# 2 14.8593 61.3042 5.1650 2.7909 -0.3931 5.1859
# 3 23.4013 5.1650 102.3858 -8.4180 16.1539 -0.0116
# 4 -0.2709 2.7909 -8.4180 37.8301 2.3385 -4.8082
# 5 -3.5524 -0.3931 16.1539 2.3385 52.3430 -1.1852
# 6 6.7281 5.1859 -0.0116 -4.8082 -1.1852 24.4860
#
#
#
# Elastic Compliance Matrix: (Units=1/GPa)
#
#
# Indices 1 2 3 4 5 6 
#
# 1 0.006168 -0.001215 -0.001522 -0.000447 0.000865 -0.001484
# 2 -0.001215 0.017071 -0.000788 -0.001925 0.000292 -0.003646
# 3 -0.001522 -0.000788 0.010955 0.002831 -0.003594 0.000972
# 4 -0.000447 -0.001925 0.002831 0.028085 -0.002038 0.005948
# 5 0.000865 0.000292 -0.003594 -0.002038 0.020372 0.000284
# 6 -0.001484 -0.003646 0.000972 0.005948 0.000284 0.043202
#
#
# Mechanical properties :
#
#
# Convention : Reuss Voigt Hill
#
# Bulk Modulus (GPa) = 36.84274 47.05343 41.94809
# Shear Modulus (GPa) = 35.22367 42.47874 38.85121
#
# Velocity S-wave (km/s) = 3.78580 4.15744 3.97596
# Velocity P-wave (km/s) = 5.83958 6.49549 6.17625
#
# Compressibility (1/GPa) = 0.02714239
#
# Stress axis : x y z
#
# Youngs Moduli (GPa) = 162.13984 58.57890 91.28662
#
# Poissons Ratio (x) = 0.07119 0.13892
# Poissons Ratio (y) = 0.19705 0.07195
# Poissons Ratio (z) = 0.24674 0.04617
#
# Static dielectric constant tensor:
#      x y z
#    x 2.160230 -0.031030 0.075580 
#    y -0.031030 2.066520 -0.041840 
#    z 0.075580 -0.041840 1.984430 
# 
# From -- ./inp_files/577891.got.cif
#   From: 2010.05.17/outbox.cif.g08.bks.cpg/sg2_289_cif.got.tgz:577891.got - 2010.06.03 11:33:40.
