data_PCOD9041307
_publ_section_title
;
Structure prediction by ZEFSAII (Michael W. Deem and Ramdas Pophale) SiO2 
 PCOD9041307
Probable space group: P -1
;
_chemical_formula_sum "Si O2"
_cell_formula_units_Z 16
_cell_length_a 16.955634
_cell_length_b 6.455500
_cell_length_c 8.928679
_cell_angle_alpha 78.783401
_cell_angle_beta 136.192581
_cell_angle_gamma 93.487398
_cell_volume 659.035664
_symmetry_space_group_name_H-M "P -1"
_symmetry_group_IT_number 2
_symmetry_cell_setting 'triclinic'
loop_
_space_group_symop_operation_xyz
x,y,z
-x,-y,-z
loop_
_atom_site_type_symbol
_atom_site_label
_atom_site_fract_x
_atom_site_fract_y
_atom_site_fract_z
Si Si1 0.133345 0.552279 0.697356
Si Si2 0.304085 0.851200 0.002600
Si Si3 0.245137 0.061613 0.430935
Si Si4 0.478830 0.430411 0.809546
Si Si5 0.080943 0.777595 0.143295
Si Si6 0.410939 0.856358 0.469510
Si Si7 0.882826 0.565748 0.995587
Si Si8 0.722500 0.745496 0.276158
O O1 0.208358 0.456448 0.675407
O O2 0.000000 0.500000 0.500000
O O3 0.183614 0.771808 0.788499
O O4 0.169417 0.418160 0.915530
O O5 0.408551 0.707480 0.082042
O O6 0.324361 0.833362 0.212745
O O7 0.318274 0.090314 0.933797
O O8 0.187052 0.261053 0.228595
O O9 0.206470 0.116819 0.537914
O O10 0.195897 0.839311 0.359594
O O11 0.367681 0.997107 0.534625
O O12 0.451707 0.624827 0.628444
O O13 0.369048 0.307795 0.715643
O O14 0.500000 0.500000 0.000000
O O15 0.104541 0.662430 0.034047
O O16 0.012394 0.624197 0.167852
O O17 0.000000 0.000000 0.000000
O O18 0.500000 0.000000 0.500000
#
# Coordination Sequence:
#
# PCOD9041307 Si02
#       8
#     2   2   2   2   2   2   2   2
#     4  12  30  46  74 108 157 208 259 311 384 448
#     4  12  27  51  77 111 161 198 255 320 384 457
#     4  11  25  42  74 105 146 192 248 309 379 448
#     4  12  25  49  82 110 154 198 251 316 388 460
#     4   9  21  41  70 101 135 189 249 309 367 436
#     4  12  27  47  81 118 151 194 252 315 395 461
#     4  10  23  43  72  99 148 192 255 307 370 439
#     4  12  28  48  76 111 153 202 257 315 383 458
#
# _framework density 24.277896999999999
#
# number of rings (size 3 to 8) (size 9 to 14) (size 15 to 20)
#    0.000    0.750    1.250    4.500   12.250    1.500 
#    0.000    0.000    0.000    0.000    0.000    0.000 
#    0.000    0.000    0.000    0.000    0.000    0.000 
#
# Total GULP energy -89234.218978 kJ/mol
# GULP energy per Si atom -5577.138686 kJ/mol
# Density = 2.422264 g / cm^3
# Si number density = 24.277897 Si / 1000 Ang^3
#
#
#
# Elastic Constant Matrix: (Units=GPa)
#
#
# Indices 1 2 3 4 5 6 
#
# 1 91.3144 30.7032 2.7334 0.0461 -9.0311 13.0059
# 2 30.7032 102.5229 33.6098 3.6952 -5.9264 -1.1000
# 3 2.7334 33.6098 74.7504 -17.4081 -25.1495 15.9777
# 4 0.0461 3.6952 -17.4081 44.3983 0.7113 -6.6715
# 5 -9.0311 -5.9264 -25.1495 0.7113 42.5995 2.8906
# 6 13.0059 -1.1000 15.9777 -6.6715 2.8906 46.7530
#
#
#
# Elastic Compliance Matrix: (Units=1/GPa)
#
#
# Indices 1 2 3 4 5 6 
#
# 1 0.014306 -0.006038 0.006029 0.001806 0.006150 -0.006305
# 2 -0.006038 0.014935 -0.010635 -0.004506 -0.005771 0.005379
# 3 0.006029 -0.010635 0.028492 0.010078 0.017217 -0.011291
# 4 0.001806 -0.004506 0.010078 0.026677 0.005299 -0.000573
# 5 0.006150 -0.005771 0.017217 0.005299 0.034670 -0.009118
# 6 -0.006305 0.005379 -0.011291 -0.000573 -0.009118 0.027610
#
#
# Mechanical properties :
#
#
# Convention : Reuss Voigt Hill
#
# Bulk Modulus (GPa) = 27.43846 44.74230 36.09038
# Shear Modulus (GPa) = 27.75803 40.18626 33.97214
#
# Velocity S-wave (km/s) = 3.38501 4.07290 3.74478
# Velocity P-wave (km/s) = 5.15791 6.37082 5.79618
#
# Compressibility (1/GPa) = 0.03644519
#
# Stress axis : x y z
#
# Youngs Moduli (GPa) = 69.89971 66.95584 35.09709
#
# Poissons Ratio (x) = 0.40428 -0.21160
# Poissons Ratio (y) = 0.42206 0.37326
# Poissons Ratio (z) = -0.42142 0.71209
#
# Static dielectric constant tensor:
#      x y z
#    x 2.096210 -0.137100 -0.238120 
#    y -0.137100 3.456660 1.888900 
#    z -0.238120 1.888900 4.330330 
# 
# From -- ./inp_files/323602.got.cif
#   From: 2010.05.17/outbox.cif.g08.bks.cpg/sg2_162_cif.got.tgz:323602.got - 2010.06.03 11:33:40.
