data_PCOD9041644
_publ_section_title
;
Structure prediction by ZEFSAII (Michael W. Deem and Ramdas Pophale) SiO2 
 PCOD9041644
Probable space group: P -1
;
_chemical_formula_sum "Si O2"
_cell_formula_units_Z 12
_cell_length_a 10.226906
_cell_length_b 13.562405
_cell_length_c 9.684738
_cell_angle_alpha 44.918158
_cell_angle_beta 28.792052
_cell_angle_gamma 45.110769
_cell_volume 442.266853
_symmetry_space_group_name_H-M "P -1"
_symmetry_group_IT_number 2
_symmetry_cell_setting 'triclinic'
loop_
_space_group_symop_operation_xyz
x,y,z
-x,-y,-z
loop_
_atom_site_type_symbol
_atom_site_label
_atom_site_fract_x
_atom_site_fract_y
_atom_site_fract_z
Si Si1 0.853445 0.296314 0.145160
Si Si2 0.417639 0.561526 0.361946
Si Si3 0.674037 0.139736 0.127881
Si Si4 0.691332 0.014070 0.526898
Si Si5 0.860381 0.726084 0.803011
Si Si6 0.080917 0.327204 0.608813
O O1 0.592653 0.436020 0.228438
O O2 0.712594 0.162550 0.427147
O O3 0.036929 0.298176 0.110414
O O4 0.044757 0.288917 0.840908
O O5 0.500000 0.500000 0.500000
O O6 0.559575 0.694851 0.090618
O O7 0.783978 0.038713 0.259777
O O8 0.381489 0.246929 0.348072
O O9 0.594497 0.035377 0.189834
O O10 0.860830 0.250099 0.816346
O O11 0.862439 0.882824 0.590497
O O12 0.084823 0.607420 0.625785
O O13 0.000000 0.500000 0.500000
#
# Coordination Sequence:
#
# PCOD9041644 Si02
#       6
#     2   2   2   2   2   2
#     4  10  23  45  73 104 142 179 236 286 345 413
#     4  10  23  44  66 101 144 180 226 285 346 407
#     4  10  25  47  68 101 140 186 229 288 345 404
#     4  10  24  46  72 101 143 183 232 282 349 418
#     4  11  24  44  71 106 136 186 226 288 349 410
#     4  11  25  46  73 102 138 183 237 287 340 413
#
# _framework density 27.132939
#
# number of rings (size 3 to 8) (size 9 to 14) (size 15 to 20)
#    0.000    1.667    0.000    3.000    2.333   18.000 
#    3.000    5.000    0.000    0.000    0.000    0.000 
#    0.000    0.000    0.000    0.000    0.000    0.000 
#
# Total GULP energy -67293.310209 kJ/mol
# GULP energy per Si atom -5607.775851 kJ/mol
# Density = 2.707118 g / cm^3
# Si number density = 27.132939 Si / 1000 Ang^3
#
#
#
# Elastic Constant Matrix: (Units=GPa)
#
#
# Indices 1 2 3 4 5 6 
#
# 1 110.0176 20.8862 41.3066 -2.4832 -0.7397 3.8638
# 2 20.8862 121.1205 59.5839 -33.3653 -3.0486 0.5467
# 3 41.3066 59.5839 157.0238 -26.9168 -6.4619 -4.1035
# 4 -2.4832 -33.3653 -26.9168 66.4130 -0.9139 1.7088
# 5 -0.7397 -3.0486 -6.4619 -0.9139 49.4606 -12.2114
# 6 3.8638 0.5467 -4.1035 1.7088 -12.2114 35.3427
#
#
#
# Elastic Compliance Matrix: (Units=1/GPa)
#
#
# Indices 1 2 3 4 5 6 
#
# 1 0.010260 -0.000758 -0.002659 -0.001043 -0.000653 -0.001594
# 2 -0.000758 0.011209 -0.003331 0.004271 0.000169 -0.000626
# 3 -0.002659 -0.003331 0.008732 0.001740 0.001358 0.001741
# 4 -0.001043 0.004271 0.001740 0.017889 0.000715 -0.000368
# 5 -0.000653 0.000169 0.001358 0.000715 0.022365 0.007919
# 6 -0.001594 -0.000626 0.001741 -0.000368 0.007919 0.031434
#
#
# Mechanical properties :
#
#
# Convention : Reuss Voigt Hill
#
# Bulk Modulus (GPa) = 59.86200 70.19056 65.02628
# Shear Modulus (GPa) = 41.33871 48.00227 44.67049
#
# Velocity S-wave (km/s) = 3.90752 4.21069 4.06193
# Velocity P-wave (km/s) = 6.51680 7.04025 6.78358
#
# Compressibility (1/GPa) = 0.01670509
#
# Stress axis : x y z
#
# Youngs Moduli (GPa) = 97.47019 89.21020 114.52749
#
# Poissons Ratio (x) = 0.06760 0.30448
# Poissons Ratio (y) = 0.07386 0.38153
# Poissons Ratio (z) = 0.25913 0.29719
#
# Static dielectric constant tensor:
#      x y z
#    x 2.175520 -0.049760 0.013100 
#    y -0.049760 2.205210 0.019330 
#    z 0.013100 0.019330 2.078730 
# 
# From -- ./inp_files/365012.got.cif
#   From: 2010.05.17/outbox.cif.g08.bks.cpg/sg2_183_cif.got.tgz:365012.got - 2010.06.03 11:33:40.
