data_PCOD9041173
_publ_section_title
;
Structure prediction by ZEFSAII (Michael W. Deem and Ramdas Pophale) SiO2 
 PCOD9041173
Probable space group: P -1
;
_chemical_formula_sum "Si O2"
_cell_formula_units_Z 14
_cell_length_a 7.838011
_cell_length_b 12.430924
_cell_length_c 18.098438
_cell_angle_alpha 28.988244
_cell_angle_beta 48.513159
_cell_angle_gamma 39.228940
_cell_volume 539.805027
_symmetry_space_group_name_H-M "P -1"
_symmetry_group_IT_number 2
_symmetry_cell_setting 'triclinic'
loop_
_space_group_symop_operation_xyz
x,y,z
-x,-y,-z
loop_
_atom_site_type_symbol
_atom_site_label
_atom_site_fract_x
_atom_site_fract_y
_atom_site_fract_z
Si Si1 0.309996 0.301768 0.218485
Si Si2 0.474407 0.066591 0.881682
Si Si3 0.205243 0.196452 0.674959
Si Si4 0.834202 0.495146 0.118774
Si Si5 0.185106 0.685937 0.414940
Si Si6 0.086094 0.703003 0.157402
Si Si7 0.877729 0.991349 0.461690
O O1 0.315700 0.101296 0.398891
O O2 0.037560 0.445619 0.159364
O O3 0.306449 0.513553 0.147555
O O4 0.557007 0.111098 0.207483
O O5 0.665934 0.169874 0.741991
O O6 0.182991 0.277251 0.809244
O O7 0.564315 0.772387 0.010535
O O8 0.500000 0.000000 0.000000
O O9 0.336152 0.370918 0.548063
O O10 0.949683 0.324624 0.728272
O O11 0.071915 0.222349 0.618669
O O12 0.770594 0.270445 0.285414
O O13 0.000000 0.500000 0.000000
O O14 0.086591 0.781834 0.468445
O O15 0.000000 0.000000 0.000000
O O16 0.000000 0.000000 0.500000
#
# Coordination Sequence:
#
# PCOD9041173 Si02
#       7
#     2   2   2   2   2   2   2
#     4  11  25  47  70 105 147 195 245 300 375 434
#     4  12  25  43  72 103 147 191 245 309 362 438
#     4  11  27  47  75 106 151 196 242 311 368 438
#     4  11  22  41  67 107 138 187 248 298 365 431
#     4  11  25  49  72 108 149 195 254 299 370 448
#     4  12  27  48  72 109 148 190 247 307 379 441
#     4  10  23  43  71 106 146 186 252 305 356 445
#
# _framework density 25.935288
#
# number of rings (size 3 to 8) (size 9 to 14) (size 15 to 20)
#    0.000    0.857    4.286    1.714    4.000    4.000 
#    0.000    0.000    0.000    0.000    0.000    0.000 
#    0.000    0.000    0.000    0.000    0.000    0.000 
#
# Total GULP energy -78078.032240 kJ/mol
# GULP energy per Si atom -5577.002303 kJ/mol
# Density = 2.587626 g / cm^3
# Si number density = 25.935288 Si / 1000 Ang^3
#
#
#
# Elastic Constant Matrix: (Units=GPa)
#
#
# Indices 1 2 3 4 5 6 
#
# 1 90.5043 39.7936 19.6778 1.3868 13.5894 25.1796
# 2 39.7936 123.1403 47.6270 -15.7478 5.9009 33.0023
# 3 19.6778 47.6270 175.8693 11.3855 -19.3536 27.3408
# 4 1.3868 -15.7478 11.3855 51.7939 9.8446 -0.4886
# 5 13.5894 5.9009 -19.3536 9.8446 35.2748 -4.6647
# 6 25.1796 33.0023 27.3408 -0.4886 -4.6647 35.0141
#
#
#
# Elastic Compliance Matrix: (Units=1/GPa)
#
#
# Indices 1 2 3 4 5 6 
#
# 1 0.015986 -0.001690 -0.000593 0.000561 -0.007741 -0.010464
# 2 -0.001690 0.013553 -0.003001 0.005916 -0.006232 -0.009964
# 3 -0.000593 -0.003001 0.007764 -0.003716 0.005750 -0.002093
# 4 0.000561 0.005916 -0.003716 0.023855 -0.010449 -0.004137
# 5 -0.007741 -0.006232 0.005750 -0.010449 0.040050 0.012140
# 6 -0.010464 -0.009964 -0.002093 -0.004137 0.012140 0.048671
#
#
# Mechanical properties :
#
#
# Convention : Reuss Voigt Hill
#
# Bulk Modulus (GPa) = 37.40191 67.07898 52.24045
# Shear Modulus (GPa) = 29.52338 43.24424 36.38381
#
# Velocity S-wave (km/s) = 3.37760 4.08780 3.74955
# Velocity P-wave (km/s) = 5.44642 6.94264 6.23954
#
# Compressibility (1/GPa) = 0.02673660
#
# Stress axis : x y z
#
# Youngs Moduli (GPa) = 62.55451 73.78429 128.80205
#
# Poissons Ratio (x) = 0.12466 0.07632
# Poissons Ratio (y) = 0.10569 0.38654
# Poissons Ratio (z) = 0.03707 0.22143
#
# Static dielectric constant tensor:
#      x y z
#    x 2.084740 0.033930 0.002650 
#    y 0.033930 1.994460 0.143270 
#    z 0.002650 0.143270 1.790370 
# 
# From -- ./inp_files/559486.got.cif
#   From: 2010.05.17/outbox.cif.g08.bks.cpg/sg2_280_cif.got.tgz:559486.got - 2010.06.03 11:33:40.
