data_PCOD9041739
_publ_section_title
;
Structure prediction by ZEFSAII (Michael W. Deem and Ramdas Pophale) SiO2 
 PCOD9041739
Probable space group: P -1
;
_chemical_formula_sum "Si O2"
_cell_formula_units_Z 12
_cell_length_a 13.575106
_cell_length_b 10.474875
_cell_length_c 4.997422
_cell_angle_alpha 120.127115
_cell_angle_beta 87.906876
_cell_angle_gamma 57.962452
_cell_volume 474.516805
_symmetry_space_group_name_H-M "P -1"
_symmetry_group_IT_number 2
_symmetry_cell_setting 'triclinic'
loop_
_space_group_symop_operation_xyz
x,y,z
-x,-y,-z
loop_
_atom_site_type_symbol
_atom_site_label
_atom_site_fract_x
_atom_site_fract_y
_atom_site_fract_z
Si Si1 0.722752 0.361240 0.515567
Si Si2 0.069520 0.280955 0.191960
Si Si3 0.407022 0.069427 0.336321
Si Si4 0.677748 0.072505 0.162174
Si Si5 0.389350 0.395575 0.732761
Si Si6 0.980225 0.187507 0.596444
O O1 0.740045 0.170512 0.315154
O O2 0.685631 0.435413 0.296173
O O3 0.845553 0.317098 0.591982
O O4 0.613471 0.528362 0.896815
O O5 0.000000 0.500000 0.500000
O O6 0.067500 0.175973 0.343012
O O7 0.997354 0.272293 0.944228
O O8 0.221479 0.144169 0.961213
O O9 0.323892 0.295899 0.608728
O O10 0.500000 0.000000 0.500000
O O11 0.500000 0.000000 0.000000
O O12 0.344518 0.971616 0.181336
O O13 0.535966 0.235851 0.462709
O O14 0.000000 0.000000 0.500000
#
# Coordination Sequence:
#
# PCOD9041739 Si02
#       6
#     2   2   2   2   2   2
#     4  12  26  44  76 106 151 189 245 304 366 454
#     4  12  29  51  78 111 146 200 255 315 364 448
#     4  10  23  44  66  99 142 188 233 291 361 431
#     4  11  26  46  75 106 151 184 251 300 376 435
#     4  11  25  46  71 111 143 196 238 303 378 438
#     4  12  27  52  77 108 152 200 254 307 379 429
#
# _framework density 25.288879999999999
#
# number of rings (size 3 to 8) (size 9 to 14) (size 15 to 20)
#    0.000    0.667    1.667    5.000    7.000    6.667 
#    0.000    0.000    0.000    0.000    0.000    0.000 
#    0.000    0.000    0.000    0.000    0.000    0.000 
#
# Total GULP energy -67069.225232 kJ/mol
# GULP energy per Si atom -5589.102103 kJ/mol
# Density = 2.523132 g / cm^3
# Si number density = 25.288880 Si / 1000 Ang^3
#
#
#
# Elastic Constant Matrix: (Units=GPa)
#
#
# Indices 1 2 3 4 5 6 
#
# 1 71.6418 25.2142 45.5482 -0.0193 12.0824 -27.8254
# 2 25.2142 56.8979 1.9274 -2.7774 -6.2998 -12.3186
# 3 45.5482 1.9274 166.8714 1.0654 37.3634 6.5468
# 4 -0.0193 -2.7774 1.0654 60.4213 -3.6211 -4.9282
# 5 12.0824 -6.2998 37.3634 -3.6211 44.6919 -5.8905
# 6 -27.8254 -12.3186 6.5468 -4.9282 -5.8905 42.5603
#
#
#
# Elastic Compliance Matrix: (Units=1/GPa)
#
#
# Indices 1 2 3 4 5 6 
#
# 1 0.029816 -0.008737 -0.008942 0.001327 0.000742 0.018596
# 2 -0.008737 0.022366 0.000928 0.001433 0.005050 0.001483
# 3 -0.008942 0.000928 0.010404 -0.001265 -0.007352 -0.008342
# 4 0.001327 0.001433 -0.001265 0.017120 0.002794 0.003846
# 5 0.000742 0.005050 -0.007352 0.002794 0.030260 0.007589
# 6 0.018596 0.001483 -0.008342 0.003846 0.007589 0.038862
#
#
# Mechanical properties :
#
#
# Convention : Reuss Voigt Hill
#
# Bulk Modulus (GPa) = 34.38141 48.97676 41.67908
# Shear Modulus (GPa) = 26.03837 44.38279 35.21058
#
# Velocity S-wave (km/s) = 3.21228 4.19385 3.73545
# Velocity P-wave (km/s) = 5.23290 6.54677 5.92636
#
# Compressibility (1/GPa) = 0.02908549
#
# Stress axis : x y z
#
# Youngs Moduli (GPa) = 33.53865 44.71074 96.11717
#
# Poissons Ratio (x) = 0.39064 0.85945
# Poissons Ratio (y) = 0.29303 -0.08923
# Poissons Ratio (z) = 0.29989 -0.04151
#
# Static dielectric constant tensor:
#      x y z
#    x 2.211080 0.061500 -0.079360 
#    y 0.061500 2.024110 0.056320 
#    z -0.079360 0.056320 1.989700 
# 
# From -- ./inp_files/95661.got.cif
#   From: 2010.05.17/outbox.cif.g08.bks.cpg/sg2_48_cif.got.tgz:95661.got - 2010.06.03 11:33:40.
