data_PCOD9041969
_publ_section_title
;
Structure prediction by ZEFSAII (Michael W. Deem and Ramdas Pophale) SiO2 
 PCOD9041969
Probable space group: P -1
;
_chemical_formula_sum "Si O2"
_cell_formula_units_Z 16
_cell_length_a 9.726034
_cell_length_b 21.902461
_cell_length_c 16.532754
_cell_angle_alpha 22.991592
_cell_angle_beta 134.755260
_cell_angle_gamma 145.402216
_cell_volume 757.867569
_symmetry_space_group_name_H-M "P -1"
_symmetry_group_IT_number 2
_symmetry_cell_setting 'triclinic'
loop_
_space_group_symop_operation_xyz
x,y,z
-x,-y,-z
loop_
_atom_site_type_symbol
_atom_site_label
_atom_site_fract_x
_atom_site_fract_y
_atom_site_fract_z
Si Si1 0.797608 0.021358 0.422782
Si Si2 0.196551 0.739842 0.279164
Si Si3 0.480715 0.603313 0.775751
Si Si4 0.280578 0.547894 0.159598
Si Si5 0.482254 0.902071 0.915832
Si Si6 0.165429 0.469864 0.032602
Si Si7 0.930428 0.205975 0.008656
Si Si8 0.340947 0.226489 0.542864
O O1 0.577612 0.795961 0.635915
O O2 0.658327 0.053477 0.258440
O O3 0.000000 0.000000 0.500000
O O4 0.966838 0.239821 0.268398
O O5 0.452770 0.775771 0.325012
O O6 0.000000 0.500000 0.500000
O O7 0.268069 0.887821 0.204225
O O8 0.105776 0.800161 0.094615
O O9 0.656375 0.541479 0.936049
O O10 0.549063 0.686012 0.608692
O O11 0.194463 0.412665 0.889156
O O12 0.319034 0.603494 0.011587
O O13 0.297113 0.370380 0.390620
O O14 0.476397 0.735802 0.069098
O O15 0.006623 0.487732 0.132187
O O16 0.289478 0.802677 0.031983
O O17 0.896404 0.010655 0.264293
#
# Coordination Sequence:
#
# PCOD9041969 Si02
#       8
#     2   2   2   2   2   2   2   2
#     4   9  15  29  54  83 107 140 188 225 272 319
#     4  11  20  37  60  86 109 141 189 236 280 324
#     4  10  17  33  58  84 110 145 188 230 275 321
#     4   9  18  35  56  78 115 154 179 219 284 333
#     4  10  19  34  56  83 113 148 180 231 280 327
#     4   8  17  31  58  80 110 154 186 219 274 335
#     4  11  21  35  59  85 111 140 192 238 274 321
#     4  10  19  35  59  79 110 150 178 227 278 327
#
# _framework density 21.111867
#
# number of rings (size 3 to 8) (size 9 to 14) (size 15 to 20)
#    0.000    2.250    3.750    1.500    0.000    0.000 
#    0.000    9.375   19.250    0.000    0.000    0.000 
#    0.000    0.000    0.000    0.000    0.000    0.000 
#
# Total GULP energy -89093.144407 kJ/mol
# GULP energy per Si atom -5568.321525 kJ/mol
# Density = 2.106382 g / cm^3
# Si number density = 21.111867 Si / 1000 Ang^3
#
#
#
# Elastic Constant Matrix: (Units=GPa)
#
#
# Indices 1 2 3 4 5 6 
#
# 1 20.2463 14.6051 28.0759 -14.8927 15.1882 -12.5497
# 2 14.6051 106.6073 35.5830 -28.7574 -0.7122 -18.9251
# 3 28.0759 35.5830 127.5528 -29.5284 7.5992 -7.8122
# 4 -14.8927 -28.7574 -29.5284 50.5302 -1.9980 3.1271
# 5 15.1882 -0.7122 7.5992 -1.9980 40.1060 -4.6080
# 6 -12.5497 -18.9251 -7.8122 3.1271 -4.6080 35.1443
#
#
#
# Elastic Compliance Matrix: (Units=1/GPa)
#
#
# Indices 1 2 3 4 5 6 
#
# 1 0.184700 0.001349 -0.026600 0.034284 -0.057408 0.050191
# 2 0.001349 0.012680 -0.002113 0.006025 0.001156 0.006456
# 3 -0.026600 -0.002113 0.013341 -0.000564 0.006705 -0.006741
# 4 0.034284 0.006025 -0.000564 0.031909 -0.009890 0.011226
# 5 -0.057408 0.001156 0.006705 -0.009890 0.043577 -0.011793
# 6 0.050191 0.006456 -0.006741 0.011226 -0.011793 0.045809
#
#
# Mechanical properties :
#
#
# Convention : Reuss Voigt Hill
#
# Bulk Modulus (GPa) = 6.41053 45.65939 26.03496
# Shear Modulus (GPa) = 11.39625 36.89891 24.14758
#
# Velocity S-wave (km/s) = 2.32589 4.18518 3.38567
# Velocity P-wave (km/s) = 3.20251 6.71034 5.25760
#
# Compressibility (1/GPa) = 0.15599337
#
# Stress axis : x y z
#
# Youngs Moduli (GPa) = 5.41419 78.86640 74.95421
#
# Poissons Ratio (x) = -0.10641 1.99380
# Poissons Ratio (y) = -0.00731 0.15837
# Poissons Ratio (z) = 0.14402 0.16663
#
# Static dielectric constant tensor:
#      x y z
#    x 1.822750 -0.033220 -0.019510 
#    y -0.033220 1.838830 -0.030270 
#    z -0.019510 -0.030270 1.846070 
# 
# From -- ./inp_files/596409.got.cif
#   From: 2010.05.17/outbox.cif.g08.bks.cpg/sg2_299_cif.got.tgz:596409.got - 2010.06.03 11:33:40.
