data_PCOD9041901
_publ_section_title
;
Structure prediction by ZEFSAII (Michael W. Deem and Ramdas Pophale) SiO2 
 PCOD9041901
Probable space group: P -1
;
_chemical_formula_sum "Si O2"
_cell_formula_units_Z 16
_cell_length_a 19.295553
_cell_length_b 5.058280
_cell_length_c 11.272891
_cell_angle_alpha 123.809372
_cell_angle_beta 45.292049
_cell_angle_gamma 113.395613
_cell_volume 649.693384
_symmetry_space_group_name_H-M "P -1"
_symmetry_group_IT_number 2
_symmetry_cell_setting 'triclinic'
loop_
_space_group_symop_operation_xyz
x,y,z
-x,-y,-z
loop_
_atom_site_type_symbol
_atom_site_label
_atom_site_fract_x
_atom_site_fract_y
_atom_site_fract_z
Si Si1 0.438517 0.556602 0.970265
Si Si2 0.044660 0.213287 0.103718
Si Si3 0.170099 0.706376 0.938303
Si Si4 0.450221 0.404839 0.369117
Si Si5 0.758287 0.682992 0.458150
Si Si6 0.392831 0.904054 0.728595
Si Si7 0.946339 0.670590 0.501653
Si Si8 0.756494 0.381993 0.641496
O O1 0.334358 0.654533 0.169719
O O2 0.500000 0.500000 0.000000
O O3 0.512975 0.728457 0.834402
O O4 0.415786 0.257141 0.834465
O O5 0.964066 0.449654 0.310524
O O6 0.131867 0.437927 0.006426
O O7 0.091231 0.982642 0.088263
O O8 0.000000 0.000000 0.000000
O O9 0.178787 0.538959 0.757194
O O10 0.278659 0.831376 0.866715
O O11 0.343190 0.247070 0.472881
O O12 0.420710 0.770635 0.530200
O O13 0.537853 0.302945 0.322435
O O14 0.732278 0.498736 0.565677
O O15 0.804858 0.032624 0.503525
O O16 0.831661 0.656401 0.660856
O O17 0.000000 0.500000 0.500000
O O18 0.000000 0.000000 0.500000
#
# Coordination Sequence:
#
# PCOD9041901 Si02
#       8
#     2   2   2   2   2   2   2   2
#     4  12  25  42  70 102 145 189 245 290 361 442
#     4  12  26  48  78 106 141 187 253 305 367 435
#     4  11  25  44  78 106 140 188 246 306 359 436
#     4  10  23  44  68 101 143 193 238 303 358 429
#     4  11  23  46  70 108 146 185 244 297 368 423
#     4  10  25  42  68 101 145 189 242 298 364 427
#     4  12  28  49  73 106 152 190 239 305 377 437
#     4  12  27  44  73 103 148 192 237 299 371 440
#
# _framework density 24.626999999999999
#
# number of rings (size 3 to 8) (size 9 to 14) (size 15 to 20)
#    0.000    0.750    1.250    5.250    7.000    1.000 
#    0.000    0.000    0.000    0.000    0.000    0.000 
#    0.000    0.000    0.000    0.000    0.000    0.000 
#
# Total GULP energy -89439.484276 kJ/mol
# GULP energy per Si atom -5589.967767 kJ/mol
# Density = 2.457095 g / cm^3
# Si number density = 24.627000 Si / 1000 Ang^3
#
#
#
# Elastic Constant Matrix: (Units=GPa)
#
#
# Indices 1 2 3 4 5 6 
#
# 1 64.5764 -1.5176 -11.0129 -3.0182 0.5649 -0.6586
# 2 -1.5176 100.9644 9.7537 4.5643 -3.2387 1.6328
# 3 -11.0129 9.7537 104.8204 3.3214 9.8093 2.2757
# 4 -3.0182 4.5643 3.3214 36.8676 4.7845 -1.7949
# 5 0.5649 -3.2387 9.8093 4.7845 40.7458 -5.7310
# 6 -0.6586 1.6328 2.2757 -1.7949 -5.7310 39.1012
#
#
#
# Elastic Compliance Matrix: (Units=1/GPa)
#
#
# Indices 1 2 3 4 5 6 
#
# 1 0.015840 -0.000008 0.001694 0.001249 -0.000759 0.000115
# 2 -0.000008 0.010103 -0.001002 -0.001325 0.001164 -0.000254
# 3 0.001694 -0.001002 0.010088 -0.000351 -0.002619 -0.000917
# 4 0.001249 -0.001325 -0.000351 0.027879 -0.003184 0.000910
# 5 -0.000759 0.001164 -0.002619 -0.003184 0.026182 0.003782
# 6 0.000115 -0.000254 -0.000917 0.000910 0.003782 0.026237
#
#
# Mechanical properties :
#
#
# Convention : Reuss Voigt Hill
#
# Bulk Modulus (GPa) = 26.74001 29.42308 28.08154
# Shear Modulus (GPa) = 39.23797 41.55211 40.39504
#
# Velocity S-wave (km/s) = 3.99593 4.11208 4.05442
# Velocity P-wave (km/s) = 5.67200 5.87529 5.77454
#
# Compressibility (1/GPa) = 0.03739715
#
# Stress axis : x y z
#
# Youngs Moduli (GPa) = 63.12963 98.98513 99.13240
#
# Poissons Ratio (x) = 0.00081 -0.16793
# Poissons Ratio (y) = 0.00052 0.09937
# Poissons Ratio (z) = -0.10694 0.09922
#
# Static dielectric constant tensor:
#      x y z
#    x 1.952310 0.032330 0.098070 
#    y 0.032330 2.044720 0.015240 
#    z 0.098070 0.015240 2.198390 
# 
# From -- ./inp_files/468499.got.cif
#   From: 2010.05.17/outbox.cif.g08.bks.cpg/sg2_235_cif.got.tgz:468499.got - 2010.06.03 11:33:40.
