data_PCOD9041637
_publ_section_title
;
Structure prediction by ZEFSAII (Michael W. Deem and Ramdas Pophale) SiO2 
 PCOD9041637
Probable space group: P -1
;
_chemical_formula_sum "Si O2"
_cell_formula_units_Z 14
_cell_length_a 9.352694
_cell_length_b 8.807013
_cell_length_c 12.033930
_cell_angle_alpha 53.315366
_cell_angle_beta 92.661723
_cell_angle_gamma 65.401147
_cell_volume 660.913231
_symmetry_space_group_name_H-M "P -1"
_symmetry_group_IT_number 2
_symmetry_cell_setting 'triclinic'
loop_
_space_group_symop_operation_xyz
x,y,z
-x,-y,-z
loop_
_atom_site_type_symbol
_atom_site_label
_atom_site_fract_x
_atom_site_fract_y
_atom_site_fract_z
Si Si1 0.569975 0.414246 0.913371
Si Si2 0.095731 0.538879 0.823075
Si Si3 0.735673 0.322285 0.382725
Si Si4 0.741354 0.664580 0.846289
Si Si5 0.202744 0.406125 0.555051
Si Si6 0.478197 0.873081 0.453608
Si Si7 0.320344 0.077638 0.899044
O O1 0.418731 0.495371 0.783432
O O2 0.662636 0.542716 0.834345
O O3 0.500000 0.500000 0.000000
O O4 0.686403 0.143589 0.019207
O O5 0.110715 0.727051 0.674589
O O6 0.176813 0.302589 0.862003
O O7 0.901658 0.631385 0.801648
O O8 0.195215 0.460948 0.978038
O O9 0.775384 0.420193 0.448137
O O10 0.659408 0.183077 0.487193
O O11 0.609167 0.934995 0.730072
O O12 0.331638 0.333341 0.486981
O O13 0.292003 0.178207 0.731254
O O14 0.000000 0.500000 0.500000
O O15 0.500000 0.000000 0.500000
O O16 0.500000 0.000000 0.000000
#
# Coordination Sequence:
#
# PCOD9041637 Si02
#       7
#     2   2   2   2   2   2   2
#     4  12  21  40  70 102 126 178 232 284 340 410
#     4  10  23  44  66 101 131 181 226 301 327 407
#     4  11  24  43  72  94 141 181 235 277 348 415
#     4  11  24  43  67  98 144 168 238 285 343 406
#     4  11  26  47  69 102 143 180 233 293 343 413
#     4  12  26  43  69 101 137 188 223 278 357 419
#     4  11  21  41  75  94 131 182 233 275 350 408
#
# _framework density 21.18281
#
# number of rings (size 3 to 8) (size 9 to 14) (size 15 to 20)
#    0.000    0.857    5.714    2.143    4.000    1.143 
#    5.143    0.000    0.000    0.000    0.000    0.000 
#    0.000    0.000    0.000    0.000    0.000    0.000 
#
# Total GULP energy -78011.813725 kJ/mol
# GULP energy per Si atom -5572.272409 kJ/mol
# Density = 2.113460 g / cm^3
# Si number density = 21.182810 Si / 1000 Ang^3
#
#
#
# Elastic Constant Matrix: (Units=GPa)
#
#
# Indices 1 2 3 4 5 6 
#
# 1 188.2538 75.5582 55.6689 3.5908 -16.6805 5.4533
# 2 75.5582 79.9956 20.6959 4.5752 -1.4904 -4.5564
# 3 55.6689 20.6959 71.5809 -2.1277 -5.2652 0.2311
# 4 3.5908 4.5752 -2.1277 31.2543 6.4578 -4.5710
# 5 -16.6805 -1.4904 -5.2652 6.4578 33.6811 -5.6147
# 6 5.4533 -4.5564 0.2311 -4.5710 -5.6147 46.5853
#
#
#
# Elastic Compliance Matrix: (Units=1/GPa)
#
#
# Indices 1 2 3 4 5 6 
#
# 1 0.011008 -0.008853 -0.005734 -0.001476 0.004151 -0.001771
# 2 -0.008853 0.020864 0.000613 -0.001046 -0.002724 0.002643
# 3 -0.005734 0.000613 0.018294 0.001974 -0.000196 0.000810
# 4 -0.001476 -0.001046 0.001974 0.034197 -0.006588 0.002622
# 5 0.004151 -0.002724 -0.000196 -0.006588 0.033294 0.002615
# 6 -0.001771 0.002643 0.000810 0.002622 0.002615 0.022500
#
#
# Mechanical properties :
#
#
# Convention : Reuss Voigt Hill
#
# Bulk Modulus (GPa) = 45.01037 71.51960 58.26499
# Shear Modulus (GPa) = 28.48789 34.83131 31.65960
#
# Velocity S-wave (km/s) = 3.67121 4.05942 3.87019
# Velocity P-wave (km/s) = 6.26618 7.47049 6.89468
#
# Compressibility (1/GPa) = 0.02221710
#
# Stress axis : x y z
#
# Youngs Moduli (GPa) = 90.84016 47.92977 54.66206
#
# Poissons Ratio (x) = 0.42433 0.31345
# Poissons Ratio (y) = 0.80423 -0.03350
# Poissons Ratio (z) = 0.52091 -0.02938
#
# Static dielectric constant tensor:
#      x y z
#    x 1.821640 0.003590 -0.049180 
#    y 0.003590 1.784030 -0.003600 
#    z -0.049180 -0.003600 1.856120 
# 
# From -- ./inp_files/378006.got.cif
#   From: 2010.05.17/outbox.cif.g08.bks.cpg/sg2_190_cif.got.tgz:378006.got - 2010.06.03 11:33:40.
