data_PCOD9041206
_publ_section_title
;
Structure prediction by ZEFSAII (Michael W. Deem and Ramdas Pophale) SiO2 
 PCOD9041206
Probable space group: P -1
;
_chemical_formula_sum "Si O2"
_cell_formula_units_Z 16
_cell_length_a 9.666017
_cell_length_b 15.806123
_cell_length_c 5.520552
_cell_angle_alpha 77.789573
_cell_angle_beta 68.430900
_cell_angle_gamma 91.181700
_cell_volume 762.132013
_symmetry_space_group_name_H-M "P -1"
_symmetry_group_IT_number 2
_symmetry_cell_setting 'triclinic'
loop_
_space_group_symop_operation_xyz
x,y,z
-x,-y,-z
loop_
_atom_site_type_symbol
_atom_site_label
_atom_site_fract_x
_atom_site_fract_y
_atom_site_fract_z
Si Si1 0.709999 0.304568 0.528877
Si Si2 0.380897 0.248098 0.635757
Si Si3 0.027530 0.552977 0.701355
Si Si4 0.385877 0.067625 0.454093
Si Si5 0.862796 0.695942 0.505810
Si Si6 0.083452 0.943624 0.801425
Si Si7 0.194609 0.150677 0.213592
Si Si8 0.843483 0.242080 0.973021
O O1 0.531919 0.292549 0.628632
O O2 0.803359 0.399047 0.438314
O O3 0.752343 0.254436 0.776522
O O4 0.771038 0.270261 0.253666
O O5 0.412970 0.157440 0.536281
O O6 0.305293 0.318103 0.477640
O O7 0.247803 0.215482 0.924457
O O8 0.000000 0.500000 0.500000
O O9 0.915193 0.628125 0.705646
O O10 0.000000 0.500000 0.000000
O O11 0.348558 0.106518 0.191099
O O12 0.500000 0.000000 0.500000
O O13 0.228815 0.007760 0.609962
O O14 0.856041 0.791041 0.570177
O O15 0.995968 0.703682 0.217838
O O16 0.954855 0.910891 0.713149
O O17 0.133905 0.857877 0.943422
O O18 0.000000 0.000000 0.000000
#
# Coordination Sequence:
#
# PCOD9041206 Si02
#       8
#     2   2   2   2   2   2   2   2
#     4  11  26  44  71  98 136 173 220 270 337 413
#     4  11  24  43  64  96 133 184 228 272 336 403
#     4  11  24  45  74 107 134 164 216 277 339 405
#     4  11  25  39  58  94 133 177 234 296 336 370
#     4  10  23  43  71  96 132 175 226 269 329 422
#     4  12  21  38  59  90 127 174 237 284 334 373
#     4  11  23  42  66  90 134 187 234 272 339 403
#     4  11  23  43  66  98 128 187 230 271 329 399
#
# _framework density 20.993738
#
# number of rings (size 3 to 8) (size 9 to 14) (size 15 to 20)
#    0.000    1.000    2.500    4.875    7.000    2.500 
#    0.000    1.250    0.000    0.000    0.000    0.000 
#    0.000    0.000    0.000    0.000    0.000    0.000 
#
# Total GULP energy -89164.886040 kJ/mol
# GULP energy per Si atom -5572.805378 kJ/mol
# Density = 2.094596 g / cm^3
# Si number density = 20.993738 Si / 1000 Ang^3
#
#
#
# Elastic Constant Matrix: (Units=GPa)
#
#
# Indices 1 2 3 4 5 6 
#
# 1 184.8342 37.7793 20.0571 -5.1756 18.4013 10.8560
# 2 37.7793 58.3355 13.6029 -9.8166 5.7432 12.4747
# 3 20.0571 13.6029 63.6866 0.9283 19.7790 5.3609
# 4 -5.1756 -9.8166 0.9283 34.0234 -4.7642 2.0865
# 5 18.4013 5.7432 19.7790 -4.7642 29.2209 -6.9894
# 6 10.8560 12.4747 5.3609 2.0865 -6.9894 37.5056
#
#
#
# Elastic Compliance Matrix: (Units=1/GPa)
#
#
# Indices 1 2 3 4 5 6 
#
# 1 0.006616 -0.003703 0.000036 -0.000521 -0.003878 -0.001382
# 2 -0.003703 0.022790 -0.003060 0.006413 -0.000594 -0.006538
# 3 0.000036 -0.003060 0.021722 -0.003390 -0.015840 -0.004861
# 4 -0.000521 0.006413 -0.003390 0.032242 0.006104 -0.002154
# 5 -0.003878 -0.000594 -0.015840 0.006104 0.051573 0.012855
# 6 -0.001382 -0.006538 -0.004861 -0.002154 0.012855 0.032448
#
#
# Mechanical properties :
#
#
# Convention : Reuss Voigt Hill
#
# Bulk Modulus (GPa) = 26.54430 49.97052 38.25741
# Shear Modulus (GPa) = 25.85271 35.84443 30.84857
#
# Velocity S-wave (km/s) = 3.51301 4.13654 3.83746
# Velocity P-wave (km/s) = 5.39688 6.83146 6.15610
#
# Compressibility (1/GPa) = 0.03767287
#
# Stress axis : x y z
#
# Youngs Moduli (GPa) = 151.14879 43.87871 46.03625
#
# Poissons Ratio (x) = 0.16250 -0.00165
# Poissons Ratio (y) = 0.55976 0.14087
# Poissons Ratio (z) = -0.00541 0.13427
#
# Static dielectric constant tensor:
#      x y z
#    x 1.796880 -0.042330 0.078740 
#    y -0.042330 1.752410 -0.002310 
#    z 0.078740 -0.002310 1.816900 
# 
# From -- ./inp_files/37828.got.cif
#   From: 2010.05.17/outbox.cif.g08.bks.cpg/sg2_19_cif.got.tgz:37828.got - 2010.06.03 11:33:40.
