data_PCOD9041896
_publ_section_title
;
Structure prediction by ZEFSAII (Michael W. Deem and Ramdas Pophale) SiO2 
 PCOD9041896
Probable space group: P -1
;
_chemical_formula_sum "Si O2"
_cell_formula_units_Z 16
_cell_length_a 11.795372
_cell_length_b 5.418153
_cell_length_c 11.471225
_cell_angle_alpha 112.476798
_cell_angle_beta 76.272507
_cell_angle_gamma 100.937281
_cell_volume 654.058621
_symmetry_space_group_name_H-M "P -1"
_symmetry_group_IT_number 2
_symmetry_cell_setting 'triclinic'
loop_
_space_group_symop_operation_xyz
x,y,z
-x,-y,-z
loop_
_atom_site_type_symbol
_atom_site_label
_atom_site_fract_x
_atom_site_fract_y
_atom_site_fract_z
Si Si1 0.904845 0.197826 0.409355
Si Si2 0.450107 0.504682 0.672283
Si Si3 0.985454 0.689451 0.354710
Si Si4 0.534728 0.056930 0.867834
Si Si5 0.325259 0.169644 0.794367
Si Si6 0.799476 0.304859 0.860715
Si Si7 0.137183 0.057672 0.002039
Si Si8 0.651131 0.283769 0.482623
O O1 0.998741 0.246875 0.500038
O O2 0.783854 0.308091 0.498126
O O3 0.946682 0.370304 0.316497
O O4 0.896639 0.873361 0.347189
O O5 0.341502 0.455952 0.779890
O O6 0.551099 0.301436 0.605857
O O7 0.384900 0.497683 0.562266
O O8 0.521707 0.781929 0.746118
O O9 0.108501 0.761416 0.272770
O O10 0.431139 0.207964 0.867356
O O11 0.663829 0.210234 0.851137
O O12 0.500000 0.000000 0.000000
O O13 0.351523 0.975140 0.646468
O O14 0.212779 0.036391 0.863007
O O15 0.824809 0.627211 0.922051
O O16 0.830177 0.142569 0.940239
O O17 0.000000 0.000000 0.000000
#
# Coordination Sequence:
#
# PCOD9041896 Si02
#       8
#     2   2   2   2   2   2   2   2
#     4  10  23  44  68 101 142 186 241 294 362 429
#     4  10  24  44  69 106 144 184 255 297 373 439
#     4  10  24  43  67 103 138 186 241 297 357 433
#     4  11  24  45  70 106 143 189 240 305 366 435
#     4  11  25  44  72 101 145 190 247 302 368 436
#     4  12  27  47  76 104 145 189 245 298 373 429
#     4  12  29  48  73 108 145 190 247 298 361 443
#     4  10  24  42  69 103 140 194 241 306 371 432
#
# _framework density 24.462637999999998
#
# number of rings (size 3 to 8) (size 9 to 14) (size 15 to 20)
#    0.000    1.250    1.250    2.250   10.500    4.000 
#    0.000    0.000    0.000    0.000    0.000    0.000 
#    0.000    0.000    0.000    0.000    0.000    0.000 
#
# Total GULP energy -89338.403726 kJ/mol
# GULP energy per Si atom -5583.650233 kJ/mol
# Density = 2.440696 g / cm^3
# Si number density = 24.462638 Si / 1000 Ang^3
#
#
#
# Elastic Constant Matrix: (Units=GPa)
#
#
# Indices 1 2 3 4 5 6 
#
# 1 146.7408 47.8528 27.8603 -12.7712 -22.1796 13.9703
# 2 47.8528 119.9306 41.8860 -19.6827 -19.0277 5.2928
# 3 27.8603 41.8860 80.1119 -10.5255 -15.6455 11.2462
# 4 -12.7712 -19.6827 -10.5255 40.6792 9.3765 -2.6741
# 5 -22.1796 -19.0277 -15.6455 9.3765 40.4864 -7.4215
# 6 13.9703 5.2928 11.2462 -2.6741 -7.4215 37.0667
#
#
#
# Elastic Compliance Matrix: (Units=1/GPa)
#
#
# Indices 1 2 3 4 5 6 
#
# 1 0.008410 -0.002503 -0.000749 0.000490 0.002658 -0.002017
# 2 -0.002503 0.011744 -0.004656 0.003360 0.001806 0.001283
# 3 -0.000749 -0.004656 0.016327 0.000847 0.002898 -0.003365
# 4 0.000490 0.003360 0.000847 0.027557 -0.004164 0.000233
# 5 0.002658 0.001806 0.002898 -0.004164 0.029733 0.003514
# 6 -0.002017 0.001283 -0.003365 0.000233 0.003514 0.029297
#
#
# Mechanical properties :
#
#
# Convention : Reuss Voigt Hill
#
# Bulk Modulus (GPa) = 48.39106 64.66463 56.52784
# Shear Modulus (GPa) = 34.30025 38.92541 36.61283
#
# Velocity S-wave (km/s) = 3.74859 3.99334 3.87290
# Velocity P-wave (km/s) = 6.20971 6.91041 6.56941
#
# Compressibility (1/GPa) = 0.02066498
#
# Stress axis : x y z
#
# Youngs Moduli (GPa) = 118.91211 85.14847 61.24776
#
# Poissons Ratio (x) = 0.21309 0.04590
# Poissons Ratio (y) = 0.29758 0.28517
# Poissons Ratio (z) = 0.08912 0.39645
#
# Static dielectric constant tensor:
#      x y z
#    x 1.918740 -0.006430 -0.037600 
#    y -0.006430 2.215720 -0.009380 
#    z -0.037600 -0.009380 2.029410 
# 
# From -- ./inp_files/411023.got.cif
#   From: 2010.05.17/outbox.cif.g08.bks.cpg/sg2_206_cif.got.tgz:411023.got - 2010.06.03 11:33:40.
