data_PCOD9041738
_publ_section_title
;
Structure prediction by ZEFSAII (Michael W. Deem and Ramdas Pophale) SiO2 
 PCOD9041738
Probable space group: P -1
;
_chemical_formula_sum "Si O2"
_cell_formula_units_Z 12
_cell_length_a 5.145900
_cell_length_b 12.652589
_cell_length_c 10.259659
_cell_angle_alpha 101.384003
_cell_angle_beta 95.966859
_cell_angle_gamma 123.962828
_cell_volume 523.945616
_symmetry_space_group_name_H-M "P -1"
_symmetry_group_IT_number 2
_symmetry_cell_setting 'triclinic'
loop_
_space_group_symop_operation_xyz
x,y,z
-x,-y,-z
loop_
_atom_site_type_symbol
_atom_site_label
_atom_site_fract_x
_atom_site_fract_y
_atom_site_fract_z
Si Si1 0.346409 0.545661 0.401658
Si Si2 0.062813 0.897250 0.323898
Si Si3 0.711601 0.318424 0.190129
Si Si4 0.483962 0.820133 0.436131
Si Si5 0.658790 0.566391 0.886915
Si Si6 0.707224 0.983962 0.905120
O O1 0.500000 0.500000 0.500000
O O2 0.038182 0.570630 0.665123
O O3 0.416452 0.687790 0.462873
O O4 0.468901 0.543135 0.261696
O O5 0.172014 0.814106 0.380214
O O6 0.700597 0.845795 0.325985
O O7 0.292560 0.047604 0.432424
O O8 0.146627 0.912735 0.180739
O O9 0.449877 0.341500 0.138842
O O10 0.534693 0.169008 0.194439
O O11 0.952451 0.350618 0.088517
O O12 0.500000 0.500000 0.000000
O O13 0.500000 0.000000 0.000000
O O14 0.000000 0.000000 0.000000
#
# Coordination Sequence:
#
# PCOD9041738 Si02
#       6
#     2   2   2   2   2   2
#     4  10  26  42  72 105 139 182 229 289 361 414
#     4  10  24  44  67  98 135 179 235 284 335 416
#     4  10  25  44  67 102 136 179 235 289 344 416
#     4  10  23  44  69  97 133 182 226 289 346 411
#     4  10  23  44  66  99 141 182 222 286 347 414
#     4  12  26  45  70  99 138 188 235 287 351 416
#
# _framework density 22.90314
#
# number of rings (size 3 to 8) (size 9 to 14) (size 15 to 20)
#    1.000    0.667    0.000    2.500    4.667    8.667 
#    0.000    0.000    0.000    0.000    0.000    0.000 
#    0.000    0.000    0.000    0.000    0.000    0.000 
#
# Total GULP energy -67093.881067 kJ/mol
# GULP energy per Si atom -5591.156756 kJ/mol
# Density = 2.285101 g / cm^3
# Si number density = 22.903140 Si / 1000 Ang^3
#
#
#
# Elastic Constant Matrix: (Units=GPa)
#
#
# Indices 1 2 3 4 5 6 
#
# 1 99.5621 17.2306 19.0781 14.8253 -23.6908 -14.0116
# 2 17.2306 107.2284 19.6317 13.5278 1.1311 -20.7442
# 3 19.0781 19.6317 81.0569 -18.9125 -19.4075 -6.8090
# 4 14.8253 13.5278 -18.9125 32.8882 7.8727 -4.6349
# 5 -23.6908 1.1311 -19.4075 7.8727 36.3526 -2.9812
# 6 -14.0116 -20.7442 -6.8090 -4.6349 -2.9812 44.6985
#
#
#
# Elastic Compliance Matrix: (Units=1/GPa)
#
#
# Indices 1 2 3 4 5 6 
#
# 1 0.015474 0.000160 -0.003263 -0.010995 0.011049 0.004025
# 2 0.000160 0.011708 -0.004244 -0.006566 -0.000767 0.004105
# 3 -0.003263 -0.004244 0.018502 0.012816 0.005231 0.001504
# 4 -0.010995 -0.006566 0.012816 0.047912 -0.010518 -0.000275
# 5 0.011049 -0.000767 0.005231 -0.010518 0.040254 0.005498
# 6 0.004025 0.004105 0.001504 -0.000275 0.005498 0.026106
#
#
# Mechanical properties :
#
#
# Convention : Reuss Voigt Hill
#
# Bulk Modulus (GPa) = 32.26839 44.41424 38.34132
# Shear Modulus (GPa) = 27.02989 38.24833 32.63911
#
# Velocity S-wave (km/s) = 3.43911 4.09100 3.77914
# Velocity P-wave (km/s) = 5.46714 6.46137 5.98494
#
# Compressibility (1/GPa) = 0.03099008
#
# Stress axis : x y z
#
# Youngs Moduli (GPa) = 64.62364 85.41261 54.04830
#
# Poissons Ratio (x) = -0.01367 0.17635
# Poissons Ratio (y) = -0.01034 0.22939
# Poissons Ratio (z) = 0.21085 0.36251
#
# Static dielectric constant tensor:
#      x y z
#    x 1.799740 0.033920 -0.035970 
#    y 0.033920 1.845790 0.027080 
#    z -0.035970 0.027080 1.907790 
# 
# From -- ./inp_files/80442.got.cif
#   From: 2010.05.17/outbox.cif.g08.bks.cpg/sg2_41_cif.got.tgz:80442.got - 2010.06.03 11:33:40.
