data_PCOD9041166
_publ_section_title
;
Structure prediction by ZEFSAII (Michael W. Deem and Ramdas Pophale) SiO2 
 PCOD9041166
Probable space group: P -1
;
_chemical_formula_sum "Si O2"
_cell_formula_units_Z 13
_cell_length_a 10.833443
_cell_length_b 9.231736
_cell_length_c 7.997450
_cell_angle_alpha 89.486803
_cell_angle_beta 58.870772
_cell_angle_gamma 122.319366
_cell_volume 531.679608
_symmetry_space_group_name_H-M "P -1"
_symmetry_group_IT_number 2
_symmetry_cell_setting 'triclinic'
loop_
_space_group_symop_operation_xyz
x,y,z
-x,-y,-z
loop_
_atom_site_type_symbol
_atom_site_label
_atom_site_fract_x
_atom_site_fract_y
_atom_site_fract_z
Si Si1 0.500000 0.000000 0.500000
Si Si2 0.213860 0.618544 0.795969
Si Si3 0.806719 0.794281 0.665784
Si Si4 0.449640 0.138081 0.013233
Si Si5 0.816662 0.473946 0.566846
Si Si6 0.242522 0.035327 0.814980
Si Si7 0.174564 0.296902 0.967193
O O1 0.659208 0.164205 0.255462
O O2 0.398207 0.088100 0.576164
O O3 0.222928 0.615497 0.588149
O O4 0.267761 0.503618 0.845201
O O5 0.000000 0.500000 0.000000
O O6 0.646614 0.818797 0.780062
O O7 0.821908 0.653092 0.550525
O O8 0.790946 0.717778 0.864506
O O9 0.000000 0.000000 0.500000
O O10 0.642141 0.327024 0.808510
O O11 0.301076 0.049682 0.966328
O O12 0.500000 0.000000 0.000000
O O13 0.000000 0.500000 0.500000
O O14 0.233088 0.202933 0.809705
O O15 0.047164 0.844056 0.901516
#
# Coordination Sequence:
#
# PCOD9041166 Si02
#       7
#     1   2   2   2   2   2   2
#     4  12  24  44  70 106 140 188 250 302 362 442
#     4  12  26  46  75 107 150 192 250 310 376 442
#     4  11  26  47  76 110 149 195 250 308 382 454
#     4  11  25  47  72 108 149 197 249 314 371 453
#     4  12  27  46  72 108 148 198 251 309 383 444
#     4  10  23  43  71 105 142 181 252 297 371 435
#     4  10  24  46  73 105 147 193 239 313 376 441
#
# _framework density 24.450813
#
# number of rings (size 3 to 8) (size 9 to 14) (size 15 to 20)
#    0.000    0.923    3.077    2.308    8.615    3.077 
#    0.000    0.000    0.000    0.000    0.000    0.000 
#    0.000    0.000    0.000    0.000    0.000    0.000 
#
# Total GULP energy -72393.365015 kJ/mol
# GULP energy per Si atom -5568.720386 kJ/mol
# Density = 2.439516 g / cm^3
# Si number density = 24.450813 Si / 1000 Ang^3
#
#
#
# Elastic Constant Matrix: (Units=GPa)
#
#
# Indices 1 2 3 4 5 6 
#
# 1 81.7540 8.4825 12.5681 14.3772 1.2462 -8.7228
# 2 8.4825 92.7212 22.5781 -14.7974 2.2637 -15.7243
# 3 12.5681 22.5781 112.1014 -1.7460 -28.1121 -17.3903
# 4 14.3772 -14.7974 -1.7460 56.7683 -26.0300 1.6442
# 5 1.2462 2.2637 -28.1121 -26.0300 40.5999 0.7686
# 6 -8.7228 -15.7243 -17.3903 1.6442 0.7686 34.7324
#
#
#
# Elastic Compliance Matrix: (Units=1/GPa)
#
#
# Indices 1 2 3 4 5 6 
#
# 1 0.014471 -0.001260 -0.002988 -0.007484 -0.007280 0.002083
# 2 -0.001260 0.012595 -0.001503 0.003693 0.000579 0.004446
# 3 -0.002988 -0.001503 0.014082 0.007313 0.014521 0.004952
# 4 -0.007484 0.003693 0.007313 0.032549 0.025930 0.001339
# 5 -0.007280 0.000579 0.014521 0.025930 0.051438 0.003338
# 6 0.002083 0.004446 0.004952 0.001339 0.003338 0.033670
#
#
# Mechanical properties :
#
#
# Convention : Reuss Voigt Hill
#
# Bulk Modulus (GPa) = 33.73026 41.53713 37.63369
# Shear Modulus (GPa) = 27.74863 42.61665 35.18264
#
# Velocity S-wave (km/s) = 3.37245 4.17940 3.79742
# Velocity P-wave (km/s) = 5.38420 6.34939 5.88661
#
# Compressibility (1/GPa) = 0.02964697
#
# Stress axis : x y z
#
# Youngs Moduli (GPa) = 69.10278 79.39403 71.01372
#
# Poissons Ratio (x) = 0.10001 0.21217
# Poissons Ratio (y) = 0.08704 0.10676
# Poissons Ratio (z) = 0.20647 0.11935
#
# Static dielectric constant tensor:
#      x y z
#    x 2.030490 -0.043210 -0.031620 
#    y -0.043210 4.585120 0.015200 
#    z -0.031620 0.015200 1.895460 
# 
# From -- ./inp_files/238868.got.cif
#   From: 2010.05.17/outbox.cif.g08.bks.cpg/sg2_120_cif.got.tgz:238868.got - 2010.06.03 11:33:40.
