data_PCOD9041745
_publ_section_title
;
Structure prediction by ZEFSAII (Michael W. Deem and Ramdas Pophale) SiO2 
 PCOD9041745
Probable space group: P -1
;
_chemical_formula_sum "Si O2"
_cell_formula_units_Z 14
_cell_length_a 11.039209
_cell_length_b 11.549287
_cell_length_c 8.202679
_cell_angle_alpha 143.030657
_cell_angle_beta 87.412312
_cell_angle_gamma 77.849679
_cell_volume 572.945533
_symmetry_space_group_name_H-M "P -1"
_symmetry_group_IT_number 2
_symmetry_cell_setting 'triclinic'
loop_
_space_group_symop_operation_xyz
x,y,z
-x,-y,-z
loop_
_atom_site_type_symbol
_atom_site_label
_atom_site_fract_x
_atom_site_fract_y
_atom_site_fract_z
Si Si1 0.673535 0.688243 0.866303
Si Si2 0.194267 0.612675 0.759524
Si Si3 0.802829 0.779371 0.515236
Si Si4 0.323833 0.682987 0.375055
Si Si5 0.387874 0.810785 0.859771
Si Si6 0.015665 0.947028 0.634014
Si Si7 0.639267 0.009274 0.471680
O O1 0.785804 0.524928 0.560399
O O2 0.663082 0.551854 0.867976
O O3 0.532424 0.768279 0.871191
O O4 0.696565 0.880160 0.156982
O O5 0.194995 0.450257 0.716779
O O6 0.315438 0.687916 0.829849
O O7 0.063868 0.828253 0.020795
O O8 0.943641 0.794915 0.518631
O O9 0.734278 0.892065 0.479906
O O10 0.708187 0.942217 0.839323
O O11 0.391542 0.727351 0.583123
O O12 0.167363 0.832653 0.547150
O O13 0.377948 0.753945 0.292671
O O14 0.000000 0.000000 0.500000
O O15 0.500000 0.000000 0.500000
#
# Coordination Sequence:
#
# PCOD9041745 Si02
#       7
#     2   2   2   2   2   2   2
#     4  11  25  43  68 101 136 174 221 268 334 399
#     4  10  24  42  70  95 128 178 223 269 328 383
#     4  11  24  43  69  98 137 173 217 279 326 389
#     4  11  25  45  69  94 136 178 219 274 330 390
#     4  10  23  44  67 100 135 174 218 273 331 397
#     4  11  25  47  66  96 136 175 224 272 329 390
#     4  12  26  40  67 106 134 174 218 268 340 391
#
# _framework density 24.435134000000001
#
# number of rings (size 3 to 8) (size 9 to 14) (size 15 to 20)
#    0.000    1.143    2.857    2.571    6.000    8.571 
#    0.000    4.286    0.000    0.000    0.000    0.000 
#    0.000    0.000    0.000    0.000    0.000    0.000 
#
# Total GULP energy -78406.357690 kJ/mol
# GULP energy per Si atom -5600.454121 kJ/mol
# Density = 2.437952 g / cm^3
# Si number density = 24.435134 Si / 1000 Ang^3
#
#
#
# Elastic Constant Matrix: (Units=GPa)
#
#
# Indices 1 2 3 4 5 6 
#
# 1 75.9573 30.1011 -0.1570 16.4263 -7.4396 13.1282
# 2 30.1011 109.6340 -0.5513 22.8488 11.4840 19.8398
# 3 -0.1570 -0.5513 70.3238 -5.4695 -2.2079 -0.6146
# 4 16.4263 22.8488 -5.4695 40.0585 9.1192 13.6261
# 5 -7.4396 11.4840 -2.2079 9.1192 34.3006 4.0939
# 6 13.1282 19.8398 -0.6146 13.6261 4.0939 42.2958
#
#
#
# Elastic Compliance Matrix: (Units=1/GPa)
#
#
# Indices 1 2 3 4 5 6 
#
# 1 0.016913 -0.003764 -0.000234 -0.005539 0.006666 -0.002348
# 2 -0.003764 0.011761 -0.000318 -0.003417 -0.003518 -0.002912
# 3 -0.000234 -0.000318 0.014403 0.002263 0.000422 -0.000339
# 4 -0.005539 -0.003417 0.002263 0.033600 -0.008046 -0.006691
# 5 0.006666 -0.003518 0.000422 -0.008046 0.034078 -0.001119
# 6 -0.002348 -0.002912 -0.000339 -0.006691 -0.001119 0.027997
#
#
# Mechanical properties :
#
#
# Convention : Reuss Voigt Hill
#
# Bulk Modulus (GPa) = 29.03090 34.96675 31.99883
# Shear Modulus (GPa) = 31.47339 38.43248 34.95294
#
# Velocity S-wave (km/s) = 3.59282 3.97020 3.78622
# Velocity P-wave (km/s) = 5.39608 5.94624 5.67783
#
# Compressibility (1/GPa) = 0.03444606
#
# Stress axis : x y z
#
# Youngs Moduli (GPa) = 59.12604 85.03003 69.42902
#
# Poissons Ratio (x) = 0.32003 0.01623
# Poissons Ratio (y) = 0.22253 0.02207
# Poissons Ratio (z) = 0.01382 0.02703
#
# Static dielectric constant tensor:
#      x y z
#    x 1.968130 0.068360 0.000920 
#    y 0.068360 1.982460 -0.038730 
#    z 0.000920 -0.038730 1.934450 
# 
# From -- ./inp_files/260999.got.cif
#   From: 2010.05.17/outbox.cif.g08.bks.cpg/sg2_131_cif.got.tgz:260999.got - 2010.06.03 11:33:40.
