data_PCOD9041146
_publ_section_title
;
Structure prediction by ZEFSAII (Michael W. Deem and Ramdas Pophale) SiO2 
 PCOD9041146
Probable space group: P -1
;
_chemical_formula_sum "Si O2"
_cell_formula_units_Z 11
_cell_length_a 8.879389
_cell_length_b 9.335682
_cell_length_c 11.976594
_cell_angle_alpha 35.234330
_cell_angle_beta 122.012766
_cell_angle_gamma 102.045856
_cell_volume 431.608190
_symmetry_space_group_name_H-M "P -1"
_symmetry_group_IT_number 2
_symmetry_cell_setting 'triclinic'
loop_
_space_group_symop_operation_xyz
x,y,z
-x,-y,-z
loop_
_atom_site_type_symbol
_atom_site_label
_atom_site_fract_x
_atom_site_fract_y
_atom_site_fract_z
Si Si1 0.558265 0.702669 0.542217
Si Si2 0.038439 0.241837 0.306467
Si Si3 0.130987 0.960788 0.298181
Si Si4 0.000000 0.500000 0.500000
Si Si5 0.614436 0.099323 0.897180
Si Si6 0.955240 0.673220 0.170012
O O1 0.743320 0.769239 0.589564
O O2 0.370972 0.843980 0.463549
O O3 0.628331 0.369520 0.777622
O O4 0.462369 0.829026 0.304340
O O5 0.900727 0.508545 0.158668
O O6 0.021792 0.201313 0.193986
O O7 0.000000 0.000000 0.500000
O O8 0.079243 0.710520 0.459324
O O9 0.050904 0.084825 0.064753
O O10 0.861813 0.516864 0.558344
O O11 0.500000 0.000000 0.000000
O O12 0.817200 0.802058 0.145906
#
# Coordination Sequence:
#
# PCOD9041146 Si02
#       6
#     2   2   2   1   2   2
#     4  10  25  45  69 102 139 182 227 289 342 413
#     4  12  26  46  71 100 145 184 230 291 350 404
#     4  11  25  48  71 101 143 182 232 281 353 414
#     4  12  24  42  76 100 138 176 238 284 338 408
#     4  10  23  43  71 103 137 177 233 282 349 411
#     4  11  26  43  70 104 135 185 229 288 342 410
#
# _framework density 25.486077000000002
#
# number of rings (size 3 to 8) (size 9 to 14) (size 15 to 20)
#    0.000    1.091    1.818    2.727   12.727    0.000 
#    3.273    1.818    0.000    0.000    0.000    0.000 
#    0.000    0.000    0.000    0.000    0.000    0.000 
#
# Total GULP energy -61327.580777 kJ/mol
# GULP energy per Si atom -5575.234616 kJ/mol
# Density = 2.542807 g / cm^3
# Si number density = 25.486077 Si / 1000 Ang^3
#
#
#
# Elastic Constant Matrix: (Units=GPa)
#
#
# Indices 1 2 3 4 5 6 
#
# 1 162.4890 70.2421 50.3585 -11.5979 -14.3611 -5.6172
# 2 70.2421 161.8560 51.7298 -5.1716 -21.7850 -8.3531
# 3 50.3585 51.7298 124.4104 -11.9274 -28.8304 0.5745
# 4 -11.5979 -5.1716 -11.9274 51.7195 -1.6182 -12.1805
# 5 -14.3611 -21.7850 -28.8304 -1.6182 49.7963 -8.4817
# 6 -5.6172 -8.3531 0.5745 -12.1805 -8.4817 67.3717
#
#
#
# Elastic Compliance Matrix: (Units=1/GPa)
#
#
# Indices 1 2 3 4 5 6 
#
# 1 0.008092 -0.002798 -0.001973 0.001219 0.000105 0.000578
# 2 -0.002798 0.008308 -0.001872 0.000084 0.001929 0.001071
# 3 -0.001973 -0.001872 0.011019 0.002204 0.005158 0.000557
# 4 0.001219 0.000084 0.002204 0.021240 0.003091 0.004323
# 5 0.000105 0.001929 0.005158 0.003091 0.024703 0.003873
# 6 0.000578 0.001071 0.000557 0.004323 0.003873 0.016288
#
#
# Mechanical properties :
#
#
# Convention : Reuss Voigt Hill
#
# Bulk Modulus (GPa) = 70.75732 88.15735 79.45734
# Shear Modulus (GPa) = 46.44787 52.20582 49.32685
#
# Velocity S-wave (km/s) = 4.27368 4.53084 4.40414
# Velocity P-wave (km/s) = 7.22329 7.87635 7.55688
#
# Compressibility (1/GPa) = 0.01413281
#
# Stress axis : x y z
#
# Youngs Moduli (GPa) = 123.58375 120.35884 90.75152
#
# Poissons Ratio (x) = 0.33676 0.17909
# Poissons Ratio (y) = 0.34578 0.16988
# Poissons Ratio (z) = 0.24387 0.22530
#
# Static dielectric constant tensor:
#      x y z
#    x 2.194910 -0.091400 0.135640 
#    y -0.091400 1.975590 -0.035800 
#    z 0.135640 -0.035800 2.281570 
# 
# From -- ./inp_files/149648.got.cif
#   From: 2010.05.17/outbox.cif.g08.bks.cpg/sg2_75_cif.got.tgz:149648.got - 2010.06.03 11:33:40.
