data_PCOD9041077
_publ_section_title
;
Structure prediction by ZEFSAII (Michael W. Deem and Ramdas Pophale) SiO2 
 PCOD9041077
Probable space group: P -1
;
_chemical_formula_sum "Si O2"
_cell_formula_units_Z 16
_cell_length_a 13.888191
_cell_length_b 13.880649
_cell_length_c 12.064349
_cell_angle_alpha 34.829405
_cell_angle_beta 50.566819
_cell_angle_gamma 29.828472
_cell_volume 636.019482
_symmetry_space_group_name_H-M "P -1"
_symmetry_group_IT_number 2
_symmetry_cell_setting 'triclinic'
loop_
_space_group_symop_operation_xyz
x,y,z
-x,-y,-z
loop_
_atom_site_type_symbol
_atom_site_label
_atom_site_fract_x
_atom_site_fract_y
_atom_site_fract_z
Si Si1 0.481192 0.864981 0.756701
Si Si2 0.822103 0.960321 0.356471
Si Si3 0.242192 0.962783 0.013833
Si Si4 0.701225 0.760030 0.148208
Si Si5 0.276212 0.415773 0.483738
Si Si6 0.954388 0.806042 0.651598
Si Si7 0.182788 0.663238 0.100539
Si Si8 0.737153 0.223265 0.599369
O O1 0.350010 0.957309 0.658407
O O2 0.708204 0.594762 0.809635
O O3 0.433158 0.778253 0.969256
O O4 0.395498 0.131513 0.612135
O O5 0.821204 0.955025 0.495773
O O6 0.804023 0.171601 0.125778
O O7 0.035737 0.652935 0.454522
O O8 0.245992 0.132516 0.919488
O O9 0.048669 0.145107 0.906400
O O10 0.228101 0.840163 0.235680
O O11 0.655054 0.660573 0.366631
O O12 0.896470 0.510364 0.168333
O O13 0.500000 0.000000 0.000000
O O14 0.280147 0.555557 0.253985
O O15 0.122801 0.774969 0.547945
O O16 0.819383 0.981031 0.692571
O O17 0.500000 0.500000 0.500000
#
# Coordination Sequence:
#
# PCOD9041077 Si02
#       8
#     2   2   2   2   2   2   2   2
#     4  11  25  42  68 100 139 177 223 275 339 407
#     4  11  22  44  67 100 141 173 222 285 337 398
#     4  11  25  43  70  96 139 176 218 282 339 392
#     4  10  23  45  70  99 135 180 225 279 334 406
#     4  10  23  43  70  97 141 178 218 281 340 401
#     4  10  24  44  67  97 137 171 228 285 328 400
#     4  12  24  42  68 103 133 179 227 275 341 399
#     4  11  24  44  68  94 131 182 228 274 338 399
#
# _framework density 25.156461
#
# number of rings (size 3 to 8) (size 9 to 14) (size 15 to 20)
#    0.000    1.250    2.500    2.250    5.250    2.500 
#    6.750    1.250    0.000    0.000    0.000    0.000 
#    0.000    0.000    0.000    0.000    0.000    0.000 
#
# Total GULP energy -89524.295760 kJ/mol
# GULP energy per Si atom -5595.268485 kJ/mol
# Density = 2.509920 g / cm^3
# Si number density = 25.156461 Si / 1000 Ang^3
#
#
#
# Elastic Constant Matrix: (Units=GPa)
#
#
# Indices 1 2 3 4 5 6 
#
# 1 58.6117 11.4497 26.9563 -10.5247 3.2437 20.4030
# 2 11.4497 134.1621 42.8878 7.7683 15.3739 25.5856
# 3 26.9563 42.8878 136.6561 2.8295 25.6045 3.9013
# 4 -10.5247 7.7683 2.8295 35.8775 4.8789 -3.0357
# 5 3.2437 15.3739 25.6045 4.8789 40.0165 9.9231
# 6 20.4030 25.5856 3.9013 -3.0357 9.9231 26.6708
#
#
#
# Elastic Compliance Matrix: (Units=1/GPa)
#
#
# Indices 1 2 3 4 5 6 
#
# 1 0.030219 0.004181 -0.007960 0.005206 0.007375 -0.028115
# 2 0.004181 0.011053 -0.004196 -0.002290 0.001888 -0.014151
# 3 -0.007960 -0.004196 0.011344 -0.000308 -0.007768 0.011310
# 4 0.005206 -0.002290 -0.000308 0.030719 -0.003884 0.003201
# 5 0.007375 0.001888 -0.007768 -0.003884 0.033916 -0.019377
# 6 -0.028115 -0.014151 0.011310 0.003201 -0.019377 0.078496
#
#
# Mechanical properties :
#
#
# Convention : Reuss Voigt Hill
#
# Bulk Modulus (GPa) = 27.27321 54.66862 40.97092
# Shear Modulus (GPa) = 22.32956 37.05535 29.69246
#
# Velocity S-wave (km/s) = 2.98254 3.84213 3.43929
# Velocity P-wave (km/s) = 4.76715 6.43904 5.66511
#
# Compressibility (1/GPa) = 0.03666601
#
# Stress axis : x y z
#
# Youngs Moduli (GPa) = 33.09156 90.47223 88.15599
#
# Poissons Ratio (x) = -0.37825 0.70171
# Poissons Ratio (y) = -0.13835 0.36989
# Poissons Ratio (z) = 0.26341 0.37961
#
# Static dielectric constant tensor:
#      x y z
#    x 2.027340 0.020260 -0.086860 
#    y 0.020260 1.953070 0.030850 
#    z -0.086860 0.030850 2.074580 
# 
# From -- ./inp_files/455477.got.cif
#   From: 2010.05.17/outbox.cif.g08.bks.cpg/sg2_228_cif.got.tgz:455477.got - 2010.06.03 11:33:40.
