data_PCOD9041222
_publ_section_title
;
Structure prediction by ZEFSAII (Michael W. Deem and Ramdas Pophale) SiO2 
 PCOD9041222
Probable space group: P -1
;
_chemical_formula_sum "Si O2"
_cell_formula_units_Z 16
_cell_length_a 8.000795
_cell_length_b 13.480167
_cell_length_c 18.552481
_cell_angle_alpha 157.819448
_cell_angle_beta 49.362109
_cell_angle_gamma 125.641133
_cell_volume 571.777942
_symmetry_space_group_name_H-M "P -1"
_symmetry_group_IT_number 2
_symmetry_cell_setting 'triclinic'
loop_
_space_group_symop_operation_xyz
x,y,z
-x,-y,-z
loop_
_atom_site_type_symbol
_atom_site_label
_atom_site_fract_x
_atom_site_fract_y
_atom_site_fract_z
Si Si1 0.226631 0.257716 0.266406
Si Si2 0.071810 0.408439 0.997209
Si Si3 0.862299 0.444392 0.735035
Si Si4 0.517678 0.929784 0.148782
Si Si5 0.362134 0.913726 0.549874
Si Si6 0.734284 0.116220 0.679790
Si Si7 0.641969 0.308010 0.115663
Si Si8 0.169351 0.598534 0.636594
O O1 0.423208 0.427678 0.296224
O O2 0.229262 0.322281 0.393829
O O3 0.015283 0.306565 0.307965
O O4 0.283970 0.949966 0.033980
O O5 0.158888 0.108600 0.764739
O O6 0.263876 0.581380 0.087130
O O7 0.000000 0.500000 0.000000
O O8 0.858252 0.458872 0.141599
O O9 0.747838 0.329203 0.618644
O O10 0.884731 0.194808 0.618542
O O11 0.076405 0.559045 0.715999
O O12 0.698676 0.700231 0.975865
O O13 0.306856 0.999202 0.305979
O O14 0.650865 0.186797 0.270279
O O15 0.434556 0.792703 0.008148
O O16 0.500000 0.000000 0.500000
O O17 0.545258 0.962300 0.590817
#
# Coordination Sequence:
#
# PCOD9041222 Si02
#       8
#     2   2   2   2   2   2   2   2
#     4  10  25  47  69 102 135 188 230 298 352 415
#     4  12  24  44  70 103 143 187 228 286 358 422
#     4  11  23  43  72 104 135 182 240 294 339 408
#     4  12  24  42  70 107 141 183 233 294 351 421
#     4  10  23  43  71  98 138 186 240 286 337 416
#     4  11  25  43  71 103 141 184 232 285 349 418
#     4  11  25  43  69  99 148 184 225 285 371 417
#     4  11  25  44  77 102 131 182 254 289 336 420
#
# _framework density 27.982893000000001
#
# number of rings (size 3 to 8) (size 9 to 14) (size 15 to 20)
#    0.000    1.000    2.500    4.125    7.000    1.500 
#    2.250    5.000    0.000    0.000    0.000    0.000 
#    0.000    0.000    0.000    0.000    0.000    0.000 
#
# Total GULP energy -89266.231169 kJ/mol
# GULP energy per Si atom -5579.139448 kJ/mol
# Density = 2.791920 g / cm^3
# Si number density = 27.982893 Si / 1000 Ang^3
#
#
#
# Elastic Constant Matrix: (Units=GPa)
#
#
# Indices 1 2 3 4 5 6 
#
# 1 129.6339 13.5814 75.9925 18.9279 -13.0365 -17.0104
# 2 13.5814 196.6089 -1.0639 -8.4572 23.2948 27.4586
# 3 75.9925 -1.0639 120.5556 14.0116 -4.1862 -3.5560
# 4 18.9279 -8.4572 14.0116 58.4540 -2.3839 8.1638
# 5 -13.0365 23.2948 -4.1862 -2.3839 61.4346 15.3718
# 6 -17.0104 27.4586 -3.5560 8.1638 15.3718 63.5872
#
#
#
# Elastic Compliance Matrix: (Units=1/GPa)
#
#
# Indices 1 2 3 4 5 6 
#
# 1 0.013975 -0.001957 -0.008252 -0.003317 0.002000 0.004065
# 2 -0.001957 0.005899 0.000958 0.001571 -0.001831 -0.002776
# 3 -0.008252 0.000958 0.013454 -0.000216 -0.000793 -0.001649
# 4 -0.003317 0.001571 -0.000216 0.019057 0.000460 -0.004136
# 5 0.002000 -0.001831 -0.000793 0.000460 0.018152 -0.003166
# 6 0.004065 -0.002776 -0.001649 -0.004136 -0.003166 0.019217
#
#
# Mechanical properties :
#
#
# Convention : Reuss Voigt Hill
#
# Bulk Modulus (GPa) = 67.45163 69.31314 68.38239
# Shear Modulus (GPa) = 44.17062 60.58106 52.37584
#
# Velocity S-wave (km/s) = 3.97733 4.65793 4.33102
# Velocity P-wave (km/s) = 6.72675 7.33158 7.03566
#
# Compressibility (1/GPa) = 0.01482544
#
# Stress axis : x y z
#
# Youngs Moduli (GPa) = 71.55646 169.52314 74.32852
#
# Poissons Ratio (x) = 0.33180 0.61333
# Poissons Ratio (y) = 0.14006 -0.07119
# Poissons Ratio (z) = 0.59046 -0.16237
#
# Static dielectric constant tensor:
#      x y z
#    x 2.557400 0.179900 -0.293260 
#    y 0.179900 2.273360 -0.131500 
#    z -0.293260 -0.131500 2.290850 
# 
# From -- ./inp_files/590504.got.cif
#   From: 2010.05.17/outbox.cif.g08.bks.cpg/sg2_296_cif.got.tgz:590504.got - 2010.06.03 11:33:40.
