data_PCOD9041505
_publ_section_title
;
Structure prediction by ZEFSAII (Michael W. Deem and Ramdas Pophale) SiO2 
 PCOD9041505
Probable space group: P -1
;
_chemical_formula_sum "Si O2"
_cell_formula_units_Z 16
_cell_length_a 9.083656
_cell_length_b 11.594191
_cell_length_c 21.799010
_cell_angle_alpha 40.370225
_cell_angle_beta 33.675554
_cell_angle_gamma 37.816719
_cell_volume 742.769687
_symmetry_space_group_name_H-M "P -1"
_symmetry_group_IT_number 2
_symmetry_cell_setting 'triclinic'
loop_
_space_group_symop_operation_xyz
x,y,z
-x,-y,-z
loop_
_atom_site_type_symbol
_atom_site_label
_atom_site_fract_x
_atom_site_fract_y
_atom_site_fract_z
Si Si1 0.400774 0.762293 0.410586
Si Si2 0.158383 0.264691 0.960702
Si Si3 0.510015 0.820715 0.989609
Si Si4 0.399589 0.234071 0.432781
Si Si5 0.897728 0.334658 0.227468
Si Si6 0.230024 0.503051 0.504950
Si Si7 0.474507 0.467405 0.095349
Si Si8 0.878676 0.791173 0.668230
O O1 0.399491 0.643735 0.397624
O O2 0.669811 0.631421 0.414393
O O3 0.100536 0.781934 0.540995
O O4 0.361578 0.983472 0.329999
O O5 0.205211 0.432975 0.839036
O O6 0.294095 0.050033 0.970658
O O7 0.325792 0.239440 0.977437
O O8 0.806593 0.345669 0.054993
O O9 0.775787 0.770952 0.870180
O O10 0.356634 0.680323 0.082217
O O11 0.674625 0.266736 0.299078
O O12 0.315323 0.354174 0.478000
O O13 0.111239 0.346467 0.446118
O O14 0.500000 0.000000 0.500000
O O15 0.925340 0.268530 0.314532
O O16 0.278173 0.353064 0.223069
O O17 0.500000 0.500000 0.000000
#
# Coordination Sequence:
#
# PCOD9041505 Si02
#       8
#     2   2   2   2   2   2   2   2
#     4  10  23  44  65  93 135 176 215 264 326 380
#     4  10  23  44  64  92 127 166 213 264 324 385
#     4  10  23  44  66  91 128 165 213 265 326 386
#     4  11  24  42  67  96 130 166 216 267 323 382
#     4  11  21  42  66  91 126 173 208 265 324 384
#     4  10  23  44  63  94 132 166 222 265 310 394
#     4  11  21  42  64  97 126 161 214 268 317 381
#     4  11  22  41  68  93 133 175 213 269 328 376
#
# _framework density 21.540997000000001
#
# number of rings (size 3 to 8) (size 9 to 14) (size 15 to 20)
#    0.000    1.500    3.750    2.250    1.750    5.500 
#    9.000    0.000    0.000    0.000    0.000    0.000 
#    0.000    0.000    0.000    0.000    0.000    0.000 
#
# Total GULP energy -89407.563398 kJ/mol
# GULP energy per Si atom -5587.972712 kJ/mol
# Density = 2.149197 g / cm^3
# Si number density = 21.540997 Si / 1000 Ang^3
#
#
#
# Elastic Constant Matrix: (Units=GPa)
#
#
# Indices 1 2 3 4 5 6 
#
# 1 98.4712 38.7182 18.9801 -17.0140 -13.8938 4.1861
# 2 38.7182 144.2217 30.5657 -34.6130 -10.5626 13.5289
# 3 18.9801 30.5657 72.1652 -18.7167 -21.7465 7.3407
# 4 -17.0140 -34.6130 -18.7167 26.4120 8.9338 -1.1447
# 5 -13.8938 -10.5626 -21.7465 8.9338 26.3748 2.7331
# 6 4.1861 13.5289 7.3407 -1.1447 2.7331 38.5444
#
#
#
# Elastic Compliance Matrix: (Units=1/GPa)
#
#
# Indices 1 2 3 4 5 6 
#
# 1 0.012249 -0.001986 0.000037 0.003754 0.004504 -0.000848
# 2 -0.001986 0.010877 -0.000934 0.012676 -0.001449 -0.002945
# 3 0.000037 -0.000934 0.021455 0.008790 0.014829 -0.004553
# 4 0.003754 0.012676 0.008790 0.065465 -0.007453 -0.004058
# 5 0.004504 -0.001449 0.014829 -0.007453 0.055178 -0.006939
# 6 -0.000848 -0.002945 -0.004553 -0.004058 -0.006939 0.028308
#
#
# Mechanical properties :
#
#
# Convention : Reuss Voigt Hill
#
# Bulk Modulus (GPa) = 25.76387 54.59847 40.18117
# Shear Modulus (GPa) = 23.55852 33.37252 28.46552
#
# Velocity S-wave (km/s) = 3.31064 3.94033 3.63913
# Velocity P-wave (km/s) = 5.15753 6.78991 6.02922
#
# Compressibility (1/GPa) = 0.03881405
#
# Stress axis : x y z
#
# Youngs Moduli (GPa) = 81.63830 91.93550 46.60995
#
# Poissons Ratio (x) = 0.18257 -0.00170
# Poissons Ratio (y) = 0.16212 0.04354
# Poissons Ratio (z) = -0.00298 0.08588
#
# Static dielectric constant tensor:
#      x y z
#    x 1.796570 0.034070 0.005640 
#    y 0.034070 1.816030 0.032880 
#    z 0.005640 0.032880 1.789110 
# 
# From -- ./inp_files/589441.got.cif
#   From: 2010.05.17/outbox.cif.g08.bks.cpg/sg2_295_cif.got.tgz:589441.got - 2010.06.03 11:33:40.
