data_PCOD9041219
_publ_section_title
;
Structure prediction by ZEFSAII (Michael W. Deem and Ramdas Pophale) SiO2 
 PCOD9041219
Probable space group: P -1
;
_chemical_formula_sum "Si O2"
_cell_formula_units_Z 15
_cell_length_a 14.865726
_cell_length_b 13.095625
_cell_length_c 9.131486
_cell_angle_alpha 77.234957
_cell_angle_beta 96.733991
_cell_angle_gamma 29.144584
_cell_volume 639.362231
_symmetry_space_group_name_H-M "P -1"
_symmetry_group_IT_number 2
_symmetry_cell_setting 'triclinic'
loop_
_space_group_symop_operation_xyz
x,y,z
-x,-y,-z
loop_
_atom_site_type_symbol
_atom_site_label
_atom_site_fract_x
_atom_site_fract_y
_atom_site_fract_z
Si Si1 0.341946 0.296968 0.107132
Si Si2 0.836841 0.842147 0.664091
Si Si3 0.890969 0.383488 0.496438
Si Si4 0.562197 0.052178 0.950610
Si Si5 0.153956 0.808694 0.444946
Si Si6 0.500000 0.000000 0.500000
Si Si7 0.006646 0.281661 0.864418
Si Si8 0.284875 0.837393 0.246035
O O1 0.229531 0.486570 0.155672
O O2 0.457722 0.079441 0.290728
O O3 0.526270 0.147163 0.072463
O O4 0.097173 0.537632 0.888337
O O5 0.672773 0.917499 0.585928
O O6 0.909999 0.805256 0.528597
O O7 0.717426 0.063440 0.668254
O O8 0.635674 0.687182 0.277358
O O9 0.904813 0.247620 0.585981
O O10 0.915226 0.414038 0.646386
O O11 0.500000 0.000000 0.000000
O O12 0.831516 0.791514 0.032965
O O13 0.123134 0.923027 0.269514
O O14 0.445975 0.494887 0.627598
O O15 0.000000 0.000000 0.500000
O O16 0.177910 0.000520 0.024653
#
# Coordination Sequence:
#
# PCOD9041219 Si02
#       8
#     2   2   2   2   2   1   2   2
#     4  10  26  40  63  94 135 180 225 272 336 394
#     4  10  23  44  65  98 138 182 223 277 340 409
#     4  11  24  45  70  98 135 182 227 279 345 406
#     4  11  26  44  66  96 143 185 223 283 338 400
#     4  11  22  44  75  98 131 180 226 285 347 405
#     4  12  24  38  70 100 134 178 234 276 328 400
#     4  11  25  43  66 101 135 173 230 279 333 418
#     4  10  23  43  71  98 135 177 224 280 353 396
#
# _framework density 23.460881000000001
#
# number of rings (size 3 to 8) (size 9 to 14) (size 15 to 20)
#    0.000    1.333    2.667    1.200   11.200    1.067 
#    0.000    0.667    0.000    0.000    0.000    0.000 
#    0.000    0.000    0.000    0.000    0.000    0.000 
#
# Total GULP energy -83537.937344 kJ/mol
# GULP energy per Si atom -5569.195823 kJ/mol
# Density = 2.340748 g / cm^3
# Si number density = 23.460881 Si / 1000 Ang^3
#
#
#
# Elastic Constant Matrix: (Units=GPa)
#
#
# Indices 1 2 3 4 5 6 
#
# 1 100.5571 -8.5176 23.0255 7.2503 -20.4282 -15.8447
# 2 -8.5176 95.6034 17.9306 6.8618 -12.6436 -12.1047
# 3 23.0255 17.9306 136.5596 23.1258 -24.8843 -8.7549
# 4 7.2503 6.8618 23.1258 27.9654 -5.7322 -11.3785
# 5 -20.4282 -12.6436 -24.8843 -5.7322 34.4363 9.1090
# 6 -15.8447 -12.1047 -8.7549 -11.3785 9.1090 31.2464
#
#
#
# Elastic Compliance Matrix: (Units=1/GPa)
#
#
# Indices 1 2 3 4 5 6 
#
# 1 0.012542 0.002814 -0.001056 0.000457 0.006339 0.005473
# 2 0.002814 0.012030 -0.000977 -0.000176 0.004150 0.004540
# 3 -0.001056 -0.000977 0.009721 -0.007416 0.005462 -0.002483
# 4 0.000457 -0.000176 -0.007416 0.048035 -0.001384 0.015981
# 5 0.006339 0.004150 0.005462 -0.001384 0.039542 -0.005679
# 6 0.005473 0.004540 -0.002483 0.015981 -0.005679 0.043317
#
#
# Mechanical properties :
#
#
# Convention : Reuss Voigt Hill
#
# Bulk Modulus (GPa) = 27.88994 44.17745 36.03370
# Shear Modulus (GPa) = 28.47777 38.74838 33.61307
#
# Velocity S-wave (km/s) = 3.48780 4.06842 3.78925
# Velocity P-wave (km/s) = 5.30409 6.39848 5.87681
#
# Compressibility (1/GPa) = 0.03585523
#
# Stress axis : x y z
#
# Youngs Moduli (GPa) = 79.73383 83.12519 102.86910
#
# Poissons Ratio (x) = -0.23390 0.10859
# Poissons Ratio (y) = -0.22435 0.10050
# Poissons Ratio (z) = 0.08417 0.08121
#
# Static dielectric constant tensor:
#      x y z
#    x 1.882570 0.101970 0.024880 
#    y 0.101970 2.081300 0.048520 
#    z 0.024880 0.048520 1.937770 
# 
# From -- ./inp_files/314912.got.cif
#   From: 2010.05.17/outbox.cif.g08.bks.cpg/sg2_158_cif.got.tgz:314912.got - 2010.06.03 11:33:40.
