data_PCOD9041404
_publ_section_title
;
Structure prediction by ZEFSAII (Michael W. Deem and Ramdas Pophale) SiO2 
 PCOD9041404
Probable space group: P -1
;
_chemical_formula_sum "Si O2"
_cell_formula_units_Z 14
_cell_length_a 16.806808
_cell_length_b 10.997118
_cell_length_c 7.951431
_cell_angle_alpha 134.917084
_cell_angle_beta 117.303717
_cell_angle_gamma 33.096692
_cell_volume 533.700584
_symmetry_space_group_name_H-M "P -1"
_symmetry_group_IT_number 2
_symmetry_cell_setting 'triclinic'
loop_
_space_group_symop_operation_xyz
x,y,z
-x,-y,-z
loop_
_atom_site_type_symbol
_atom_site_label
_atom_site_fract_x
_atom_site_fract_y
_atom_site_fract_z
Si Si1 0.547849 0.361747 0.595988
Si Si2 0.085978 0.667985 0.737638
Si Si3 0.114704 0.116056 0.552088
Si Si4 0.025689 0.660720 0.024612
Si Si5 0.344029 0.140355 0.957644
Si Si6 0.635333 0.545871 0.242287
Si Si7 0.354827 0.085348 0.285166
O O1 0.500000 0.500000 0.500000
O O2 0.407793 0.546455 0.770461
O O3 0.710045 0.195027 0.643238
O O4 0.616257 0.066340 0.337937
O O5 0.991852 0.780675 0.924269
O O6 0.192939 0.670188 0.862303
O O7 0.209844 0.313919 0.494421
O O8 0.000601 0.796019 0.602090
O O9 0.057895 0.405375 0.787651
O O10 0.094623 0.100076 0.713432
O O11 0.191996 0.474030 0.069865
O O12 0.308501 0.111512 0.077149
O O13 0.500000 0.000000 0.000000
O O14 0.605804 0.772536 0.536164
O O15 0.504452 0.754515 0.174648
#
# Coordination Sequence:
#
# PCOD9041404 Si02
#       7
#     2   2   2   2   2   2   2
#     4  11  24  41  56  80 123 160 189 239 295 352
#     4  10  17  33  57  85 116 147 190 247 287 341
#     4  10  21  34  53  85 119 152 192 231 302 351
#     4  10  19  32  55  91 121 143 185 250 299 334
#     4  11  17  32  60  89 112 144 201 236 280 343
#     4   9  18  34  56  86 113 151 195 233 289 343
#     4   9  16  29  57  90 112 135 190 251 279 322
#
# _framework density 26.231936000000001
#
# number of rings (size 3 to 8) (size 9 to 14) (size 15 to 20)
#    0.857    1.143    2.857    3.000    0.000    0.000 
#    0.000    1.429    0.000    0.857    0.000    0.000 
#    0.000    0.000    0.000    0.000    0.000    0.000 
#
# Total GULP energy -78185.841348 kJ/mol
# GULP energy per Si atom -5584.702953 kJ/mol
# Density = 2.617223 g / cm^3
# Si number density = 26.231936 Si / 1000 Ang^3
#
#
#
# Elastic Constant Matrix: (Units=GPa)
#
#
# Indices 1 2 3 4 5 6 
#
# 1 89.2227 13.7759 30.6674 -5.0004 -29.8796 -8.1242
# 2 13.7759 73.0289 13.0927 -17.7169 1.5305 -13.9555
# 3 30.6674 13.0927 100.3964 -5.0137 -16.9453 -1.8650
# 4 -5.0004 -17.7169 -5.0137 35.1587 4.8014 -1.9086
# 5 -29.8796 1.5305 -16.9453 4.8014 38.4245 -16.5819
# 6 -8.1242 -13.9555 -1.8650 -1.9086 -16.5819 37.7455
#
#
#
# Elastic Compliance Matrix: (Units=1/GPa)
#
#
# Indices 1 2 3 4 5 6 
#
# 1 0.020068 -0.001477 -0.002338 -0.000285 0.020040 0.012447
# 2 -0.001477 0.017587 -0.001443 0.008909 -0.000945 0.006148
# 3 -0.002338 -0.001443 0.011541 0.000128 0.003843 0.001228
# 4 -0.000285 0.008909 0.000128 0.033536 -0.003184 0.003536
# 5 0.020040 -0.000945 0.003843 -0.003184 0.056097 0.028637
# 6 0.012447 0.006148 0.001228 0.003536 0.028637 0.044265
#
#
# Mechanical properties :
#
#
# Convention : Reuss Voigt Hill
#
# Bulk Modulus (GPa) = 25.85292 41.96887 33.91089
# Shear Modulus (GPa) = 24.21273 35.93989 30.07631
#
# Velocity S-wave (km/s) = 3.04143 3.70548 3.38975
# Velocity P-wave (km/s) = 4.71281 5.86014 5.31751
#
# Compressibility (1/GPa) = 0.03868036
#
# Stress axis : x y z
#
# Youngs Moduli (GPa) = 49.82993 56.86170 86.64999
#
# Poissons Ratio (x) = 0.08397 0.20259
# Poissons Ratio (y) = 0.07359 0.12501
# Poissons Ratio (z) = 0.11650 0.08204
#
# Static dielectric constant tensor:
#      x y z
#    x 2.184270 -0.124930 -0.040010 
#    y -0.124930 2.117490 0.088190 
#    z -0.040010 0.088190 2.075960 
# 
# From -- ./inp_files/332370.got.cif
#   From: 2010.05.17/outbox.cif.g08.bks.cpg/sg2_167_cif.got.tgz:332370.got - 2010.06.03 11:33:40.
