data_PCOD9041681
_publ_section_title
;
Structure prediction by ZEFSAII (Michael W. Deem and Ramdas Pophale) SiO2 
 PCOD9041681
Probable space group: P -1
;
_chemical_formula_sum "Si O2"
_cell_formula_units_Z 12
_cell_length_a 11.197167
_cell_length_b 12.424007
_cell_length_c 11.067183
_cell_angle_alpha 146.786682
_cell_angle_beta 135.300182
_cell_angle_gamma 64.983063
_cell_volume 530.955873
_symmetry_space_group_name_H-M "P -1"
_symmetry_group_IT_number 2
_symmetry_cell_setting 'triclinic'
loop_
_space_group_symop_operation_xyz
x,y,z
-x,-y,-z
loop_
_atom_site_type_symbol
_atom_site_label
_atom_site_fract_x
_atom_site_fract_y
_atom_site_fract_z
Si Si1 0.711195 0.199368 0.346507
Si Si2 0.353425 0.476514 0.263240
Si Si3 0.901698 0.615053 0.695830
Si Si4 0.953312 0.938443 0.235619
Si Si5 0.363743 0.277251 0.839113
Si Si6 0.741305 0.437460 0.156157
O O1 0.696854 0.320746 0.572227
O O2 0.776779 0.392337 0.473316
O O3 0.860531 0.101621 0.347301
O O4 0.500000 0.000000 0.000000
O O5 0.500000 0.500000 0.500000
O O6 0.156094 0.264659 0.945846
O O7 0.427900 0.428844 0.147105
O O8 0.838301 0.580015 0.478949
O O9 0.116655 0.644814 0.876626
O O10 0.899730 0.823103 0.956935
O O11 0.177616 0.055410 0.522864
O O12 0.298082 0.409148 0.821433
O O13 0.539912 0.253950 0.886450
#
# Coordination Sequence:
#
# PCOD9041681 Si02
#       6
#     2   2   2   2   2   2
#     4  11  22  40  69 100 124 169 220 269 326 381
#     4  11  23  43  68  96 130 170 217 273 323 388
#     4  10  23  46  69  95 132 171 224 257 319 397
#     4  11  23  41  69  99 127 170 214 275 327 378
#     4  11  23  43  66  98 136 167 217 268 330 375
#     4  10  23  44  66  93 136 177 212 267 310 394
#
# _framework density 22.600746999999998
#
# number of rings (size 3 to 8) (size 9 to 14) (size 15 to 20)
#    0.000    1.333    3.333    2.500    0.000    2.000 
#    3.000    0.000    0.000    0.000    0.000    0.000 
#    0.000    0.000    0.000    0.000    0.000    0.000 
#
# Total GULP energy -67070.223399 kJ/mol
# GULP energy per Si atom -5589.185283 kJ/mol
# Density = 2.254931 g / cm^3
# Si number density = 22.600747 Si / 1000 Ang^3
#
#
#
# Elastic Constant Matrix: (Units=GPa)
#
#
# Indices 1 2 3 4 5 6 
#
# 1 136.2445 31.7002 45.6767 4.5259 26.2817 -18.4163
# 2 31.7002 54.1610 39.4362 1.1581 -0.0422 -16.3361
# 3 45.6767 39.4362 92.9203 7.6555 12.6574 -2.1800
# 4 4.5259 1.1581 7.6555 31.1846 -3.9297 -5.4297
# 5 26.2817 -0.0422 12.6574 -3.9297 50.7402 -8.0275
# 6 -18.4163 -16.3361 -2.1800 -5.4297 -8.0275 34.8246
#
#
#
# Elastic Compliance Matrix: (Units=1/GPa)
#
#
# Indices 1 2 3 4 5 6 
#
# 1 0.010261 -0.002836 -0.003159 -0.000633 -0.004128 0.002848
# 2 -0.002836 0.036661 -0.015520 0.007068 0.008741 0.017844
# 3 -0.003159 -0.015520 0.019921 -0.006264 -0.005401 -0.009926
# 4 -0.000633 0.007068 -0.006264 0.035889 0.006197 0.009613
# 5 -0.004128 0.008741 -0.005401 0.006197 0.024995 0.008308
# 6 0.002848 0.017844 -0.009926 0.009613 0.008308 0.041384
#
#
# Mechanical properties :
#
#
# Convention : Reuss Voigt Hill
#
# Bulk Modulus (GPa) = 41.99389 57.43913 49.71651
# Shear Modulus (GPa) = 22.71913 34.45072 28.58492
#
# Velocity S-wave (km/s) = 3.17399 3.90849 3.56023
# Velocity P-wave (km/s) = 5.66157 6.77039 6.24066
#
# Compressibility (1/GPa) = 0.02381299
#
# Stress axis : x y z
#
# Youngs Moduli (GPa) = 97.45711 27.27660 50.19939
#
# Poissons Ratio (x) = 0.07736 0.15859
# Poissons Ratio (y) = 0.27640 0.77908
# Poissons Ratio (z) = 0.30788 0.42333
#
# Static dielectric constant tensor:
#      x y z
#    x 1.871940 0.006400 0.008610 
#    y 0.006400 1.829560 -0.026520 
#    z 0.008610 -0.026520 1.863530 
# 
# From -- ./inp_files/59045.got.cif
#   From: 2010.05.17/outbox.cif.g08.bks.cpg/sg2_30_cif.got.tgz:59045.got - 2010.06.03 11:33:40.
