data_PCOD9041316
_publ_section_title
;
Structure prediction by ZEFSAII (Michael W. Deem and Ramdas Pophale) SiO2 
 PCOD9041316
Probable space group: P -1
;
_chemical_formula_sum "Si O2"
_cell_formula_units_Z 16
_cell_length_a 5.846688
_cell_length_b 7.924297
_cell_length_c 19.846050
_cell_angle_alpha 58.687212
_cell_angle_beta 119.495273
_cell_angle_gamma 123.133283
_cell_volume 629.330125
_symmetry_space_group_name_H-M "P -1"
_symmetry_group_IT_number 2
_symmetry_cell_setting 'triclinic'
loop_
_space_group_symop_operation_xyz
x,y,z
-x,-y,-z
loop_
_atom_site_type_symbol
_atom_site_label
_atom_site_fract_x
_atom_site_fract_y
_atom_site_fract_z
Si Si1 0.195181 0.239806 0.316886
Si Si2 0.104862 0.672243 0.196151
Si Si3 0.868332 0.424697 0.570802
Si Si4 0.369108 0.015028 0.776755
Si Si5 0.955723 0.735444 0.012960
Si Si6 0.668316 0.569071 0.253584
Si Si7 0.297383 0.188281 0.487778
Si Si8 0.622456 0.244957 0.042501
O O1 0.132554 0.455598 0.273222
O O2 0.426373 0.329888 0.272599
O O3 0.342388 0.193074 0.413326
O O4 0.893449 0.050173 0.298173
O O5 0.091373 0.691135 0.110308
O O6 0.785289 0.625322 0.184846
O O7 0.302385 0.894373 0.217717
O O8 0.582664 0.209771 0.563931
O O9 0.761415 0.601682 0.546599
O O10 0.000000 0.500000 0.500000
O O11 0.096733 0.413966 0.659093
O O12 0.292891 0.827082 0.858543
O O13 0.419915 0.238976 0.775014
O O14 0.752761 0.502335 0.001604
O O15 0.722474 0.833157 0.981904
O O16 0.210210 0.831098 0.974977
O O17 0.000000 0.000000 0.500000
#
# Coordination Sequence:
#
# PCOD9041316 Si02
#       8
#     2   2   2   2   2   2   2   2
#     4  11  24  46  65  99 139 177 225 286 350 413
#     4  11  25  45  68  99 137 186 224 287 351 416
#     4  11  24  46  65  96 139 175 224 286 347 413
#     4  11  27  42  70 102 137 178 238 285 345 425
#     4  10  23  43  73 100 146 187 238 292 367 423
#     4  11  26  44  68  99 138 181 228 288 354 413
#     4  11  26  41  71  99 133 180 229 283 346 422
#     4  10  23  44  70 106 138 191 238 297 355 433
#
# _framework density 25.423859
#
# number of rings (size 3 to 8) (size 9 to 14) (size 15 to 20)
#    0.000    1.250    3.750    0.000    8.750    4.500 
#    0.000    0.000    0.000    0.000    0.000    0.000 
#    0.000    0.000    0.000    0.000    0.000    0.000 
#
# Total GULP energy -89351.940956 kJ/mol
# GULP energy per Si atom -5584.496310 kJ/mol
# Density = 2.536599 g / cm^3
# Si number density = 25.423859 Si / 1000 Ang^3
#
#
#
# Elastic Constant Matrix: (Units=GPa)
#
#
# Indices 1 2 3 4 5 6 
#
# 1 65.6340 19.4723 10.5326 18.3411 -6.6782 21.4505
# 2 19.4723 102.0211 -5.7317 14.1051 0.3258 30.1350
# 3 10.5326 -5.7317 68.6884 23.2187 7.1210 4.8309
# 4 18.3411 14.1051 23.2187 32.0955 8.3318 9.4226
# 5 -6.6782 0.3258 7.1210 8.3318 40.2320 -2.0827
# 6 21.4505 30.1350 4.8309 9.4226 -2.0827 48.5786
#
#
#
# Elastic Compliance Matrix: (Units=1/GPa)
#
#
# Indices 1 2 3 4 5 6 
#
# 1 0.021348 -0.000439 0.000619 -0.011943 0.005566 -0.006660
# 2 -0.000439 0.013024 0.003705 -0.006094 0.000062 -0.007069
# 3 0.000619 0.003705 0.020391 -0.016240 -0.000249 -0.001460
# 4 -0.011943 -0.006094 -0.016240 0.055292 -0.010536 -0.000508
# 5 0.005566 0.000062 -0.000249 -0.010536 0.028045 0.000774
# 6 -0.006660 -0.007069 -0.001460 -0.000508 0.000774 0.028188
#
#
# Mechanical properties :
#
#
# Convention : Reuss Voigt Hill
#
# Bulk Modulus (GPa) = 15.99205 31.65445 23.82325
# Shear Modulus (GPa) = 27.87633 38.31923 33.09778
#
# Velocity S-wave (km/s) = 3.31488 3.88650 3.61202
# Velocity P-wave (km/s) = 4.57767 5.71118 5.17555
#
# Compressibility (1/GPa) = 0.06253105
#
# Stress axis : x y z
#
# Youngs Moduli (GPa) = 46.84381 76.77976 49.04191
#
# Poissons Ratio (x) = 0.03371 -0.03033
# Poissons Ratio (y) = 0.02056 -0.18169
# Poissons Ratio (z) = -0.02897 -0.28445
#
# Static dielectric constant tensor:
#      x y z
#    x 2.482240 0.194920 0.101140 
#    y 0.194920 2.094810 0.046180 
#    z 0.101140 0.046180 1.930400 
# 
# From -- ./inp_files/582367.got.cif
#   From: 2010.05.17/outbox.cif.g08.bks.cpg/sg2_292_cif.got.tgz:582367.got - 2010.06.03 11:33:40.
