data_PCOD9041255
_publ_section_title
;
Structure prediction by ZEFSAII (Michael W. Deem and Ramdas Pophale) SiO2 
 PCOD9041255
Probable space group: P -1
;
_chemical_formula_sum "Si O2"
_cell_formula_units_Z 14
_cell_length_a 12.533045
_cell_length_b 13.567019
_cell_length_c 5.947405
_cell_angle_alpha 107.344765
_cell_angle_beta 90.931966
_cell_angle_gamma 37.777790
_cell_volume 548.147733
_symmetry_space_group_name_H-M "P -1"
_symmetry_group_IT_number 2
_symmetry_cell_setting 'triclinic'
loop_
_space_group_symop_operation_xyz
x,y,z
-x,-y,-z
loop_
_atom_site_type_symbol
_atom_site_label
_atom_site_fract_x
_atom_site_fract_y
_atom_site_fract_z
Si Si1 0.206970 0.417107 0.873910
Si Si2 0.702580 0.866175 0.518300
Si Si3 0.925988 0.749998 0.839948
Si Si4 0.403664 0.840851 0.492818
Si Si5 0.830708 0.063357 0.113001
Si Si6 0.286690 0.420131 0.318707
Si Si7 0.487129 0.454171 0.213930
O O1 0.194288 0.322165 0.670838
O O2 0.404261 0.321388 0.757438
O O3 0.014125 0.633674 0.989969
O O4 0.238993 0.372276 0.104643
O O5 0.747573 0.846940 0.768964
O O6 0.500000 0.000000 0.500000
O O7 0.718253 0.968846 0.481985
O O8 0.107881 0.578117 0.577399
O O9 0.892856 0.897046 0.963274
O O10 0.521340 0.766246 0.677572
O O11 0.259903 0.866166 0.587714
O O12 0.665547 0.236378 0.068213
O O13 0.000000 0.000000 0.000000
O O14 0.314970 0.512044 0.276067
O O15 0.500000 0.500000 0.500000
O O16 0.500000 0.500000 0.000000
#
# Coordination Sequence:
#
# PCOD9041255 Si02
#       7
#     2   2   2   2   2   2   2
#     4  10  23  46  70 100 147 192 242 300 370 445
#     4  10  23  43  72 102 146 190 241 306 370 442
#     4  11  25  45  66 108 145 187 249 298 373 449
#     4   9  23  43  68 101 141 183 248 290 366 435
#     4  11  26  45  74 105 146 188 241 312 376 443
#     4  10  24  43  72  97 145 193 242 309 365 446
#     4  11  27  47  76 106 146 200 256 310 382 451
#
# _framework density 25.540559999999999
#
# number of rings (size 3 to 8) (size 9 to 14) (size 15 to 20)
#    0.000    1.714    0.000    1.286   18.000    1.143 
#    5.143    2.143    0.000    0.000    0.000    0.000 
#    0.000    0.000    0.000    0.000    0.000    0.000 
#
# Total GULP energy -77983.720016 kJ/mol
# GULP energy per Si atom -5570.265715 kJ/mol
# Density = 2.548243 g / cm^3
# Si number density = 25.540560 Si / 1000 Ang^3
#
#
#
# Elastic Constant Matrix: (Units=GPa)
#
#
# Indices 1 2 3 4 5 6 
#
# 1 105.1288 25.4083 25.1956 -9.4826 -25.6216 2.8965
# 2 25.4083 169.6636 28.5722 -0.0753 -1.1881 26.2831
# 3 25.1956 28.5722 81.9619 -4.7222 3.7829 3.7621
# 4 -9.4826 -0.0753 -4.7222 38.5105 4.5569 -7.1095
# 5 -25.6216 -1.1881 3.7829 4.5569 53.1415 3.8865
# 6 2.8965 26.2831 3.7621 -7.1095 3.8865 49.4087
#
#
#
# Elastic Compliance Matrix: (Units=1/GPa)
#
#
# Indices 1 2 3 4 5 6 
#
# 1 0.012274 -0.001200 -0.003522 0.001878 0.005982 -0.000013
# 2 -0.001200 0.006974 -0.001968 -0.001211 0.000090 -0.003671
# 3 -0.003522 -0.001968 0.014152 0.001318 -0.002906 0.000594
# 4 0.001878 -0.001211 0.001318 0.027659 -0.001921 0.004565
# 5 0.005982 0.000090 -0.002906 -0.001921 0.022236 -0.002203
# 6 -0.000013 -0.003671 0.000594 0.004565 -0.002203 0.022978
#
#
# Mechanical properties :
#
#
# Convention : Reuss Voigt Hill
#
# Bulk Modulus (GPa) = 49.94912 57.23406 53.59159
# Shear Modulus (GPa) = 39.58028 46.71737 43.14882
#
# Velocity S-wave (km/s) = 3.94090 4.28149 4.11472
# Velocity P-wave (km/s) = 6.34876 6.84830 6.60326
#
# Compressibility (1/GPa) = 0.02002037
#
# Stress axis : x y z
#
# Youngs Moduli (GPa) = 81.47414 143.39219 70.66066
#
# Poissons Ratio (x) = 0.17210 0.24886
# Poissons Ratio (y) = 0.09779 0.13903
# Poissons Ratio (z) = 0.28695 0.28214
#
# Static dielectric constant tensor:
#      x y z
#    x 2.167660 0.031180 -0.075480 
#    y 0.031180 2.047240 -0.055590 
#    z -0.075480 -0.055590 2.216250 
# 
# From -- ./inp_files/98479.got.cif
#   From: 2010.05.17/outbox.cif.g08.bks.cpg/sg2_50_cif.got.tgz:98479.got - 2010.06.03 11:33:40.
