data_PCOD9041522
_publ_section_title
;
Structure prediction by ZEFSAII (Michael W. Deem and Ramdas Pophale) SiO2 
 PCOD9041522
Probable space group: P -1
;
_chemical_formula_sum "Si O2"
_cell_formula_units_Z 16
_cell_length_a 10.262369
_cell_length_b 7.407151
_cell_length_c 11.717090
_cell_angle_alpha 50.724582
_cell_angle_beta 71.237388
_cell_angle_gamma 84.963119
_cell_volume 644.639614
_symmetry_space_group_name_H-M "P -1"
_symmetry_group_IT_number 2
_symmetry_cell_setting 'triclinic'
loop_
_space_group_symop_operation_xyz
x,y,z
-x,-y,-z
loop_
_atom_site_type_symbol
_atom_site_label
_atom_site_fract_x
_atom_site_fract_y
_atom_site_fract_z
Si Si1 0.807780 0.058730 0.540718
Si Si2 0.659820 0.665075 0.235588
Si Si3 0.844852 0.008612 0.875405
Si Si4 0.916155 0.567283 0.302775
Si Si5 0.362226 0.849822 0.653434
Si Si6 0.403538 0.892080 0.231293
Si Si7 0.603100 0.306090 0.043893
Si Si8 0.890213 0.640477 0.815372
O O1 0.766467 0.073785 0.413129
O O2 0.662299 0.034610 0.660891
O O3 0.893800 0.304182 0.467066
O O4 0.877729 0.836956 0.643793
O O5 0.644871 0.426958 0.261678
O O6 0.504271 0.701838 0.292120
O O7 0.759383 0.620731 0.328966
O O8 0.760452 0.875460 0.058098
O O9 0.978918 0.204214 0.780525
O O10 0.731028 0.146906 0.793675
O O11 0.882174 0.796688 0.868608
O O12 0.980693 0.497227 0.189793
O O13 0.368311 0.845300 0.790498
O O14 0.500000 0.000000 0.500000
O O15 0.511033 0.116629 0.065607
O O16 0.500000 0.500000 0.000000
O O17 0.752928 0.447553 0.916531
#
# Coordination Sequence:
#
# PCOD9041522 Si02
#       8
#     2   2   2   2   2   2   2   2
#     4  10  23  44  64 101 140 177 236 283 348 415
#     4  11  24  44  65 103 141 173 231 291 349 412
#     4  11  23  44  69 102 135 183 235 282 347 416
#     4  11  26  44  68  98 146 183 228 286 348 416
#     4  11  21  39  64  97 139 171 219 285 350 403
#     4  11  23  41  72  97 137 178 231 289 345 410
#     4  12  20  41  69 102 134 175 233 290 339 412
#     4  11  23  44  72  96 138 184 232 283 346 417
#
# _framework density 24.820069
#
# number of rings (size 3 to 8) (size 9 to 14) (size 15 to 20)
#    0.000    1.000    5.000    1.875    0.000    6.500 
#    4.500    0.000    0.000    0.000    0.000    0.000 
#    0.000    0.000    0.000    0.000    0.000    0.000 
#
# Total GULP energy -89305.901073 kJ/mol
# GULP energy per Si atom -5581.618817 kJ/mol
# Density = 2.476358 g / cm^3
# Si number density = 24.820069 Si / 1000 Ang^3
#
#
#
# Elastic Constant Matrix: (Units=GPa)
#
#
# Indices 1 2 3 4 5 6 
#
# 1 55.5469 34.3576 14.4865 -12.8593 -0.1504 2.4974
# 2 34.3576 72.9726 2.9955 -8.1063 -3.0692 -1.5707
# 3 14.4865 2.9955 117.6284 -13.8231 -12.3019 13.0922
# 4 -12.8593 -8.1063 -13.8231 29.1492 10.6640 -9.5041
# 5 -0.1504 -3.0692 -12.3019 10.6640 57.3708 -15.2541
# 6 2.4974 -1.5707 13.0922 -9.5041 -15.2541 45.5867
#
#
#
# Elastic Compliance Matrix: (Units=1/GPa)
#
#
# Indices 1 2 3 4 5 6 
#
# 1 0.028351 -0.012397 -0.002390 0.008837 -0.002852 -0.000406
# 2 -0.012397 0.019652 0.001061 0.000460 0.001609 0.001686
# 3 -0.002390 0.001061 0.009387 0.002765 0.001131 -0.001573
# 4 0.008837 0.000460 0.002765 0.043726 -0.005926 0.005871
# 5 -0.002852 0.001609 0.001131 -0.005926 0.020301 0.005444
# 6 -0.000406 0.001686 -0.001573 0.005871 0.005444 0.025514
#
#
# Mechanical properties :
#
#
# Convention : Reuss Voigt Hill
#
# Bulk Modulus (GPa) = 33.40374 38.86970 36.13672
# Shear Modulus (GPa) = 27.12038 39.37521 33.24779
#
# Velocity S-wave (km/s) = 3.30916 3.98732 3.66396
# Velocity P-wave (km/s) = 5.29984 6.07395 5.70005
#
# Compressibility (1/GPa) = 0.02993677
#
# Stress axis : x y z
#
# Youngs Moduli (GPa) = 35.27263 50.88463 106.52929
#
# Poissons Ratio (x) = 0.63083 0.25465
# Poissons Ratio (y) = 0.43728 -0.11303
# Poissons Ratio (z) = 0.08432 -0.05399
#
# Static dielectric constant tensor:
#      x y z
#    x 2.005160 0.016840 0.049270 
#    y 0.016840 2.016580 0.060120 
#    z 0.049270 0.060120 2.023170 
# 
# From -- ./inp_files/494224.got.cif
#   From: 2010.05.17/outbox.cif.g08.bks.cpg/sg2_248_cif.got.tgz:494224.got - 2010.06.03 11:33:40.
