data_PCOD9041306
_publ_section_title
;
Structure prediction by ZEFSAII (Michael W. Deem and Ramdas Pophale) SiO2 
 PCOD9041306
Probable space group: P -1
;
_chemical_formula_sum "Si O2"
_cell_formula_units_Z 16
_cell_length_a 16.108655
_cell_length_b 5.344650
_cell_length_c 22.807564
_cell_angle_alpha 56.920765
_cell_angle_beta 156.909721
_cell_angle_gamma 123.951646
_cell_volume 635.693405
_symmetry_space_group_name_H-M "P -1"
_symmetry_group_IT_number 2
_symmetry_cell_setting 'triclinic'
loop_
_space_group_symop_operation_xyz
x,y,z
-x,-y,-z
loop_
_atom_site_type_symbol
_atom_site_label
_atom_site_fract_x
_atom_site_fract_y
_atom_site_fract_z
Si Si1 0.265203 0.875011 0.291418
Si Si2 0.183245 0.555161 0.160846
Si Si3 0.552838 0.371483 0.871883
Si Si4 0.966803 0.364290 0.220942
Si Si5 0.386394 0.787726 0.900789
Si Si6 0.266226 0.907706 0.473192
Si Si7 0.206516 0.748528 0.594020
Si Si8 0.579633 0.665193 0.335643
O O1 0.143544 0.732958 0.171193
O O2 0.157126 0.647269 0.300040
O O3 0.233690 0.213451 0.245397
O O4 0.515964 0.885309 0.436788
O O5 0.396720 0.755910 0.246500
O O6 0.000000 0.500000 0.000000
O O7 0.400749 0.600206 0.765665
O O8 0.561068 0.444772 0.799011
O O9 0.429054 0.028450 0.845529
O O10 0.775543 0.405272 0.046502
O O11 0.852409 0.322673 0.215452
O O12 0.065872 0.066144 0.307078
O O13 0.500000 0.500000 0.000000
O O14 0.500000 0.000000 0.000000
O O15 0.236539 0.841488 0.532805
O O16 0.312308 0.577789 0.528719
O O17 0.000000 0.500000 0.500000
O O18 0.228784 0.078302 0.593906
#
# Coordination Sequence:
#
# PCOD9041306 Si02
#       8
#     2   2   2   2   2   2   2   2
#     4  11  24  43  68 108 145 197 243 300 363 441
#     4  11  23  41  71 104 146 190 243 306 367 427
#     4  10  24  42  69 103 136 183 243 309 361 432
#     4  11  24  46  73 103 147 192 247 298 369 437
#     4  10  24  45  65 101 143 180 230 299 362 425
#     4  10  23  47  65 106 147 194 240 298 366 441
#     4  11  23  44  70  99 140 188 247 299 371 429
#     4  10  23  43  72  99 145 187 244 305 362 442
#
# _framework density 25.169367000000001
#
# number of rings (size 3 to 8) (size 9 to 14) (size 15 to 20)
#    0.000    1.500    1.250    2.250    5.250    4.000 
#   11.250    1.875    0.000    0.000    0.000    0.000 
#    0.000    0.000    0.000    0.000    0.000    0.000 
#
# Total GULP energy -89358.362568 kJ/mol
# GULP energy per Si atom -5584.897661 kJ/mol
# Density = 2.511208 g / cm^3
# Si number density = 25.169367 Si / 1000 Ang^3
#
#
#
# Elastic Constant Matrix: (Units=GPa)
#
#
# Indices 1 2 3 4 5 6 
#
# 1 75.1508 24.8193 28.5850 12.3127 2.6899 16.1600
# 2 24.8193 138.6148 55.5510 2.6566 16.8849 12.8263
# 3 28.5850 55.5510 159.8383 -9.1659 2.8860 22.6276
# 4 12.3127 2.6566 -9.1659 42.4220 7.3834 8.4998
# 5 2.6899 16.8849 2.8860 7.3834 42.5813 12.7306
# 6 16.1600 12.8263 22.6276 8.4998 12.7306 28.6340
#
#
#
# Elastic Compliance Matrix: (Units=1/GPa)
#
#
# Indices 1 2 3 4 5 6 
#
# 1 0.016680 -0.001939 -0.001555 -0.004062 0.002712 -0.007316
# 2 -0.001939 0.009063 -0.002884 -0.000203 -0.003522 0.000940
# 3 -0.001555 -0.002884 0.008630 0.003462 0.002023 -0.006577
# 4 -0.004062 -0.000203 0.003462 0.027421 -0.002437 -0.007409
# 5 0.002712 -0.003522 0.002023 -0.002437 0.029112 -0.013772
# 6 -0.007316 0.000940 -0.006577 -0.007409 -0.013772 0.052151
#
#
# Mechanical properties :
#
#
# Convention : Reuss Voigt Hill
#
# Bulk Modulus (GPa) = 46.26111 65.72384 55.99247
# Shear Modulus (GPa) = 30.67096 40.37070 35.52083
#
# Velocity S-wave (km/s) = 3.49461 4.00929 3.76077
# Velocity P-wave (km/s) = 5.89091 6.89941 6.41501
#
# Compressibility (1/GPa) = 0.02161643
#
# Stress axis : x y z
#
# Youngs Moduli (GPa) = 59.95136 110.33652 115.87446
#
# Poissons Ratio (x) = 0.21392 0.18023
# Poissons Ratio (y) = 0.11624 0.33421
# Poissons Ratio (z) = 0.09325 0.31824
#
# Static dielectric constant tensor:
#      x y z
#    x 1.818580 0.028100 0.115290 
#    y 0.028100 2.052720 -0.008130 
#    z 0.115290 -0.008130 1.921650 
# 
# From -- ./inp_files/620134.got.cif
#   From: 2010.05.17/outbox.cif.g08.bks.cpg/sg2_311_cif.got.tgz:620134.got - 2010.06.03 11:33:40.
