data_PCOD9041212
_publ_section_title
;
Structure prediction by ZEFSAII (Michael W. Deem and Ramdas Pophale) SiO2 
 PCOD9041212
Probable space group: P -1
;
_chemical_formula_sum "Si O2"
_cell_formula_units_Z 14
_cell_length_a 5.118877
_cell_length_b 27.238974
_cell_length_c 13.094137
_cell_angle_alpha 23.217857
_cell_angle_beta 53.270006
_cell_angle_gamma 54.762869
_cell_volume 574.698612
_symmetry_space_group_name_H-M "P -1"
_symmetry_group_IT_number 2
_symmetry_cell_setting 'triclinic'
loop_
_space_group_symop_operation_xyz
x,y,z
-x,-y,-z
loop_
_atom_site_type_symbol
_atom_site_label
_atom_site_fract_x
_atom_site_fract_y
_atom_site_fract_z
Si Si1 0.595312 0.791104 0.078831
Si Si2 0.927236 0.833148 0.703326
Si Si3 0.592745 0.939053 0.379057
Si Si4 0.387315 0.587019 0.037526
Si Si5 0.697690 0.694065 0.446223
Si Si6 0.915617 0.738214 0.531830
Si Si7 0.604983 0.516916 0.557330
O O1 0.774733 0.813721 0.887047
O O2 0.362292 0.915118 0.916161
O O3 0.809311 0.761826 0.187518
O O4 0.462582 0.656051 0.354108
O O5 0.211517 0.925579 0.472980
O O6 0.682140 0.885714 0.572460
O O7 0.112425 0.701945 0.874381
O O8 0.789618 0.854634 0.410081
O O9 0.247508 0.457020 0.286760
O O10 0.489153 0.574074 0.157553
O O11 0.705620 0.623860 0.833576
O O12 0.823036 0.751654 0.409542
O O13 0.301300 0.714306 0.501595
O O14 0.500000 0.500000 0.500000
O O15 0.000000 0.500000 0.500000
#
# Coordination Sequence:
#
# PCOD9041212 Si02
#       7
#     2   2   2   2   2   2   2
#     4  11  26  45  70  99 143 173 224 275 339 407
#     4  11  24  43  71 101 136 173 224 277 340 404
#     4  11  26  44  70 100 130 186 223 277 333 393
#     4  10  23  43  71  97 135 173 220 281 336 396
#     4  11  26  42  68 100 130 184 220 281 333 387
#     4  11  24  44  65  97 136 175 236 268 324 395
#     4  11  25  41  66 101 135 170 207 271 342 395
#
# _framework density 24.360593000000001
#
# number of rings (size 3 to 8) (size 9 to 14) (size 15 to 20)
#    0.000    1.143    1.429    3.429    4.000   12.571 
#    0.000    0.000    0.000    0.000    0.000    0.000 
#    0.000    0.000    0.000    0.000    0.000    0.000 
#
# Total GULP energy -78446.279711 kJ/mol
# GULP energy per Si atom -5603.305694 kJ/mol
# Density = 2.430515 g / cm^3
# Si number density = 24.360593 Si / 1000 Ang^3
#
#
#
# Elastic Constant Matrix: (Units=GPa)
#
#
# Indices 1 2 3 4 5 6 
#
# 1 99.5059 34.3806 24.7501 10.4353 7.9988 19.4251
# 2 34.3806 105.5138 39.3841 11.7746 2.8994 12.3510
# 3 24.7501 39.3841 120.6566 -9.7616 6.4535 15.9106
# 4 10.4353 11.7746 -9.7616 48.1140 7.4261 9.5834
# 5 7.9988 2.8994 6.4535 7.4261 30.6018 9.8607
# 6 19.4251 12.3510 15.9106 9.5834 9.8607 26.3587
#
#
#
# Elastic Compliance Matrix: (Units=1/GPa)
#
#
# Indices 1 2 3 4 5 6 
#
# 1 0.012760 -0.002952 -0.000745 -0.000706 -0.000421 -0.007156
# 2 -0.002952 0.012182 -0.003602 -0.003138 0.001374 -0.000732
# 3 -0.000745 -0.003602 0.010760 0.004483 -0.001050 -0.005495
# 4 -0.000706 -0.003138 0.004483 0.024862 -0.003813 -0.008328
# 5 -0.000421 0.001374 -0.001050 -0.003813 0.037820 -0.012462
# 6 -0.007156 -0.000732 -0.005495 -0.008328 -0.012462 0.054562
#
#
# Mechanical properties :
#
#
# Convention : Reuss Voigt Hill
#
# Bulk Modulus (GPa) = 47.38192 58.07842 52.73017
# Shear Modulus (GPa) = 28.64086 36.15901 32.39994
#
# Velocity S-wave (km/s) = 3.43257 3.85687 3.65089
# Velocity P-wave (km/s) = 5.93317 6.61263 6.28209
#
# Compressibility (1/GPa) = 0.02110510
#
# Stress axis : x y z
#
# Youngs Moduli (GPa) = 78.37219 82.09078 92.93779
#
# Poissons Ratio (x) = 0.24230 0.06922
# Poissons Ratio (y) = 0.23132 0.33473
# Poissons Ratio (z) = 0.05837 0.29566
#
# Static dielectric constant tensor:
#      x y z
#    x 1.985160 -0.007280 -0.021370 
#    y -0.007280 1.938930 0.009400 
#    z -0.021370 0.009400 1.922810 
# 
# From -- ./inp_files/371237.got.cif
#   From: 2010.05.17/outbox.cif.g08.bks.cpg/sg2_186_cif.got.tgz:371237.got - 2010.06.03 11:33:40.
