data_PCOD9041943
_publ_section_title
;
Structure prediction by ZEFSAII (Michael W. Deem and Ramdas Pophale) SiO2 
 PCOD9041943
Probable space group: P -1
;
_chemical_formula_sum "Si O2"
_cell_formula_units_Z 14
_cell_length_a 5.202996
_cell_length_b 9.229472
_cell_length_c 17.325670
_cell_angle_alpha 119.408441
_cell_angle_beta 106.347180
_cell_angle_gamma 60.975915
_cell_volume 632.742394
_symmetry_space_group_name_H-M "P -1"
_symmetry_group_IT_number 2
_symmetry_cell_setting 'triclinic'
loop_
_space_group_symop_operation_xyz
x,y,z
-x,-y,-z
loop_
_atom_site_type_symbol
_atom_site_label
_atom_site_fract_x
_atom_site_fract_y
_atom_site_fract_z
Si Si1 0.987488 0.103080 0.104462
Si Si2 0.285674 0.848514 0.754845
Si Si3 0.783896 0.841865 0.622414
Si Si4 0.288661 0.472538 0.796820
Si Si5 0.494133 0.117783 0.790565
Si Si6 0.796595 0.191272 0.491711
Si Si7 0.283414 0.533451 0.307896
O O1 0.735510 0.111392 0.145835
O O2 0.898483 0.317783 0.139229
O O3 0.277279 0.988969 0.150269
O O4 0.000000 0.000000 0.000000
O O5 0.585939 0.680499 0.714814
O O6 0.044626 0.770057 0.690214
O O7 0.251937 0.033973 0.758333
O O8 0.503927 0.798099 0.570368
O O9 0.980974 0.795304 0.550263
O O10 0.630028 0.047184 0.698473
O O11 0.415719 0.330672 0.840680
O O12 0.533199 0.459989 0.750921
O O13 0.056953 0.404182 0.722446
O O14 0.693322 0.347212 0.588359
O O15 0.000000 0.000000 0.500000
#
# Coordination Sequence:
#
# PCOD9041943 Si02
#       7
#     2   2   2   2   2   2   2
#     4  10  24  45  70 103 132 167 219 276 332 404
#     4  10  23  44  68  92 135 176 217 275 337 393
#     4  11  23  39  61  93 130 179 224 267 329 379
#     4  11  24  43  70  96 135 179 217 266 334 398
#     4  11  22  44  69  95 137 178 217 269 336 397
#     4  12  23  38  60  94 133 175 229 281 313 377
#     4  11  24  43  65  97 133 178 228 268 328 388
#
# _framework density 22.125907999999999
#
# number of rings (size 3 to 8) (size 9 to 14) (size 15 to 20)
#    0.000    1.143    2.857    3.000    4.000    2.286 
#    0.000    0.714    0.000    0.000    0.000    0.000 
#    0.000    0.000    0.000    0.000    0.000    0.000 
#
# Total GULP energy -78032.631020 kJ/mol
# GULP energy per Si atom -5573.759359 kJ/mol
# Density = 2.207555 g / cm^3
# Si number density = 22.125908 Si / 1000 Ang^3
#
#
#
# Elastic Constant Matrix: (Units=GPa)
#
#
# Indices 1 2 3 4 5 6 
#
# 1 125.1065 27.9147 30.6946 -1.1534 -0.1966 2.8881
# 2 27.9147 141.8928 45.1569 7.1209 -7.7052 11.9973
# 3 30.6946 45.1569 132.5978 21.1884 -15.6530 4.6092
# 4 -1.1534 7.1209 21.1884 20.9778 -3.0686 -1.2641
# 5 -0.1966 -7.7052 -15.6530 -3.0686 22.6149 0.0571
# 6 2.8881 11.9973 4.6092 -1.2641 0.0571 23.3978
#
#
#
# Elastic Compliance Matrix: (Units=1/GPa)
#
#
# Indices 1 2 3 4 5 6 
#
# 1 0.008858 -0.001263 -0.002288 0.003014 -0.001529 0.000172
# 2 -0.001263 0.008413 -0.002168 -0.000778 0.001258 -0.003776
# 3 -0.002288 -0.002168 0.011090 -0.009855 0.005584 -0.001336
# 4 0.003014 -0.000778 -0.009855 0.058489 0.000863 0.005126
# 5 -0.001529 0.001258 0.005584 0.000863 0.048620 -0.001628
# 6 0.000172 -0.003776 -0.001336 0.005126 -0.001628 0.045198
#
#
# Mechanical properties :
#
#
# Convention : Reuss Voigt Hill
#
# Bulk Modulus (GPa) = 59.09809 67.45883 63.27846
# Shear Modulus (GPa) = 25.28473 33.12015 29.20244
#
# Velocity S-wave (km/s) = 3.38415 3.87317 3.63689
# Velocity P-wave (km/s) = 6.48366 7.11033 6.80421
#
# Compressibility (1/GPa) = 0.01692102
#
# Stress axis : x y z
#
# Youngs Moduli (GPa) = 112.89369 118.86629 90.16979
#
# Poissons Ratio (x) = 0.15014 0.20634
# Poissons Ratio (y) = 0.14260 0.19553
# Poissons Ratio (z) = 0.25834 0.25776
#
# Static dielectric constant tensor:
#      x y z
#    x 1.930910 0.004150 0.012870 
#    y 0.004150 1.924290 -0.057920 
#    z 0.012870 -0.057920 1.775680 
# 
# From -- ./inp_files/480790.got.cif
#   From: 2010.05.17/outbox.cif.g08.bks.cpg/sg2_241_cif.got.tgz:480790.got - 2010.06.03 11:33:40.
