data_PCOD9041571
_publ_section_title
;
Structure prediction by ZEFSAII (Michael W. Deem and Ramdas Pophale) SiO2 
 PCOD9041571
Probable space group: P -1
;
_chemical_formula_sum "Si O2"
_cell_formula_units_Z 16
_cell_length_a 8.534897
_cell_length_b 23.604231
_cell_length_c 8.654330
_cell_angle_alpha 31.727475
_cell_angle_beta 56.103121
_cell_angle_gamma 52.561908
_cell_volume 724.548106
_symmetry_space_group_name_H-M "P -1"
_symmetry_group_IT_number 2
_symmetry_cell_setting 'triclinic'
loop_
_space_group_symop_operation_xyz
x,y,z
-x,-y,-z
loop_
_atom_site_type_symbol
_atom_site_label
_atom_site_fract_x
_atom_site_fract_y
_atom_site_fract_z
Si Si1 0.420190 0.982957 0.253181
Si Si2 0.724148 0.449317 0.060539
Si Si3 0.986123 0.691171 0.013399
Si Si4 0.838912 0.835168 0.463797
Si Si5 0.627994 0.780595 0.186040
Si Si6 0.682123 0.668727 0.743661
Si Si7 0.281300 0.772156 0.877378
Si Si8 0.235217 0.783991 0.239502
O O1 0.623679 0.925383 0.367598
O O2 0.296440 0.894685 0.532886
O O3 0.500000 0.000000 0.000000
O O4 0.307067 0.106837 0.090515
O O5 0.879893 0.413275 0.917871
O O6 0.739342 0.335657 0.411217
O O7 0.500000 0.500000 0.000000
O O8 0.769003 0.541174 0.935304
O O9 0.127866 0.731069 0.957718
O O10 0.893406 0.787771 0.713802
O O11 0.797810 0.683583 0.231340
O O12 0.821074 0.731499 0.604532
O O13 0.024249 0.867308 0.217843
O O14 0.598957 0.737507 0.472481
O O15 0.425192 0.815323 0.122417
O O16 0.498306 0.685806 0.920467
O O17 0.238210 0.774037 0.077547
#
# Coordination Sequence:
#
# PCOD9041571 Si02
#       8
#     2   2   2   2   2   2   2   2
#     4  11  24  43  71  96 131 178 216 267 341 385
#     4  11  22  46  70  98 129 181 214 271 340 385
#     4  11  25  42  68  98 135 173 224 270 327 392
#     4  10  23  44  65 100 131 177 221 271 326 392
#     4  12  23  43  67  98 135 173 218 277 323 394
#     4  11  21  43  70  93 140 168 219 276 324 390
#     4  11  23  43  65  98 135 171 219 276 318 394
#     4  11  25  42  68  98 136 172 224 271 326 391
#
# _framework density 22.082730999999999
#
# number of rings (size 3 to 8) (size 9 to 14) (size 15 to 20)
#    0.000    1.000    5.000    3.000    0.000    6.000 
#    0.000    0.000    0.000    0.000    0.000    0.000 
#    0.000    0.000    0.000    0.000    0.000    0.000 
#
# Total GULP energy -89478.713797 kJ/mol
# GULP energy per Si atom -5592.419612 kJ/mol
# Density = 2.203247 g / cm^3
# Si number density = 22.082731 Si / 1000 Ang^3
#
#
#
# Elastic Constant Matrix: (Units=GPa)
#
#
# Indices 1 2 3 4 5 6 
#
# 1 74.0647 -14.3518 -5.9495 12.5822 -1.1643 8.9705
# 2 -14.3518 75.9338 13.8584 6.8945 -8.5240 7.8658
# 3 -5.9495 13.8584 38.8343 -0.7844 -0.9581 15.5632
# 4 12.5822 6.8945 -0.7844 37.3120 12.5896 -3.9562
# 5 -1.1643 -8.5240 -0.9581 12.5896 32.9015 5.9737
# 6 8.9705 7.8658 15.5632 -3.9562 5.9737 39.6596
#
#
#
# Elastic Compliance Matrix: (Units=1/GPa)
#
#
# Indices 1 2 3 4 5 6 
#
# 1 0.017913 0.005351 0.004460 -0.010544 0.007836 -0.009095
# 2 0.005351 0.017079 -0.002980 -0.008601 0.008838 -0.005618
# 3 0.004460 -0.002980 0.033327 -0.003204 0.004206 -0.014449
# 4 -0.010544 -0.008601 -0.003204 0.040029 -0.020262 0.012393
# 5 0.007836 0.008838 0.004206 -0.020262 0.043328 -0.013723
# 6 -0.009095 -0.005618 -0.014449 0.012393 -0.013723 0.037359
#
#
# Mechanical properties :
#
#
# Convention : Reuss Voigt Hill
#
# Bulk Modulus (GPa) = 12.19788 19.54965 15.87377
# Shear Modulus (GPa) = 24.66700 34.99301 29.83000
#
# Velocity S-wave (km/s) = 3.34582 3.98506 3.67935
# Velocity P-wave (km/s) = 4.52346 5.48146 5.02534
#
# Compressibility (1/GPa) = 0.08198148
#
# Stress axis : x y z
#
# Youngs Moduli (GPa) = 55.82613 58.54979 30.00600
#
# Poissons Ratio (x) = -0.31328 -0.13383
# Poissons Ratio (y) = -0.29871 0.08940
# Poissons Ratio (z) = -0.24899 0.17445
#
# Static dielectric constant tensor:
#      x y z
#    x 1.793850 -0.025130 -0.022110 
#    y -0.025130 1.812840 -0.012490 
#    z -0.022110 -0.012490 1.809250 
# 
# From -- ./inp_files/225812.got.cif
#   From: 2010.05.17/outbox.cif.g08.bks.cpg/sg2_113_cif.got.tgz:225812.got - 2010.06.03 11:33:40.
