data_PCOD9041552
_publ_section_title
;
Structure prediction by ZEFSAII (Michael W. Deem and Ramdas Pophale) SiO2 
 PCOD9041552
Probable space group: P -1
;
_chemical_formula_sum "Si O2"
_cell_formula_units_Z 16
_cell_length_a 14.162262
_cell_length_b 5.328048
_cell_length_c 14.312652
_cell_angle_alpha 90.820200
_cell_angle_beta 139.921934
_cell_angle_gamma 104.643427
_cell_volume 634.228870
_symmetry_space_group_name_H-M "P -1"
_symmetry_group_IT_number 2
_symmetry_cell_setting 'triclinic'
loop_
_space_group_symop_operation_xyz
x,y,z
-x,-y,-z
loop_
_atom_site_type_symbol
_atom_site_label
_atom_site_fract_x
_atom_site_fract_y
_atom_site_fract_z
Si Si1 0.206971 0.512971 0.512638
Si Si2 0.511023 0.577910 0.207938
Si Si3 0.582028 0.243057 0.678171
Si Si4 0.138448 0.275332 0.174540
Si Si5 0.654365 0.886792 0.026192
Si Si6 0.701225 0.122359 0.253986
Si Si7 0.194224 0.949755 0.060571
Si Si8 0.799592 0.995604 0.606449
O O1 0.399726 0.590087 0.671986
O O2 0.153228 0.209746 0.426448
O O3 0.182806 0.606924 0.600404
O O4 0.161724 0.710761 0.410940
O O5 0.407551 0.630458 0.209381
O O6 0.654763 0.856310 0.283726
O O7 0.399357 0.439903 0.033284
O O8 0.693573 0.457702 0.687971
O O9 0.669255 0.045005 0.764369
O O10 0.392634 0.117377 0.519347
O O11 0.130953 0.048971 0.243814
O O12 0.144716 0.173982 0.073983
O O13 0.974908 0.316030 0.066061
O O14 0.749168 0.043722 0.189512
O O15 0.475062 0.877928 0.893618
O O16 0.742226 0.002943 0.996083
#
# Coordination Sequence:
#
# PCOD9041552 Si02
#       8
#     2   2   2   2   2   2   2   2
#     4  10  20  38  59  92 126 155 199 262 312 362
#     4  10  17  33  57  91 130 156 197 263 315 362
#     4  11  20  38  62  87 124 163 207 263 303 366
#     4  11  26  40  59  88 122 178 204 255 311 372
#     4  10  19  32  58  89 125 163 204 251 314 377
#     4  10  18  33  58  95 122 159 198 263 319 359
#     4  11  23  42  59  86 132 161 213 251 314 373
#     4  11  24  40  65  94 125 164 213 259 306 366
#
# _framework density 25.227485000000001
#
# number of rings (size 3 to 8) (size 9 to 14) (size 15 to 20)
#    0.000    1.500    5.000    1.875    3.500    0.500 
#    0.000    0.000    0.000    1.500    0.000    0.000 
#    0.000    0.000    0.000    0.000    0.000    0.000 
#
# Total GULP energy -89126.252336 kJ/mol
# GULP energy per Si atom -5570.390771 kJ/mol
# Density = 2.517007 g / cm^3
# Si number density = 25.227485 Si / 1000 Ang^3
#
#
#
# Elastic Constant Matrix: (Units=GPa)
#
#
# Indices 1 2 3 4 5 6 
#
# 1 74.6252 0.7460 17.0309 21.2403 -18.8347 -13.2960
# 2 0.7460 62.6399 5.6099 -9.2381 -3.2943 -14.8694
# 3 17.0309 5.6099 60.8438 4.1410 -12.4713 -9.1367
# 4 21.2403 -9.2381 4.1410 3.3594 -5.3501 -15.2223
# 5 -18.8347 -3.2943 -12.4713 -5.3501 39.8371 6.6867
# 6 -13.2960 -14.8694 -9.1367 -15.2223 6.6867 18.4608
#
#
#
# Elastic Compliance Matrix: (Units=1/GPa)
#
#
# Indices 1 2 3 4 5 6 
#
# 1 0.016709 0.005636 -0.001654 0.006208 0.005513 0.018877
# 2 0.005636 0.011893 -0.001752 -0.020848 0.001109 -0.004821
# 3 -0.001654 -0.001752 0.018389 -0.004469 0.004001 0.001365
# 4 0.006208 -0.020848 -0.004469 -0.051389 0.002622 -0.057856
# 5 0.005513 0.001109 0.004001 0.002622 0.029699 -0.001751
# 6 0.018877 -0.004821 0.001365 -0.057856 -0.001751 0.017485
#
#
# Mechanical properties :
#
#
# Convention : Reuss Voigt Hill
#
# Bulk Modulus (GPa) = 19.43597 27.20915 23.32256
# Shear Modulus (GPa) = 90.12456 23.97960 57.05208
#
# Velocity S-wave (km/s) = 5.98350 3.08642 4.76069
# Velocity P-wave (km/s) = 7.44697 4.84874 6.28362
#
# Compressibility (1/GPa) = 0.05145100
#
# Stress axis : x y z
#
# Youngs Moduli (GPa) = 59.84645 84.08136 54.37953
#
# Poissons Ratio (x) = -0.47387 0.08997
# Poissons Ratio (y) = -0.33728 0.09526
# Poissons Ratio (z) = 0.09901 0.14730
#
# Static dielectric constant tensor:
#      x y z
#    x 2.006830 -0.079720 -0.015280 
#    y -0.079720 2.242850 0.092740 
#    z -0.015280 0.092740 2.079470 
# 
# From -- ./inp_files/525351.got.cif
#   From: 2010.05.17/outbox.cif.g08.bks.cpg/sg2_263_cif.got.tgz:525351.got - 2010.06.03 11:33:40.
