data_PCOD9041429
_publ_section_title
;
Structure prediction by ZEFSAII (Michael W. Deem and Ramdas Pophale) SiO2 
 PCOD9041429
Probable space group: P -1
;
_chemical_formula_sum "Si O2"
_cell_formula_units_Z 14
_cell_length_a 9.840787
_cell_length_b 16.097542
_cell_length_c 13.205123
_cell_angle_alpha 141.419764
_cell_angle_beta 33.201030
_cell_angle_gamma 148.895733
_cell_volume 575.765293
_symmetry_space_group_name_H-M "P -1"
_symmetry_group_IT_number 2
_symmetry_cell_setting 'triclinic'
loop_
_space_group_symop_operation_xyz
x,y,z
-x,-y,-z
loop_
_atom_site_type_symbol
_atom_site_label
_atom_site_fract_x
_atom_site_fract_y
_atom_site_fract_z
Si Si1 0.066577 0.726697 0.956239
Si Si2 0.986361 0.986745 0.744747
Si Si3 0.636305 0.755736 0.561205
Si Si4 0.428837 0.756458 0.473041
Si Si5 0.702805 0.836345 0.975038
Si Si6 0.044779 0.670711 0.150397
Si Si7 0.240405 0.405439 0.182482
O O1 0.309146 0.685695 0.747606
O O2 0.810649 0.611702 0.922455
O O3 0.026546 0.721660 0.096293
O O4 0.141124 0.904156 0.049588
O O5 0.354871 0.110710 0.620852
O O6 0.863840 0.902573 0.633572
O O7 0.844800 0.849431 0.788608
O O8 0.605063 0.807663 0.518781
O O9 0.766240 0.649178 0.365001
O O10 0.369661 0.585705 0.313108
O O11 0.100275 0.713337 0.665125
O O12 0.603399 0.677145 0.950776
O O13 0.376739 0.805597 0.124424
O O14 0.000000 0.000000 0.000000
O O15 0.000000 0.500000 0.000000
#
# Coordination Sequence:
#
# PCOD9041429 Si02
#       7
#     2   2   2   2   2   2   2
#     4  11  24  46  77 104 142 192 249 295 363 437
#     4  12  24  42  73 108 142 195 240 302 368 433
#     4  11  24  45  74 105 142 188 249 301 356 441
#     4  10  23  43  75 105 138 199 248 294 367 443
#     4  12  27  46  68 108 155 186 242 315 365 428
#     4  12  28  49  75 110 148 196 247 304 371 440
#     4  10  24  48  70 103 152 191 244 303 364 440
#
# _framework density 24.315463000000001
#
# number of rings (size 3 to 8) (size 9 to 14) (size 15 to 20)
#    0.000    0.857    4.286    1.714    2.000    2.857 
#    7.714    0.000    0.000    0.000    0.000    0.000 
#    0.000    0.000    0.000    0.000    0.000    0.000 
#
# Total GULP energy -78244.577067 kJ/mol
# GULP energy per Si atom -5588.898362 kJ/mol
# Density = 2.426012 g / cm^3
# Si number density = 24.315463 Si / 1000 Ang^3
#
#
#
# Elastic Constant Matrix: (Units=GPa)
#
#
# Indices 1 2 3 4 5 6 
#
# 1 111.8675 34.0964 35.5694 11.3749 4.3562 12.3209
# 2 34.0964 55.4612 6.3769 6.1412 3.8608 3.8799
# 3 35.5694 6.3769 132.4108 0.3356 -4.2372 18.5216
# 4 11.3749 6.1412 0.3356 32.9810 14.3800 5.5667
# 5 4.3562 3.8608 -4.2372 14.3800 34.1714 -5.0650
# 6 12.3209 3.8799 18.5216 5.5667 -5.0650 31.7683
#
#
#
# Elastic Compliance Matrix: (Units=1/GPa)
#
#
# Indices 1 2 3 4 5 6 
#
# 1 0.012381 -0.006859 -0.002721 -0.002447 -0.000410 -0.002015
# 2 -0.006859 0.022405 0.000801 -0.001247 -0.001107 -0.000502
# 3 -0.002721 0.000801 0.008865 0.001401 0.000108 -0.004440
# 4 -0.002447 -0.001247 0.001401 0.040888 -0.018026 -0.009754
# 5 -0.000410 -0.001107 0.000108 -0.018026 0.038452 0.009520
# 6 -0.002015 -0.000502 -0.004440 -0.009754 0.009520 0.038136
#
#
# Mechanical properties :
#
#
# Convention : Reuss Voigt Hill
#
# Bulk Modulus (GPa) = 38.32020 50.20276 44.26148
# Shear Modulus (GPa) = 26.68337 34.69726 30.69032
#
# Velocity S-wave (km/s) = 3.31627 3.78161 3.55656
# Velocity P-wave (km/s) = 5.51882 6.30545 5.92520
#
# Compressibility (1/GPa) = 0.02609589
#
# Stress axis : x y z
#
# Youngs Moduli (GPa) = 80.76684 44.63235 112.79707
#
# Poissons Ratio (x) = 0.30611 0.30690
# Poissons Ratio (y) = 0.55394 -0.09038
# Poissons Ratio (z) = 0.21975 -0.03576
#
# Static dielectric constant tensor:
#      x y z
#    x 1.926230 0.026380 -0.042410 
#    y 0.026380 1.984740 -0.067310 
#    z -0.042410 -0.067310 1.944020 
# 
# From -- ./inp_files/396305.got.cif
#   From: 2010.05.17/outbox.cif.g08.bks.cpg/sg2_199_cif.got.tgz:396305.got - 2010.06.03 11:33:40.
