data_PCOD9041953
_publ_section_title
;
Structure prediction by ZEFSAII (Michael W. Deem and Ramdas Pophale) SiO2 
 PCOD9041953
Probable space group: P -1
;
_chemical_formula_sum "Si O2"
_cell_formula_units_Z 14
_cell_length_a 22.082834
_cell_length_b 21.017511
_cell_length_c 9.402877
_cell_angle_alpha 30.055215
_cell_angle_beta 151.704363
_cell_angle_gamma 161.227750
_cell_volume 651.028295
_symmetry_space_group_name_H-M "P -1"
_symmetry_group_IT_number 2
_symmetry_cell_setting 'triclinic'
loop_
_space_group_symop_operation_xyz
x,y,z
-x,-y,-z
loop_
_atom_site_type_symbol
_atom_site_label
_atom_site_fract_x
_atom_site_fract_y
_atom_site_fract_z
Si Si1 0.290095 0.525092 0.413339
Si Si2 0.290731 0.486378 0.043834
Si Si3 0.079533 0.926884 0.364987
Si Si4 0.395173 0.844102 0.457954
Si Si5 0.024858 0.408429 0.848152
Si Si6 0.572647 0.932125 0.364287
Si Si7 0.617755 0.692786 0.562433
O O1 0.406735 0.695671 0.442369
O O2 0.453331 0.560292 0.605610
O O3 0.106283 0.302427 0.525442
O O4 0.203989 0.552494 0.057625
O O5 0.488503 0.624960 0.285945
O O6 0.277871 0.360241 0.153144
O O7 0.326244 0.647680 0.729890
O O8 0.096371 0.345791 0.019096
O O9 0.215922 0.957549 0.472204
O O10 0.225847 0.079172 0.504532
O O11 0.000000 0.000000 0.000000
O O12 0.181591 0.753099 0.175542
O O13 0.553501 0.955548 0.442446
O O14 0.500000 0.000000 0.500000
O O15 0.000000 0.500000 0.500000
O O16 0.500000 0.000000 0.000000
#
# Coordination Sequence:
#
# PCOD9041953 Si02
#       7
#     2   2   2   2   2   2   2
#     4  10  23  44  68  94 135 173 219 280 334 390
#     4   9  20  41  64  91 127 172 212 273 325 393
#     4  11  26  42  68  98 134 174 226 273 328 404
#     4  11  25  38  65  95 131 167 219 272 333 389
#     4   9  20  39  64  93 127 170 215 272 327 393
#     4  11  27  45  69  98 134 178 223 275 338 401
#     4   9  21  42  67  92 130 168 219 267 332 388
#
# _framework density 21.504442000000001
#
# number of rings (size 3 to 8) (size 9 to 14) (size 15 to 20)
#    0.000    2.000    0.000    0.857   14.000    4.571 
#    0.000    2.143    0.000    0.000    0.000    0.000 
#    0.000    0.000    0.000    0.000    0.000    0.000 
#
# Total GULP energy -78152.421107 kJ/mol
# GULP energy per Si atom -5582.315793 kJ/mol
# Density = 2.145550 g / cm^3
# Si number density = 21.504442 Si / 1000 Ang^3
#
#
#
# Elastic Constant Matrix: (Units=GPa)
#
#
# Indices 1 2 3 4 5 6 
#
# 1 170.1803 53.9700 37.4682 -7.0380 24.8715 1.3777
# 2 53.9700 99.7956 9.3103 -14.1659 13.1234 16.7784
# 3 37.4682 9.3103 71.8309 -5.9479 18.3736 16.6321
# 4 -7.0380 -14.1659 -5.9479 26.6664 6.4055 -2.6324
# 5 24.8715 13.1234 18.3736 6.4055 33.6803 9.4805
# 6 1.3777 16.7784 16.6321 -2.6324 9.4805 21.9455
#
#
#
# Elastic Compliance Matrix: (Units=1/GPa)
#
#
# Indices 1 2 3 4 5 6 
#
# 1 0.009413 -0.005536 -0.005168 0.000500 -0.004798 0.009690
# 2 -0.005536 0.016328 0.005361 0.007658 -0.002680 -0.014123
# 3 -0.005168 0.005361 0.022082 0.006385 -0.006803 -0.016805
# 4 0.000500 0.007658 0.006385 0.047263 -0.016395 0.002027
# 5 -0.004798 -0.002680 -0.006803 -0.016395 0.045023 -0.013911
# 6 0.009690 -0.014123 -0.016805 0.002027 -0.013911 0.074746
#
#
# Mechanical properties :
#
#
# Convention : Reuss Voigt Hill
#
# Bulk Modulus (GPa) = 26.92656 60.36709 43.64683
# Shear Modulus (GPa) = 21.01555 32.52901 26.77228
#
# Velocity S-wave (km/s) = 3.12952 3.89352 3.53223
# Velocity P-wave (km/s) = 5.06034 6.95309 6.08081
#
# Compressibility (1/GPa) = 0.03713805
#
# Stress axis : x y z
#
# Youngs Moduli (GPa) = 106.23780 61.24463 45.28533
#
# Poissons Ratio (x) = 0.33904 0.23401
# Poissons Ratio (y) = 0.58811 -0.24277
# Poissons Ratio (z) = 0.54899 -0.32832
#
# Static dielectric constant tensor:
#      x y z
#    x 1.826260 0.074890 0.273180 
#    y 0.074890 1.838250 0.451080 
#    z 0.273180 0.451080 4.563170 
# 
# From -- ./inp_files/349667.got.cif
#   From: 2010.05.17/outbox.cif.g08.bks.cpg/sg2_175_cif.got.tgz:349667.got - 2010.06.03 11:33:40.
