data_PCOD9041097
_publ_section_title
;
Structure prediction by ZEFSAII (Michael W. Deem and Ramdas Pophale) SiO2 
 PCOD9041097
Probable space group: P -1
;
_chemical_formula_sum "Si O2"
_cell_formula_units_Z 14
_cell_length_a 28.335375
_cell_length_b 6.501507
_cell_length_c 7.937653
_cell_angle_alpha 120.328059
_cell_angle_beta 38.839842
_cell_angle_gamma 135.979051
_cell_volume 632.170331
_symmetry_space_group_name_H-M "P -1"
_symmetry_group_IT_number 2
_symmetry_cell_setting 'triclinic'
loop_
_space_group_symop_operation_xyz
x,y,z
-x,-y,-z
loop_
_atom_site_type_symbol
_atom_site_label
_atom_site_fract_x
_atom_site_fract_y
_atom_site_fract_z
Si Si1 0.541020 0.326777 0.248984
Si Si2 0.890436 0.275449 0.261008
Si Si3 0.266205 0.263898 0.934404
Si Si4 0.519809 0.805302 0.020089
Si Si5 0.891270 0.295374 0.668537
Si Si6 0.207224 0.403042 0.838504
Si Si7 0.727466 0.208314 0.487954
O O1 0.500000 0.500000 0.500000
O O2 0.648418 0.534105 0.094310
O O3 0.528394 0.283212 0.065827
O O4 0.491847 0.977258 0.287247
O O5 0.880267 0.267004 0.486663
O O6 0.822190 0.340546 0.387910
O O7 0.854155 0.949708 0.164413
O O8 0.000000 0.500000 0.000000
O O9 0.260959 0.455042 0.884973
O O10 0.285884 0.056179 0.694582
O O11 0.169087 0.028558 0.207440
O O12 0.632808 0.044262 0.789299
O O13 0.500000 0.500000 0.000000
O O14 0.000000 0.500000 0.500000
O O15 0.851913 0.470783 0.918242
O O16 0.263954 0.561656 0.574771
#
# Coordination Sequence:
#
# PCOD9041097 Si02
#       7
#     2   2   2   2   2   2   2
#     4  11  25  47  68 104 138 182 236 287 356 418
#     4  11  25  42  68 102 138 181 225 280 347 412
#     4  10  23  43  70  99 135 183 230 285 346 410
#     4  11  27  45  71 104 140 183 235 296 352 418
#     4  11  25  43  68 103 136 175 232 278 342 417
#     4  10  24  44  68  96 142 178 224 288 339 409
#     4  10  23  45  67 101 138 178 235 282 348 416
#
# _framework density 22.145928999999999
#
# number of rings (size 3 to 8) (size 9 to 14) (size 15 to 20)
#    0.000    1.429    1.429    2.571    6.000    9.714 
#    0.000    0.000    0.000    0.000    0.000    0.000 
#    0.000    0.000    0.000    0.000    0.000    0.000 
#
# Total GULP energy -78216.496629 kJ/mol
# GULP energy per Si atom -5586.892616 kJ/mol
# Density = 2.209552 g / cm^3
# Si number density = 22.145929 Si / 1000 Ang^3
#
#
#
# Elastic Constant Matrix: (Units=GPa)
#
#
# Indices 1 2 3 4 5 6 
#
# 1 152.9970 56.1839 46.1640 -22.2860 -13.2778 7.3192
# 2 56.1839 122.8064 51.1660 4.3387 -12.0059 -7.7029
# 3 46.1640 51.1660 99.4817 -11.0128 -7.4807 1.1995
# 4 -22.2860 4.3387 -11.0128 38.0426 10.5223 7.7552
# 5 -13.2778 -12.0059 -7.4807 10.5223 35.5929 -2.6716
# 6 7.3192 -7.7029 1.1995 7.7552 -2.6716 45.0381
#
#
#
# Elastic Compliance Matrix: (Units=1/GPa)
#
#
# Indices 1 2 3 4 5 6 
#
# 1 0.009634 -0.004226 -0.001567 0.006449 -0.000321 -0.003376
# 2 -0.004226 0.013373 -0.005503 -0.007783 0.004434 0.004724
# 3 -0.001567 -0.005503 0.014051 0.004418 -0.000934 -0.001877
# 4 0.006449 -0.007783 0.004418 0.037226 -0.011014 -0.009560
# 5 -0.000321 0.004434 -0.000934 -0.011014 0.032882 0.004682
# 6 -0.003376 0.004724 -0.001877 -0.009560 0.004682 0.025534
#
#
# Mechanical properties :
#
#
# Convention : Reuss Voigt Hill
#
# Bulk Modulus (GPa) = 69.11740 75.81254 72.46497
# Shear Modulus (GPa) = 31.22816 38.51945 34.87380
#
# Velocity S-wave (km/s) = 3.75921 4.17507 3.97259
# Velocity P-wave (km/s) = 7.07955 7.58611 7.33720
#
# Compressibility (1/GPa) = 0.01446814
#
# Stress axis : x y z
#
# Youngs Moduli (GPa) = 103.80431 74.77550 71.17102
#
# Poissons Ratio (x) = 0.31597 0.11149
# Poissons Ratio (y) = 0.43863 0.39162
# Poissons Ratio (z) = 0.16262 0.41146
#
# Static dielectric constant tensor:
#      x y z
#    x 1.867030 -0.086590 0.013420 
#    y -0.086590 1.875600 0.017070 
#    z 0.013420 0.017070 1.852990 
# 
# From -- ./inp_files/355842.got.cif
#   From: 2010.05.17/outbox.cif.g08.bks.cpg/sg2_178_cif.got.tgz:355842.got - 2010.06.03 11:33:40.
