data_PCOD9041925
_publ_section_title
;
Structure prediction by ZEFSAII (Michael W. Deem and Ramdas Pophale) SiO2 
 PCOD9041925
Probable space group: P -1
;
_chemical_formula_sum "Si O2"
_cell_formula_units_Z 16
_cell_length_a 15.775586
_cell_length_b 7.969287
_cell_length_c 10.893918
_cell_angle_alpha 121.217204
_cell_angle_beta 144.538393
_cell_angle_gamma 76.411700
_cell_volume 629.303447
_symmetry_space_group_name_H-M "P -1"
_symmetry_group_IT_number 2
_symmetry_cell_setting 'triclinic'
loop_
_space_group_symop_operation_xyz
x,y,z
-x,-y,-z
loop_
_atom_site_type_symbol
_atom_site_label
_atom_site_fract_x
_atom_site_fract_y
_atom_site_fract_z
Si Si1 0.196883 0.856922 0.763476
Si Si2 0.985560 0.327532 0.775967
Si Si3 0.465435 0.712671 0.046511
Si Si4 0.641528 0.475298 0.728442
Si Si5 0.008970 0.771498 0.899666
Si Si6 0.911013 0.874309 0.588054
Si Si7 0.624286 0.733468 0.011164
Si Si8 0.368509 0.953825 0.431781
O O1 0.073433 0.887016 0.722738
O O2 0.097979 0.757689 0.485908
O O3 0.321675 0.088420 0.961997
O O4 0.297870 0.725999 0.883612
O O5 0.965530 0.556544 0.849078
O O6 0.920486 0.118700 0.708348
O O7 0.173360 0.382556 0.011570
O O8 0.495575 0.771414 0.959591
O O9 0.589849 0.864181 0.348593
O O10 0.500000 0.500000 0.000000
O O11 0.500000 0.500000 0.500000
O O12 0.630901 0.252459 0.578930
O O13 0.595246 0.509864 0.827152
O O14 0.897642 0.721797 0.629692
O O15 0.196788 0.858086 0.130278
O O16 0.000000 0.000000 0.000000
O O17 0.772707 0.776557 0.291510
O O18 0.500000 0.000000 0.500000
#
# Coordination Sequence:
#
# PCOD9041925 Si02
#       8
#     2   2   2   2   2   2   2   2
#     4  11  22  43  72  97 136 174 236 293 337 419
#     4  10  23  44  68 106 128 182 240 277 351 421
#     4  12  27  43  68 101 142 187 230 292 359 414
#     4  11  22  41  72  97 137 176 228 291 347 418
#     4  11  26  43  68  99 145 184 227 294 352 420
#     4  11  22  44  78  97 140 183 236 297 340 420
#     4  11  22  44  70 105 134 178 240 287 352 419
#     4  11  25  45  63 100 138 178 239 280 351 427
#
# _framework density 25.424935999999999
#
# number of rings (size 3 to 8) (size 9 to 14) (size 15 to 20)
#    0.000    1.000    2.500    4.125    5.250    2.000 
#    0.000    2.500    0.000    0.000    0.000    0.000 
#    0.000    0.000    0.000    0.000    0.000    0.000 
#
# Total GULP energy -89287.899152 kJ/mol
# GULP energy per Si atom -5580.493697 kJ/mol
# Density = 2.536707 g / cm^3
# Si number density = 25.424936 Si / 1000 Ang^3
#
#
#
# Elastic Constant Matrix: (Units=GPa)
#
#
# Indices 1 2 3 4 5 6 
#
# 1 40.8647 23.7980 -4.3793 10.8167 4.1662 -9.4489
# 2 23.7980 189.9203 58.8521 -4.5852 -2.9088 -8.7196
# 3 -4.3793 58.8521 129.2652 -3.5328 -10.9010 -5.0779
# 4 10.8167 -4.5852 -3.5328 54.2723 -13.4915 -4.3334
# 5 4.1662 -2.9088 -10.9010 -13.4915 32.5535 3.3106
# 6 -9.4489 -8.7196 -5.0779 -4.3334 3.3106 36.0276
#
#
#
# Elastic Compliance Matrix: (Units=1/GPa)
#
#
# Indices 1 2 3 4 5 6 
#
# 1 0.032192 -0.004848 0.002721 -0.007971 -0.007698 0.007402
# 2 -0.004848 0.006917 -0.003201 0.001546 0.000801 0.000064
# 3 0.002721 -0.003201 0.009572 0.000568 0.002694 0.001109
# 4 -0.007971 0.001546 0.000568 0.022881 0.010819 0.000122
# 5 -0.007698 0.000801 0.002694 0.010819 0.037527 -0.003593
# 6 0.007402 0.000064 0.001109 0.000122 -0.003593 0.030214
#
#
# Mechanical properties :
#
#
# Convention : Reuss Voigt Hill
#
# Bulk Modulus (GPa) = 26.29765 57.39909 41.84837
# Shear Modulus (GPa) = 30.74394 43.35600 37.04997
#
# Velocity S-wave (km/s) = 3.48113 4.13395 3.82151
# Velocity P-wave (km/s) = 5.15009 6.73877 5.99727
#
# Compressibility (1/GPa) = 0.03802622
#
# Stress axis : x y z
#
# Youngs Moduli (GPa) = 31.06373 144.56443 104.47175
#
# Poissons Ratio (x) = 0.70079 -0.28431
# Poissons Ratio (y) = 0.15059 0.33444
# Poissons Ratio (z) = -0.08454 0.46279
#
# Static dielectric constant tensor:
#      x y z
#    x 2.181910 0.033260 -0.058210 
#    y 0.033260 2.019480 0.116310 
#    z -0.058210 0.116310 1.942060 
# 
# From -- ./inp_files/462520.got.cif
#   From: 2010.05.17/outbox.cif.g08.bks.cpg/sg2_232_cif.got.tgz:462520.got - 2010.06.03 11:33:40.
