data_PCOD9041600
_publ_section_title
;
Structure prediction by ZEFSAII (Michael W. Deem and Ramdas Pophale) SiO2 
 PCOD9041600
Probable space group: P -1
;
_chemical_formula_sum "Si O2"
_cell_formula_units_Z 12
_cell_length_a 11.841714
_cell_length_b 18.190890
_cell_length_c 9.791010
_cell_angle_alpha 134.452453
_cell_angle_beta 134.768777
_cell_angle_gamma 19.829096
_cell_volume 501.624183
_symmetry_space_group_name_H-M "P -1"
_symmetry_group_IT_number 2
_symmetry_cell_setting 'triclinic'
loop_
_space_group_symop_operation_xyz
x,y,z
-x,-y,-z
loop_
_atom_site_type_symbol
_atom_site_label
_atom_site_fract_x
_atom_site_fract_y
_atom_site_fract_z
Si Si1 0.111574 0.818314 0.372518
Si Si2 0.483954 0.355317 0.266707
Si Si3 0.209272 0.974586 0.079473
Si Si4 0.788611 0.421647 0.255850
Si Si5 0.080186 0.633261 0.016846
Si Si6 0.949849 0.578526 0.308936
O O1 0.248273 0.731822 0.532356
O O2 0.428478 0.627941 0.291790
O O3 0.887575 0.847855 0.176845
O O4 0.000000 0.000000 0.500000
O O5 0.359428 0.465123 0.156803
O O6 0.154976 0.526922 0.303950
O O7 0.661003 0.144865 0.109778
O O8 0.992845 0.200986 0.175331
O O9 0.550535 0.803200 0.231534
O O10 0.000000 0.000000 0.000000
O O11 0.980065 0.408923 0.470717
O O12 0.765940 0.445547 0.105717
O O13 0.914554 0.615306 0.846794
#
# Coordination Sequence:
#
# PCOD9041600 Si02
#       6
#     2   2   2   2   2   2
#     4  11  24  42  63  93 131 172 218 270 323 384
#     4  10  23  44  65  95 132 172 214 263 327 391
#     4  11  22  41  70  99 128 170 216 267 323 386
#     4  11  23  41  64  97 132 167 217 272 322 383
#     4  11  21  40  66  92 126 168 215 269 319 379
#     4  10  23  44  65  94 132 173 213 261 326 393
#
# _framework density 23.922293
#
# number of rings (size 3 to 8) (size 9 to 14) (size 15 to 20)
#    0.000    1.333    0.000    7.000    0.000    4.000 
#    0.000   18.333    0.000    0.000    0.000    0.000 
#    0.000    0.000    0.000    0.000    0.000    0.000 
#
# Total GULP energy -67091.606582 kJ/mol
# GULP energy per Si atom -5590.967215 kJ/mol
# Density = 2.386784 g / cm^3
# Si number density = 23.922293 Si / 1000 Ang^3
#
#
#
# Elastic Constant Matrix: (Units=GPa)
#
#
# Indices 1 2 3 4 5 6 
#
# 1 99.4660 40.1732 55.8458 -2.8201 -2.2327 20.3779
# 2 40.1732 103.4638 50.8424 21.0222 5.1570 11.5978
# 3 55.8458 50.8424 233.1224 0.2800 5.0678 25.0366
# 4 -2.8201 21.0222 0.2800 34.8964 7.9606 10.1685
# 5 -2.2327 5.1570 5.0678 7.9606 46.8689 3.6019
# 6 20.3779 11.5978 25.0366 10.1685 3.6019 35.1474
#
#
#
# Elastic Compliance Matrix: (Units=1/GPa)
#
#
# Indices 1 2 3 4 5 6 
#
# 1 0.014980 -0.005568 -0.001572 0.006612 0.000968 -0.007740
# 2 -0.005568 0.014605 -0.002142 -0.010027 -0.000157 0.002852
# 3 -0.001572 -0.002142 0.005444 0.002064 -0.000563 -0.002799
# 4 0.006612 -0.010027 0.002064 0.040088 -0.004605 -0.013121
# 5 0.000968 -0.000157 -0.000563 -0.004605 0.022324 -0.001064
# 6 -0.007740 0.002852 -0.002799 -0.013121 -0.001064 0.037897
#
#
# Mechanical properties :
#
#
# Convention : Reuss Voigt Hill
#
# Bulk Modulus (GPa) = 60.73662 81.08610 70.91136
# Shear Modulus (GPa) = 31.36920 42.66192 37.01556
#
# Velocity S-wave (km/s) = 3.62511 4.22756 3.93787
# Velocity P-wave (km/s) = 6.55486 7.60256 7.09806
#
# Compressibility (1/GPa) = 0.01646453
#
# Stress axis : x y z
#
# Youngs Moduli (GPa) = 66.75490 68.46815 183.69816
#
# Poissons Ratio (x) = 0.38124 0.28875
# Poissons Ratio (y) = 0.37170 0.39353
# Poissons Ratio (z) = 0.10493 0.14668
#
# Static dielectric constant tensor:
#      x y z
#    x 1.968880 0.046290 0.081060 
#    y 0.046290 1.962190 0.007750 
#    z 0.081060 0.007750 1.956350 
# 
# From -- ./inp_files/237747.got.cif
#   From: 2010.05.17/outbox.cif.g08.bks.cpg/sg2_119_cif.got.tgz:237747.got - 2010.06.03 11:33:40.
