data_PCOD9041973
_publ_section_title
;
Structure prediction by ZEFSAII (Michael W. Deem and Ramdas Pophale) SiO2 
 PCOD9041973
Probable space group: P -1
;
_chemical_formula_sum "Si O2"
_cell_formula_units_Z 16
_cell_length_a 18.913258
_cell_length_b 23.456717
_cell_length_c 8.097062
_cell_angle_alpha 39.671551
_cell_angle_beta 143.767280
_cell_angle_gamma 161.418159
_cell_volume 676.334267
_symmetry_space_group_name_H-M "P -1"
_symmetry_group_IT_number 2
_symmetry_cell_setting 'triclinic'
loop_
_space_group_symop_operation_xyz
x,y,z
-x,-y,-z
loop_
_atom_site_type_symbol
_atom_site_label
_atom_site_fract_x
_atom_site_fract_y
_atom_site_fract_z
Si Si1 0.843738 0.463902 0.166877
Si Si2 0.520117 0.914967 0.650330
Si Si3 0.926216 0.107903 0.779485
Si Si4 0.622431 0.492344 0.328667
Si Si5 0.685008 0.195527 0.858265
Si Si6 0.429055 0.186372 0.522800
Si Si7 0.496502 0.602337 0.299296
Si Si8 0.982898 0.010009 0.635623
O O1 0.632391 0.261897 0.154057
O O2 0.000000 0.500000 0.500000
O O3 0.029112 0.624651 0.025622
O O4 0.709662 0.461615 0.003994
O O5 0.402818 0.845824 0.402351
O O6 0.500000 0.000000 0.500000
O O7 0.787790 0.055115 0.798311
O O8 0.098873 0.295798 0.614879
O O9 0.732787 0.944355 0.650098
O O10 0.075131 0.116860 0.090530
O O11 0.564740 0.368296 0.386097
O O12 0.525636 0.407585 0.519743
O O13 0.500000 0.500000 0.000000
O O14 0.628445 0.239751 0.775861
O O15 0.500000 0.000000 0.000000
O O16 0.221586 0.051599 0.571426
O O17 0.500000 0.500000 0.500000
O O18 0.743210 0.789497 0.258001
O O19 0.000000 0.000000 0.500000
#
# Coordination Sequence:
#
# PCOD9041973 Si02
#       8
#     2   2   2   2   2   2   2   2
#     4  10  24  49  69 104 146 189 243 298 367 447
#     4  10  23  44  68  96 134 188 236 293 363 428
#     4  11  24  45  70  96 148 187 240 296 372 433
#     4  12  26  44  68 112 143 187 243 296 369 448
#     4  10  25  44  69  99 136 187 241 294 360 430
#     4  11  25  45  72  98 147 194 236 298 372 437
#     4  12  27  44  76 108 144 190 245 306 374 434
#     4  12  23  45  67 102 143 187 238 307 363 438
#
# _framework density 23.656942000000001
#
# number of rings (size 3 to 8) (size 9 to 14) (size 15 to 20)
#    0.000    1.000    3.750    1.125    8.750    2.000 
#    4.500    1.250    0.000    0.000    0.000    0.000 
#    0.000    0.000    0.000    0.000    0.000    0.000 
#
# Total GULP energy -89279.003257 kJ/mol
# GULP energy per Si atom -5579.937704 kJ/mol
# Density = 2.360310 g / cm^3
# Si number density = 23.656942 Si / 1000 Ang^3
#
#
#
# Elastic Constant Matrix: (Units=GPa)
#
#
# Indices 1 2 3 4 5 6 
#
# 1 125.2438 58.5802 26.5839 -17.0299 31.8534 -1.0154
# 2 58.5802 158.5929 44.1061 -47.9805 18.3914 23.0999
# 3 26.5839 44.1061 89.1136 -22.3807 18.6115 -2.2801
# 4 -17.0299 -47.9805 -22.3807 42.0787 -3.4822 -2.7327
# 5 31.8534 18.3914 18.6115 -3.4822 49.3115 -6.2979
# 6 -1.0154 23.0999 -2.2801 -2.7327 -6.2979 44.7122
#
#
#
# Elastic Compliance Matrix: (Units=1/GPa)
#
#
# Indices 1 2 3 4 5 6 
#
# 1 0.011157 -0.003616 -0.000393 -0.000191 -0.005557 0.001307
# 2 -0.003616 0.012834 -0.002225 0.011441 -0.001615 -0.006354
# 3 -0.000393 -0.002225 0.014488 0.004798 -0.003837 0.001632
# 4 -0.000191 0.011441 0.004798 0.038730 -0.003708 -0.003826
# 5 -0.005557 -0.001615 -0.003837 -0.003708 0.026165 0.003971
# 6 0.001307 -0.006354 0.001632 -0.003826 0.003971 0.026087
#
#
# Mechanical properties :
#
#
# Convention : Reuss Voigt Hill
#
# Bulk Modulus (GPa) = 38.44469 70.16564 54.30517
# Shear Modulus (GPa) = 33.20093 43.46582 38.33337
#
# Velocity S-wave (km/s) = 3.75031 4.29107 4.02977
# Velocity P-wave (km/s) = 5.91940 7.36716 6.68260
#
# Compressibility (1/GPa) = 0.02601139
#
# Stress axis : x y z
#
# Youngs Moduli (GPa) = 89.63175 77.91827 69.02028
#
# Poissons Ratio (x) = 0.28172 0.02711
# Poissons Ratio (y) = 0.32408 0.15360
# Poissons Ratio (z) = 0.03521 0.17341
#
# Static dielectric constant tensor:
#      x y z
#    x 1.890330 0.080110 -0.074870 
#    y 0.080110 2.133270 0.020870 
#    z -0.074870 0.020870 1.795430 
# 
# From -- ./inp_files/338109.got.cif
#   From: 2010.05.17/outbox.cif.g08.bks.cpg/sg2_170_cif.got.tgz:338109.got - 2010.06.03 11:33:40.
