data_PCOD9041329
_publ_section_title
;
Structure prediction by ZEFSAII (Michael W. Deem and Ramdas Pophale) SiO2 
 PCOD9041329
Probable space group: P -1
;
_chemical_formula_sum "Si O2"
_cell_formula_units_Z 14
_cell_length_a 10.178441
_cell_length_b 16.240738
_cell_length_c 9.715388
_cell_angle_alpha 149.233839
_cell_angle_beta 114.296671
_cell_angle_gamma 47.728071
_cell_volume 545.912444
_symmetry_space_group_name_H-M "P -1"
_symmetry_group_IT_number 2
_symmetry_cell_setting 'triclinic'
loop_
_space_group_symop_operation_xyz
x,y,z
-x,-y,-z
loop_
_atom_site_type_symbol
_atom_site_label
_atom_site_fract_x
_atom_site_fract_y
_atom_site_fract_z
Si Si1 0.823375 0.944029 0.668875
Si Si2 0.955844 0.653765 0.075504
Si Si3 0.262089 0.675554 0.135085
Si Si4 0.722662 0.675227 0.757521
Si Si5 0.361412 0.598053 0.759827
Si Si6 0.801498 0.139167 0.354258
Si Si7 0.726498 0.868295 0.784085
O O1 0.803799 0.892678 0.432143
O O2 0.033040 0.874106 0.659156
O O3 0.810583 0.815408 0.591964
O O4 0.665553 0.200313 0.014463
O O5 0.151493 0.602928 0.042618
O O6 0.853249 0.652999 0.899644
O O7 0.000000 0.500000 0.000000
O O8 0.184396 0.871521 0.488618
O O9 0.500000 0.500000 0.000000
O O10 0.237960 0.699669 0.995613
O O11 0.716343 0.486989 0.489980
O O12 0.507535 0.923270 0.032240
O O13 0.225346 0.321167 0.373689
O O14 0.586985 0.378924 0.572899
O O15 0.808025 0.958199 0.033650
#
# Coordination Sequence:
#
# PCOD9041329 Si02
#       7
#     2   2   2   2   2   2   2
#     4  11  25  43  74 104 141 189 247 291 363 434
#     4  11  27  46  71 109 148 187 243 309 359 433
#     4   9  21  42  69 101 141 190 237 291 360 430
#     4  10  25  46  70 103 150 185 241 296 368 430
#     4  10  23  43  73 104 137 196 236 297 360 431
#     4   9  21  42  67 103 143 181 246 297 345 438
#     4  10  23  44  71 105 143 192 232 301 364 431
#
# _framework density 25.645137999999999
#
# number of rings (size 3 to 8) (size 9 to 14) (size 15 to 20)
#    0.000    2.000    0.000    0.429    6.000   11.429 
#    2.571    0.000    0.000    0.000    0.000    0.000 
#    0.000    0.000    0.000    0.000    0.000    0.000 
#
# Total GULP energy -78435.246001 kJ/mol
# GULP energy per Si atom -5602.517571 kJ/mol
# Density = 2.558677 g / cm^3
# Si number density = 25.645138 Si / 1000 Ang^3
#
#
#
# Elastic Constant Matrix: (Units=GPa)
#
#
# Indices 1 2 3 4 5 6 
#
# 1 93.9380 51.9882 9.3324 -10.8492 -18.9906 24.6693
# 2 51.9882 127.6115 41.4299 -20.1955 1.5326 -3.3821
# 3 9.3324 41.4299 99.7156 -7.6079 -8.7779 1.6908
# 4 -10.8492 -20.1955 -7.6079 43.9343 2.8939 -0.4613
# 5 -18.9906 1.5326 -8.7779 2.8939 42.0066 -1.3241
# 6 24.6693 -3.3821 1.6908 -0.4613 -1.3241 39.1394
#
#
#
# Elastic Compliance Matrix: (Units=1/GPa)
#
#
# Indices 1 2 3 4 5 6 
#
# 1 0.022315 -0.010723 0.003589 0.000340 0.010740 -0.014779
# 2 -0.010723 0.014919 -0.005624 0.003754 -0.006570 0.008113
# 3 0.003589 -0.005624 0.012474 0.000143 0.004326 -0.003139
# 4 0.000340 0.003754 0.000143 0.024708 -0.001645 0.000339
# 5 0.010740 -0.006570 0.004326 -0.001645 0.029712 -0.006538
# 6 -0.014779 0.008113 -0.003139 0.000339 -0.006538 0.035484
#
#
# Mechanical properties :
#
#
# Convention : Reuss Voigt Hill
#
# Bulk Modulus (GPa) = 41.33794 58.52955 49.93374
# Shear Modulus (GPa) = 28.86956 39.58369 34.22662
#
# Velocity S-wave (km/s) = 3.35883 3.93302 3.65721
# Velocity P-wave (km/s) = 5.58539 6.59525 6.11121
#
# Compressibility (1/GPa) = 0.02419085
#
# Stress axis : x y z
#
# Youngs Moduli (GPa) = 44.81306 67.02989 80.16418
#
# Poissons Ratio (x) = 0.71875 -0.28769
# Poissons Ratio (y) = 0.48053 0.45088
# Poissons Ratio (z) = -0.16082 0.37700
#
# Static dielectric constant tensor:
#      x y z
#    x 2.036930 0.033770 0.009710 
#    y 0.033770 2.009900 0.045690 
#    z 0.009710 0.045690 2.083280 
# 
# From -- ./inp_files/438523.got.cif
#   From: 2010.05.17/outbox.cif.g08.bks.cpg/sg2_220_cif.got.tgz:438523.got - 2010.06.03 11:33:40.
