data_PCOD9041615
_publ_section_title
;
Structure prediction by ZEFSAII (Michael W. Deem and Ramdas Pophale) SiO2 
 PCOD9041615
Probable space group: P -1
;
_chemical_formula_sum "Si O2"
_cell_formula_units_Z 16
_cell_length_a 8.225226
_cell_length_b 12.108422
_cell_length_c 8.937410
_cell_angle_alpha 93.571523
_cell_angle_beta 50.826031
_cell_angle_gamma 99.270514
_cell_volume 680.127236
_symmetry_space_group_name_H-M "P -1"
_symmetry_group_IT_number 2
_symmetry_cell_setting 'triclinic'
loop_
_space_group_symop_operation_xyz
x,y,z
-x,-y,-z
loop_
_atom_site_type_symbol
_atom_site_label
_atom_site_fract_x
_atom_site_fract_y
_atom_site_fract_z
Si Si1 0.423533 0.389837 0.939632
Si Si2 0.101519 0.773076 0.252696
Si Si3 0.134570 0.617442 0.481219
Si Si4 0.517801 0.900972 0.363230
Si Si5 0.472778 0.251493 0.155998
Si Si6 0.274554 0.715484 0.701093
Si Si7 0.870109 0.756281 0.103419
Si Si8 0.233234 0.998452 0.298116
O O1 0.629042 0.377550 0.720483
O O2 0.243856 0.357758 0.916852
O O3 0.500000 0.500000 0.000000
O O4 0.335450 0.307007 0.120795
O O5 0.058653 0.720797 0.438824
O O6 0.167650 0.907423 0.199542
O O7 0.903769 0.737360 0.257492
O O8 0.305340 0.729668 0.062578
O O9 0.150463 0.623279 0.653040
O O10 0.000000 0.500000 0.500000
O O11 0.399062 0.796387 0.513714
O O12 0.734138 0.858718 0.178985
O O13 0.384487 0.932689 0.303436
O O14 0.500000 0.000000 0.500000
O O15 0.551784 0.303740 0.275099
O O16 0.361005 0.122735 0.220492
O O17 0.101383 0.777093 0.892971
O O18 0.000000 0.000000 0.500000
#
# Coordination Sequence:
#
# PCOD9041615 Si02
#       8
#     2   2   2   2   2   2   2   2
#     4  11  24  46  70  99 137 180 231 289 341 407
#     4  10  23  44  65  96 138 180 228 280 344 409
#     4  11  23  44  70 100 137 178 232 292 342 407
#     4  12  23  44  67 103 144 177 231 282 336 412
#     4  10  24  44  66  96 136 178 232 278 338 415
#     4  11  23  45  69  99 138 184 225 284 346 403
#     4  11  25  45  70 100 138 182 231 281 342 411
#     4  12  24  39  66  99 136 182 224 279 339 406
#
# _framework density 23.525009000000001
#
# number of rings (size 3 to 8) (size 9 to 14) (size 15 to 20)
#    0.000    1.000    3.750    2.625    1.750    2.500 
#    0.000    5.000    0.000    0.000    0.000    0.000 
#    0.000    0.000    0.000    0.000    0.000    0.000 
#
# Total GULP energy -89128.865115 kJ/mol
# GULP energy per Si atom -5570.554070 kJ/mol
# Density = 2.347147 g / cm^3
# Si number density = 23.525009 Si / 1000 Ang^3
#
#
#
# Elastic Constant Matrix: (Units=GPa)
#
#
# Indices 1 2 3 4 5 6 
#
# 1 99.5716 13.3000 26.6476 3.2966 10.0501 34.0706
# 2 13.3000 52.8105 5.4561 8.8646 14.1749 35.7033
# 3 26.6476 5.4561 99.0823 10.2585 -3.5762 0.0482
# 4 3.2966 8.8646 10.2585 41.4370 2.9568 4.5486
# 5 10.0501 14.1749 -3.5762 2.9568 32.6497 16.9565
# 6 34.0706 35.7033 0.0482 4.5486 16.9565 36.9500
#
#
#
# Elastic Compliance Matrix: (Units=1/GPa)
#
#
# Indices 1 2 3 4 5 6 
#
# 1 0.029129 0.035233 -0.009332 -0.001050 0.008358 -0.064597
# 2 0.035233 0.099929 -0.013639 -0.007052 0.015064 -0.135071
# 3 -0.009332 -0.013639 0.013511 -0.002075 -0.001280 0.022609
# 4 -0.001050 -0.007052 -0.002075 0.025776 -0.002064 0.005559
# 5 0.008358 0.015064 -0.001280 -0.002064 0.043314 -0.041884
# 6 -0.064597 -0.135071 0.022609 0.005559 -0.041884 0.235648
#
#
# Mechanical properties :
#
#
# Convention : Reuss Voigt Hill
#
# Bulk Modulus (GPa) = 5.98471 38.03022 22.00747
# Shear Modulus (GPa) = 10.44974 35.94473 23.19723
#
# Velocity S-wave (km/s) = 2.10988 3.91312 3.14358
# Velocity P-wave (km/s) = 2.91290 6.05125 4.74882
#
# Compressibility (1/GPa) = 0.16709237
#
# Stress axis : x y z
#
# Youngs Moduli (GPa) = 34.33011 10.00712 74.01258
#
# Poissons Ratio (x) = -0.35258 0.69072
# Poissons Ratio (y) = -1.20955 1.00945
# Poissons Ratio (z) = 0.32038 0.13649
#
# Static dielectric constant tensor:
#      x y z
#    x 2.304390 -0.110500 -0.137190 
#    y -0.110500 2.288590 0.255020 
#    z -0.137190 0.255020 2.044380 
# 
# From -- ./inp_files/187338.got.cif
#   From: 2010.05.17/outbox.cif.g08.bks.cpg/sg2_94_cif.got.tgz:187338.got - 2010.06.03 11:33:40.
