data_PCOD9041947
_publ_section_title
;
Structure prediction by ZEFSAII (Michael W. Deem and Ramdas Pophale) SiO2 
 PCOD9041947
Probable space group: P -1
;
_chemical_formula_sum "Si O2"
_cell_formula_units_Z 15
_cell_length_a 8.059827
_cell_length_b 18.020709
_cell_length_c 6.455833
_cell_angle_alpha 92.663031
_cell_angle_beta 78.871598
_cell_angle_gamma 137.044269
_cell_volume 620.611576
_symmetry_space_group_name_H-M "P -1"
_symmetry_group_IT_number 2
_symmetry_cell_setting 'triclinic'
loop_
_space_group_symop_operation_xyz
x,y,z
-x,-y,-z
loop_
_atom_site_type_symbol
_atom_site_label
_atom_site_fract_x
_atom_site_fract_y
_atom_site_fract_z
Si Si1 0.693721 0.837274 0.495851
Si Si2 0.831469 0.263483 0.023447
Si Si3 0.720307 0.110645 0.336813
Si Si4 0.500000 0.500000 0.500000
Si Si5 0.187965 0.465781 0.274594
Si Si6 0.102667 0.252271 0.625606
Si Si7 0.227140 0.651517 0.318532
Si Si8 0.978312 0.047921 0.200575
O O1 0.859764 0.823010 0.363481
O O2 0.417415 0.729509 0.469652
O O3 0.763747 0.858058 0.723033
O O4 0.789669 0.945212 0.391404
O O5 0.659961 0.157259 0.199421
O O6 0.009217 0.372623 0.135127
O O7 0.709868 0.275510 0.878871
O O8 0.998797 0.260210 0.851357
O O9 0.863517 0.090409 0.182813
O O10 0.907304 0.201392 0.479321
O O11 0.500000 0.000000 0.500000
O O12 0.425265 0.492816 0.271675
O O13 0.360201 0.373367 0.509752
O O14 0.234847 0.568001 0.240437
O O15 0.050314 0.419875 0.532455
O O16 0.000000 0.000000 0.000000
#
# Coordination Sequence:
#
# PCOD9041947 Si02
#       8
#     2   2   2   1   2   2   2   2
#     4  10  23  44  68  93 141 177 227 290 348 416
#     4  12  24  44  71 104 140 183 245 280 355 438
#     4  11  26  47  73 103 145 187 240 306 357 414
#     4  12  20  46  72  96 146 180 224 294 358 414
#     4  11  25  44  69 102 141 182 230 292 349 427
#     4  11  24  46  69 106 138 187 232 291 363 422
#     4  11  24  45  66 102 144 183 230 286 359 422
#     4  10  23  45  70  99 131 185 240 289 350 423
#
# _framework density 24.169703999999999
#
# number of rings (size 3 to 8) (size 9 to 14) (size 15 to 20)
#    0.000    1.067    4.000    1.200    3.733    2.133 
#    4.800    0.000    0.000    0.000    0.000    0.000 
#    0.000    0.000    0.000    0.000    0.000    0.000 
#
# Total GULP energy -83710.563723 kJ/mol
# GULP energy per Si atom -5580.704248 kJ/mol
# Density = 2.411469 g / cm^3
# Si number density = 24.169704 Si / 1000 Ang^3
#
#
#
# Elastic Constant Matrix: (Units=GPa)
#
#
# Indices 1 2 3 4 5 6 
#
# 1 64.1885 30.9229 48.8656 -4.6898 10.8855 -36.6119
# 2 30.9229 129.4028 49.2284 5.6165 8.5628 -21.2855
# 3 48.8656 49.2284 107.3150 12.0204 -1.7101 -11.6791
# 4 -4.6898 5.6165 12.0204 53.2454 -11.6611 5.2785
# 5 10.8855 8.5628 -1.7101 -11.6611 28.6374 -3.7980
# 6 -36.6119 -21.2855 -11.6791 5.2785 -3.7980 42.2489
#
#
#
# Elastic Compliance Matrix: (Units=1/GPa)
#
#
# Indices 1 2 3 4 5 6 
#
# 1 0.066720 0.003970 -0.027312 0.002127 -0.020662 0.050145
# 2 0.003970 0.010462 -0.005811 -0.001112 -0.004530 0.006837
# 3 -0.027312 -0.005811 0.022831 -0.002920 0.009768 -0.019041
# 4 0.002127 -0.001112 -0.002920 0.021638 0.007960 -0.001512
# 5 -0.020662 -0.004530 0.009768 0.007960 0.046051 -0.014343
# 6 0.050145 0.006837 -0.019041 -0.001512 -0.014343 0.064204
#
#
# Mechanical properties :
#
#
# Convention : Reuss Voigt Hill
#
# Bulk Modulus (GPa) = 23.97668 62.10446 43.04057
# Shear Modulus (GPa) = 16.44123 36.28563 26.36343
#
# Velocity S-wave (km/s) = 2.61097 3.87885 3.30625
# Velocity P-wave (km/s) = 4.36248 6.76842 5.69398
#
# Compressibility (1/GPa) = 0.04170719
#
# Stress axis : x y z
#
# Youngs Moduli (GPa) = 14.98801 95.58163 43.80056
#
# Poissons Ratio (x) = -0.37943 1.19629
# Poissons Ratio (y) = -0.05950 0.25450
# Poissons Ratio (z) = 0.40935 0.55538
#
# Static dielectric constant tensor:
#      x y z
#    x 1.889830 0.101760 0.003590 
#    y 0.101760 1.974350 -0.029630 
#    z 0.003590 -0.029630 1.909770 
# 
# From -- ./inp_files/47929.got.cif
#   From: 2010.05.17/outbox.cif.g08.bks.cpg/sg2_24_cif.got.tgz:47929.got - 2010.06.03 11:33:40.
