data_PCOD9041049
_publ_section_title
;
Structure prediction by ZEFSAII (Michael W. Deem and Ramdas Pophale) SiO2 
 PCOD9041049
Probable space group: P -1
;
_chemical_formula_sum "Si O2"
_cell_formula_units_Z 16
_cell_length_a 8.313065
_cell_length_b 18.187875
_cell_length_c 20.086336
_cell_angle_alpha 19.821636
_cell_angle_beta 137.363350
_cell_angle_gamma 137.596727
_cell_volume 683.203970
_symmetry_space_group_name_H-M "P -1"
_symmetry_group_IT_number 2
_symmetry_cell_setting 'triclinic'
loop_
_space_group_symop_operation_xyz
x,y,z
-x,-y,-z
loop_
_atom_site_type_symbol
_atom_site_label
_atom_site_fract_x
_atom_site_fract_y
_atom_site_fract_z
Si Si1 0.651491 0.387662 0.195570
Si Si2 0.591189 0.365265 0.730003
Si Si3 0.013203 0.170580 0.026013
Si Si4 0.145057 0.254947 0.594964
Si Si5 0.383894 0.662915 0.626581
Si Si6 0.495049 0.054817 0.225886
Si Si7 0.094882 0.774661 0.701411
Si Si8 0.666222 0.343792 0.926813
O O1 0.530558 0.284421 0.315709
O O2 0.788342 0.221306 0.339868
O O3 0.500000 0.500000 0.000000
O O4 0.851709 0.594159 0.106141
O O5 0.325217 0.305098 0.670018
O O6 0.706382 0.615841 0.530191
O O7 0.611284 0.335396 0.839620
O O8 0.766189 0.211007 0.883266
O O9 0.213037 0.073901 0.127944
O O10 0.945683 0.007598 0.207293
O O11 0.901724 0.347024 0.452162
O O12 0.453646 0.436622 0.820011
O O13 0.494619 0.833069 0.457161
O O14 0.679104 0.233767 0.173930
O O15 0.626556 0.101620 0.155077
O O16 0.901055 0.540329 0.845375
O O17 0.000000 0.000000 0.500000
#
# Coordination Sequence:
#
# PCOD9041049 Si02
#       8
#     2   2   2   2   2   2   2   2
#     4  12  23  45  72  97 133 187 224 271 338 407
#     4  11  23  43  67 100 131 169 225 287 337 395
#     4  11  21  43  68  94 130 173 228 271 329 409
#     4  10  23  43  70  96 129 174 225 279 342 395
#     4  11  23  45  65  96 133 174 226 269 329 410
#     4  11  24  42  63  92 135 182 213 277 327 403
#     4  12  24  43  64  99 135 176 224 282 333 394
#     4  12  23  42  64  93 137 171 221 279 335 390
#
# _framework density 23.419066000000001
#
# number of rings (size 3 to 8) (size 9 to 14) (size 15 to 20)
#    0.000    0.750    6.250    0.750    0.000    2.000 
#    6.750    2.500    0.000    0.000    0.000    0.000 
#    0.000    0.000    0.000    0.000    0.000    0.000 
#
# Total GULP energy -89258.741266 kJ/mol
# GULP energy per Si atom -5578.671329 kJ/mol
# Density = 2.336576 g / cm^3
# Si number density = 23.419066 Si / 1000 Ang^3
#
#
#
# Elastic Constant Matrix: (Units=GPa)
#
#
# Indices 1 2 3 4 5 6 
#
# 1 72.4363 3.7319 44.0611 -8.3617 -24.2627 -2.3425
# 2 3.7319 58.2998 25.7957 18.5695 -9.9394 21.2461
# 3 44.0611 25.7957 107.8832 -9.0612 -34.4887 12.7876
# 4 -8.3617 18.5695 -9.0612 37.2554 9.7420 7.3782
# 5 -24.2627 -9.9394 -34.4887 9.7420 63.2589 7.6980
# 6 -2.3425 21.2461 12.7876 7.3782 7.6980 22.7553
#
#
#
# Elastic Compliance Matrix: (Units=1/GPa)
#
#
# Indices 1 2 3 4 5 6 
#
# 1 0.019667 0.000918 -0.007858 0.000424 0.002790 0.004502
# 2 0.000918 0.036358 -0.003499 -0.015433 0.010226 -0.030342
# 3 -0.007858 -0.003499 0.016978 0.004584 0.006289 -0.010697
# 4 0.000424 -0.015433 0.004584 0.036860 -0.005663 0.001841
# 5 0.002790 0.010226 0.006289 -0.005663 0.025155 -0.019468
# 6 0.004502 -0.030342 -0.010697 0.001841 -0.019468 0.084739
#
#
# Mechanical properties :
#
#
# Convention : Reuss Voigt Hill
#
# Bulk Modulus (GPa) = 19.18434 42.86631 31.02532
# Shear Modulus (GPa) = 19.37905 35.65598 27.51751
#
# Velocity S-wave (km/s) = 2.87973 3.90618 3.43155
# Velocity P-wave (km/s) = 4.38938 6.21997 5.38307
#
# Compressibility (1/GPa) = 0.05212586
#
# Stress axis : x y z
#
# Youngs Moduli (GPa) = 50.84756 27.50391 58.89810
#
# Poissons Ratio (x) = -0.02524 0.46280
# Poissons Ratio (y) = -0.04667 0.20609
# Poissons Ratio (z) = 0.39954 0.09624
#
# Static dielectric constant tensor:
#      x y z
#    x 1.968440 0.031880 -0.031990 
#    y 0.031880 1.867110 -0.019740 
#    z -0.031990 -0.019740 2.019100 
# 
# From -- ./inp_files/591769.got.cif
#   From: 2010.05.17/outbox.cif.g08.bks.cpg/sg2_296_cif.got.tgz:591769.got - 2010.06.03 11:33:40.
