data_PCOD9041662
_publ_section_title
;
Structure prediction by ZEFSAII (Michael W. Deem and Ramdas Pophale) SiO2 
 PCOD9041662
Probable space group: P -1
;
_chemical_formula_sum "Si O2"
_cell_formula_units_Z 16
_cell_length_a 9.540147
_cell_length_b 10.519803
_cell_length_c 12.602605
_cell_angle_alpha 141.022952
_cell_angle_beta 87.037911
_cell_angle_gamma 106.517990
_cell_volume 732.046313
_symmetry_space_group_name_H-M "P -1"
_symmetry_group_IT_number 2
_symmetry_cell_setting 'triclinic'
loop_
_space_group_symop_operation_xyz
x,y,z
-x,-y,-z
loop_
_atom_site_type_symbol
_atom_site_label
_atom_site_fract_x
_atom_site_fract_y
_atom_site_fract_z
Si Si1 0.587068 0.022923 0.623487
Si Si2 0.756783 0.696494 0.905680
Si Si3 0.808191 0.527521 0.581573
Si Si4 0.216533 0.561814 0.810751
Si Si5 0.845527 0.198929 0.210203
Si Si6 0.523781 0.333485 0.972558
Si Si7 0.910419 0.421234 0.842203
Si Si8 0.634435 0.640026 0.502054
O O1 0.496297 0.119178 0.767943
O O2 0.761511 0.196977 0.712052
O O3 0.500000 0.000000 0.500000
O O4 0.598194 0.822396 0.558691
O O5 0.726858 0.542868 0.703649
O O6 0.844122 0.598836 0.919891
O O7 0.595337 0.686407 0.944939
O O8 0.844877 0.957764 0.060560
O O9 0.769213 0.298020 0.370379
O O10 0.778681 0.698260 0.613664
O O11 0.982689 0.624814 0.673737
O O12 0.217744 0.774678 0.885786
O O13 0.308289 0.474206 0.668171
O O14 0.040413 0.416815 0.751646
O O15 0.310943 0.600410 0.939918
O O16 0.500000 0.500000 0.000000
O O17 0.000000 0.500000 0.000000
O O18 0.500000 0.500000 0.500000
#
# Coordination Sequence:
#
# PCOD9041662 Si02
#       8
#     2   2   2   2   2   2   2   2
#     4  12  29  48  76 109 152 203 256 315 389 451
#     4  12  25  42  76 101 150 197 245 318 386 443
#     4  10  23  44  66 105 148 182 247 309 379 452
#     4  11  24  47  73 107 146 190 255 308 377 454
#     4  10  24  41  70 107 140 190 243 312 382 452
#     4  12  25  46  68 103 142 195 250 302 373 463
#     4  12  26  48  76 106 149 202 262 311 370 466
#     4  11  27  46  73 108 151 194 244 320 384 456
#
# _framework density 21.856539999999999
#
# number of rings (size 3 to 8) (size 9 to 14) (size 15 to 20)
#    0.000    0.750    3.750    1.875    8.750    1.000 
#    0.000    0.000    0.000    0.000    0.000    0.000 
#    0.000    0.000    0.000    0.000    0.000    0.000 
#
# Total GULP energy -89224.285107 kJ/mol
# GULP energy per Si atom -5576.517819 kJ/mol
# Density = 2.180679 g / cm^3
# Si number density = 21.856540 Si / 1000 Ang^3
#
#
#
# Elastic Constant Matrix: (Units=GPa)
#
#
# Indices 1 2 3 4 5 6 
#
# 1 125.0883 64.3660 55.1844 -9.9768 -7.2828 -6.1534
# 2 64.3660 153.7259 59.4213 4.9242 1.5953 -30.0460
# 3 55.1844 59.4213 76.8623 -14.9765 -7.5222 -3.8049
# 4 -9.9768 4.9242 -14.9765 38.1478 -6.1999 -4.4831
# 5 -7.2828 1.5953 -7.5222 -6.1999 46.3043 -15.0127
# 6 -6.1534 -30.0460 -3.8049 -4.4831 -15.0127 64.0921
#
#
#
# Elastic Compliance Matrix: (Units=1/GPa)
#
#
# Indices 1 2 3 4 5 6 
#
# 1 0.012422 -0.002811 -0.006395 0.001267 0.001132 -0.000151
# 2 -0.002811 0.011759 -0.008032 -0.005180 -0.001535 0.004044
# 3 -0.006395 -0.008032 0.026209 0.010275 0.004569 -0.001034
# 4 0.001267 -0.005180 0.010275 0.032677 0.007157 0.002265
# 5 0.001132 -0.001535 0.004569 0.007157 0.025518 0.006138
# 6 -0.000151 0.004044 -0.001034 0.002265 0.006138 0.019019
#
#
# Mechanical properties :
#
#
# Convention : Reuss Voigt Hill
#
# Bulk Modulus (GPa) = 62.83798 79.29109 71.06453
# Shear Modulus (GPa) = 29.87155 41.48915 35.68035
#
# Velocity S-wave (km/s) = 3.70091 4.36162 4.04478
# Velocity P-wave (km/s) = 6.86112 7.85631 7.37552
#
# Compressibility (1/GPa) = 0.01591394
#
# Stress axis : x y z
#
# Youngs Moduli (GPa) = 80.50553 85.04115 38.15491
#
# Poissons Ratio (x) = 0.23905 0.24399
# Poissons Ratio (y) = 0.22630 0.30646
# Poissons Ratio (z) = 0.51482 0.68305
#
# Static dielectric constant tensor:
#      x y z
#    x 1.916610 -0.063940 0.046740 
#    y -0.063940 1.940770 -0.060990 
#    z 0.046740 -0.060990 1.866370 
# 
# From -- ./inp_files/383559.got.cif
#   From: 2010.05.17/outbox.cif.g08.bks.cpg/sg2_192_cif.got.tgz:383559.got - 2010.06.03 11:33:40.
