data_PCOD9041140
_publ_section_title
;
Structure prediction by ZEFSAII (Michael W. Deem and Ramdas Pophale) SiO2 
 PCOD9041140
Probable space group: P -1
;
_chemical_formula_sum "Si O2"
_cell_formula_units_Z 16
_cell_length_a 5.111126
_cell_length_b 18.820445
_cell_length_c 12.227775
_cell_angle_alpha 45.324821
_cell_angle_beta 130.864447
_cell_angle_gamma 117.073527
_cell_volume 632.528588
_symmetry_space_group_name_H-M "P -1"
_symmetry_group_IT_number 2
_symmetry_cell_setting 'triclinic'
loop_
_space_group_symop_operation_xyz
x,y,z
-x,-y,-z
loop_
_atom_site_type_symbol
_atom_site_label
_atom_site_fract_x
_atom_site_fract_y
_atom_site_fract_z
Si Si1 0.280990 0.800444 0.454826
Si Si2 0.578798 0.757328 0.951955
Si Si3 0.492606 0.863508 0.221922
Si Si4 0.035574 0.471241 0.200812
Si Si5 0.561054 0.085030 0.088555
Si Si6 0.817445 0.535398 0.301454
Si Si7 0.707729 0.902552 0.629553
Si Si8 0.859950 0.658376 0.823196
O O1 0.304426 0.799192 0.331798
O O2 0.564132 0.877425 0.497820
O O3 0.479280 0.702164 0.655037
O O4 0.902285 0.831960 0.360289
O O5 0.657878 0.840612 0.975605
O O6 0.624377 0.811712 0.788956
O O7 0.169823 0.726383 0.881867
O O8 0.796769 0.654848 0.140419
O O9 0.436169 0.977066 0.129477
O O10 0.370807 0.859236 0.068059
O O11 0.424126 0.503527 0.242967
O O12 0.993522 0.374236 0.219967
O O13 0.988002 0.476975 0.310076
O O14 0.816300 0.561535 0.990623
O O15 0.899092 0.070420 0.270280
O O16 0.000000 0.500000 0.500000
O O17 0.500000 0.000000 0.500000
#
# Coordination Sequence:
#
# PCOD9041140 Si02
#       8
#     2   2   2   2   2   2   2   2
#     4  12  24  43  69 104 133 183 241 288 344 427
#     4  11  25  43  72 105 139 189 243 297 351 427
#     4  11  28  45  67  99 148 184 230 294 362 413
#     4  10  24  45  69 104 138 184 226 301 366 410
#     4  11  26  45  67 100 143 191 233 292 360 422
#     4  11  25  46  72 101 144 186 234 285 362 436
#     4  12  24  42  74 102 142 190 246 294 350 422
#     4  10  23  43  71 102 141 177 240 304 355 418
#
# _framework density 25.295300999999998
#
# number of rings (size 3 to 8) (size 9 to 14) (size 15 to 20)
#    0.000    1.000    2.500    2.625    3.500   11.500 
#    0.000    0.000    0.000    0.000    0.000    0.000 
#    0.000    0.000    0.000    0.000    0.000    0.000 
#
# Total GULP energy -89560.594065 kJ/mol
# GULP energy per Si atom -5597.537129 kJ/mol
# Density = 2.523773 g / cm^3
# Si number density = 25.295301 Si / 1000 Ang^3
#
#
#
# Elastic Constant Matrix: (Units=GPa)
#
#
# Indices 1 2 3 4 5 6 
#
# 1 93.8050 17.7955 13.7018 8.1690 -19.1932 -13.3891
# 2 17.7955 57.2385 22.2737 -0.8758 -2.5723 -27.0119
# 3 13.7018 22.2737 110.8520 11.1513 -5.2005 -6.7509
# 4 8.1690 -0.8758 11.1513 34.5064 -6.3006 -10.6621
# 5 -19.1932 -2.5723 -5.2005 -6.3006 42.4365 9.4998
# 6 -13.3891 -27.0119 -6.7509 -10.6621 9.4998 41.6020
#
#
#
# Elastic Compliance Matrix: (Units=1/GPa)
#
#
# Indices 1 2 3 4 5 6 
#
# 1 0.012624 -0.003577 -0.000398 -0.002016 0.005148 -0.000017
# 2 -0.003577 0.030665 -0.005542 0.009242 -0.003788 0.021094
# 3 -0.000398 -0.005542 0.010454 -0.004294 0.000873 -0.003330
# 4 -0.002016 0.009242 -0.004294 0.035483 0.001383 0.013433
# 5 0.005148 -0.003788 0.000873 0.001383 0.027448 -0.006574
# 6 -0.000017 0.021094 -0.003330 0.013433 -0.006574 0.042132
#
#
# Mechanical properties :
#
#
# Convention : Reuss Voigt Hill
#
# Bulk Modulus (GPa) = 28.81200 41.04862 34.93031
# Shear Modulus (GPa) = 26.39773 37.58393 31.99083
#
# Velocity S-wave (km/s) = 3.23396 3.85880 3.56011
# Velocity P-wave (km/s) = 5.03583 6.00972 5.54420
#
# Compressibility (1/GPa) = 0.03470776
#
# Stress axis : x y z
#
# Youngs Moduli (GPa) = 79.21590 32.61004 95.65680
#
# Poissons Ratio (x) = 0.11665 0.03810
# Poissons Ratio (y) = 0.28336 0.53016
# Poissons Ratio (z) = 0.03155 0.18074
#
# Static dielectric constant tensor:
#      x y z
#    x 2.045910 0.112860 0.003770 
#    y 0.112860 2.221200 -0.128860 
#    z 0.003770 -0.128860 2.118900 
# 
# From -- ./inp_files/288619.got.cif
#   From: 2010.05.17/outbox.cif.g08.bks.cpg/sg2_145_cif.got.tgz:288619.got - 2010.06.03 11:33:40.
