data_PCOD9041565
_publ_section_title
;
Structure prediction by ZEFSAII (Michael W. Deem and Ramdas Pophale) SiO2 
 PCOD9041565
Probable space group: P -1
;
_chemical_formula_sum "Si O2"
_cell_formula_units_Z 16
_cell_length_a 11.069544
_cell_length_b 13.376087
_cell_length_c 5.096213
_cell_angle_alpha 104.235038
_cell_angle_beta 84.422803
_cell_angle_gamma 67.114479
_cell_volume 657.943439
_symmetry_space_group_name_H-M "P -1"
_symmetry_group_IT_number 2
_symmetry_cell_setting 'triclinic'
loop_
_space_group_symop_operation_xyz
x,y,z
-x,-y,-z
loop_
_atom_site_type_symbol
_atom_site_label
_atom_site_fract_x
_atom_site_fract_y
_atom_site_fract_z
Si Si1 0.597936 0.675190 0.914076
Si Si2 0.757902 0.680940 0.366654
Si Si3 0.642086 0.447054 0.580811
Si Si4 0.893874 0.425521 0.161656
Si Si5 0.102265 0.780977 0.281505
Si Si6 0.919927 0.772180 0.681257
Si Si7 0.306955 0.783087 0.789223
Si Si8 0.115819 0.026798 0.859832
O O1 0.692443 0.676418 0.656516
O O2 0.621995 0.542221 0.867802
O O3 0.449461 0.747185 0.879608
O O4 0.644429 0.716367 0.191387
O O5 0.867952 0.553771 0.187357
O O6 0.833065 0.760391 0.453705
O O7 0.500000 0.500000 0.500000
O O8 0.762090 0.444849 0.373514
O O9 0.670817 0.314222 0.502885
O O10 0.026961 0.346422 0.244970
O O11 0.893461 0.342300 0.875861
O O12 0.060560 0.780154 0.593361
O O13 0.212115 0.786657 0.061497
O O14 0.967015 0.895100 0.312305
O O15 0.841718 0.887102 0.932040
O O16 0.241267 0.904396 0.733919
O O17 0.000000 0.000000 0.000000
#
# Coordination Sequence:
#
# PCOD9041565 Si02
#       8
#     2   2   2   2   2   2   2   2
#     4  10  23  44  64  98 128 171 213 258 318 382
#     4  11  25  42  66  91 135 170 213 257 314 387
#     4   8  16  36  61  89 125 158 203 259 313 374
#     4   9  20  37  57  94 120 167 204 257 316 381
#     4   9  20  37  63  94 123 158 212 267 323 370
#     4  11  23  39  63  93 125 168 212 266 317 379
#     4   9  18  42  65  93 125 168 212 269 318 380
#     4   9  20  40  62  91 127 160 214 268 324 370
#
# _framework density 24.318197999999999
#
# number of rings (size 3 to 8) (size 9 to 14) (size 15 to 20)
#    0.000    2.500    0.000    1.125    7.000    2.500 
#   15.750   10.000    0.000    0.000    0.000    0.000 
#    0.000    0.000    0.000    0.000    0.000    0.000 
#
# Total GULP energy -89233.879973 kJ/mol
# GULP energy per Si atom -5577.117498 kJ/mol
# Density = 2.426285 g / cm^3
# Si number density = 24.318198 Si / 1000 Ang^3
#
#
#
# Elastic Constant Matrix: (Units=GPa)
#
#
# Indices 1 2 3 4 5 6 
#
# 1 92.8530 27.2883 17.7543 12.2157 3.7422 -2.8197
# 2 27.2883 121.7560 3.3291 23.1681 -16.1849 -5.3705
# 3 17.7543 3.3291 44.3534 4.3716 3.3223 8.0334
# 4 12.2157 23.1681 4.3716 39.5599 5.5170 -8.2790
# 5 3.7422 -16.1849 3.3223 5.5170 26.4826 7.1113
# 6 -2.8197 -5.3705 8.0334 -8.2790 7.1113 24.9823
#
#
#
# Elastic Compliance Matrix: (Units=1/GPa)
#
#
# Indices 1 2 3 4 5 6 
#
# 1 0.012990 -0.003065 -0.005276 -0.000355 -0.003913 0.003500
# 2 -0.003065 0.011601 0.001090 -0.008170 0.010105 -0.003787
# 3 -0.005276 0.001090 0.026887 -0.004575 0.001968 -0.011083
# 4 -0.000355 -0.008170 -0.004575 0.036387 -0.016350 0.016387
# 5 -0.003913 0.010105 0.001968 -0.016350 0.052848 -0.019364
# 6 0.003500 -0.003787 -0.011083 0.016387 -0.019364 0.054116
#
#
# Mechanical properties :
#
#
# Convention : Reuss Voigt Hill
#
# Bulk Modulus (GPa) = 27.04373 39.52287 33.28330
# Shear Modulus (GPa) = 22.55745 32.24434 27.40090
#
# Velocity S-wave (km/s) = 3.04895 3.64529 3.36037
# Velocity P-wave (km/s) = 4.85177 5.83140 5.36400
#
# Compressibility (1/GPa) = 0.03697714
#
# Stress axis : x y z
#
# Youngs Moduli (GPa) = 76.98242 86.19818 37.19279
#
# Poissons Ratio (x) = 0.26423 0.19621
# Poissons Ratio (y) = 0.23598 -0.04056
# Poissons Ratio (z) = 0.40612 -0.09399
#
# Static dielectric constant tensor:
#      x y z
#    x 1.985550 -0.000540 0.030530 
#    y -0.000540 2.007180 -0.036420 
#    z 0.030530 -0.036420 2.019760 
# 
# From -- ./inp_files/78365.got.cif
#   From: 2010.05.17/outbox.cif.g08.bks.cpg/sg2_40_cif.got.tgz:78365.got - 2010.06.03 11:33:40.
