data_PCOD9041623
_publ_section_title
;
Structure prediction by ZEFSAII (Michael W. Deem and Ramdas Pophale) SiO2 
 PCOD9041623
Probable space group: P -1
;
_chemical_formula_sum "Si O2"
_cell_formula_units_Z 16
_cell_length_a 15.807846
_cell_length_b 9.849889
_cell_length_c 9.565742
_cell_angle_alpha 116.982672
_cell_angle_beta 62.461183
_cell_angle_gamma 142.737338
_cell_volume 789.367153
_symmetry_space_group_name_H-M "P -1"
_symmetry_group_IT_number 2
_symmetry_cell_setting 'triclinic'
loop_
_space_group_symop_operation_xyz
x,y,z
-x,-y,-z
loop_
_atom_site_type_symbol
_atom_site_label
_atom_site_fract_x
_atom_site_fract_y
_atom_site_fract_z
Si Si1 0.608584 0.011346 0.493211
Si Si2 0.618471 0.833109 0.127399
Si Si3 0.601775 0.464879 0.054123
Si Si4 0.092205 0.177319 0.887049
Si Si5 0.915438 0.023846 0.484235
Si Si6 0.917010 0.466517 0.419312
Si Si7 0.589048 0.739548 0.620850
Si Si8 0.924626 0.285052 0.048363
O O1 0.754766 0.277626 0.504314
O O2 0.500000 0.000000 0.500000
O O3 0.621222 0.896282 0.312012
O O4 0.582600 0.886465 0.598553
O O5 0.628152 0.663172 0.060033
O O6 0.757561 0.058254 0.046386
O O7 0.476881 0.714513 0.096657
O O8 0.751731 0.595443 0.067111
O O9 0.487679 0.332094 0.204961
O O10 0.097998 0.063207 0.702607
O O11 0.009370 0.230737 0.932405
O O12 0.000000 0.000000 0.000000
O O13 0.013258 0.288698 0.549156
O O14 0.753082 0.879272 0.578828
O O15 0.000000 0.000000 0.500000
O O16 0.932216 0.363291 0.234729
O O17 0.000000 0.500000 0.500000
O O18 0.500000 0.500000 0.500000
O O19 0.000000 0.500000 0.000000
#
# Coordination Sequence:
#
# PCOD9041623 Si02
#       8
#     2   2   2   2   2   2   2   2
#     4  11  25  44  69  99 139 182 225 277 346 413
#     4  10  23  44  65  98 135 180 219 277 345 400
#     4  11  24  42  72  98 136 176 228 281 340 396
#     4  12  24  44  69 101 132 175 235 277 328 408
#     4  12  27  43  72 106 131 179 238 280 334 409
#     4  11  24  45  66  95 140 181 220 279 348 398
#     4  12  24  45  70  98 142 179 226 290 337 403
#     4  11  25  43  66  95 137 175 217 282 341 396
#
# _framework density 20.269403000000001
#
# number of rings (size 3 to 8) (size 9 to 14) (size 15 to 20)
#    0.000    0.750    5.000    1.500    5.250    4.000 
#    0.000    1.250    0.000    0.000    0.000    0.000 
#    0.000    0.000    0.000    0.000    0.000    0.000 
#
# Total GULP energy -89311.536655 kJ/mol
# GULP energy per Si atom -5581.971041 kJ/mol
# Density = 2.022327 g / cm^3
# Si number density = 20.269403 Si / 1000 Ang^3
#
#
#
# Elastic Constant Matrix: (Units=GPa)
#
#
# Indices 1 2 3 4 5 6 
#
# 1 57.1599 14.0313 0.6227 0.8006 -5.5990 37.2534
# 2 14.0313 114.2783 27.6601 -3.2221 -6.3961 33.4293
# 3 0.6227 27.6601 53.8312 -11.8198 11.1315 8.5215
# 4 0.8006 -3.2221 -11.8198 37.5206 0.7075 2.1917
# 5 -5.5990 -6.3961 11.1315 0.7075 25.8966 11.4646
# 6 37.2534 33.4293 8.5215 2.1917 11.4646 31.4387
#
#
#
# Elastic Compliance Matrix: (Units=1/GPa)
#
#
# Indices 1 2 3 4 5 6 
#
# 1 -0.026520 -0.021822 0.009790 -0.001377 -0.045728 0.068746
# 2 -0.021822 0.002268 -0.002681 -0.001643 -0.016353 0.030250
# 3 0.009790 -0.002681 0.024581 0.008231 -0.002693 -0.015005
# 4 -0.001377 -0.001643 0.008231 0.029172 -0.005541 0.001135
# 5 -0.045728 -0.016353 -0.002693 -0.005541 -0.007372 0.075379
# 6 0.068746 0.030250 -0.015005 0.001135 0.075379 -0.105318
#
#
# Mechanical properties :
#
#
# Convention : Reuss Voigt Hill
#
# Bulk Modulus (GPa) = -34.36995 34.43306 0.03155
# Shear Modulus (GPa) = -78.78504 31.16820 -23.80842
#
# Velocity S-wave (km/s) = -6.24126 3.92560 -3.43096
# Velocity P-wave (km/s) = 8.30248 6.12958 3.95976
#
# Compressibility (1/GPa) = -0.02909518
#
# Stress axis : x y z
#
# Youngs Moduli (GPa) = -37.70796 440.86648 40.68261
#
# Poissons Ratio (x) = 9.62045 -0.39830
# Poissons Ratio (y) = -0.82285 0.10907
# Poissons Ratio (z) = 0.36918 1.18195
#
# Static dielectric constant tensor:
#      x y z
#    x 1.807940 -0.014210 -0.000170 
#    y -0.014210 1.709050 0.001700 
#    z -0.000170 0.001700 1.711820 
# 
# From -- ./inp_files/205139.got.cif
#   From: 2010.05.17/outbox.cif.g08.bks.cpg/sg2_103_cif.got.tgz:205139.got - 2010.06.03 11:33:40.
