data_PCOD9041797
_publ_section_title
;
Structure prediction by ZEFSAII (Michael W. Deem and Ramdas Pophale) SiO2 
 PCOD9041797
Probable space group: P -1
;
_chemical_formula_sum "Si O2"
_cell_formula_units_Z 16
_cell_length_a 14.508555
_cell_length_b 8.093573
_cell_length_c 8.455256
_cell_angle_alpha 120.861691
_cell_angle_beta 124.226296
_cell_angle_gamma 82.934518
_cell_volume 685.257772
_symmetry_space_group_name_H-M "P -1"
_symmetry_group_IT_number 2
_symmetry_cell_setting 'triclinic'
loop_
_space_group_symop_operation_xyz
x,y,z
-x,-y,-z
loop_
_atom_site_type_symbol
_atom_site_label
_atom_site_fract_x
_atom_site_fract_y
_atom_site_fract_z
Si Si1 0.102708 0.657684 0.755129
Si Si2 0.962569 0.955418 0.196647
Si Si3 0.855551 0.287115 0.836359
Si Si4 0.605626 0.545477 0.000320
Si Si5 0.178458 0.147923 0.701905
Si Si6 0.775058 0.285388 0.425985
Si Si7 0.475277 0.783271 0.788882
Si Si8 0.401820 0.829748 0.393178
O O1 0.189751 0.676492 0.702439
O O2 0.000000 0.500000 0.500000
O O3 0.084396 0.882030 0.866824
O O4 0.123746 0.590256 0.919913
O O5 0.057795 0.097847 0.469600
O O6 0.039731 0.820437 0.129235
O O7 0.860124 0.827291 0.142059
O O8 0.845525 0.381885 0.698447
O O9 0.726021 0.148218 0.672304
O O10 0.566249 0.669541 0.881204
O O11 0.619141 0.342247 0.840394
O O12 0.500000 0.500000 0.000000
O O13 0.729845 0.687787 0.224253
O O14 0.223523 0.945241 0.655550
O O15 0.650891 0.327676 0.333489
O O16 0.461437 0.785263 0.589970
O O17 0.500000 0.000000 0.000000
O O18 0.500000 0.000000 0.500000
#
# Coordination Sequence:
#
# PCOD9041797 Si02
#       8
#     2   2   2   2   2   2   2   2
#     4  11  24  39  64 101 133 169 228 281 339 404
#     4   9  20  41  67  91 129 181 224 270 344 408
#     4  10  23  44  67  91 131 177 225 273 340 405
#     4  12  26  40  70 103 137 178 231 289 349 411
#     4   9  19  40  67  96 130 175 226 278 335 411
#     4   9  21  42  65  96 131 178 217 274 345 406
#     4  11  22  44  69  94 136 178 229 278 350 410
#     4  11  27  45  66 102 138 182 230 288 348 420
#
# _framework density 23.348876000000001
#
# number of rings (size 3 to 8) (size 9 to 14) (size 15 to 20)
#    0.000    1.750    1.250    2.250    8.750    0.500 
#    4.500    0.000    0.000    0.000    0.000    0.000 
#    0.000    0.000    0.000    0.000    0.000    0.000 
#
# Total GULP energy -89222.502797 kJ/mol
# GULP energy per Si atom -5576.406425 kJ/mol
# Density = 2.329573 g / cm^3
# Si number density = 23.348876 Si / 1000 Ang^3
#
#
#
# Elastic Constant Matrix: (Units=GPa)
#
#
# Indices 1 2 3 4 5 6 
#
# 1 140.8565 23.5994 25.3892 0.2220 -12.0436 19.3363
# 2 23.5994 46.7996 16.2761 7.4650 6.3265 7.5750
# 3 25.3892 16.2761 96.2837 -13.0102 -18.8642 23.5902
# 4 0.2220 7.4650 -13.0102 33.7988 5.6036 3.4279
# 5 -12.0436 6.3265 -18.8642 5.6036 34.1111 -0.0276
# 6 19.3363 7.5750 23.5902 3.4279 -0.0276 28.5652
#
#
#
# Elastic Compliance Matrix: (Units=1/GPa)
#
#
# Indices 1 2 3 4 5 6 
#
# 1 0.008847 -0.004582 0.000777 0.001116 0.004215 -0.005545
# 2 -0.004582 0.028232 -0.007008 -0.007564 -0.009485 0.002301
# 3 0.000777 -0.007008 0.018045 0.008277 0.010182 -0.014553
# 4 0.001116 -0.007564 0.008277 0.035340 0.000561 -0.009825
# 5 0.004215 -0.009485 0.010182 0.000561 0.038095 -0.008777
# 6 -0.005545 0.002301 -0.014553 -0.009825 -0.008777 0.051340
#
#
# Mechanical properties :
#
#
# Convention : Reuss Voigt Hill
#
# Bulk Modulus (GPa) = 29.85364 46.05213 37.95289
# Shear Modulus (GPa) = 23.50848 33.87337 28.69092
#
# Velocity S-wave (km/s) = 3.17651 3.81300 3.50922
# Velocity P-wave (km/s) = 5.12516 6.25713 5.71922
#
# Compressibility (1/GPa) = 0.03349675
#
# Stress axis : x y z
#
# Youngs Moduli (GPa) = 113.03425 35.42103 55.41852
#
# Poissons Ratio (x) = 0.16229 -0.04306
# Poissons Ratio (y) = 0.51789 0.38840
# Poissons Ratio (z) = -0.08782 0.24825
#
# Static dielectric constant tensor:
#      x y z
#    x 2.103260 0.173290 0.101810 
#    y 0.173290 2.055480 0.088650 
#    z 0.101810 0.088650 1.929690 
# 
# From -- ./inp_files/296485.got.cif
#   From: 2010.05.17/outbox.cif.g08.bks.cpg/sg2_149_cif.got.tgz:296485.got - 2010.06.03 11:33:40.
