data_PCOD9041281
_publ_section_title
;
Structure prediction by ZEFSAII (Michael W. Deem and Ramdas Pophale) SiO2 
 PCOD9041281
Probable space group: P -1
;
_chemical_formula_sum "Si O2"
_cell_formula_units_Z 16
_cell_length_a 8.895350
_cell_length_b 12.238795
_cell_length_c 13.316098
_cell_angle_alpha 121.250447
_cell_angle_beta 133.969353
_cell_angle_gamma 93.679496
_cell_volume 645.898077
_symmetry_space_group_name_H-M "P -1"
_symmetry_group_IT_number 2
_symmetry_cell_setting 'triclinic'
loop_
_space_group_symop_operation_xyz
x,y,z
-x,-y,-z
loop_
_atom_site_type_symbol
_atom_site_label
_atom_site_fract_x
_atom_site_fract_y
_atom_site_fract_z
Si Si1 0.582827 0.153527 0.734821
Si Si2 0.198926 0.006492 0.288381
Si Si3 0.760947 0.492560 0.796581
Si Si4 0.579785 0.690411 0.798075
Si Si5 0.241998 0.671541 0.473861
Si Si6 0.812511 0.313128 0.233409
Si Si7 0.176838 0.244041 0.466230
Si Si8 0.300855 0.986247 0.714489
O O1 0.381597 0.069592 0.504750
O O2 0.664746 0.039480 0.744124
O O3 0.399968 0.115639 0.728899
O O4 0.899253 0.344836 0.948768
O O5 0.174403 0.146176 0.324393
O O6 0.871835 0.825550 0.060213
O O7 0.621193 0.562119 0.715563
O O8 0.750642 0.367582 0.657229
O O9 0.516997 0.388592 0.722424
O O10 0.530212 0.752366 0.705591
O O11 0.350618 0.659067 0.753680
O O12 0.204497 0.804433 0.544518
O O13 0.994972 0.475149 0.315940
O O14 0.027282 0.310956 0.393710
O O15 0.577761 0.120738 0.980486
O O16 0.973988 0.095861 0.384765
#
# Coordination Sequence:
#
# PCOD9041281 Si02
#       8
#     2   2   2   2   2   2   2   2
#     4  10  24  48  66  96 138 182 236 286 334 392
#     4  10  23  43  72  93 131 187 234 284 333 404
#     4  11  24  41  67 102 140 182 222 284 342 407
#     4  11  21  41  66  99 138 178 219 278 349 401
#     4  12  23  40  70 103 145 176 222 281 351 413
#     4  12  23  43  66 104 148 177 217 289 346 412
#     4  12  23  40  67 102 133 178 230 269 351 409
#     4  12  24  42  70 102 138 185 224 279 344 416
#
# _framework density 24.771711
#
# number of rings (size 3 to 8) (size 9 to 14) (size 15 to 20)
#    0.000    0.750    5.000    3.375    0.000    1.000 
#    0.000    4.375    0.000    8.250    0.000    0.000 
#    0.000    0.000    0.000    0.000    0.000    0.000 
#
# Total GULP energy -89157.065415 kJ/mol
# GULP energy per Si atom -5572.316588 kJ/mol
# Density = 2.471533 g / cm^3
# Si number density = 24.771711 Si / 1000 Ang^3
#
#
#
# Elastic Constant Matrix: (Units=GPa)
#
#
# Indices 1 2 3 4 5 6 
#
# 1 125.2089 31.8492 72.8491 8.1753 23.8429 13.7573
# 2 31.8492 49.8086 34.2642 9.2007 15.1652 -5.0246
# 3 72.8491 34.2642 155.1753 6.5334 17.7549 4.8855
# 4 8.1753 9.2007 6.5334 37.1997 -5.2834 -1.5725
# 5 23.8429 15.1652 17.7549 -5.2834 51.3554 17.8879
# 6 13.7573 -5.0246 4.8855 -1.5725 17.8879 56.0734
#
#
#
# Elastic Compliance Matrix: (Units=1/GPa)
#
#
# Indices 1 2 3 4 5 6 
#
# 1 0.012467 -0.004121 -0.004547 -0.001351 -0.002328 -0.002327
# 2 -0.004121 0.029682 -0.003558 -0.006755 -0.008592 0.006532
# 3 -0.004547 -0.003558 0.009361 0.000228 -0.000053 0.000004
# 4 -0.001351 -0.006755 0.000228 0.029614 0.006078 -0.001402
# 5 -0.002328 -0.008592 -0.000053 0.006078 0.026710 -0.008544
# 6 -0.002327 0.006532 0.000004 -0.001402 -0.008544 0.021676
#
#
# Mechanical properties :
#
#
# Convention : Reuss Voigt Hill
#
# Bulk Modulus (GPa) = 36.95483 67.56864 52.26173
# Shear Modulus (GPa) = 30.67866 41.67437 36.17652
#
# Velocity S-wave (km/s) = 3.52299 4.10608 3.82566
# Velocity P-wave (km/s) = 5.61241 7.05802 6.37631
#
# Compressibility (1/GPa) = 0.02706006
#
# Stress axis : x y z
#
# Youngs Moduli (GPa) = 80.20963 33.69048 106.83016
#
# Poissons Ratio (x) = 0.13883 0.48571
# Poissons Ratio (y) = 0.33052 0.38007
# Poissons Ratio (z) = 0.36468 0.11986
#
# Static dielectric constant tensor:
#      x y z
#    x 1.982940 0.042340 0.029900 
#    y 0.042340 2.162470 0.137700 
#    z 0.029900 0.137700 2.037570 
# 
# From -- ./inp_files/504299.got.cif
#   From: 2010.05.17/outbox.cif.g08.bks.cpg/sg2_253_cif.got.tgz:504299.got - 2010.06.03 11:33:40.
