data_PCOD9041648
_publ_section_title
;
Structure prediction by ZEFSAII (Michael W. Deem and Ramdas Pophale) SiO2 
 PCOD9041648
Probable space group: P -1
;
_chemical_formula_sum "Si O2"
_cell_formula_units_Z 16
_cell_length_a 5.176158
_cell_length_b 13.218070
_cell_length_c 12.760477
_cell_angle_alpha 61.350305
_cell_angle_beta 82.523942
_cell_angle_gamma 54.159708
_cell_volume 607.013759
_symmetry_space_group_name_H-M "P -1"
_symmetry_group_IT_number 2
_symmetry_cell_setting 'triclinic'
loop_
_space_group_symop_operation_xyz
x,y,z
-x,-y,-z
loop_
_atom_site_type_symbol
_atom_site_label
_atom_site_fract_x
_atom_site_fract_y
_atom_site_fract_z
Si Si1 0.967918 0.464429 0.900649
Si Si2 0.282027 0.529475 0.658618
Si Si3 0.411175 0.160158 0.939732
Si Si4 0.398473 0.196661 0.510246
Si Si5 0.374050 0.695786 0.705911
Si Si6 0.625140 0.230345 0.698084
Si Si7 0.149473 0.922854 0.857542
Si Si8 0.301060 0.102608 0.265626
O O1 0.586871 0.587562 0.840276
O O2 0.153038 0.493963 0.787348
O O3 0.097427 0.300784 0.945837
O O4 0.000000 0.500000 0.000000
O O5 0.482955 0.584421 0.661182
O O6 0.513967 0.387100 0.650821
O O7 0.971837 0.662741 0.547868
O O8 0.405587 0.211189 0.797672
O O9 0.711553 0.136401 0.004212
O O10 0.500000 0.000000 0.000000
O O11 0.564162 0.193264 0.395064
O O12 0.570304 0.213451 0.590199
O O13 0.471079 0.045826 0.609126
O O14 0.996166 0.780899 0.704623
O O15 0.982889 0.093385 0.780403
O O16 0.478003 0.853178 0.809021
O O17 0.891314 0.911200 0.814779
#
# Coordination Sequence:
#
# PCOD9041648 Si02
#       8
#     2   2   2   2   2   2   2   2
#     4  10  24  46  68 102 146 184 239 296 372 437
#     4  10  24  42  70  99 138 183 233 299 351 434
#     4  11  23  43  75 104 145 190 244 305 361 436
#     4  10  23  44  66 102 137 187 233 296 354 423
#     4  11  25  43  69 103 136 186 237 290 360 431
#     4  10  23  45  66 102 142 184 242 289 364 425
#     4  11  25  46  72 106 140 188 236 300 364 427
#     4  11  26  45  74 104 144 185 243 295 364 430
#
# _framework density 26.358546
#
# number of rings (size 3 to 8) (size 9 to 14) (size 15 to 20)
#    0.000    1.500    0.000    3.375   10.500    1.500 
#    6.750    0.000    0.000    0.000    0.000    0.000 
#    0.000    0.000    0.000    0.000    0.000    0.000 
#
# Total GULP energy -89521.831846 kJ/mol
# GULP energy per Si atom -5595.114490 kJ/mol
# Density = 2.629855 g / cm^3
# Si number density = 26.358546 Si / 1000 Ang^3
#
#
#
# Elastic Constant Matrix: (Units=GPa)
#
#
# Indices 1 2 3 4 5 6 
#
# 1 47.3199 16.4555 19.2383 -3.1744 -0.6108 2.0026
# 2 16.4555 154.7667 29.0805 -13.7897 -13.0651 7.3914
# 3 19.2383 29.0805 125.6718 -16.2889 7.6506 -1.8237
# 4 -3.1744 -13.7897 -16.2889 45.4898 -2.6832 -2.5208
# 5 -0.6108 -13.0651 7.6506 -2.6832 34.9882 -1.2841
# 6 2.0026 7.3914 -1.8237 -2.5208 -1.2841 41.4339
#
#
#
# Elastic Compliance Matrix: (Units=1/GPa)
#
#
# Indices 1 2 3 4 5 6 
#
# 1 0.023081 -0.001790 -0.003168 -0.000095 0.000386 -0.000930
# 2 -0.001790 0.007389 -0.001418 0.001731 0.003131 -0.001092
# 3 -0.003168 -0.001418 0.009262 0.002575 -0.002380 0.000897
# 4 -0.000095 0.001731 0.002575 0.023610 0.001940 0.001306
# 5 0.000386 0.003131 -0.002380 0.001940 0.030440 0.000380
# 6 -0.000930 -0.001092 0.000897 0.001306 0.000380 0.024505
#
#
# Mechanical properties :
#
#
# Convention : Reuss Voigt Hill
#
# Bulk Modulus (GPa) = 37.06557 50.81190 43.93874
# Shear Modulus (GPa) = 35.70582 41.91462 38.81022
#
# Velocity S-wave (km/s) = 3.68451 3.99202 3.84134
# Velocity P-wave (km/s) = 5.67392 6.36925 6.03162
#
# Compressibility (1/GPa) = 0.02697922
#
# Stress axis : x y z
#
# Youngs Moduli (GPa) = 43.32488 135.34088 107.96851
#
# Poissons Ratio (x) = 0.24230 0.34209
# Poissons Ratio (y) = 0.07756 0.15307
# Poissons Ratio (z) = 0.13727 0.19187
#
# Static dielectric constant tensor:
#      x y z
#    x 2.080910 0.049010 -0.011820 
#    y 0.049010 2.075020 0.040300 
#    z -0.011820 0.040300 2.075100 
# 
# From -- ./inp_files/98720.got.cif
#   From: 2010.05.17/outbox.cif.g08.bks.cpg/sg2_50_cif.got.tgz:98720.got - 2010.06.03 11:33:40.
