data_PCOD9041852
_publ_section_title
;
Structure prediction by ZEFSAII (Michael W. Deem and Ramdas Pophale) SiO2 
 PCOD9041852
Probable space group: P -1
;
_chemical_formula_sum "Si O2"
_cell_formula_units_Z 12
_cell_length_a 8.963289
_cell_length_b 12.818283
_cell_length_c 9.325949
_cell_angle_alpha 32.973640
_cell_angle_beta 68.787705
_cell_angle_gamma 67.747941
_cell_volume 537.658365
_symmetry_space_group_name_H-M "P -1"
_symmetry_group_IT_number 2
_symmetry_cell_setting 'triclinic'
loop_
_space_group_symop_operation_xyz
x,y,z
-x,-y,-z
loop_
_atom_site_type_symbol
_atom_site_label
_atom_site_fract_x
_atom_site_fract_y
_atom_site_fract_z
Si Si1 0.078560 0.146498 0.700437
Si Si2 0.618509 0.858570 0.015437
Si Si3 0.574228 0.306654 0.277994
Si Si4 0.881636 0.116558 0.524613
Si Si5 0.627973 0.166773 0.120268
Si Si6 0.714430 0.584614 0.540835
O O1 0.128754 0.333213 0.547066
O O2 0.974335 0.189391 0.543603
O O3 0.245713 0.019720 0.742317
O O4 0.000000 0.000000 0.000000
O O5 0.522271 0.821227 0.948717
O O6 0.684365 0.658301 0.304302
O O7 0.500000 0.000000 0.000000
O O8 0.767253 0.968741 0.796725
O O9 0.754398 0.286577 0.301433
O O10 0.444803 0.302884 0.452036
O O11 0.500000 0.500000 0.000000
O O12 0.587537 0.160786 0.308983
O O13 0.000000 0.000000 0.500000
O O14 0.711427 0.358869 0.833292
#
# Coordination Sequence:
#
# PCOD9041852 Si02
#       6
#     2   2   2   2   2   2
#     4  12  24  43  66  98 141 175 221 284 352 401
#     4  12  22  43  70  99 132 186 233 273 338 411
#     4  10  23  44  67  98 134 181 234 272 336 416
#     4  12  24  41  69 103 138 179 224 285 354 398
#     4  11  24  43  69  97 134 180 232 281 334 409
#     4  11  24  44  69  98 132 182 235 279 330 415
#
# _framework density 22.319008
#
# number of rings (size 3 to 8) (size 9 to 14) (size 15 to 20)
#    0.000    0.667    6.667    0.500    2.333    2.000 
#    0.000    3.333    0.000    0.000    0.000    0.000 
#    0.000    0.000    0.000    0.000    0.000    0.000 
#
# Total GULP energy -67086.369398 kJ/mol
# GULP energy per Si atom -5590.530783 kJ/mol
# Density = 2.226821 g / cm^3
# Si number density = 22.319008 Si / 1000 Ang^3
#
#
#
# Elastic Constant Matrix: (Units=GPa)
#
#
# Indices 1 2 3 4 5 6 
#
# 1 161.5423 22.9853 33.1727 1.2064 27.7881 33.6044
# 2 22.9853 43.9314 -2.1314 6.4851 5.3692 2.0135
# 3 33.1727 -2.1314 77.8887 -4.3894 17.9907 4.6495
# 4 1.2064 6.4851 -4.3894 41.1391 6.8659 -2.0555
# 5 27.7881 5.3692 17.9907 6.8659 47.2849 11.8900
# 6 33.6044 2.0135 4.6495 -2.0555 11.8900 48.7161
#
#
#
# Elastic Compliance Matrix: (Units=1/GPa)
#
#
# Indices 1 2 3 4 5 6 
#
# 1 0.008886 -0.004314 -0.003049 0.000229 -0.002328 -0.005083
# 2 -0.004314 0.025715 0.002551 -0.003339 -0.001337 0.001855
# 3 -0.003049 0.002551 0.015418 0.002289 -0.005170 0.001885
# 4 0.000229 -0.003339 0.002289 0.025996 -0.004919 0.002059
# 5 -0.002328 -0.001337 -0.005170 -0.004919 0.026485 -0.004518
# 6 -0.005083 0.001855 0.001885 0.002059 -0.004518 0.024966
#
#
# Mechanical properties :
#
#
# Convention : Reuss Voigt Hill
#
# Bulk Modulus (GPa) = 24.75519 43.49063 34.12291
# Shear Modulus (GPa) = 33.21071 42.71708 37.96389
#
# Velocity S-wave (km/s) = 3.86165 4.37960 4.12875
# Velocity P-wave (km/s) = 5.56765 6.71586 6.16853
#
# Compressibility (1/GPa) = 0.04039557
#
# Stress axis : x y z
#
# Youngs Moduli (GPa) = 112.53511 38.88828 64.85984
#
# Poissons Ratio (x) = 0.16775 0.19774
# Poissons Ratio (y) = 0.48542 -0.16544
# Poissons Ratio (z) = 0.34309 -0.09919
#
# Static dielectric constant tensor:
#      x y z
#    x 1.812620 0.025430 -0.003480 
#    y 0.025430 1.793840 0.008490 
#    z -0.003480 0.008490 1.878650 
# 
# From -- ./inp_files/156434.got.cif
#   From: 2010.05.17/outbox.cif.g08.bks.cpg/sg2_79_cif.got.tgz:156434.got - 2010.06.03 11:33:40.
