data_PCOD9041344
_publ_section_title
;
Structure prediction by ZEFSAII (Michael W. Deem and Ramdas Pophale) SiO2 
 PCOD9041344
Probable space group: P -1
;
_chemical_formula_sum "Si O2"
_cell_formula_units_Z 13
_cell_length_a 7.574918
_cell_length_b 9.031322
_cell_length_c 14.654066
_cell_angle_alpha 42.057261
_cell_angle_beta 50.614983
_cell_angle_gamma 75.281671
_cell_volume 471.228056
_symmetry_space_group_name_H-M "P -1"
_symmetry_group_IT_number 2
_symmetry_cell_setting 'triclinic'
loop_
_space_group_symop_operation_xyz
x,y,z
-x,-y,-z
loop_
_atom_site_type_symbol
_atom_site_label
_atom_site_fract_x
_atom_site_fract_y
_atom_site_fract_z
Si Si1 0.839959 0.199907 0.297446
Si Si2 0.500000 0.500000 0.000000
Si Si3 0.521090 0.796135 0.277135
Si Si4 0.226676 0.964039 0.076173
Si Si5 0.686737 0.564233 0.067949
Si Si6 0.741923 0.727792 0.428916
Si Si7 0.751003 0.030632 0.597355
O O1 0.730339 0.351923 0.201611
O O2 0.781751 0.934523 0.396484
O O3 0.726687 0.161827 0.452302
O O4 0.147219 0.359252 0.119543
O O5 0.555024 0.432900 0.903697
O O6 0.541729 0.767622 0.815773
O O7 0.630544 0.778223 0.347831
O O8 0.438685 0.547511 0.360265
O O9 0.266819 0.823913 0.374728
O O10 0.742017 0.008666 0.054311
O O11 0.008282 0.744356 0.297688
O O12 0.500000 0.000000 0.000000
O O13 0.186828 0.197876 0.020763
O O14 0.000000 0.000000 0.500000
#
# Coordination Sequence:
#
# PCOD9041344 Si02
#       7
#     2   1   2   2   2   2   2
#     4  10  23  47  73 102 143 191 238 303 353 435
#     4  12  24  42  70 104 140 186 236 292 366 420
#     4  11  26  45  72 105 139 192 238 293 367 434
#     4  11  25  45  71 104 150 187 235 303 362 434
#     4  10  23  43  73 106 139 190 244 290 365 428
#     4  10  25  48  72 102 142 188 243 293 362 433
#     4  12  27  46  73 107 148 183 247 308 364 430
#
# _framework density 27.587494
#
# number of rings (size 3 to 8) (size 9 to 14) (size 15 to 20)
#    0.000    1.231    1.538    2.308    8.615    4.308 
#    2.769    0.000    0.000    0.000    0.000    0.000 
#    0.000    0.000    0.000    0.000    0.000    0.000 
#
# Total GULP energy -72446.280599 kJ/mol
# GULP energy per Si atom -5572.790815 kJ/mol
# Density = 2.752470 g / cm^3
# Si number density = 27.587494 Si / 1000 Ang^3
#
#
#
# Elastic Constant Matrix: (Units=GPa)
#
#
# Indices 1 2 3 4 5 6 
#
# 1 77.9607 5.0476 23.9952 9.9601 18.7962 -12.4382
# 2 5.0476 94.8038 26.4090 1.9448 0.3191 12.2737
# 3 23.9952 26.4090 140.7525 6.2471 8.2017 10.8675
# 4 9.9601 1.9448 6.2471 47.0191 -2.3452 -3.3078
# 5 18.7962 0.3191 8.2017 -2.3452 56.3938 5.5385
# 6 -12.4382 12.2737 10.8675 -3.3078 5.5385 30.8206
#
#
#
# Elastic Compliance Matrix: (Units=1/GPa)
#
#
# Indices 1 2 3 4 5 6 
#
# 1 0.017175 -0.001222 -0.002919 -0.002863 -0.006323 0.009276
# 2 -0.001222 0.011699 -0.001665 -0.000288 0.001041 -0.004783
# 3 -0.002919 -0.001665 0.008207 -0.000644 0.000105 -0.003497
# 4 -0.002863 -0.000288 -0.000644 0.022151 0.001850 0.001232
# 5 -0.006323 0.001041 0.000105 0.001850 0.020533 -0.006495
# 6 0.009276 -0.004783 -0.003497 0.001232 -0.006495 0.040627
#
#
# Mechanical properties :
#
#
# Convention : Reuss Voigt Hill
#
# Bulk Modulus (GPa) = 39.26611 47.15784 43.21198
# Shear Modulus (GPa) = 35.58873 44.05106 39.81990
#
# Velocity S-wave (km/s) = 3.59560 4.00030 3.80334
# Velocity P-wave (km/s) = 5.61266 6.20223 5.91479
#
# Compressibility (1/GPa) = 0.02546725
#
# Stress axis : x y z
#
# Youngs Moduli (GPa) = 58.22484 85.47991 121.84373
#
# Poissons Ratio (x) = 0.10447 0.35570
# Poissons Ratio (y) = 0.07116 0.20290
# Poissons Ratio (z) = 0.16998 0.14234
#
# Static dielectric constant tensor:
#      x y z
#    x 0.045230 -0.177200 0.726580 
#    y -0.177200 2.459850 0.014010 
#    z 0.726580 0.014010 1.953640 
# 
# From -- ./inp_files/293903.got.cif
#   From: 2010.05.17/outbox.cif.g08.bks.cpg/sg2_147_cif.got.tgz:293903.got - 2010.06.03 11:33:40.
