data_PCOD9041336
_publ_section_title
;
Structure prediction by ZEFSAII (Michael W. Deem and Ramdas Pophale) SiO2 
 PCOD9041336
Probable space group: P -1
;
_chemical_formula_sum "Si O2"
_cell_formula_units_Z 13
_cell_length_a 5.167561
_cell_length_b 9.849715
_cell_length_c 15.566733
_cell_angle_alpha 48.946573
_cell_angle_beta 58.230198
_cell_angle_gamma 76.860570
_cell_volume 499.224478
_symmetry_space_group_name_H-M "P -1"
_symmetry_group_IT_number 2
_symmetry_cell_setting 'triclinic'
loop_
_space_group_symop_operation_xyz
x,y,z
-x,-y,-z
loop_
_atom_site_type_symbol
_atom_site_label
_atom_site_fract_x
_atom_site_fract_y
_atom_site_fract_z
Si Si1 0.458814 0.469830 0.352476
Si Si2 0.668944 0.746064 0.707720
Si Si3 0.923252 0.288872 0.903344
Si Si4 0.328263 0.857172 0.479721
Si Si5 0.951848 0.007712 0.879556
Si Si6 0.500000 0.500000 0.000000
Si Si7 0.687385 0.169553 0.699768
O O1 0.398495 0.403147 0.293603
O O2 0.446517 0.287272 0.486773
O O3 0.279286 0.626342 0.351115
O O4 0.817050 0.570067 0.249731
O O5 0.531392 0.671022 0.852987
O O6 0.040341 0.813088 0.613873
O O7 0.535938 0.927620 0.628746
O O8 0.678143 0.390545 0.946324
O O9 0.799201 0.129305 0.923872
O O10 0.088326 0.194747 0.990511
O O11 0.193688 0.824337 0.420593
O O12 0.320464 0.086869 0.789054
O O13 0.834231 0.041863 0.791891
#
# Coordination Sequence:
#
# PCOD9041336 Si02
#       7
#     2   2   2   2   2   1   2
#     4  11  24  45  71 107 136 199 237 313 349 451
#     4  11  26  44  73  95 155 183 249 288 382 421
#     4  10  23  43  73 104 155 182 254 292 380 418
#     4  11  25  48  65 109 142 197 229 308 360 451
#     4  10  24  47  71 115 144 199 230 320 359 444
#     4  12  22  46  68 106 132 196 236 304 342 448
#     4  11  25  44  81 104 148 184 260 289 375 423
#
# _framework density 26.040388
#
# number of rings (size 3 to 8) (size 9 to 14) (size 15 to 20)
#    0.000    1.231    1.538    2.769    4.308    9.231 
#    5.538    0.000    0.000    0.000    0.000    0.000 
#    0.000    0.000    0.000    0.000    0.000    0.000 
#
# Total GULP energy -72661.062859 kJ/mol
# GULP energy per Si atom -5589.312528 kJ/mol
# Density = 2.598112 g / cm^3
# Si number density = 26.040388 Si / 1000 Ang^3
#
#
#
# Elastic Constant Matrix: (Units=GPa)
#
#
# Indices 1 2 3 4 5 6 
#
# 1 100.5593 11.7745 16.2203 -5.8957 25.7548 10.8051
# 2 11.7745 112.2102 -9.4833 -11.2018 -7.0887 -9.5464
# 3 16.2203 -9.4833 87.2936 -3.0813 14.2012 4.7978
# 4 -5.8957 -11.2018 -3.0813 49.8350 -1.8441 12.7673
# 5 25.7548 -7.0887 14.2012 -1.8441 34.5268 -4.0668
# 6 10.8051 -9.5464 4.7978 12.7673 -4.0668 29.5002
#
#
#
# Elastic Compliance Matrix: (Units=1/GPa)
#
#
# Indices 1 2 3 4 5 6 
#
# 1 0.014644 -0.002832 -0.000426 0.002969 -0.012253 -0.009185
# 2 -0.002832 0.010019 0.000687 0.001011 0.004452 0.004343
# 3 -0.000426 0.000687 0.012643 0.001470 -0.005017 -0.003006
# 4 0.002969 0.001011 0.001470 0.023604 -0.002716 -0.011589
# 5 -0.012253 0.004452 -0.005017 -0.002716 0.042559 0.013787
# 6 -0.009185 0.004343 -0.003006 -0.011589 0.013787 0.046073
#
#
# Mechanical properties :
#
#
# Convention : Reuss Voigt Hill
#
# Bulk Modulus (GPa) = 31.08957 37.45401 34.27179
# Shear Modulus (GPa) = 30.22907 41.54250 35.88579
#
# Velocity S-wave (km/s) = 3.41083 3.99847 3.71628
# Velocity P-wave (km/s) = 5.24181 5.97756 5.62173
#
# Compressibility (1/GPa) = 0.03216513
#
# Stress axis : x y z
#
# Youngs Moduli (GPa) = 68.28856 99.81219 79.09757
#
# Poissons Ratio (x) = 0.28263 0.03367
# Poissons Ratio (y) = 0.19337 -0.05436
# Poissons Ratio (z) = 0.02907 -0.06860
#
# Static dielectric constant tensor:
#      x y z
#    x 2.080240 -0.008130 -0.054710 
#    y -0.008130 1.992700 -0.046020 
#    z -0.054710 -0.046020 2.070020 
# 
# From -- ./inp_files/88852.got.cif
#   From: 2010.05.17/outbox.cif.g08.bks.cpg/sg2_45_cif.got.tgz:88852.got - 2010.06.03 11:33:40.
