data_PCOD9041044
_publ_section_title
;
Structure prediction by ZEFSAII (Michael W. Deem and Ramdas Pophale) SiO2 
 PCOD9041044
Probable space group: P -1
;
_chemical_formula_sum "Si O2"
_cell_formula_units_Z 16
_cell_length_a 9.404484
_cell_length_b 8.788061
_cell_length_c 15.014256
_cell_angle_alpha 40.632413
_cell_angle_beta 75.097153
_cell_angle_gamma 86.540889
_cell_volume 762.752319
_symmetry_space_group_name_H-M "P -1"
_symmetry_group_IT_number 2
_symmetry_cell_setting 'triclinic'
loop_
_space_group_symop_operation_xyz
x,y,z
-x,-y,-z
loop_
_atom_site_type_symbol
_atom_site_label
_atom_site_fract_x
_atom_site_fract_y
_atom_site_fract_z
Si Si1 0.143993 0.430649 0.381167
Si Si2 0.490091 0.137604 0.653806
Si Si3 0.355936 0.588646 0.951481
Si Si4 0.204742 0.528773 0.820799
Si Si5 0.176833 0.609865 0.498676
Si Si6 0.133400 0.704725 0.080285
Si Si7 0.347192 0.072127 0.530109
Si Si8 0.727854 0.745995 0.227459
O O1 0.175577 0.558983 0.415849
O O2 0.149486 0.617739 0.216803
O O3 0.253374 0.249940 0.421205
O O4 0.968612 0.299965 0.482984
O O5 0.667132 0.212443 0.582526
O O6 0.404518 0.211728 0.549954
O O7 0.427415 0.235149 0.709182
O O8 0.427908 0.856576 0.790144
O O9 0.261386 0.467755 0.935653
O O10 0.500000 0.500000 0.000000
O O11 0.244919 0.597646 0.046720
O O12 0.299327 0.428066 0.774736
O O13 0.034277 0.400066 0.882542
O O14 0.233731 0.815998 0.678698
O O15 0.180789 0.369846 0.661365
O O16 0.182163 0.991479 0.932824
O O17 0.500000 0.000000 0.500000
#
# Coordination Sequence:
#
# PCOD9041044 Si02
#       8
#     2   2   2   2   2   2   2   2
#     4  11  26  42  69 107 138 173 236 283 342 399
#     4  10  23  43  70  95 136 187 225 276 342 410
#     4  10  25  45  64 101 135 178 230 284 342 409
#     4  11  24  43  71  96 133 189 222 278 350 401
#     4  11  23  44  71 103 137 179 230 291 332 403
#     4  11  25  45  69  99 139 179 226 285 337 417
#     4  11  25  42  67  98 139 181 225 280 343 409
#     4  11  22  44  73 100 134 183 235 269 348 409
#
# _framework density 20.976666000000002
#
# number of rings (size 3 to 8) (size 9 to 14) (size 15 to 20)
#    0.000    1.250    2.500    1.875    5.250    2.500 
#    2.250    2.500    0.000    0.000    0.000    0.000 
#    0.000    0.000    0.000    0.000    0.000    0.000 
#
# Total GULP energy -89346.737202 kJ/mol
# GULP energy per Si atom -5584.171075 kJ/mol
# Density = 2.092892 g / cm^3
# Si number density = 20.976666 Si / 1000 Ang^3
#
#
#
# Elastic Constant Matrix: (Units=GPa)
#
#
# Indices 1 2 3 4 5 6 
#
# 1 89.3543 31.6321 35.1097 10.3823 2.1813 -20.9068
# 2 31.6321 93.6647 47.9916 17.4640 6.8799 6.3986
# 3 35.1097 47.9916 87.6369 27.8631 0.9649 1.1543
# 4 10.3823 17.4640 27.8631 24.4966 10.5680 5.7445
# 5 2.1813 6.8799 0.9649 10.5680 35.8374 2.9668
# 6 -20.9068 6.3986 1.1543 5.7445 2.9668 27.1600
#
#
#
# Elastic Compliance Matrix: (Units=1/GPa)
#
#
# Indices 1 2 3 4 5 6 
#
# 1 0.018720 -0.004701 -0.003915 -0.003850 -0.000365 0.016538
# 2 -0.004701 0.016514 -0.007547 0.001605 -0.002554 -0.007249
# 3 -0.003915 -0.007547 0.025177 -0.025750 0.008419 0.002221
# 4 -0.003850 0.001605 -0.025750 0.084601 -0.022868 -0.017643
# 5 -0.000365 -0.002554 0.008419 -0.022868 0.034851 0.000992
# 6 0.016538 -0.007249 0.002221 -0.017643 0.000992 0.054786
#
#
# Mechanical properties :
#
#
# Convention : Reuss Voigt Hill
#
# Bulk Modulus (GPa) = 35.60593 55.56918 45.58756
# Shear Modulus (GPa) = 18.09392 27.89364 22.99378
#
# Velocity S-wave (km/s) = 2.94015 3.65052 3.31442
# Velocity P-wave (km/s) = 5.34199 6.65709 6.03547
#
# Compressibility (1/GPa) = 0.02808521
#
# Stress axis : x y z
#
# Youngs Moduli (GPa) = 53.41990 60.55289 39.71888
#
# Poissons Ratio (x) = 0.28467 0.15549
# Poissons Ratio (y) = 0.25113 0.29975
# Poissons Ratio (z) = 0.20913 0.45699
#
# Static dielectric constant tensor:
#      x y z
#    x 1.731720 -0.006570 -0.024870 
#    y -0.006570 1.778040 0.047570 
#    z -0.024870 0.047570 1.734680 
# 
# From -- ./inp_files/494261.got.cif
#   From: 2010.05.17/outbox.cif.g08.bks.cpg/sg2_248_cif.got.tgz:494261.got - 2010.06.03 11:33:40.
