data_PCOD9041149
_publ_section_title
;
Structure prediction by ZEFSAII (Michael W. Deem and Ramdas Pophale) SiO2 
 PCOD9041149
Probable space group: P -1
;
_chemical_formula_sum "Si O2"
_cell_formula_units_Z 14
_cell_length_a 8.938489
_cell_length_b 5.156696
_cell_length_c 17.755870
_cell_angle_alpha 114.590231
_cell_angle_beta 121.361222
_cell_angle_gamma 52.027203
_cell_volume 545.287586
_symmetry_space_group_name_H-M "P -1"
_symmetry_group_IT_number 2
_symmetry_cell_setting 'triclinic'
loop_
_space_group_symop_operation_xyz
x,y,z
-x,-y,-z
loop_
_atom_site_type_symbol
_atom_site_label
_atom_site_fract_x
_atom_site_fract_y
_atom_site_fract_z
Si Si1 0.153361 0.500627 0.478424
Si Si2 0.170353 0.611011 0.231504
Si Si3 0.256110 0.701659 0.961877
Si Si4 0.365278 0.051819 0.344435
Si Si5 0.730828 0.884385 0.181995
Si Si6 0.738286 0.015499 0.370767
Si Si7 0.724944 0.678156 0.938153
O O1 0.286209 0.182605 0.423416
O O2 0.288293 0.642167 0.564810
O O3 0.000000 0.500000 0.500000
O O4 0.981869 0.772287 0.409608
O O5 0.251881 0.355458 0.291636
O O6 0.195283 0.421594 0.137344
O O7 0.934063 0.890535 0.217138
O O8 0.304812 0.781251 0.277874
O O9 0.200462 0.499773 0.863991
O O10 0.500000 0.500000 0.000000
O O11 0.207886 0.623323 0.023207
O O12 0.202237 0.075732 0.982483
O O13 0.601799 0.930021 0.378103
O O14 0.676848 0.991206 0.267084
O O15 0.523702 0.116315 0.109327
#
# Coordination Sequence:
#
# PCOD9041149 Si02
#       7
#     2   2   2   2   2   2   2
#     4  11  26  47  74 107 141 179 242 286 353 422
#     4  12  27  43  73 107 138 187 240 287 342 429
#     4  10  23  43  71 103 139 187 233 292 349 415
#     4  12  27  47  71 106 144 183 236 286 353 414
#     4  11  23  45  73 101 142 188 236 287 355 410
#     4  11  25  47  73 102 142 189 227 294 350 418
#     4  11  24  46  70 102 145 181 239 289 352 410
#
# _framework density 25.674524000000002
#
# number of rings (size 3 to 8) (size 9 to 14) (size 15 to 20)
#    0.000    0.857    2.857    3.857    6.000    6.286 
#    2.571    0.000    0.000    0.000    0.000    0.000 
#    0.000    0.000    0.000    0.000    0.000    0.000 
#
# Total GULP energy -78476.652573 kJ/mol
# GULP energy per Si atom -5605.475184 kJ/mol
# Density = 2.561609 g / cm^3
# Si number density = 25.674524 Si / 1000 Ang^3
#
#
#
# Elastic Constant Matrix: (Units=GPa)
#
#
# Indices 1 2 3 4 5 6 
#
# 1 151.1619 28.8030 43.6255 2.6266 6.3798 -9.2010
# 2 28.8030 62.8579 22.9524 -14.9879 3.7844 5.1820
# 3 43.6255 22.9524 138.2643 14.7824 -4.0845 6.8778
# 4 2.6266 -14.9879 14.7824 44.5525 -5.9476 0.3324
# 5 6.3798 3.7844 -4.0845 -5.9476 58.1224 2.6819
# 6 -9.2010 5.1820 6.8778 0.3324 2.6819 57.9319
#
#
#
# Elastic Compliance Matrix: (Units=1/GPa)
#
#
# Indices 1 2 3 4 5 6 
#
# 1 0.007986 -0.003282 -0.001983 -0.001064 -0.000996 0.001850
# 2 -0.003282 0.020715 -0.003187 0.008198 -0.000280 -0.002030
# 3 -0.001983 -0.003187 0.008868 -0.003795 0.000711 -0.001094
# 4 -0.001064 0.008198 -0.003795 0.026809 0.002092 -0.000702
# 5 -0.000996 -0.000280 0.000711 0.002092 0.017645 -0.001046
# 6 0.001850 -0.002030 -0.001094 -0.000702 -0.001046 0.017919
#
#
# Mechanical properties :
#
#
# Convention : Reuss Voigt Hill
#
# Bulk Modulus (GPa) = 48.38693 60.33842 54.36267
# Shear Modulus (GPa) = 40.40893 49.24825 44.82859
#
# Velocity S-wave (km/s) = 3.97153 4.38445 4.18309
# Velocity P-wave (km/s) = 6.31807 7.01309 6.67463
#
# Compressibility (1/GPa) = 0.02066674
#
# Stress axis : x y z
#
# Youngs Moduli (GPa) = 125.21862 48.27376 112.76094
#
# Poissons Ratio (x) = 0.15841 0.22358
# Poissons Ratio (y) = 0.41091 0.35939
# Poissons Ratio (z) = 0.24828 0.15386
#
# Static dielectric constant tensor:
#      x y z
#    x 1.997930 -0.007110 -0.006080 
#    y -0.007110 2.093320 -0.053840 
#    z -0.006080 -0.053840 1.994630 
# 
# From -- ./inp_files/553867.got.cif
#   From: 2010.05.17/outbox.cif.g08.bks.cpg/sg2_277_cif.got.tgz:553867.got - 2010.06.03 11:33:40.
