data_PCOD9041874
_publ_section_title
;
Structure prediction by ZEFSAII (Michael W. Deem and Ramdas Pophale) SiO2 
 PCOD9041874
Probable space group: P -1
;
_chemical_formula_sum "Si O2"
_cell_formula_units_Z 14
_cell_length_a 17.246691
_cell_length_b 8.675039
_cell_length_c 9.313619
_cell_angle_alpha 70.004099
_cell_angle_beta 148.423923
_cell_angle_gamma 117.986443
_cell_volume 639.272768
_symmetry_space_group_name_H-M "P -1"
_symmetry_group_IT_number 2
_symmetry_cell_setting 'triclinic'
loop_
_space_group_symop_operation_xyz
x,y,z
-x,-y,-z
loop_
_atom_site_type_symbol
_atom_site_label
_atom_site_fract_x
_atom_site_fract_y
_atom_site_fract_z
Si Si1 0.668761 0.981321 0.642490
Si Si2 0.504269 0.432667 0.868060
Si Si3 0.611408 0.305412 0.570978
Si Si4 0.967387 0.069469 0.272405
Si Si5 0.210016 0.689565 0.688861
Si Si6 0.937322 0.417901 0.197412
Si Si7 0.247106 0.049651 0.532848
O O1 0.505547 0.815266 0.453840
O O2 0.753878 0.973546 0.631760
O O3 0.630765 0.159711 0.538754
O O4 0.785230 0.985408 0.958156
O O5 0.466791 0.568112 0.661536
O O6 0.371151 0.240477 0.704538
O O7 0.500000 0.500000 0.000000
O O8 0.670813 0.414320 0.099978
O O9 0.785324 0.416403 0.869760
O O10 0.080204 0.030987 0.346238
O O11 0.002608 0.277960 0.273242
O O12 0.000000 0.000000 0.500000
O O13 0.128144 0.660378 0.724236
O O14 0.073156 0.604364 0.381357
O O15 0.294599 0.894459 0.726082
#
# Coordination Sequence:
#
# PCOD9041874 Si02
#       7
#     2   2   2   2   2   2   2
#     4  10  24  43  72 100 138 182 227 283 339 407
#     4  12  27  43  69 102 137 182 225 286 343 411
#     4  10  24  46  69  97 144 179 230 272 353 405
#     4  11  23  42  69 101 137 179 227 282 346 406
#     4  11  24  42  69  98 141 174 237 277 341 399
#     4  10  23  44  68 100 130 191 220 286 338 411
#     4  12  25  43  67 104 137 178 232 287 337 407
#
# _framework density 21.899887
#
# number of rings (size 3 to 8) (size 9 to 14) (size 15 to 20)
#    0.000    1.143    1.429    3.429    4.000    5.714 
#    0.000    3.571    0.000    0.000    0.000    0.000 
#    0.000    0.000    0.000    0.000    0.000    0.000 
#
# Total GULP energy -78383.655617 kJ/mol
# GULP energy per Si atom -5598.832544 kJ/mol
# Density = 2.185004 g / cm^3
# Si number density = 21.899887 Si / 1000 Ang^3
#
#
#
# Elastic Constant Matrix: (Units=GPa)
#
#
# Indices 1 2 3 4 5 6 
#
# 1 106.6882 27.0502 27.2249 -18.5116 12.7449 -20.5579
# 2 27.0502 111.5778 52.4322 -9.0051 3.8296 -2.3811
# 3 27.2249 52.4322 85.4934 -11.7854 17.1726 -13.8898
# 4 -18.5116 -9.0051 -11.7854 21.4242 -0.7707 9.2323
# 5 12.7449 3.8296 17.1726 -0.7707 28.9448 -1.0455
# 6 -20.5579 -2.3811 -13.8898 9.2323 -1.0455 22.0332
#
#
#
# Elastic Compliance Matrix: (Units=1/GPa)
#
#
# Indices 1 2 3 4 5 6 
#
# 1 0.013580 -0.002881 0.001136 0.006619 -0.005734 0.010030
# 2 -0.002881 0.014014 -0.009707 0.001563 0.004936 -0.007713
# 3 0.001136 -0.009707 0.022070 0.003489 -0.011787 0.011903
# 4 0.006619 0.001563 0.003489 0.062513 -0.004172 -0.017847
# 5 -0.005734 0.004936 -0.011787 -0.004172 0.042997 -0.008459
# 6 0.010030 -0.007713 0.011903 -0.017847 -0.008459 0.068491
#
#
# Mechanical properties :
#
#
# Convention : Reuss Voigt Hill
#
# Bulk Modulus (GPa) = 37.36682 57.46379 47.41530
# Shear Modulus (GPa) = 19.57033 27.61723 23.59378
#
# Velocity S-wave (km/s) = 2.99260 3.55500 3.28586
# Velocity P-wave (km/s) = 5.38892 6.56864 6.00781
#
# Compressibility (1/GPa) = 0.02676171
#
# Stress axis : x y z
#
# Youngs Moduli (GPa) = 73.63886 71.35620 45.30951
#
# Poissons Ratio (x) = 0.20558 -0.05148
# Poissons Ratio (y) = 0.21216 0.43980
# Poissons Ratio (z) = -0.08367 0.69262
#
# Static dielectric constant tensor:
#      x y z
#    x 1.780230 -0.006880 0.001280 
#    y -0.006880 1.763900 0.011220 
#    z 0.001280 0.011220 1.795080 
# 
# From -- ./inp_files/155779.got.cif
#   From: 2010.05.17/outbox.cif.g08.bks.cpg/sg2_78_cif.got.tgz:155779.got - 2010.06.03 11:33:40.
