data_PCOD9041295
_publ_section_title
;
Structure prediction by ZEFSAII (Michael W. Deem and Ramdas Pophale) SiO2 
 PCOD9041295
Probable space group: P -1
;
_chemical_formula_sum "Si O2"
_cell_formula_units_Z 12
_cell_length_a 9.225134
_cell_length_b 9.494015
_cell_length_c 14.855842
_cell_angle_alpha 59.702825
_cell_angle_beta 32.092536
_cell_angle_gamma 72.732980
_cell_volume 572.171023
_symmetry_space_group_name_H-M "P -1"
_symmetry_group_IT_number 2
_symmetry_cell_setting 'triclinic'
loop_
_space_group_symop_operation_xyz
x,y,z
-x,-y,-z
loop_
_atom_site_type_symbol
_atom_site_label
_atom_site_fract_x
_atom_site_fract_y
_atom_site_fract_z
Si Si1 0.691100 0.810595 0.001688
Si Si2 0.062440 0.793117 0.305577
Si Si3 0.331674 0.125644 0.362257
Si Si4 0.916396 0.752626 0.709498
Si Si5 0.171731 0.441090 0.661335
Si Si6 0.966721 0.171444 0.009351
O O1 0.805650 0.742916 0.873200
O O2 0.815009 0.016573 0.861716
O O3 0.349812 0.752287 0.199098
O O4 0.814490 0.767854 0.043890
O O5 0.857225 0.803145 0.492295
O O6 0.887268 0.664057 0.365957
O O7 0.323373 0.219325 0.241356
O O8 0.647850 0.141791 0.222659
O O9 0.170966 0.925303 0.504326
O O10 0.034769 0.595915 0.676003
O O11 0.500000 0.500000 0.500000
O O12 0.016003 0.313362 0.861924
O O13 0.000000 0.000000 0.000000
#
# Coordination Sequence:
#
# PCOD9041295 Si02
#       6
#     2   2   2   2   2   2
#     4  10  23  43  72  98 132 180 227 272 327 407
#     4  10  23  44  70 100 134 178 225 272 335 398
#     4  10  24  44  74  96 131 182 227 273 328 406
#     4  10  24  44  68 100 137 175 225 274 340 393
#     4  12  27  44  68 102 142 172 221 285 339 389
#     4  12  25  43  71  99 135 178 229 273 334 398
#
# _framework density 20.972750999999999
#
# number of rings (size 3 to 8) (size 9 to 14) (size 15 to 20)
#    0.000    1.333    1.667    2.000   11.667    5.333 
#    0.000    0.000    0.000    0.000    0.000    0.000 
#    0.000    0.000    0.000    0.000    0.000    0.000 
#
# Total GULP energy -67142.910436 kJ/mol
# GULP energy per Si atom -5595.242536 kJ/mol
# Density = 2.092502 g / cm^3
# Si number density = 20.972751 Si / 1000 Ang^3
#
#
#
# Elastic Constant Matrix: (Units=GPa)
#
#
# Indices 1 2 3 4 5 6 
#
# 1 110.1819 19.8925 19.0211 -4.9929 -4.3484 18.3481
# 2 19.8925 76.6310 14.4404 -1.4284 6.7509 17.4645
# 3 19.0211 14.4404 72.7203 7.3277 -17.8953 5.2139
# 4 -4.9929 -1.4284 7.3277 9.7866 -3.5526 -0.7151
# 5 -4.3484 6.7509 -17.8953 -3.5526 43.7047 -1.9061
# 6 18.3481 17.4645 5.2139 -0.7151 -1.9061 31.4541
#
#
#
# Elastic Compliance Matrix: (Units=1/GPa)
#
#
# Indices 1 2 3 4 5 6 
#
# 1 0.010981 -0.001019 -0.002945 0.007435 0.000424 -0.005157
# 2 -0.001019 0.016261 -0.003688 0.002478 -0.004272 -0.008025
# 3 -0.002945 -0.003688 0.018162 -0.013151 0.006682 0.000861
# 4 0.007435 0.002478 -0.013151 0.117781 0.004521 -0.000581
# 5 0.000424 -0.004272 0.006682 0.004521 0.026806 0.002744
# 6 -0.005157 -0.008025 0.000861 -0.000581 0.002744 0.039267
#
#
# Mechanical properties :
#
#
# Convention : Reuss Voigt Hill
#
# Bulk Modulus (GPa) = 33.22377 40.69348 36.95863
# Shear Modulus (GPa) = 19.63920 30.73437 25.18679
#
# Velocity S-wave (km/s) = 3.06341 3.83226 3.46920
# Velocity P-wave (km/s) = 5.32808 6.24714 5.80583
#
# Compressibility (1/GPa) = 0.03009893
#
# Stress axis : x y z
#
# Youngs Moduli (GPa) = 91.06916 61.49872 55.06109
#
# Poissons Ratio (x) = 0.06266 0.16216
# Poissons Ratio (y) = 0.09280 0.20306
# Poissons Ratio (z) = 0.26821 0.22680
#
# Static dielectric constant tensor:
#      x y z
#    x 1.734630 0.004680 -0.005920 
#    y 0.004680 1.754670 -0.017700 
#    z -0.005920 -0.017700 1.749500 
# 
# From -- ./inp_files/144744.got.cif
#   From: 2010.05.17/outbox.cif.g08.bks.cpg/sg2_73_cif.got.tgz:144744.got - 2010.06.03 11:33:40.
